MODEL 1
REMARK VINA RESULT:    -7.956      0.000      0.000
REMARK INTER + INTRA:         -30.711
REMARK INTER:                 -23.770
REMARK INTRA:                  -6.942
REMARK UNBOUND:                -6.942
REMARK SMILES C=C1C(=O)N[C@H](C)C(=O)N[C@@H](CC(C)C)C(=O)N[C@@H](C(=O)O)[C@H](C)C(=O)N[C@@H](CCCN=C(N)N)C(=O)N[C@@H](/C=C/C(C)=C/[C@H](C)[C@H](Cc2ccccc2)OC)[C@H](C)C(=O)N[C@@H](C(=O)O)CCC(=O)N1C
REMARK SMILES IDX 39 1 38 2 37 3 36 4 28 6 27 7 25 8 26 9 23 11 24 12 19 13
REMARK SMILES IDX 18 14 16 15 17 16 11 18 10 19 8 20 9 21 12 24 13 25 14 26
REMARK SMILES IDX 15 27 20 28 21 29 22 30 29 32 30 33 31 34 32 35 33 36 34 37
REMARK SMILES IDX 35 38 57 43 58 44 59 45 60 46 61 47 62 49 66 50 67 51 68 52
REMARK SMILES IDX 69 53 70 54 71 55 2 56 1 57 3 58 4 59 5 60 6 62 7 63 63 65
REMARK SMILES IDX 64 66 65 67 40 69 41 70 42 71 44 72 43 73 45 74 46 75 47 76
REMARK SMILES IDX 55 77 56 78 48 79 49 80 50 81 54 82 51 83 53 84 52 85
REMARK H PARENT 38 5 27 10 18 17 10 22 22 31 34 39 34 40 35 41 35 42 61 48
REMARK H PARENT 5 61 65 68
REMARK Flexibility Score:  369.900
ROOT
ATOM      1  C   UNL     1      -2.478  -5.889  -2.232  1.00  0.00     0.117 C 
ENDROOT
BRANCH   1   2
ATOM      2  N   UNL     1      -1.381  -5.126  -2.828  1.00  0.00    -0.347 N 
ATOM      3  O   UNL     1      -0.302  -4.558  -0.883  1.00  0.00    -0.273 OA
ATOM      4  C   UNL     1      -0.326  -4.597  -2.108  1.00  0.00     0.243 C 
ATOM      5  H   UNL     1      -1.347  -5.009  -3.829  1.00  0.00     0.164 HD
BRANCH   4   6
ATOM      6  C   UNL     1       0.746  -3.908  -2.990  1.00  0.00     0.171 C 
BRANCH   6   7
ATOM      7  N   UNL     1       1.295  -4.860  -3.969  1.00  0.00    -0.344 N 
ATOM      8  C   UNL     1       2.422  -5.597  -3.677  1.00  0.00     0.226 C 
ATOM      9  O   UNL     1       3.028  -5.485  -2.618  1.00  0.00    -0.275 OA
ATOM     10  H   UNL     1       0.862  -4.930  -4.881  1.00  0.00     0.164 HD
BRANCH   8  11
ATOM     11  C   UNL     1       2.832  -6.572  -4.767  1.00  0.00     0.109 C 
ATOM     12  C   UNL     1       2.615  -8.010  -4.294  1.00  0.00     0.021 C 
BRANCH  11  13
ATOM     13  C   UNL     1       2.120  -6.210  -6.085  1.00  0.00     0.204 C 
BRANCH  13  14
ATOM     14  N   UNL     1       2.998  -6.370  -7.248  1.00  0.00    -0.340 N 
ATOM     15  C   UNL     1       3.080  -5.436  -8.259  1.00  0.00     0.243 C 
ATOM     16  O   UNL     1       2.465  -4.372  -8.225  1.00  0.00    -0.273 OA
ATOM     17  H   UNL     1       3.416  -7.290  -7.412  1.00  0.00     0.164 HD
BRANCH  15  18
ATOM     18  C   UNL     1       3.909  -5.913  -9.476  1.00  0.00     0.171 C 
BRANCH  18  19
ATOM     19  N   UNL     1       5.243  -5.333  -9.328  1.00  0.00    -0.343 N 
ATOM     20  C   UNL     1       5.984  -4.922 -10.419  1.00  0.00     0.242 CG0
ATOM     21  O   UNL     1       5.614  -5.145 -11.569  1.00  0.00    -0.273 OA
ATOM     22  H   UNL     1       5.641  -5.234  -8.401  1.00  0.00     0.164 HD
ATOM     23  G   UNL     1       7.332  -4.263 -10.060  1.00  0.00     0.000 G0
ENDBRANCH  18  19
BRANCH  18  24
ATOM     24  C   UNL     1       3.965  -7.445  -9.527  1.00  0.00     0.038 C 
BRANCH  24  25
ATOM     25  C   UNL     1       3.050  -8.088 -10.590  1.00  0.00    -0.015 C 
ATOM     26  C   UNL     1       2.580  -9.487 -10.189  1.00  0.00     0.007 C 
ATOM     27  C   UNL     1       3.786  -8.157 -11.930  1.00  0.00     0.007 C 
ENDBRANCH  24  25
ENDBRANCH  18  24
ENDBRANCH  15  18
ENDBRANCH  13  14
BRANCH  13  28
ATOM     28  C   UNL     1       0.866  -7.050  -6.345  1.00  0.00     0.327 C 
ATOM     29  O   UNL     1      -0.170  -7.021  -5.698  1.00  0.00    -0.250 OA
BRANCH  28  30
ATOM     30  O   UNL     1       1.032  -7.958  -7.328  1.00  0.00    -0.480 OA
ATOM     31  H   UNL     1       0.495  -7.611  -8.070  1.00  0.00     0.296 HD
ENDBRANCH  28  30
ENDBRANCH  13  28
ENDBRANCH  11  13
ENDBRANCH   8  11
ENDBRANCH   6   7
BRANCH   6  32
ATOM     32  C   UNL     1       0.119  -2.699  -3.694  1.00  0.00     0.037 C 
BRANCH  32  33
ATOM     33  C   UNL     1       0.394  -1.387  -2.946  1.00  0.00     0.026 C 
BRANCH  33  34
ATOM     34  C   UNL     1      -0.887  -0.720  -2.443  1.00  0.00     0.146 C 
BRANCH  34  35
ATOM     35  N   UNL     1      -1.229  -1.282  -1.144  1.00  0.00    -0.254 NA
ATOM     36  C   UNL     1      -2.330  -1.925  -1.023  1.00  0.00     0.185 C 
ATOM     37  N   UNL     1      -2.653  -2.450   0.169  1.00  0.00    -0.370 N 
ATOM     38  N   UNL     1      -3.269  -2.174  -1.953  1.00  0.00    -0.370 N 
ATOM     39  H   UNL     1      -1.989  -2.314   0.920  1.00  0.00     0.159 HD
ATOM     40  H   UNL     1      -3.402  -3.108   0.302  1.00  0.00     0.159 HD
ATOM     41  H   UNL     1      -4.159  -2.572  -1.701  1.00  0.00     0.159 HD
ATOM     42  H   UNL     1      -3.166  -1.824  -2.893  1.00  0.00     0.159 HD
ENDBRANCH  34  35
ENDBRANCH  33  34
ENDBRANCH  32  33
ENDBRANCH   6  32
ENDBRANCH   4   6
ENDBRANCH   1   2
BRANCH   1  43
ATOM     43  C   UNL     1      -1.910  -7.236  -1.697  1.00  0.00     0.102 C 
ATOM     44  C   UNL     1      -2.278  -8.446  -2.574  1.00  0.00     0.020 C 
BRANCH  43  45
ATOM     45  C   UNL     1      -2.239  -7.422  -0.213  1.00  0.00     0.225 C 
ATOM     46  O   UNL     1      -2.301  -8.522   0.328  1.00  0.00    -0.275 OA
ATOM     47  N   UNL     1      -2.559  -6.271   0.471  1.00  0.00    -0.342 N 
ATOM     48  H   UNL     1      -2.357  -5.371   0.058  1.00  0.00     0.164 HD
BRANCH  47  49
ATOM     49  C   UNL     1      -2.860  -6.291   1.906  1.00  0.00     0.192 C 
BRANCH  49  50
ATOM     50  C   UNL     1      -4.369  -6.136   2.116  1.00  0.00     0.047 C 
BRANCH  50  51
ATOM     51  C   UNL     1      -4.937  -7.202   3.063  1.00  0.00     0.103 C 
BRANCH  51  52
ATOM     52  C   UNL     1      -6.433  -7.421   2.847  1.00  0.00     0.226 C 
ATOM     53  O   UNL     1      -7.061  -6.661   2.107  1.00  0.00    -0.275 OA
BRANCH  52  54
ATOM     54  N   UNL     1      -6.997  -8.551   3.467  1.00  0.00    -0.311 N 
ATOM     55  C   UNL     1      -6.436  -9.891   3.250  1.00  0.00     0.153 C 
BRANCH  54  56
ATOM     56  C   UNL     1      -8.109  -8.442   4.318  1.00  0.00     0.102 C 
ATOM     57  C   UNL     1      -9.349  -8.865   4.021  1.00  0.00     0.043 C 
BRANCH  56  58
ATOM     58  C   UNL     1      -7.971  -7.856   5.704  1.00  0.00     0.268 C 
ATOM     59  O   UNL     1      -7.128  -7.017   5.995  1.00  0.00    -0.268 OA
ATOM     60  N   UNL     1      -8.926  -8.311   6.581  1.00  0.00    -0.339 N 
ATOM     61  H   UNL     1      -9.583  -9.014   6.264  1.00  0.00     0.164 HD
BRANCH  60  62
ATOM     62  C   UNL     1      -9.014  -7.825   7.957  1.00  0.00     0.168 CG0
ATOM     63  C   UNL     1      -8.225  -8.721   8.904  1.00  0.00     0.041 C 
ATOM     64  G   UNL     1     -10.494  -7.749   8.385  1.00  0.00     0.000 G0
ENDBRANCH  60  62
ENDBRANCH  56  58
ENDBRANCH  54  56
ENDBRANCH  52  54
ENDBRANCH  51  52
ENDBRANCH  50  51
ENDBRANCH  49  50
BRANCH  49  65
ATOM     65  C   UNL     1      -2.123  -5.171   2.655  1.00  0.00     0.326 C 
ATOM     66  O   UNL     1      -2.273  -4.887   3.835  1.00  0.00    -0.250 OA
BRANCH  65  67
ATOM     67  O   UNL     1      -1.293  -4.430   1.888  1.00  0.00    -0.480 OA
ATOM     68  H   UNL     1      -1.852  -4.174   1.123  1.00  0.00     0.296 HD
ENDBRANCH  65  67
ENDBRANCH  49  65
ENDBRANCH  47  49
ENDBRANCH  43  45
ENDBRANCH   1  43
BRANCH   1  69
ATOM     69  C   UNL     1      -3.585  -5.920  -3.269  1.00  0.00    -0.001 C 
ATOM     70  C   UNL     1      -3.453  -5.908  -4.607  1.00  0.00     0.001 C 
BRANCH  70  71
ATOM     71  C   UNL     1      -4.529  -5.959  -5.598  1.00  0.00    -0.055 C 
ATOM     72  C   UNL     1      -4.522  -6.980  -6.480  1.00  0.00    -0.018 C 
ATOM     73  C   UNL     1      -5.573  -4.874  -5.558  1.00  0.00     0.044 C 
BRANCH  72  74
ATOM     74  C   UNL     1      -5.500  -7.289  -7.605  1.00  0.00     0.038 C 
ATOM     75  C   UNL     1      -5.541  -8.814  -7.763  1.00  0.00     0.015 C 
BRANCH  74  76
ATOM     76  C   UNL     1      -5.059  -6.511  -8.880  1.00  0.00     0.128 C 
BRANCH  76  77
ATOM     77  O   UNL     1      -5.823  -5.300  -9.004  1.00  0.00    -0.381 OA
ATOM     78  C   UNL     1      -6.766  -5.326 -10.066  1.00  0.00     0.195 C 
ENDBRANCH  76  77
BRANCH  76  79
ATOM     79  C   UNL     1      -3.532  -6.270  -8.973  1.00  0.00     0.068 C 
BRANCH  79  80
ATOM     80  C   UNL     1      -2.735  -7.139  -9.916  1.00  0.00    -0.045 A 
ATOM     81  C   UNL     1      -1.356  -6.953 -10.078  1.00  0.00     0.004 A 
ATOM     82  C   UNL     1      -3.374  -8.134 -10.672  1.00  0.00     0.004 A 
ATOM     83  C   UNL     1      -0.628  -7.751 -10.963  1.00  0.00     0.000 A 
ATOM     84  C   UNL     1      -2.645  -8.931 -11.557  1.00  0.00     0.000 A 
ATOM     85  C   UNL     1      -1.273  -8.741 -11.701  1.00  0.00     0.000 A 
ENDBRANCH  79  80
ENDBRANCH  76  79
ENDBRANCH  74  76
ENDBRANCH  72  74
ENDBRANCH  70  71
ENDBRANCH   1  69
TORSDOF 17
ENDMDL
MODEL 2
REMARK VINA RESULT:    -7.652      1.377      2.451
REMARK INTER + INTRA:         -29.803
REMARK INTER:                 -23.294
REMARK INTRA:                  -6.509
REMARK UNBOUND:                -6.942
REMARK SMILES C=C1C(=O)N[C@H](C)C(=O)N[C@@H](CC(C)C)C(=O)N[C@@H](C(=O)O)[C@H](C)C(=O)N[C@@H](CCCN=C(N)N)C(=O)N[C@@H](/C=C/C(C)=C/[C@H](C)[C@H](Cc2ccccc2)OC)[C@H](C)C(=O)N[C@@H](C(=O)O)CCC(=O)N1C
REMARK SMILES IDX 39 1 38 2 37 3 36 4 28 6 27 7 25 8 26 9 23 11 24 12 19 13
REMARK SMILES IDX 18 14 16 15 17 16 11 18 10 19 8 20 9 21 12 24 13 25 14 26
REMARK SMILES IDX 15 27 20 28 21 29 22 30 29 32 30 33 31 34 32 35 33 36 34 37
REMARK SMILES IDX 35 38 57 43 58 44 59 45 60 46 61 47 62 49 66 50 67 51 68 52
REMARK SMILES IDX 69 53 70 54 71 55 2 56 1 57 3 58 4 59 5 60 6 62 7 63 63 65
REMARK SMILES IDX 64 66 65 67 40 69 41 70 42 71 44 72 43 73 45 74 46 75 47 76
REMARK SMILES IDX 55 77 56 78 48 79 49 80 50 81 54 82 51 83 53 84 52 85
REMARK H PARENT 38 5 27 10 18 17 10 22 22 31 34 39 34 40 35 41 35 42 61 48
REMARK H PARENT 5 61 65 68
REMARK Flexibility Score:  369.900
ROOT
ATOM      1  C   UNL     1      -2.506  -5.940  -2.110  1.00  0.00     0.117 C 
ENDROOT
BRANCH   1   2
ATOM      2  N   UNL     1      -1.352  -5.199  -2.620  1.00  0.00    -0.347 N 
ATOM      3  O   UNL     1      -0.623  -4.337  -0.621  1.00  0.00    -0.273 OA
ATOM      4  C   UNL     1      -0.447  -4.529  -1.820  1.00  0.00     0.243 C 
ATOM      5  H   UNL     1      -1.158  -5.206  -3.610  1.00  0.00     0.164 HD
BRANCH   4   6
ATOM      6  C   UNL     1       0.733  -3.900  -2.604  1.00  0.00     0.171 C 
BRANCH   6   7
ATOM      7  N   UNL     1       1.242  -4.843  -3.611  1.00  0.00    -0.344 N 
ATOM      8  C   UNL     1       2.491  -5.410  -3.475  1.00  0.00     0.226 C 
ATOM      9  O   UNL     1       3.237  -5.147  -2.539  1.00  0.00    -0.275 OA
ATOM     10  H   UNL     1       0.682  -5.033  -4.433  1.00  0.00     0.164 HD
BRANCH   8  11
ATOM     11  C   UNL     1       2.849  -6.403  -4.567  1.00  0.00     0.109 C 
ATOM     12  C   UNL     1       2.691  -7.833  -4.050  1.00  0.00     0.021 C 
BRANCH  11  13
ATOM     13  C   UNL     1       2.050  -6.084  -5.845  1.00  0.00     0.204 C 
BRANCH  13  14
ATOM     14  N   UNL     1       2.856  -6.257  -7.058  1.00  0.00    -0.340 N 
ATOM     15  C   UNL     1       3.050  -5.249  -7.977  1.00  0.00     0.243 C 
ATOM     16  O   UNL     1       2.610  -4.113  -7.814  1.00  0.00    -0.273 OA
ATOM     17  H   UNL     1       3.120  -7.209  -7.327  1.00  0.00     0.164 HD
BRANCH  15  18
ATOM     18  C   UNL     1       3.757  -5.721  -9.272  1.00  0.00     0.171 C 
BRANCH  18  19
ATOM     19  N   UNL     1       5.187  -5.498  -9.073  1.00  0.00    -0.343 N 
ATOM     20  C   UNL     1       5.986  -4.960 -10.064  1.00  0.00     0.242 CG0
ATOM     21  O   UNL     1       5.559  -4.767 -11.200  1.00  0.00    -0.273 OA
ATOM     22  H   UNL     1       5.612  -5.750  -8.188  1.00  0.00     0.164 HD
ATOM     23  G   UNL     1       7.451  -4.725  -9.644  1.00  0.00     0.000 G0
ENDBRANCH  18  19
BRANCH  18  24
ATOM     24  C   UNL     1       3.451  -7.198  -9.548  1.00  0.00     0.038 C 
BRANCH  24  25
ATOM     25  C   UNL     1       4.690  -8.117  -9.583  1.00  0.00    -0.015 C 
ATOM     26  C   UNL     1       4.822  -8.873 -10.905  1.00  0.00     0.007 C 
ATOM     27  C   UNL     1       4.624  -9.115  -8.423  1.00  0.00     0.007 C 
ENDBRANCH  24  25
ENDBRANCH  18  24
ENDBRANCH  15  18
ENDBRANCH  13  14
BRANCH  13  28
ATOM     28  C   UNL     1       0.797  -6.950  -6.006  1.00  0.00     0.327 C 
ATOM     29  O   UNL     1      -0.213  -6.895  -5.321  1.00  0.00    -0.250 OA
BRANCH  28  30
ATOM     30  O   UNL     1       0.935  -7.913  -6.940  1.00  0.00    -0.480 OA
ATOM     31  H   UNL     1       0.437  -7.573  -7.712  1.00  0.00     0.296 HD
ENDBRANCH  28  30
ENDBRANCH  13  28
ENDBRANCH  11  13
ENDBRANCH   8  11
ENDBRANCH   6   7
BRANCH   6  32
ATOM     32  C   UNL     1       0.262  -2.598  -3.262  1.00  0.00     0.037 C 
BRANCH  32  33
ATOM     33  C   UNL     1       0.682  -1.358  -2.460  1.00  0.00     0.026 C 
BRANCH  33  34
ATOM     34  C   UNL     1      -0.407  -0.888  -1.495  1.00  0.00     0.146 C 
BRANCH  34  35
ATOM     35  N   UNL     1      -1.707  -1.091  -2.119  1.00  0.00    -0.254 NA
ATOM     36  C   UNL     1      -2.657  -1.583  -1.414  1.00  0.00     0.185 C 
ATOM     37  N   UNL     1      -3.860  -1.770  -1.978  1.00  0.00    -0.370 N 
ATOM     38  N   UNL     1      -2.642  -1.964  -0.125  1.00  0.00    -0.370 N 
ATOM     39  H   UNL     1      -3.955  -1.496  -2.948  1.00  0.00     0.159 HD
ATOM     40  H   UNL     1      -4.692  -1.983  -1.455  1.00  0.00     0.159 HD
ATOM     41  H   UNL     1      -3.415  -2.467   0.279  1.00  0.00     0.159 HD
ATOM     42  H   UNL     1      -1.797  -1.895   0.420  1.00  0.00     0.159 HD
ENDBRANCH  34  35
ENDBRANCH  33  34
ENDBRANCH  32  33
ENDBRANCH   6  32
ENDBRANCH   4   6
ENDBRANCH   1   2
BRANCH   1  43
ATOM     43  C   UNL     1      -2.028  -7.348  -1.653  1.00  0.00     0.102 C 
ATOM     44  C   UNL     1      -2.657  -8.498  -2.458  1.00  0.00     0.020 C 
BRANCH  43  45
ATOM     45  C   UNL     1      -2.157  -7.508  -0.136  1.00  0.00     0.225 C 
ATOM     46  O   UNL     1      -1.887  -8.550   0.455  1.00  0.00    -0.275 OA
ATOM     47  N   UNL     1      -2.690  -6.429   0.531  1.00  0.00    -0.342 N 
ATOM     48  H   UNL     1      -2.763  -5.537   0.061  1.00  0.00     0.164 HD
BRANCH  47  49
ATOM     49  C   UNL     1      -2.839  -6.426   1.989  1.00  0.00     0.192 C 
BRANCH  49  50
ATOM     50  C   UNL     1      -4.314  -6.615   2.356  1.00  0.00     0.047 C 
BRANCH  50  51
ATOM     51  C   UNL     1      -4.605  -8.024   2.889  1.00  0.00     0.103 C 
BRANCH  51  52
ATOM     52  C   UNL     1      -5.445  -8.844   1.912  1.00  0.00     0.226 C 
ATOM     53  O   UNL     1      -4.888  -9.502   1.031  1.00  0.00    -0.275 OA
BRANCH  52  54
ATOM     54  N   UNL     1      -6.835  -8.855   2.136  1.00  0.00    -0.311 N 
ATOM     55  C   UNL     1      -7.692  -7.779   1.620  1.00  0.00     0.153 C 
BRANCH  54  56
ATOM     56  C   UNL     1      -7.453  -9.892   2.854  1.00  0.00     0.102 C 
ATOM     57  C   UNL     1      -8.158 -10.893   2.303  1.00  0.00     0.043 C 
BRANCH  56  58
ATOM     58  C   UNL     1      -7.323  -9.980   4.356  1.00  0.00     0.268 C 
ATOM     59  O   UNL     1      -6.388 -10.537   4.916  1.00  0.00    -0.268 OA
ATOM     60  N   UNL     1      -8.323  -9.315   5.025  1.00  0.00    -0.339 N 
ATOM     61  H   UNL     1      -9.068  -8.887   4.487  1.00  0.00     0.164 HD
BRANCH  60  62
ATOM     62  C   UNL     1      -8.356  -9.220   6.483  1.00  0.00     0.168 CG0
ATOM     63  C   UNL     1      -8.261  -7.770   6.940  1.00  0.00     0.041 C 
ATOM     64  G   UNL     1      -7.206 -10.057   7.081  1.00  0.00     0.000 G0
ENDBRANCH  60  62
ENDBRANCH  56  58
ENDBRANCH  54  56
ENDBRANCH  52  54
ENDBRANCH  51  52
ENDBRANCH  50  51
ENDBRANCH  49  50
BRANCH  49  65
ATOM     65  C   UNL     1      -2.325  -5.117   2.609  1.00  0.00     0.326 C 
ATOM     66  O   UNL     1      -1.832  -5.003   3.722  1.00  0.00    -0.250 OA
BRANCH  65  67
ATOM     67  O   UNL     1      -2.505  -4.020   1.840  1.00  0.00    -0.480 OA
ATOM     68  H   UNL     1      -3.434  -4.101   1.535  1.00  0.00     0.296 HD
ENDBRANCH  65  67
ENDBRANCH  49  65
ENDBRANCH  47  49
ENDBRANCH  43  45
ENDBRANCH   1  43
BRANCH   1  69
ATOM     69  C   UNL     1      -3.580  -5.840  -3.177  1.00  0.00    -0.001 C 
ATOM     70  C   UNL     1      -3.408  -5.839  -4.511  1.00  0.00     0.001 C 
BRANCH  70  71
ATOM     71  C   UNL     1      -4.455  -5.764  -5.532  1.00  0.00    -0.055 C 
ATOM     72  C   UNL     1      -4.343  -6.574  -6.606  1.00  0.00    -0.018 C 
ATOM     73  C   UNL     1      -5.586  -4.794  -5.309  1.00  0.00     0.044 C 
BRANCH  72  74
ATOM     74  C   UNL     1      -5.268  -6.714  -7.807  1.00  0.00     0.038 C 
ATOM     75  C   UNL     1      -5.434  -8.214  -8.078  1.00  0.00     0.015 C 
BRANCH  74  76
ATOM     76  C   UNL     1      -4.675  -5.898  -8.994  1.00  0.00     0.128 C 
BRANCH  76  77
ATOM     77  O   UNL     1      -3.239  -5.945  -8.953  1.00  0.00    -0.381 OA
ATOM     78  C   UNL     1      -2.642  -6.254 -10.205  1.00  0.00     0.195 C 
ENDBRANCH  76  77
BRANCH  76  79
ATOM     79  C   UNL     1      -5.249  -6.293 -10.378  1.00  0.00     0.068 C 
BRANCH  79  80
ATOM     80  C   UNL     1      -6.735  -6.144 -10.596  1.00  0.00    -0.045 A 
ATOM     81  C   UNL     1      -7.402  -4.965 -10.239  1.00  0.00     0.004 A 
ATOM     82  C   UNL     1      -7.480  -7.202 -11.138  1.00  0.00     0.004 A 
ATOM     83  C   UNL     1      -8.780  -4.840 -10.431  1.00  0.00     0.000 A 
ATOM     84  C   UNL     1      -8.857  -7.077 -11.329  1.00  0.00     0.000 A 
ATOM     85  C   UNL     1      -9.507  -5.896 -10.977  1.00  0.00     0.000 A 
ENDBRANCH  79  80
ENDBRANCH  76  79
ENDBRANCH  74  76
ENDBRANCH  72  74
ENDBRANCH  70  71
ENDBRANCH   1  69
TORSDOF 17
ENDMDL
MODEL 3
REMARK VINA RESULT:    -7.579      5.471     11.102
REMARK INTER + INTRA:         -29.585
REMARK INTER:                 -21.571
REMARK INTRA:                  -8.014
REMARK UNBOUND:                -6.942
REMARK SMILES C=C1C(=O)N[C@H](C)C(=O)N[C@@H](CC(C)C)C(=O)N[C@@H](C(=O)O)[C@H](C)C(=O)N[C@@H](CCCN=C(N)N)C(=O)N[C@@H](/C=C/C(C)=C/[C@H](C)[C@H](Cc2ccccc2)OC)[C@H](C)C(=O)N[C@@H](C(=O)O)CCC(=O)N1C
REMARK SMILES IDX 39 1 38 2 37 3 36 4 28 6 27 7 25 8 26 9 23 11 24 12 19 13
REMARK SMILES IDX 18 14 16 15 17 16 11 18 10 19 8 20 9 21 12 24 13 25 14 26
REMARK SMILES IDX 15 27 20 28 21 29 22 30 29 32 30 33 31 34 32 35 33 36 34 37
REMARK SMILES IDX 35 38 57 43 58 44 59 45 60 46 61 47 62 49 66 50 67 51 68 52
REMARK SMILES IDX 69 53 70 54 71 55 2 56 1 57 3 58 4 59 5 60 6 62 7 63 63 65
REMARK SMILES IDX 64 66 65 67 40 69 41 70 42 71 44 72 43 73 45 74 46 75 47 76
REMARK SMILES IDX 55 77 56 78 48 79 49 80 50 81 54 82 51 83 53 84 52 85
REMARK H PARENT 38 5 27 10 18 17 10 22 22 31 34 39 34 40 35 41 35 42 61 48
REMARK H PARENT 5 61 65 68
REMARK Flexibility Score:  369.900
ROOT
ATOM      1  C   UNL     1      -3.569  -7.901  -9.734  1.00  0.00     0.117 C 
ENDROOT
BRANCH   1   2
ATOM      2  N   UNL     1      -3.291  -8.059  -8.306  1.00  0.00    -0.347 N 
ATOM      3  O   UNL     1      -3.721  -5.898  -7.663  1.00  0.00    -0.273 OA
ATOM      4  C   UNL     1      -3.478  -7.063  -7.367  1.00  0.00     0.243 C 
ATOM      5  H   UNL     1      -2.989  -8.956  -7.958  1.00  0.00     0.164 HD
BRANCH   4   6
ATOM      6  C   UNL     1      -3.192  -7.516  -5.913  1.00  0.00     0.171 C 
BRANCH   6   7
ATOM      7  N   UNL     1      -3.027  -6.348  -5.033  1.00  0.00    -0.344 N 
ATOM      8  C   UNL     1      -1.904  -6.215  -4.245  1.00  0.00     0.226 C 
ATOM      9  O   UNL     1      -1.013  -7.055  -4.218  1.00  0.00    -0.275 OA
ATOM     10  H   UNL     1      -3.773  -5.666  -4.978  1.00  0.00     0.164 HD
BRANCH   8  11
ATOM     11  C   UNL     1      -1.856  -4.930  -3.437  1.00  0.00     0.109 C 
ATOM     12  C   UNL     1      -3.017  -4.891  -2.442  1.00  0.00     0.021 C 
BRANCH  11  13
ATOM     13  C   UNL     1      -0.458  -4.761  -2.809  1.00  0.00     0.204 C 
BRANCH  13  14
ATOM     14  N   UNL     1       0.469  -4.065  -3.706  1.00  0.00    -0.340 N 
ATOM     15  C   UNL     1       1.830  -4.282  -3.691  1.00  0.00     0.243 C 
ATOM     16  O   UNL     1       2.357  -5.121  -2.963  1.00  0.00    -0.273 OA
ATOM     17  H   UNL     1       0.119  -3.254  -4.223  1.00  0.00     0.164 HD
BRANCH  15  18
ATOM     18  C   UNL     1       2.624  -3.289  -4.574  1.00  0.00     0.171 C 
BRANCH  18  19
ATOM     19  N   UNL     1       3.289  -2.358  -3.664  1.00  0.00    -0.343 N 
ATOM     20  C   UNL     1       2.615  -1.302  -3.082  1.00  0.00     0.242 CG0
ATOM     21  O   UNL     1       1.464  -1.017  -3.404  1.00  0.00    -0.273 OA
ATOM     22  H   UNL     1       4.273  -2.483  -3.456  1.00  0.00     0.164 HD
ATOM     23  G   UNL     1       3.461  -0.476  -2.090  1.00  0.00     0.000 G0
ENDBRANCH  18  19
BRANCH  18  24
ATOM     24  C   UNL     1       3.636  -4.035  -5.452  1.00  0.00     0.038 C 
BRANCH  24  25
ATOM     25  C   UNL     1       3.842  -3.429  -6.857  1.00  0.00    -0.015 C 
ATOM     26  C   UNL     1       2.887  -4.019  -7.895  1.00  0.00     0.007 C 
ATOM     27  C   UNL     1       5.289  -3.647  -7.305  1.00  0.00     0.007 C 
ENDBRANCH  24  25
ENDBRANCH  18  24
ENDBRANCH  15  18
ENDBRANCH  13  14
BRANCH  13  28
ATOM     28  C   UNL     1      -0.480  -3.986  -1.488  1.00  0.00     0.327 C 
ATOM     29  O   UNL     1      -0.566  -2.774  -1.363  1.00  0.00    -0.250 OA
BRANCH  28  30
ATOM     30  O   UNL     1      -0.272  -4.770  -0.411  1.00  0.00    -0.480 OA
ATOM     31  H   UNL     1       0.695  -4.721  -0.260  1.00  0.00     0.296 HD
ENDBRANCH  28  30
ENDBRANCH  13  28
ENDBRANCH  11  13
ENDBRANCH   8  11
ENDBRANCH   6   7
BRANCH   6  32
ATOM     32  C   UNL     1      -4.340  -8.408  -5.428  1.00  0.00     0.037 C 
BRANCH  32  33
ATOM     33  C   UNL     1      -5.064  -7.811  -4.213  1.00  0.00     0.026 C 
BRANCH  33  34
ATOM     34  C   UNL     1      -6.335  -7.055  -4.603  1.00  0.00     0.146 C 
BRANCH  34  35
ATOM     35  N   UNL     1      -6.047  -5.627  -4.615  1.00  0.00    -0.254 NA
ATOM     36  C   UNL     1      -6.272  -4.964  -5.687  1.00  0.00     0.185 C 
ATOM     37  N   UNL     1      -6.015  -3.647  -5.708  1.00  0.00    -0.370 N 
ATOM     38  N   UNL     1      -6.752  -5.400  -6.866  1.00  0.00    -0.370 N 
ATOM     39  H   UNL     1      -5.659  -3.240  -4.852  1.00  0.00     0.159 HD
ATOM     40  H   UNL     1      -6.322  -3.031  -6.441  1.00  0.00     0.159 HD
ATOM     41  H   UNL     1      -6.752  -4.807  -7.679  1.00  0.00     0.159 HD
ATOM     42  H   UNL     1      -6.974  -6.374  -7.000  1.00  0.00     0.159 HD
ENDBRANCH  34  35
ENDBRANCH  33  34
ENDBRANCH  32  33
ENDBRANCH   6  32
ENDBRANCH   4   6
ENDBRANCH   1   2
BRANCH   1  43
ATOM     43  C   UNL     1      -4.762  -8.825 -10.112  1.00  0.00     0.102 C 
ATOM     44  C   UNL     1      -4.681  -9.375 -11.546  1.00  0.00     0.020 C 
BRANCH  43  45
ATOM     45  C   UNL     1      -6.100  -8.160  -9.776  1.00  0.00     0.225 C 
ATOM     46  O   UNL     1      -6.389  -7.765  -8.650  1.00  0.00    -0.275 OA
ATOM     47  N   UNL     1      -7.013  -8.114 -10.805  1.00  0.00    -0.342 N 
ATOM     48  H   UNL     1      -6.711  -8.300 -11.750  1.00  0.00     0.164 HD
BRANCH  47  49
ATOM     49  C   UNL     1      -8.322  -7.475 -10.639  1.00  0.00     0.192 C 
BRANCH  49  50
ATOM     50  C   UNL     1      -9.269  -7.948 -11.745  1.00  0.00     0.047 C 
BRANCH  50  51
ATOM     51  C   UNL     1      -8.591  -8.929 -12.711  1.00  0.00     0.103 C 
BRANCH  51  52
ATOM     52  C   UNL     1      -8.832 -10.384 -12.313  1.00  0.00     0.226 C 
ATOM     53  O   UNL     1      -7.870 -11.129 -12.113  1.00  0.00    -0.275 OA
BRANCH  52  54
ATOM     54  N   UNL     1     -10.172 -10.768 -12.122  1.00  0.00    -0.311 N 
ATOM     55  C   UNL     1     -10.615 -11.363 -10.854  1.00  0.00     0.153 C 
BRANCH  54  56
ATOM     56  C   UNL     1     -11.135 -10.593 -13.130  1.00  0.00     0.102 C 
ATOM     57  C   UNL     1     -11.075 -11.145 -14.353  1.00  0.00     0.043 C 
BRANCH  56  58
ATOM     58  C   UNL     1     -12.379  -9.774 -12.880  1.00  0.00     0.268 C 
ATOM     59  O   UNL     1     -12.412  -8.827 -12.106  1.00  0.00    -0.268 OA
ATOM     60  N   UNL     1     -13.445 -10.159 -13.657  1.00  0.00    -0.339 N 
ATOM     61  H   UNL     1     -13.339 -10.961 -14.267  1.00  0.00     0.164 HD
BRANCH  60  62
ATOM     62  C   UNL     1     -14.729  -9.460 -13.621  1.00  0.00     0.168 CG0
ATOM     63  C   UNL     1     -15.874 -10.399 -13.978  1.00  0.00     0.041 C 
ATOM     64  G   UNL     1     -14.689  -8.256 -14.584  1.00  0.00     0.000 G0
ENDBRANCH  60  62
ENDBRANCH  56  58
ENDBRANCH  54  56
ENDBRANCH  52  54
ENDBRANCH  51  52
ENDBRANCH  50  51
ENDBRANCH  49  50
BRANCH  49  65
ATOM     65  C   UNL     1      -8.214  -5.943 -10.682  1.00  0.00     0.326 C 
ATOM     66  O   UNL     1      -8.028  -5.271 -11.686  1.00  0.00    -0.250 OA
BRANCH  65  67
ATOM     67  O   UNL     1      -8.283  -5.339  -9.475  1.00  0.00    -0.480 OA
ATOM     68  H   UNL     1      -7.417  -5.547  -9.062  1.00  0.00     0.296 HD
ENDBRANCH  65  67
ENDBRANCH  49  65
ENDBRANCH  47  49
ENDBRANCH  43  45
ENDBRANCH   1  43
BRANCH   1  69
ATOM     69  C   UNL     1      -2.242  -8.088 -10.448  1.00  0.00    -0.001 C 
ATOM     70  C   UNL     1      -1.051  -8.380  -9.895  1.00  0.00     0.001 C 
BRANCH  70  71
ATOM     71  C   UNL     1       0.219  -8.579 -10.596  1.00  0.00    -0.055 C 
ATOM     72  C   UNL     1       1.332  -8.727  -9.848  1.00  0.00    -0.018 C 
ATOM     73  C   UNL     1       0.192  -8.613 -12.102  1.00  0.00     0.044 C 
BRANCH  72  74
ATOM     74  C   UNL     1       2.770  -8.949 -10.295  1.00  0.00     0.038 C 
ATOM     75  C   UNL     1       2.991 -10.464 -10.375  1.00  0.00     0.015 C 
BRANCH  74  76
ATOM     76  C   UNL     1       3.721  -8.202  -9.313  1.00  0.00     0.128 C 
BRANCH  76  77
ATOM     77  O   UNL     1       4.718  -7.477 -10.052  1.00  0.00    -0.381 OA
ATOM     78  C   UNL     1       6.051  -7.775  -9.657  1.00  0.00     0.195 C 
ENDBRANCH  76  77
BRANCH  76  79
ATOM     79  C   UNL     1       2.985  -7.319  -8.274  1.00  0.00     0.068 C 
BRANCH  79  80
ATOM     80  C   UNL     1       3.254  -7.575  -6.811  1.00  0.00    -0.045 A 
ATOM     81  C   UNL     1       4.549  -7.470  -6.286  1.00  0.00     0.004 A 
ATOM     82  C   UNL     1       2.209  -7.952  -5.955  1.00  0.00     0.004 A 
ATOM     83  C   UNL     1       4.793  -7.723  -4.935  1.00  0.00     0.000 A 
ATOM     84  C   UNL     1       2.453  -8.205  -4.603  1.00  0.00     0.000 A 
ATOM     85  C   UNL     1       3.744  -8.089  -4.093  1.00  0.00     0.000 A 
ENDBRANCH  79  80
ENDBRANCH  76  79
ENDBRANCH  74  76
ENDBRANCH  72  74
ENDBRANCH  70  71
ENDBRANCH   1  69
TORSDOF 17
ENDMDL
MODEL 4
REMARK VINA RESULT:    -7.504      3.201     11.911
REMARK INTER + INTRA:         -29.362
REMARK INTER:                 -23.197
REMARK INTRA:                  -6.165
REMARK UNBOUND:                -6.942
REMARK SMILES C=C1C(=O)N[C@H](C)C(=O)N[C@@H](CC(C)C)C(=O)N[C@@H](C(=O)O)[C@H](C)C(=O)N[C@@H](CCCN=C(N)N)C(=O)N[C@@H](/C=C/C(C)=C/[C@H](C)[C@H](Cc2ccccc2)OC)[C@H](C)C(=O)N[C@@H](C(=O)O)CCC(=O)N1C
REMARK SMILES IDX 39 1 38 2 37 3 36 4 28 6 27 7 25 8 26 9 23 11 24 12 19 13
REMARK SMILES IDX 18 14 16 15 17 16 11 18 10 19 8 20 9 21 12 24 13 25 14 26
REMARK SMILES IDX 15 27 20 28 21 29 22 30 29 32 30 33 31 34 32 35 33 36 34 37
REMARK SMILES IDX 35 38 57 43 58 44 59 45 60 46 61 47 62 49 66 50 67 51 68 52
REMARK SMILES IDX 69 53 70 54 71 55 2 56 1 57 3 58 4 59 5 60 6 62 7 63 63 65
REMARK SMILES IDX 64 66 65 67 40 69 41 70 42 71 44 72 43 73 45 74 46 75 47 76
REMARK SMILES IDX 55 77 56 78 48 79 49 80 50 81 54 82 51 83 53 84 52 85
REMARK H PARENT 38 5 27 10 18 17 10 22 22 31 34 39 34 40 35 41 35 42 61 48
REMARK H PARENT 5 61 65 68
REMARK Flexibility Score:  369.900
ROOT
ATOM      1  C   UNL     1       0.804  -7.514  -6.039  1.00  0.00     0.117 C 
ENDROOT
BRANCH   1   2
ATOM      2  N   UNL     1       1.286  -6.300  -5.380  1.00  0.00    -0.347 N 
ATOM      3  O   UNL     1       0.817  -6.912  -3.217  1.00  0.00    -0.273 OA
ATOM      4  C   UNL     1       1.338  -6.134  -4.009  1.00  0.00     0.243 C 
ATOM      5  H   UNL     1       1.653  -5.546  -5.940  1.00  0.00     0.164 HD
BRANCH   4   6
ATOM      6  C   UNL     1       1.971  -4.789  -3.569  1.00  0.00     0.171 C 
BRANCH   6   7
ATOM      7  N   UNL     1       1.171  -4.169  -2.501  1.00  0.00    -0.344 N 
ATOM      8  C   UNL     1       0.217  -3.220  -2.799  1.00  0.00     0.226 C 
ATOM      9  O   UNL     1       0.004  -2.834  -3.942  1.00  0.00    -0.275 OA
ATOM     10  H   UNL     1       1.364  -4.414  -1.538  1.00  0.00     0.164 HD
BRANCH   8  11
ATOM     11  C   UNL     1      -0.562  -2.717  -1.596  1.00  0.00     0.109 C 
ATOM     12  C   UNL     1      -0.196  -1.261  -1.305  1.00  0.00     0.021 C 
BRANCH  11  13
ATOM     13  C   UNL     1      -2.067  -2.979  -1.802  1.00  0.00     0.204 C 
BRANCH  13  14
ATOM     14  N   UNL     1      -2.512  -4.201  -1.125  1.00  0.00    -0.340 N 
ATOM     15  C   UNL     1      -1.761  -4.838  -0.161  1.00  0.00     0.243 C 
ATOM     16  O   UNL     1      -0.690  -4.392   0.243  1.00  0.00    -0.273 OA
ATOM     17  H   UNL     1      -3.313  -4.703  -1.518  1.00  0.00     0.164 HD
BRANCH  15  18
ATOM     18  C   UNL     1      -2.333  -6.215   0.258  1.00  0.00     0.171 C 
BRANCH  18  19
ATOM     19  N   UNL     1      -3.007  -6.015   1.540  1.00  0.00    -0.343 N 
ATOM     20  C   UNL     1      -3.034  -6.999   2.509  1.00  0.00     0.242 CG0
ATOM     21  O   UNL     1      -2.610  -8.131   2.290  1.00  0.00    -0.273 OA
ATOM     22  H   UNL     1      -3.474  -5.135   1.724  1.00  0.00     0.164 HD
ATOM     23  G   UNL     1      -3.723  -6.578   3.824  1.00  0.00     0.000 G0
ENDBRANCH  18  19
BRANCH  18  24
ATOM     24  C   UNL     1      -3.299  -6.748  -0.808  1.00  0.00     0.038 C 
BRANCH  24  25
ATOM     25  C   UNL     1      -2.833  -8.040  -1.512  1.00  0.00    -0.015 C 
ATOM     26  C   UNL     1      -3.879  -9.152  -1.445  1.00  0.00     0.007 C 
ATOM     27  C   UNL     1      -1.524  -8.525  -0.883  1.00  0.00     0.007 C 
ENDBRANCH  24  25
ENDBRANCH  18  24
ENDBRANCH  15  18
ENDBRANCH  13  14
BRANCH  13  28
ATOM     28  C   UNL     1      -2.953  -1.834  -1.300  1.00  0.00     0.327 C 
ATOM     29  O   UNL     1      -3.012  -1.414  -0.155  1.00  0.00    -0.250 OA
BRANCH  28  30
ATOM     30  O   UNL     1      -3.797  -1.367  -2.243  1.00  0.00    -0.480 OA
ATOM     31  H   UNL     1      -3.803  -0.397  -2.101  1.00  0.00     0.296 HD
ENDBRANCH  28  30
ENDBRANCH  13  28
ENDBRANCH  11  13
ENDBRANCH   8  11
ENDBRANCH   6   7
BRANCH   6  32
ATOM     32  C   UNL     1       3.409  -5.040  -3.099  1.00  0.00     0.037 C 
BRANCH  32  33
ATOM     33  C   UNL     1       4.410  -4.088  -3.767  1.00  0.00     0.026 C 
BRANCH  33  34
ATOM     34  C   UNL     1       4.314  -2.662  -3.223  1.00  0.00     0.146 C 
BRANCH  34  35
ATOM     35  N   UNL     1       4.731  -1.732  -4.265  1.00  0.00    -0.254 NA
ATOM     36  C   UNL     1       3.831  -1.083  -4.905  1.00  0.00     0.185 C 
ATOM     37  N   UNL     1       4.204  -0.221  -5.863  1.00  0.00    -0.370 N 
ATOM     38  N   UNL     1       2.494  -1.129  -4.763  1.00  0.00    -0.370 N 
ATOM     39  H   UNL     1       5.198  -0.122  -6.023  1.00  0.00     0.159 HD
ATOM     40  H   UNL     1       3.580   0.446  -6.284  1.00  0.00     0.159 HD
ATOM     41  H   UNL     1       1.884  -0.673  -5.422  1.00  0.00     0.159 HD
ATOM     42  H   UNL     1       2.071  -1.747  -4.088  1.00  0.00     0.159 HD
ENDBRANCH  34  35
ENDBRANCH  33  34
ENDBRANCH  32  33
ENDBRANCH   6  32
ENDBRANCH   4   6
ENDBRANCH   1   2
BRANCH   1  43
ATOM     43  C   UNL     1       1.715  -7.807  -7.266  1.00  0.00     0.102 C 
ATOM     44  C   UNL     1       2.899  -8.734  -6.942  1.00  0.00     0.020 C 
BRANCH  43  45
ATOM     45  C   UNL     1       2.118  -6.509  -7.974  1.00  0.00     0.225 C 
ATOM     46  O   UNL     1       1.346  -5.859  -8.672  1.00  0.00    -0.275 OA
ATOM     47  N   UNL     1       3.443  -6.157  -7.856  1.00  0.00    -0.342 N 
ATOM     48  H   UNL     1       4.021  -6.611  -7.163  1.00  0.00     0.164 HD
BRANCH  47  49
ATOM     49  C   UNL     1       3.963  -4.922  -8.450  1.00  0.00     0.192 C 
BRANCH  49  50
ATOM     50  C   UNL     1       5.437  -5.110  -8.820  1.00  0.00     0.047 C 
BRANCH  50  51
ATOM     51  C   UNL     1       5.666  -5.068 -10.337  1.00  0.00     0.103 C 
BRANCH  51  52
ATOM     52  C   UNL     1       6.155  -6.409 -10.881  1.00  0.00     0.226 C 
ATOM     53  O   UNL     1       6.963  -7.073 -10.230  1.00  0.00    -0.275 OA
BRANCH  52  54
ATOM     54  N   UNL     1       5.577  -6.844 -12.088  1.00  0.00    -0.311 N 
ATOM     55  C   UNL     1       6.031  -6.311 -13.379  1.00  0.00     0.153 C 
BRANCH  54  56
ATOM     56  C   UNL     1       4.552  -7.805 -12.105  1.00  0.00     0.102 C 
ATOM     57  C   UNL     1       3.752  -8.093 -11.065  1.00  0.00     0.043 C 
BRANCH  56  58
ATOM     58  C   UNL     1       4.238  -8.581 -13.362  1.00  0.00     0.268 C 
ATOM     59  O   UNL     1       4.855  -9.581 -13.703  1.00  0.00    -0.268 OA
ATOM     60  N   UNL     1       3.151  -8.088 -14.043  1.00  0.00    -0.339 N 
ATOM     61  H   UNL     1       2.700  -7.248 -13.700  1.00  0.00     0.164 HD
BRANCH  60  62
ATOM     62  C   UNL     1       2.636  -8.727 -15.254  1.00  0.00     0.168 CG0
ATOM     63  C   UNL     1       1.769  -9.932 -14.911  1.00  0.00     0.041 C 
ATOM     64  G   UNL     1       3.813  -9.142 -16.160  1.00  0.00     0.000 G0
ENDBRANCH  60  62
ENDBRANCH  56  58
ENDBRANCH  54  56
ENDBRANCH  52  54
ENDBRANCH  51  52
ENDBRANCH  50  51
ENDBRANCH  49  50
BRANCH  49  65
ATOM     65  C   UNL     1       3.828  -3.730  -7.490  1.00  0.00     0.326 C 
ATOM     66  O   UNL     1       2.775  -3.278  -7.063  1.00  0.00    -0.250 OA
BRANCH  65  67
ATOM     67  O   UNL     1       4.995  -3.132  -7.165  1.00  0.00    -0.480 OA
ATOM     68  H   UNL     1       5.596  -3.385  -7.899  1.00  0.00     0.296 HD
ENDBRANCH  65  67
ENDBRANCH  49  65
ENDBRANCH  47  49
ENDBRANCH  43  45
ENDBRANCH   1  43
BRANCH   1  69
ATOM     69  C   UNL     1      -0.684  -7.313  -6.262  1.00  0.00    -0.001 C 
ATOM     70  C   UNL     1      -1.677  -8.171  -5.970  1.00  0.00     0.001 C 
BRANCH  70  71
ATOM     71  C   UNL     1      -3.112  -7.957  -6.170  1.00  0.00    -0.055 C 
ATOM     72  C   UNL     1      -3.557  -7.836  -7.439  1.00  0.00    -0.018 C 
ATOM     73  C   UNL     1      -3.990  -7.896  -4.948  1.00  0.00     0.044 C 
BRANCH  72  74
ATOM     74  C   UNL     1      -4.976  -7.613  -7.944  1.00  0.00     0.038 C 
ATOM     75  C   UNL     1      -5.606  -8.996  -8.147  1.00  0.00     0.015 C 
BRANCH  74  76
ATOM     76  C   UNL     1      -4.918  -6.728  -9.224  1.00  0.00     0.128 C 
BRANCH  76  77
ATOM     77  O   UNL     1      -5.836  -5.628  -9.102  1.00  0.00    -0.381 OA
ATOM     78  C   UNL     1      -6.751  -5.525 -10.184  1.00  0.00     0.195 C 
ENDBRANCH  76  77
BRANCH  76  79
ATOM     79  C   UNL     1      -3.488  -6.275  -9.612  1.00  0.00     0.068 C 
BRANCH  79  80
ATOM     80  C   UNL     1      -2.630  -7.238 -10.397  1.00  0.00    -0.045 A 
ATOM     81  C   UNL     1      -1.259  -7.006 -10.572  1.00  0.00     0.004 A 
ATOM     82  C   UNL     1      -3.203  -8.374 -10.990  1.00  0.00     0.004 A 
ATOM     83  C   UNL     1      -0.475  -7.895 -11.311  1.00  0.00     0.000 A 
ATOM     84  C   UNL     1      -2.418  -9.261 -11.729  1.00  0.00     0.000 A 
ATOM     85  C   UNL     1      -1.055  -9.023 -11.888  1.00  0.00     0.000 A 
ENDBRANCH  79  80
ENDBRANCH  76  79
ENDBRANCH  74  76
ENDBRANCH  72  74
ENDBRANCH  70  71
ENDBRANCH   1  69
TORSDOF 17
ENDMDL
MODEL 5
REMARK VINA RESULT:    -7.498      2.528      4.721
REMARK INTER + INTRA:         -29.342
REMARK INTER:                 -20.878
REMARK INTRA:                  -8.464
REMARK UNBOUND:                -6.942
REMARK SMILES C=C1C(=O)N[C@H](C)C(=O)N[C@@H](CC(C)C)C(=O)N[C@@H](C(=O)O)[C@H](C)C(=O)N[C@@H](CCCN=C(N)N)C(=O)N[C@@H](/C=C/C(C)=C/[C@H](C)[C@H](Cc2ccccc2)OC)[C@H](C)C(=O)N[C@@H](C(=O)O)CCC(=O)N1C
REMARK SMILES IDX 39 1 38 2 37 3 36 4 28 6 27 7 25 8 26 9 23 11 24 12 19 13
REMARK SMILES IDX 18 14 16 15 17 16 11 18 10 19 8 20 9 21 12 24 13 25 14 26
REMARK SMILES IDX 15 27 20 28 21 29 22 30 29 32 30 33 31 34 32 35 33 36 34 37
REMARK SMILES IDX 35 38 57 43 58 44 59 45 60 46 61 47 62 49 66 50 67 51 68 52
REMARK SMILES IDX 69 53 70 54 71 55 2 56 1 57 3 58 4 59 5 60 6 62 7 63 63 65
REMARK SMILES IDX 64 66 65 67 40 69 41 70 42 71 44 72 43 73 45 74 46 75 47 76
REMARK SMILES IDX 55 77 56 78 48 79 49 80 50 81 54 82 51 83 53 84 52 85
REMARK H PARENT 38 5 27 10 18 17 10 22 22 31 34 39 34 40 35 41 35 42 61 48
REMARK H PARENT 5 61 65 68
REMARK Flexibility Score:  369.900
ROOT
ATOM      1  C   UNL     1      -1.876  -4.002  -2.540  1.00  0.00     0.117 C 
ENDROOT
BRANCH   1   2
ATOM      2  N   UNL     1      -0.432  -4.200  -2.674  1.00  0.00    -0.347 N 
ATOM      3  O   UNL     1       0.010  -2.382  -4.005  1.00  0.00    -0.273 OA
ATOM      4  C   UNL     1       0.412  -3.319  -3.323  1.00  0.00     0.243 C 
ATOM      5  H   UNL     1       0.001  -4.996  -2.232  1.00  0.00     0.164 HD
BRANCH   4   6
ATOM      6  C   UNL     1       1.907  -3.719  -3.247  1.00  0.00     0.171 C 
BRANCH   6   7
ATOM      7  N   UNL     1       2.113  -5.054  -3.831  1.00  0.00    -0.344 N 
ATOM      8  C   UNL     1       3.057  -5.911  -3.308  1.00  0.00     0.226 C 
ATOM      9  O   UNL     1       3.776  -5.606  -2.364  1.00  0.00    -0.275 OA
ATOM     10  H   UNL     1       1.585  -5.316  -4.654  1.00  0.00     0.164 HD
BRANCH   8  11
ATOM     11  C   UNL     1       3.111  -7.270  -3.985  1.00  0.00     0.109 C 
ATOM     12  C   UNL     1       1.695  -7.770  -4.274  1.00  0.00     0.021 C 
BRANCH  11  13
ATOM     13  C   UNL     1       4.038  -7.203  -5.215  1.00  0.00     0.204 C 
BRANCH  13  14
ATOM     14  N   UNL     1       3.361  -6.637  -6.386  1.00  0.00    -0.340 N 
ATOM     15  C   UNL     1       3.364  -7.250  -7.621  1.00  0.00     0.243 C 
ATOM     16  O   UNL     1       3.885  -8.347  -7.812  1.00  0.00    -0.273 OA
ATOM     17  H   UNL     1       3.043  -5.666  -6.335  1.00  0.00     0.164 HD
BRANCH  15  18
ATOM     18  C   UNL     1       2.768  -6.372  -8.748  1.00  0.00     0.171 C 
BRANCH  18  19
ATOM     19  N   UNL     1       3.870  -6.047  -9.652  1.00  0.00    -0.343 N 
ATOM     20  C   UNL     1       4.858  -5.146  -9.303  1.00  0.00     0.242 CG0
ATOM     21  O   UNL     1       4.785  -4.479  -8.274  1.00  0.00    -0.273 OA
ATOM     22  H   UNL     1       3.911  -6.487 -10.564  1.00  0.00     0.164 HD
ATOM     23  G   UNL     1       5.978  -4.991 -10.352  1.00  0.00     0.000 G0
ENDBRANCH  18  19
BRANCH  18  24
ATOM     24  C   UNL     1       1.644  -7.117  -9.478  1.00  0.00     0.038 C 
BRANCH  24  25
ATOM     25  C   UNL     1       0.218  -6.703  -9.058  1.00  0.00    -0.015 C 
ATOM     26  C   UNL     1      -0.237  -7.395  -7.772  1.00  0.00     0.007 C 
ATOM     27  C   UNL     1      -0.764  -7.020 -10.189  1.00  0.00     0.007 C 
ENDBRANCH  24  25
ENDBRANCH  18  24
ENDBRANCH  15  18
ENDBRANCH  13  14
BRANCH  13  28
ATOM     28  C   UNL     1       5.301  -6.370  -4.974  1.00  0.00     0.327 C 
ATOM     29  O   UNL     1       6.315  -6.744  -4.406  1.00  0.00    -0.250 OA
BRANCH  28  30
ATOM     30  O   UNL     1       5.167  -5.084  -5.358  1.00  0.00    -0.480 OA
ATOM     31  H   UNL     1       5.637  -4.576  -4.664  1.00  0.00     0.296 HD
ENDBRANCH  28  30
ENDBRANCH  13  28
ENDBRANCH  11  13
ENDBRANCH   8  11
ENDBRANCH   6   7
BRANCH   6  32
ATOM     32  C   UNL     1       2.747  -2.666  -3.978  1.00  0.00     0.037 C 
BRANCH  32  33
ATOM     33  C   UNL     1       3.899  -2.138  -3.111  1.00  0.00     0.026 C 
BRANCH  33  34
ATOM     34  C   UNL     1       5.236  -2.132  -3.853  1.00  0.00     0.146 C 
BRANCH  34  35
ATOM     35  N   UNL     1       5.292  -0.956  -4.710  1.00  0.00    -0.254 NA
ATOM     36  C   UNL     1       5.560  -1.114  -5.953  1.00  0.00     0.185 C 
ATOM     37  N   UNL     1       5.610  -0.038  -6.753  1.00  0.00    -0.370 N 
ATOM     38  N   UNL     1       5.815  -2.251  -6.624  1.00  0.00    -0.370 N 
ATOM     39  H   UNL     1       5.418   0.858  -6.322  1.00  0.00     0.159 HD
ATOM     40  H   UNL     1       5.640  -0.092  -7.756  1.00  0.00     0.159 HD
ATOM     41  H   UNL     1       6.151  -2.231  -7.573  1.00  0.00     0.159 HD
ATOM     42  H   UNL     1       5.828  -3.138  -6.145  1.00  0.00     0.159 HD
ENDBRANCH  34  35
ENDBRANCH  33  34
ENDBRANCH  32  33
ENDBRANCH   6  32
ENDBRANCH   4   6
ENDBRANCH   1   2
BRANCH   1  43
ATOM     43  C   UNL     1      -2.165  -3.405  -1.132  1.00  0.00     0.102 C 
ATOM     44  C   UNL     1      -1.793  -1.918  -1.010  1.00  0.00     0.020 C 
BRANCH  43  45
ATOM     45  C   UNL     1      -1.573  -4.287  -0.029  1.00  0.00     0.225 C 
ATOM     46  O   UNL     1      -0.365  -4.432   0.138  1.00  0.00    -0.275 OA
ATOM     47  N   UNL     1      -2.486  -4.993   0.720  1.00  0.00    -0.342 N 
ATOM     48  H   UNL     1      -3.466  -4.750   0.673  1.00  0.00     0.164 HD
BRANCH  47  49
ATOM     49  C   UNL     1      -2.066  -5.850   1.833  1.00  0.00     0.192 C 
BRANCH  49  50
ATOM     50  C   UNL     1      -2.732  -7.222   1.706  1.00  0.00     0.047 C 
BRANCH  50  51
ATOM     51  C   UNL     1      -3.802  -7.251   0.606  1.00  0.00     0.103 C 
BRANCH  51  52
ATOM     52  C   UNL     1      -5.216  -7.264   1.182  1.00  0.00     0.226 C 
ATOM     53  O   UNL     1      -5.644  -6.270   1.773  1.00  0.00    -0.275 OA
BRANCH  52  54
ATOM     54  N   UNL     1      -5.986  -8.414   0.927  1.00  0.00    -0.311 N 
ATOM     55  C   UNL     1      -5.386  -9.754   0.986  1.00  0.00     0.153 C 
BRANCH  54  56
ATOM     56  C   UNL     1      -7.353  -8.327   0.615  1.00  0.00     0.102 C 
ATOM     57  C   UNL     1      -7.846  -7.999  -0.591  1.00  0.00     0.043 C 
BRANCH  56  58
ATOM     58  C   UNL     1      -8.406  -8.654   1.646  1.00  0.00     0.268 C 
ATOM     59  O   UNL     1      -9.431  -9.270   1.385  1.00  0.00    -0.268 OA
ATOM     60  N   UNL     1      -8.065  -8.248   2.914  1.00  0.00    -0.339 N 
ATOM     61  H   UNL     1      -7.202  -7.734   3.046  1.00  0.00     0.164 HD
BRANCH  60  62
ATOM     62  C   UNL     1      -8.913  -8.520   4.074  1.00  0.00     0.168 CG0
ATOM     63  C   UNL     1      -8.178  -8.214   5.373  1.00  0.00     0.041 C 
ATOM     64  G   UNL     1      -9.376  -9.991   4.043  1.00  0.00     0.000 G0
ENDBRANCH  60  62
ENDBRANCH  56  58
ENDBRANCH  54  56
ENDBRANCH  52  54
ENDBRANCH  51  52
ENDBRANCH  50  51
ENDBRANCH  49  50
BRANCH  49  65
ATOM     65  C   UNL     1      -2.429  -5.232   3.192  1.00  0.00     0.326 C 
ATOM     66  O   UNL     1      -1.894  -4.254   3.694  1.00  0.00    -0.250 OA
BRANCH  65  67
ATOM     67  O   UNL     1      -3.389  -5.895   3.874  1.00  0.00    -0.480 OA
ATOM     68  H   UNL     1      -3.006  -5.995   4.773  1.00  0.00     0.296 HD
ENDBRANCH  65  67
ENDBRANCH  49  65
ENDBRANCH  47  49
ENDBRANCH  43  45
ENDBRANCH   1  43
BRANCH   1  69
ATOM     69  C   UNL     1      -2.522  -5.320  -2.925  1.00  0.00    -0.001 C 
ATOM     70  C   UNL     1      -1.932  -6.525  -3.009  1.00  0.00     0.001 C 
BRANCH  70  71
ATOM     71  C   UNL     1      -2.571  -7.795  -3.361  1.00  0.00    -0.055 C 
ATOM     72  C   UNL     1      -3.550  -8.250  -2.552  1.00  0.00    -0.018 C 
ATOM     73  C   UNL     1      -2.096  -8.499  -4.605  1.00  0.00     0.044 C 
BRANCH  72  74
ATOM     74  C   UNL     1      -4.383  -9.519  -2.667  1.00  0.00     0.038 C 
ATOM     75  C   UNL     1      -3.538 -10.668  -2.103  1.00  0.00     0.015 C 
BRANCH  74  76
ATOM     76  C   UNL     1      -4.821  -9.698  -4.151  1.00  0.00     0.128 C 
BRANCH  76  77
ATOM     77  O   UNL     1      -4.927 -11.096  -4.466  1.00  0.00    -0.381 OA
ATOM     78  C   UNL     1      -6.004 -11.404  -5.341  1.00  0.00     0.195 C 
ENDBRANCH  76  77
BRANCH  76  79
ATOM     79  C   UNL     1      -6.093  -8.899  -4.532  1.00  0.00     0.068 C 
BRANCH  79  80
ATOM     80  C   UNL     1      -5.968  -7.403  -4.689  1.00  0.00    -0.045 A 
ATOM     81  C   UNL     1      -6.571  -6.528  -3.775  1.00  0.00     0.004 A 
ATOM     82  C   UNL     1      -5.264  -6.862  -5.776  1.00  0.00     0.004 A 
ATOM     83  C   UNL     1      -6.462  -5.145  -3.936  1.00  0.00     0.000 A 
ATOM     84  C   UNL     1      -5.157  -5.479  -5.936  1.00  0.00     0.000 A 
ATOM     85  C   UNL     1      -5.754  -4.621  -5.015  1.00  0.00     0.000 A 
ENDBRANCH  79  80
ENDBRANCH  76  79
ENDBRANCH  74  76
ENDBRANCH  72  74
ENDBRANCH  70  71
ENDBRANCH   1  69
TORSDOF 17
ENDMDL
MODEL 6
REMARK VINA RESULT:    -7.484      5.598     11.521
REMARK INTER + INTRA:         -29.302
REMARK INTER:                 -23.034
REMARK INTRA:                  -6.268
REMARK UNBOUND:                -6.942
REMARK SMILES C=C1C(=O)N[C@H](C)C(=O)N[C@@H](CC(C)C)C(=O)N[C@@H](C(=O)O)[C@H](C)C(=O)N[C@@H](CCCN=C(N)N)C(=O)N[C@@H](/C=C/C(C)=C/[C@H](C)[C@H](Cc2ccccc2)OC)[C@H](C)C(=O)N[C@@H](C(=O)O)CCC(=O)N1C
REMARK SMILES IDX 39 1 38 2 37 3 36 4 28 6 27 7 25 8 26 9 23 11 24 12 19 13
REMARK SMILES IDX 18 14 16 15 17 16 11 18 10 19 8 20 9 21 12 24 13 25 14 26
REMARK SMILES IDX 15 27 20 28 21 29 22 30 29 32 30 33 31 34 32 35 33 36 34 37
REMARK SMILES IDX 35 38 57 43 58 44 59 45 60 46 61 47 62 49 66 50 67 51 68 52
REMARK SMILES IDX 69 53 70 54 71 55 2 56 1 57 3 58 4 59 5 60 6 62 7 63 63 65
REMARK SMILES IDX 64 66 65 67 40 69 41 70 42 71 44 72 43 73 45 74 46 75 47 76
REMARK SMILES IDX 55 77 56 78 48 79 49 80 50 81 54 82 51 83 53 84 52 85
REMARK H PARENT 38 5 27 10 18 17 10 22 22 31 34 39 34 40 35 41 35 42 61 48
REMARK H PARENT 5 61 65 68
REMARK Flexibility Score:  369.900
ROOT
ATOM      1  C   UNL     1      -2.874  -7.251  -8.439  1.00  0.00     0.117 C 
ENDROOT
BRANCH   1   2
ATOM      2  N   UNL     1      -3.191  -7.371  -7.016  1.00  0.00    -0.347 N 
ATOM      3  O   UNL     1      -4.537  -5.519  -6.838  1.00  0.00    -0.273 OA
ATOM      4  C   UNL     1      -4.074  -6.544  -6.348  1.00  0.00     0.243 C 
ATOM      5  H   UNL     1      -2.790  -8.127  -6.481  1.00  0.00     0.164 HD
BRANCH   4   6
ATOM      6  C   UNL     1      -4.298  -6.939  -4.866  1.00  0.00     0.171 C 
BRANCH   6   7
ATOM      7  N   UNL     1      -3.019  -6.954  -4.138  1.00  0.00    -0.344 N 
ATOM      8  C   UNL     1      -2.861  -7.733  -3.013  1.00  0.00     0.226 C 
ATOM      9  O   UNL     1      -3.764  -8.422  -2.554  1.00  0.00    -0.275 OA
ATOM     10  H   UNL     1      -2.271  -6.347  -4.448  1.00  0.00     0.164 HD
BRANCH   8  11
ATOM     11  C   UNL     1      -1.469  -7.682  -2.408  1.00  0.00     0.109 C 
ATOM     12  C   UNL     1      -0.428  -7.443  -3.502  1.00  0.00     0.021 C 
BRANCH  11  13
ATOM     13  C   UNL     1      -1.439  -6.664  -1.251  1.00  0.00     0.204 C 
BRANCH  13  14
ATOM     14  N   UNL     1      -1.423  -5.280  -1.735  1.00  0.00    -0.340 N 
ATOM     15  C   UNL     1      -0.705  -4.279  -1.117  1.00  0.00     0.243 C 
ATOM     16  O   UNL     1       0.024  -4.490  -0.150  1.00  0.00    -0.273 OA
ATOM     17  H   UNL     1      -2.119  -5.008  -2.435  1.00  0.00     0.164 HD
BRANCH  15  18
ATOM     18  C   UNL     1      -1.004  -2.867  -1.677  1.00  0.00     0.171 C 
BRANCH  18  19
ATOM     19  N   UNL     1      -1.413  -2.044  -0.540  1.00  0.00    -0.343 N 
ATOM     20  C   UNL     1      -2.640  -1.409  -0.504  1.00  0.00     0.242 CG0
ATOM     21  O   UNL     1      -3.386  -1.396  -1.480  1.00  0.00    -0.273 OA
ATOM     22  H   UNL     1      -0.781  -1.929   0.244  1.00  0.00     0.164 HD
ATOM     23  G   UNL     1      -2.926  -0.652   0.809  1.00  0.00     0.000 G0
ENDBRANCH  18  19
BRANCH  18  24
ATOM     24  C   UNL     1       0.233  -2.287  -2.374  1.00  0.00     0.038 C 
BRANCH  24  25
ATOM     25  C   UNL     1       1.252  -3.340  -2.859  1.00  0.00    -0.015 C 
ATOM     26  C   UNL     1       2.639  -2.744  -3.102  1.00  0.00     0.007 C 
ATOM     27  C   UNL     1       0.741  -3.996  -4.145  1.00  0.00     0.007 C 
ENDBRANCH  24  25
ENDBRANCH  18  24
ENDBRANCH  15  18
ENDBRANCH  13  14
BRANCH  13  28
ATOM     28  C   UNL     1      -2.631  -6.798  -0.298  1.00  0.00     0.327 C 
ATOM     29  O   UNL     1      -3.460  -5.935  -0.052  1.00  0.00    -0.250 OA
BRANCH  28  30
ATOM     30  O   UNL     1      -2.639  -7.965   0.376  1.00  0.00    -0.480 OA
ATOM     31  H   UNL     1      -2.802  -7.705   1.307  1.00  0.00     0.296 HD
ENDBRANCH  28  30
ENDBRANCH  13  28
ENDBRANCH  11  13
ENDBRANCH   8  11
ENDBRANCH   6   7
BRANCH   6  32
ATOM     32  C   UNL     1      -5.281  -5.952  -4.225  1.00  0.00     0.037 C 
BRANCH  32  33
ATOM     33  C   UNL     1      -6.737  -6.257  -4.603  1.00  0.00     0.026 C 
BRANCH  33  34
ATOM     34  C   UNL     1      -7.678  -5.092  -4.292  1.00  0.00     0.146 C 
BRANCH  34  35
ATOM     35  N   UNL     1      -8.140  -4.514  -5.547  1.00  0.00    -0.254 NA
ATOM     36  C   UNL     1      -7.411  -3.631  -6.121  1.00  0.00     0.185 C 
ATOM     37  N   UNL     1      -7.824  -3.095  -7.280  1.00  0.00    -0.370 N 
ATOM     38  N   UNL     1      -6.229  -3.125  -5.728  1.00  0.00    -0.370 N 
ATOM     39  H   UNL     1      -8.704  -3.433  -7.649  1.00  0.00     0.159 HD
ATOM     40  H   UNL     1      -7.238  -2.535  -7.874  1.00  0.00     0.159 HD
ATOM     41  H   UNL     1      -5.820  -2.333  -6.195  1.00  0.00     0.159 HD
ATOM     42  H   UNL     1      -5.804  -3.426  -4.864  1.00  0.00     0.159 HD
ENDBRANCH  34  35
ENDBRANCH  33  34
ENDBRANCH  32  33
ENDBRANCH   6  32
ENDBRANCH   4   6
ENDBRANCH   1   2
BRANCH   1  43
ATOM     43  C   UNL     1      -3.636  -8.366  -9.212  1.00  0.00     0.102 C 
ATOM     44  C   UNL     1      -3.184  -8.515 -10.674  1.00  0.00     0.020 C 
BRANCH  43  45
ATOM     45  C   UNL     1      -5.151  -8.217  -9.041  1.00  0.00     0.225 C 
ATOM     46  O   UNL     1      -5.803  -8.873  -8.234  1.00  0.00    -0.275 OA
ATOM     47  N   UNL     1      -5.764  -7.357  -9.923  1.00  0.00    -0.342 N 
ATOM     48  H   UNL     1      -5.204  -6.719 -10.471  1.00  0.00     0.164 HD
BRANCH  47  49
ATOM     49  C   UNL     1      -7.204  -7.088  -9.855  1.00  0.00     0.192 C 
BRANCH  49  50
ATOM     50  C   UNL     1      -7.854  -7.426 -11.199  1.00  0.00     0.047 C 
BRANCH  50  51
ATOM     51  C   UNL     1      -8.622  -8.755 -11.156  1.00  0.00     0.103 C 
BRANCH  51  52
ATOM     52  C   UNL     1      -9.709  -8.824 -12.227  1.00  0.00     0.226 C 
ATOM     53  O   UNL     1      -9.390  -8.895 -13.415  1.00  0.00    -0.275 OA
BRANCH  52  54
ATOM     54  N   UNL     1     -11.038  -8.880 -11.768  1.00  0.00    -0.311 N 
ATOM     55  C   UNL     1     -11.612  -7.782 -10.978  1.00  0.00     0.153 C 
BRANCH  54  56
ATOM     56  C   UNL     1     -11.865  -9.979 -12.052  1.00  0.00     0.102 C 
ATOM     57  C   UNL     1     -11.940 -11.096 -11.310  1.00  0.00     0.043 C 
BRANCH  56  58
ATOM     58  C   UNL     1     -12.800  -9.960 -13.238  1.00  0.00     0.268 C 
ATOM     59  O   UNL     1     -12.444  -9.644 -14.366  1.00  0.00    -0.268 OA
ATOM     60  N   UNL     1     -14.068 -10.395 -12.934  1.00  0.00    -0.339 N 
ATOM     61  H   UNL     1     -14.285 -10.629 -11.973  1.00  0.00     0.164 HD
BRANCH  60  62
ATOM     62  C   UNL     1     -15.114 -10.515 -13.949  1.00  0.00     0.168 CG0
ATOM     63  C   UNL     1     -15.991  -9.270 -13.980  1.00  0.00     0.041 C 
ATOM     64  G   UNL     1     -15.962 -11.773 -13.670  1.00  0.00     0.000 G0
ENDBRANCH  60  62
ENDBRANCH  56  58
ENDBRANCH  54  56
ENDBRANCH  52  54
ENDBRANCH  51  52
ENDBRANCH  50  51
ENDBRANCH  49  50
BRANCH  49  65
ATOM     65  C   UNL     1      -7.489  -5.619  -9.507  1.00  0.00     0.326 C 
ATOM     66  O   UNL     1      -8.590  -5.087  -9.519  1.00  0.00    -0.250 OA
BRANCH  65  67
ATOM     67  O   UNL     1      -6.392  -4.883  -9.224  1.00  0.00    -0.480 OA
ATOM     68  H   UNL     1      -6.277  -4.324 -10.022  1.00  0.00     0.296 HD
ENDBRANCH  65  67
ENDBRANCH  49  65
ENDBRANCH  47  49
ENDBRANCH  43  45
ENDBRANCH   1  43
BRANCH   1  69
ATOM     69  C   UNL     1      -1.360  -7.198  -8.533  1.00  0.00    -0.001 C 
ATOM     70  C   UNL     1      -0.473  -7.389  -7.541  1.00  0.00     0.001 C 
BRANCH  70  71
ATOM     71  C   UNL     1       0.987  -7.356  -7.648  1.00  0.00    -0.055 C 
ATOM     72  C   UNL     1       1.699  -7.263  -6.504  1.00  0.00    -0.018 C 
ATOM     73  C   UNL     1       1.593  -7.435  -9.025  1.00  0.00     0.044 C 
BRANCH  72  74
ATOM     74  C   UNL     1       3.207  -7.212  -6.310  1.00  0.00     0.038 C 
ATOM     75  C   UNL     1       3.565  -8.273  -5.261  1.00  0.00     0.015 C 
BRANCH  74  76
ATOM     76  C   UNL     1       3.615  -5.758  -5.933  1.00  0.00     0.128 C 
BRANCH  76  77
ATOM     77  O   UNL     1       4.889  -5.762  -5.266  1.00  0.00    -0.381 OA
ATOM     78  C   UNL     1       4.808  -5.463  -3.879  1.00  0.00     0.195 C 
ENDBRANCH  76  77
BRANCH  76  79
ATOM     79  C   UNL     1       3.563  -4.762  -7.119  1.00  0.00     0.068 C 
BRANCH  79  80
ATOM     80  C   UNL     1       3.943  -3.325  -6.854  1.00  0.00    -0.045 A 
ATOM     81  C   UNL     1       2.963  -2.349  -6.631  1.00  0.00     0.004 A 
ATOM     82  C   UNL     1       5.292  -2.939  -6.853  1.00  0.00     0.004 A 
ATOM     83  C   UNL     1       3.322  -1.019  -6.400  1.00  0.00     0.000 A 
ATOM     84  C   UNL     1       5.649  -1.609  -6.623  1.00  0.00     0.000 A 
ATOM     85  C   UNL     1       4.665  -0.650  -6.395  1.00  0.00     0.000 A 
ENDBRANCH  79  80
ENDBRANCH  76  79
ENDBRANCH  74  76
ENDBRANCH  72  74
ENDBRANCH  70  71
ENDBRANCH   1  69
TORSDOF 17
ENDMDL
MODEL 7
REMARK VINA RESULT:    -7.484      5.770     11.705
REMARK INTER + INTRA:         -29.300
REMARK INTER:                 -22.403
REMARK INTRA:                  -6.898
REMARK UNBOUND:                -6.942
REMARK SMILES C=C1C(=O)N[C@H](C)C(=O)N[C@@H](CC(C)C)C(=O)N[C@@H](C(=O)O)[C@H](C)C(=O)N[C@@H](CCCN=C(N)N)C(=O)N[C@@H](/C=C/C(C)=C/[C@H](C)[C@H](Cc2ccccc2)OC)[C@H](C)C(=O)N[C@@H](C(=O)O)CCC(=O)N1C
REMARK SMILES IDX 39 1 38 2 37 3 36 4 28 6 27 7 25 8 26 9 23 11 24 12 19 13
REMARK SMILES IDX 18 14 16 15 17 16 11 18 10 19 8 20 9 21 12 24 13 25 14 26
REMARK SMILES IDX 15 27 20 28 21 29 22 30 29 32 30 33 31 34 32 35 33 36 34 37
REMARK SMILES IDX 35 38 57 43 58 44 59 45 60 46 61 47 62 49 66 50 67 51 68 52
REMARK SMILES IDX 69 53 70 54 71 55 2 56 1 57 3 58 4 59 5 60 6 62 7 63 63 65
REMARK SMILES IDX 64 66 65 67 40 69 41 70 42 71 44 72 43 73 45 74 46 75 47 76
REMARK SMILES IDX 55 77 56 78 48 79 49 80 50 81 54 82 51 83 53 84 52 85
REMARK H PARENT 38 5 27 10 18 17 10 22 22 31 34 39 34 40 35 41 35 42 61 48
REMARK H PARENT 5 61 65 68
REMARK Flexibility Score:  369.900
ROOT
ATOM      1  C   UNL     1      -3.695  -8.361 -10.333  1.00  0.00     0.117 C 
ENDROOT
BRANCH   1   2
ATOM      2  N   UNL     1      -3.613  -8.180  -8.883  1.00  0.00    -0.347 N 
ATOM      3  O   UNL     1      -3.394  -5.895  -8.865  1.00  0.00    -0.273 OA
ATOM      4  C   UNL     1      -3.561  -6.948  -8.259  1.00  0.00     0.243 C 
ATOM      5  H   UNL     1      -3.645  -8.989  -8.281  1.00  0.00     0.164 HD
BRANCH   4   6
ATOM      6  C   UNL     1      -3.567  -7.033  -6.712  1.00  0.00     0.171 C 
BRANCH   6   7
ATOM      7  N   UNL     1      -2.192  -6.989  -6.189  1.00  0.00    -0.344 N 
ATOM      8  C   UNL     1      -1.675  -8.052  -5.480  1.00  0.00     0.226 C 
ATOM      9  O   UNL     1      -2.327  -9.060  -5.233  1.00  0.00    -0.275 OA
ATOM     10  H   UNL     1      -1.645  -6.146  -6.315  1.00  0.00     0.164 HD
BRANCH   8  11
ATOM     11  C   UNL     1      -0.227  -7.877  -5.057  1.00  0.00     0.109 C 
ATOM     12  C   UNL     1       0.698  -8.047  -6.262  1.00  0.00     0.021 C 
BRANCH  11  13
ATOM     13  C   UNL     1      -0.064  -6.545  -4.296  1.00  0.00     0.204 C 
BRANCH  13  14
ATOM     14  N   UNL     1      -0.808  -6.536  -3.033  1.00  0.00    -0.340 N 
ATOM     15  C   UNL     1      -1.816  -5.636  -2.765  1.00  0.00     0.243 C 
ATOM     16  O   UNL     1      -2.204  -4.813  -3.592  1.00  0.00    -0.273 OA
ATOM     17  H   UNL     1      -0.438  -7.087  -2.254  1.00  0.00     0.164 HD
BRANCH  15  18
ATOM     18  C   UNL     1      -2.312  -5.681  -1.298  1.00  0.00     0.171 C 
BRANCH  18  19
ATOM     19  N   UNL     1      -1.983  -4.386  -0.705  1.00  0.00    -0.343 N 
ATOM     20  C   UNL     1      -0.676  -3.996  -0.486  1.00  0.00     0.242 CG0
ATOM     21  O   UNL     1       0.264  -4.769  -0.655  1.00  0.00    -0.273 OA
ATOM     22  H   UNL     1      -2.731  -3.756  -0.440  1.00  0.00     0.164 HD
ATOM     23  G   UNL     1      -0.524  -2.566   0.074  1.00  0.00     0.000 G0
ENDBRANCH  18  19
BRANCH  18  24
ATOM     24  C   UNL     1      -3.819  -5.957  -1.245  1.00  0.00     0.038 C 
BRANCH  24  25
ATOM     25  C   UNL     1      -4.252  -6.964  -0.159  1.00  0.00    -0.015 C 
ATOM     26  C   UNL     1      -5.711  -7.396  -0.308  1.00  0.00     0.007 C 
ATOM     27  C   UNL     1      -4.035  -6.352   1.227  1.00  0.00     0.007 C 
ENDBRANCH  24  25
ENDBRANCH  18  24
ENDBRANCH  15  18
ENDBRANCH  13  14
BRANCH  13  28
ATOM     28  C   UNL     1       1.395  -6.214  -3.966  1.00  0.00     0.327 C 
ATOM     29  O   UNL     1       2.216  -6.975  -3.478  1.00  0.00    -0.250 OA
BRANCH  28  30
ATOM     30  O   UNL     1       1.698  -4.914  -4.159  1.00  0.00    -0.480 OA
ATOM     31  H   UNL     1       2.289  -4.918  -4.941  1.00  0.00     0.296 HD
ENDBRANCH  28  30
ENDBRANCH  13  28
ENDBRANCH  11  13
ENDBRANCH   8  11
ENDBRANCH   6   7
BRANCH   6  32
ATOM     32  C   UNL     1      -4.404  -5.879  -6.148  1.00  0.00     0.037 C 
BRANCH  32  33
ATOM     33  C   UNL     1      -5.046  -6.234  -4.800  1.00  0.00     0.026 C 
BRANCH  33  34
ATOM     34  C   UNL     1      -5.980  -5.136  -4.289  1.00  0.00     0.146 C 
BRANCH  34  35
ATOM     35  N   UNL     1      -6.209  -4.178  -5.361  1.00  0.00    -0.254 NA
ATOM     36  C   UNL     1      -7.291  -4.263  -6.041  1.00  0.00     0.185 C 
ATOM     37  N   UNL     1      -7.514  -3.382  -7.028  1.00  0.00    -0.370 N 
ATOM     38  N   UNL     1      -8.299  -5.145  -5.917  1.00  0.00    -0.370 N 
ATOM     39  H   UNL     1      -6.803  -2.677  -7.177  1.00  0.00     0.159 HD
ATOM     40  H   UNL     1      -8.403  -3.273  -7.486  1.00  0.00     0.159 HD
ATOM     41  H   UNL     1      -9.034  -5.196  -6.604  1.00  0.00     0.159 HD
ATOM     42  H   UNL     1      -8.258  -5.876  -5.224  1.00  0.00     0.159 HD
ENDBRANCH  34  35
ENDBRANCH  33  34
ENDBRANCH  32  33
ENDBRANCH   6  32
ENDBRANCH   4   6
ENDBRANCH   1   2
BRANCH   1  43
ATOM     43  C   UNL     1      -4.921  -9.266 -10.650  1.00  0.00     0.102 C 
ATOM     44  C   UNL     1      -5.016  -9.670 -12.131  1.00  0.00     0.020 C 
BRANCH  43  45
ATOM     45  C   UNL     1      -6.211  -8.663 -10.086  1.00  0.00     0.225 C 
ATOM     46  O   UNL     1      -6.413  -8.516  -8.884  1.00  0.00    -0.275 OA
ATOM     47  N   UNL     1      -7.186  -8.376 -11.014  1.00  0.00    -0.342 N 
ATOM     48  H   UNL     1      -6.951  -8.359 -11.997  1.00  0.00     0.164 HD
BRANCH  47  49
ATOM     49  C   UNL     1      -8.458  -7.762 -10.624  1.00  0.00     0.192 C 
BRANCH  49  50
ATOM     50  C   UNL     1      -9.500  -7.997 -11.720  1.00  0.00     0.047 C 
BRANCH  50  51
ATOM     51  C   UNL     1      -9.004  -8.972 -12.796  1.00  0.00     0.103 C 
BRANCH  51  52
ATOM     52  C   UNL     1      -9.494 -10.397 -12.549  1.00  0.00     0.226 C 
ATOM     53  O   UNL     1      -8.846 -11.147 -11.817  1.00  0.00    -0.275 OA
BRANCH  52  54
ATOM     54  N   UNL     1     -10.728 -10.745 -13.130  1.00  0.00    -0.311 N 
ATOM     55  C   UNL     1     -10.813 -11.145 -14.541  1.00  0.00     0.153 C 
BRANCH  54  56
ATOM     56  C   UNL     1     -11.919 -10.729 -12.385  1.00  0.00     0.102 C 
ATOM     57  C   UNL     1     -12.176 -11.520 -11.330  1.00  0.00     0.043 C 
BRANCH  56  58
ATOM     58  C   UNL     1     -13.021  -9.747 -12.706  1.00  0.00     0.268 C 
ATOM     59  O   UNL     1     -12.936  -8.548 -12.478  1.00  0.00    -0.268 OA
ATOM     60  N   UNL     1     -14.095 -10.328 -13.336  1.00  0.00    -0.339 N 
ATOM     61  H   UNL     1     -14.093 -11.331 -13.479  1.00  0.00     0.164 HD
BRANCH  60  62
ATOM     62  C   UNL     1     -15.246  -9.548 -13.792  1.00  0.00     0.168 CG0
ATOM     63  C   UNL     1     -16.469 -10.437 -13.978  1.00  0.00     0.041 C 
ATOM     64  G   UNL     1     -14.891  -8.824 -15.107  1.00  0.00     0.000 G0
ENDBRANCH  60  62
ENDBRANCH  56  58
ENDBRANCH  54  56
ENDBRANCH  52  54
ENDBRANCH  51  52
ENDBRANCH  50  51
ENDBRANCH  49  50
BRANCH  49  65
ATOM     65  C   UNL     1      -8.308  -6.253 -10.379  1.00  0.00     0.326 C 
ATOM     66  O   UNL     1      -8.180  -5.402 -11.247  1.00  0.00    -0.250 OA
BRANCH  65  67
ATOM     67  O   UNL     1      -8.264  -5.894  -9.077  1.00  0.00    -0.480 OA
ATOM     68  H   UNL     1      -7.352  -5.551  -8.962  1.00  0.00     0.296 HD
ENDBRANCH  65  67
ENDBRANCH  49  65
ENDBRANCH  47  49
ENDBRANCH  43  45
ENDBRANCH   1  43
BRANCH   1  69
ATOM     69  C   UNL     1      -2.317  -8.808 -10.783  1.00  0.00    -0.001 C 
ATOM     70  C   UNL     1      -1.173  -8.103 -10.735  1.00  0.00     0.001 C 
BRANCH  70  71
ATOM     71  C   UNL     1       0.156  -8.554 -11.152  1.00  0.00    -0.055 C 
ATOM     72  C   UNL     1       1.178  -8.379 -10.288  1.00  0.00    -0.018 C 
ATOM     73  C   UNL     1       0.288  -9.187 -12.513  1.00  0.00     0.044 C 
BRANCH  72  74
ATOM     74  C   UNL     1       2.647  -8.747 -10.446  1.00  0.00     0.038 C 
ATOM     75  C   UNL     1       2.855 -10.092  -9.739  1.00  0.00     0.015 C 
BRANCH  74  76
ATOM     76  C   UNL     1       3.518  -7.579  -9.898  1.00  0.00     0.128 C 
BRANCH  76  77
ATOM     77  O   UNL     1       4.308  -7.016 -10.958  1.00  0.00    -0.381 OA
ATOM     78  C   UNL     1       5.523  -7.714 -11.198  1.00  0.00     0.195 C 
ENDBRANCH  76  77
BRANCH  76  79
ATOM     79  C   UNL     1       2.715  -6.509  -9.116  1.00  0.00     0.068 C 
BRANCH  79  80
ATOM     80  C   UNL     1       3.412  -5.786  -7.988  1.00  0.00    -0.045 A 
ATOM     81  C   UNL     1       3.555  -4.392  -8.004  1.00  0.00     0.004 A 
ATOM     82  C   UNL     1       3.956  -6.508  -6.915  1.00  0.00     0.004 A 
ATOM     83  C   UNL     1       4.214  -3.733  -6.964  1.00  0.00     0.000 A 
ATOM     84  C   UNL     1       4.615  -5.847  -5.876  1.00  0.00     0.000 A 
ATOM     85  C   UNL     1       4.742  -4.460  -5.900  1.00  0.00     0.000 A 
ENDBRANCH  79  80
ENDBRANCH  76  79
ENDBRANCH  74  76
ENDBRANCH  72  74
ENDBRANCH  70  71
ENDBRANCH   1  69
TORSDOF 17
ENDMDL
MODEL 8
REMARK VINA RESULT:    -7.478      2.768     12.699
REMARK INTER + INTRA:         -29.283
REMARK INTER:                 -23.213
REMARK INTRA:                  -6.070
REMARK UNBOUND:                -6.942
REMARK SMILES C=C1C(=O)N[C@H](C)C(=O)N[C@@H](CC(C)C)C(=O)N[C@@H](C(=O)O)[C@H](C)C(=O)N[C@@H](CCCN=C(N)N)C(=O)N[C@@H](/C=C/C(C)=C/[C@H](C)[C@H](Cc2ccccc2)OC)[C@H](C)C(=O)N[C@@H](C(=O)O)CCC(=O)N1C
REMARK SMILES IDX 39 1 38 2 37 3 36 4 28 6 27 7 25 8 26 9 23 11 24 12 19 13
REMARK SMILES IDX 18 14 16 15 17 16 11 18 10 19 8 20 9 21 12 24 13 25 14 26
REMARK SMILES IDX 15 27 20 28 21 29 22 30 29 32 30 33 31 34 32 35 33 36 34 37
REMARK SMILES IDX 35 38 57 43 58 44 59 45 60 46 61 47 62 49 66 50 67 51 68 52
REMARK SMILES IDX 69 53 70 54 71 55 2 56 1 57 3 58 4 59 5 60 6 62 7 63 63 65
REMARK SMILES IDX 64 66 65 67 40 69 41 70 42 71 44 72 43 73 45 74 46 75 47 76
REMARK SMILES IDX 55 77 56 78 48 79 49 80 50 81 54 82 51 83 53 84 52 85
REMARK H PARENT 38 5 27 10 18 17 10 22 22 31 34 39 34 40 35 41 35 42 61 48
REMARK H PARENT 5 61 65 68
REMARK Flexibility Score:  369.900
ROOT
ATOM      1  C   UNL     1      -2.191  -7.470  -0.950  1.00  0.00     0.117 C 
ENDROOT
BRANCH   1   2
ATOM      2  N   UNL     1      -3.625  -7.507  -1.236  1.00  0.00    -0.347 N 
ATOM      3  O   UNL     1      -4.042  -9.632  -0.473  1.00  0.00    -0.273 OA
ATOM      4  C   UNL     1      -4.456  -8.555  -0.889  1.00  0.00     0.243 C 
ATOM      5  H   UNL     1      -4.064  -6.708  -1.668  1.00  0.00     0.164 HD
BRANCH   4   6
ATOM      6  C   UNL     1      -5.948  -8.306  -1.227  1.00  0.00     0.171 C 
BRANCH   6   7
ATOM      7  N   UNL     1      -6.782  -8.463  -0.025  1.00  0.00    -0.344 N 
ATOM      8  C   UNL     1      -6.608  -7.636   1.064  1.00  0.00     0.226 C 
ATOM      9  O   UNL     1      -5.752  -6.760   1.097  1.00  0.00    -0.275 OA
ATOM     10  H   UNL     1      -7.454  -9.219   0.011  1.00  0.00     0.164 HD
BRANCH   8  11
ATOM     11  C   UNL     1      -7.580  -7.888   2.203  1.00  0.00     0.109 C 
ATOM     12  C   UNL     1      -8.646  -8.895   1.771  1.00  0.00     0.021 C 
BRANCH  11  13
ATOM     13  C   UNL     1      -6.802  -8.273   3.477  1.00  0.00     0.204 C 
BRANCH  13  14
ATOM     14  N   UNL     1      -7.692  -8.731   4.549  1.00  0.00    -0.340 N 
ATOM     15  C   UNL     1      -7.809  -8.074   5.755  1.00  0.00     0.243 C 
ATOM     16  O   UNL     1      -7.220  -7.022   5.994  1.00  0.00    -0.273 OA
ATOM     17  H   UNL     1      -8.089  -9.671   4.475  1.00  0.00     0.164 HD
BRANCH  15  18
ATOM     18  C   UNL     1      -8.642  -8.851   6.804  1.00  0.00     0.171 C 
BRANCH  18  19
ATOM     19  N   UNL     1      -9.404  -7.855   7.554  1.00  0.00    -0.343 N 
ATOM     20  C   UNL     1      -9.180  -7.627   8.898  1.00  0.00     0.242 CG0
ATOM     21  O   UNL     1      -8.425  -8.340   9.555  1.00  0.00    -0.273 OA
ATOM     22  H   UNL     1     -10.123  -7.319   7.081  1.00  0.00     0.164 HD
ATOM     23  G   UNL     1     -10.024  -6.484   9.499  1.00  0.00     0.000 G0
ENDBRANCH  18  19
BRANCH  18  24
ATOM     24  C   UNL     1      -9.566  -9.866   6.118  1.00  0.00     0.038 C 
BRANCH  24  25
ATOM     25  C   UNL     1     -11.060  -9.480   6.118  1.00  0.00    -0.015 C 
ATOM     26  C   UNL     1     -11.973 -10.675   6.394  1.00  0.00     0.007 C 
ATOM     27  C   UNL     1     -11.429  -8.849   4.773  1.00  0.00     0.007 C 
ENDBRANCH  24  25
ENDBRANCH  18  24
ENDBRANCH  15  18
ENDBRANCH  13  14
BRANCH  13  28
ATOM     28  C   UNL     1      -5.769  -9.379   3.242  1.00  0.00     0.327 C 
ATOM     29  O   UNL     1      -5.999 -10.574   3.138  1.00  0.00    -0.250 OA
BRANCH  28  30
ATOM     30  O   UNL     1      -4.498  -8.929   3.270  1.00  0.00    -0.480 OA
ATOM     31  H   UNL     1      -3.966  -9.689   2.954  1.00  0.00     0.296 HD
ENDBRANCH  28  30
ENDBRANCH  13  28
ENDBRANCH  11  13
ENDBRANCH   8  11
ENDBRANCH   6   7
BRANCH   6  32
ATOM     32  C   UNL     1      -6.102  -6.901  -1.821  1.00  0.00     0.037 C 
BRANCH  32  33
ATOM     33  C   UNL     1      -7.219  -6.835  -2.871  1.00  0.00     0.026 C 
BRANCH  33  34
ATOM     34  C   UNL     1      -7.569  -5.399  -3.264  1.00  0.00     0.146 C 
BRANCH  34  35
ATOM     35  N   UNL     1      -7.147  -5.171  -4.639  1.00  0.00    -0.254 NA
ATOM     36  C   UNL     1      -6.039  -4.562  -4.849  1.00  0.00     0.185 C 
ATOM     37  N   UNL     1      -5.638  -4.352  -6.112  1.00  0.00    -0.370 N 
ATOM     38  N   UNL     1      -5.162  -4.073  -3.955  1.00  0.00    -0.370 N 
ATOM     39  H   UNL     1      -6.242  -4.702  -6.844  1.00  0.00     0.159 HD
ATOM     40  H   UNL     1      -4.713  -4.043  -6.357  1.00  0.00     0.159 HD
ATOM     41  H   UNL     1      -4.394  -3.490  -4.244  1.00  0.00     0.159 HD
ATOM     42  H   UNL     1      -5.343  -4.146  -2.966  1.00  0.00     0.159 HD
ENDBRANCH  34  35
ENDBRANCH  33  34
ENDBRANCH  32  33
ENDBRANCH   6  32
ENDBRANCH   4   6
ENDBRANCH   1   2
BRANCH   1  43
ATOM     43  C   UNL     1      -1.837  -6.071  -0.369  1.00  0.00     0.102 C 
ATOM     44  C   UNL     1      -2.711  -5.668   0.831  1.00  0.00     0.020 C 
BRANCH  43  45
ATOM     45  C   UNL     1      -1.777  -5.014  -1.476  1.00  0.00     0.225 C 
ATOM     46  O   UNL     1      -2.678  -4.848  -2.294  1.00  0.00    -0.275 OA
ATOM     47  N   UNL     1      -0.597  -4.313  -1.562  1.00  0.00    -0.342 N 
ATOM     48  H   UNL     1       0.065  -4.352  -0.800  1.00  0.00     0.164 HD
BRANCH  47  49
ATOM     49  C   UNL     1      -0.410  -3.246  -2.551  1.00  0.00     0.192 C 
BRANCH  49  50
ATOM     50  C   UNL     1       1.071  -3.145  -2.924  1.00  0.00     0.047 C 
BRANCH  50  51
ATOM     51  C   UNL     1       1.696  -4.519  -3.204  1.00  0.00     0.103 C 
BRANCH  51  52
ATOM     52  C   UNL     1       2.471  -4.539  -4.520  1.00  0.00     0.226 C 
ATOM     53  O   UNL     1       1.879  -4.328  -5.580  1.00  0.00    -0.275 OA
BRANCH  52  54
ATOM     54  N   UNL     1       3.862  -4.730  -4.425  1.00  0.00    -0.311 N 
ATOM     55  C   UNL     1       4.560  -5.664  -5.319  1.00  0.00     0.153 C 
BRANCH  54  56
ATOM     56  C   UNL     1       4.634  -4.034  -3.481  1.00  0.00     0.102 C 
ATOM     57  C   UNL     1       5.239  -4.593  -2.420  1.00  0.00     0.043 C 
BRANCH  56  58
ATOM     58  C   UNL     1       4.885  -2.551  -3.626  1.00  0.00     0.268 C 
ATOM     59  O   UNL     1       4.873  -1.774  -2.681  1.00  0.00    -0.268 OA
ATOM     60  N   UNL     1       5.191  -2.179  -4.914  1.00  0.00    -0.339 N 
ATOM     61  H   UNL     1       5.168  -2.882  -5.642  1.00  0.00     0.164 HD
BRANCH  60  62
ATOM     62  C   UNL     1       5.529  -0.801  -5.266  1.00  0.00     0.168 CG0
ATOM     63  C   UNL     1       6.439  -0.756  -6.488  1.00  0.00     0.041 C 
ATOM     64  G   UNL     1       6.199  -0.108  -4.061  1.00  0.00     0.000 G0
ENDBRANCH  60  62
ENDBRANCH  56  58
ENDBRANCH  54  56
ENDBRANCH  52  54
ENDBRANCH  51  52
ENDBRANCH  50  51
ENDBRANCH  49  50
BRANCH  49  65
ATOM     65  C   UNL     1      -0.894  -1.888  -2.018  1.00  0.00     0.326 C 
ATOM     66  O   UNL     1      -0.849  -1.526  -0.851  1.00  0.00    -0.250 OA
BRANCH  65  67
ATOM     67  O   UNL     1      -1.458  -1.087  -2.948  1.00  0.00    -0.480 OA
ATOM     68  H   UNL     1      -2.301  -1.541  -3.164  1.00  0.00     0.296 HD
ENDBRANCH  65  67
ENDBRANCH  49  65
ENDBRANCH  47  49
ENDBRANCH  43  45
ENDBRANCH   1  43
BRANCH   1  69
ATOM     69  C   UNL     1      -1.494  -7.936  -2.216  1.00  0.00    -0.001 C 
ATOM     70  C   UNL     1      -2.028  -8.058  -3.444  1.00  0.00     0.001 C 
BRANCH  70  71
ATOM     71  C   UNL     1      -1.340  -8.488  -4.663  1.00  0.00    -0.055 C 
ATOM     72  C   UNL     1      -0.130  -7.951  -4.924  1.00  0.00    -0.018 C 
ATOM     73  C   UNL     1      -2.028  -9.506  -5.536  1.00  0.00     0.044 C 
BRANCH  72  74
ATOM     74  C   UNL     1       0.805  -8.207  -6.097  1.00  0.00     0.038 C 
ATOM     75  C   UNL     1       2.239  -8.080  -5.569  1.00  0.00     0.015 C 
BRANCH  74  76
ATOM     76  C   UNL     1       0.444  -7.224  -7.249  1.00  0.00     0.128 C 
BRANCH  76  77
ATOM     77  O   UNL     1       1.622  -6.524  -7.684  1.00  0.00    -0.381 OA
ATOM     78  C   UNL     1       2.028  -6.856  -9.005  1.00  0.00     0.195 C 
ENDBRANCH  76  77
BRANCH  76  79
ATOM     79  C   UNL     1      -0.328  -7.883  -8.420  1.00  0.00     0.068 C 
BRANCH  79  80
ATOM     80  C   UNL     1      -1.631  -7.253  -8.851  1.00  0.00    -0.045 A 
ATOM     81  C   UNL     1      -2.659  -7.018  -7.928  1.00  0.00     0.004 A 
ATOM     82  C   UNL     1      -1.843  -6.918 -10.196  1.00  0.00     0.004 A 
ATOM     83  C   UNL     1      -3.866  -6.448  -8.338  1.00  0.00     0.000 A 
ATOM     84  C   UNL     1      -3.051  -6.348 -10.605  1.00  0.00     0.000 A 
ATOM     85  C   UNL     1      -4.061  -6.112  -9.675  1.00  0.00     0.000 A 
ENDBRANCH  79  80
ENDBRANCH  76  79
ENDBRANCH  74  76
ENDBRANCH  72  74
ENDBRANCH  70  71
ENDBRANCH   1  69
TORSDOF 17
ENDMDL
MODEL 9
REMARK VINA RESULT:    -7.471      1.986      4.057
REMARK INTER + INTRA:         -29.261
REMARK INTER:                 -21.596
REMARK INTRA:                  -7.665
REMARK UNBOUND:                -6.942
REMARK SMILES C=C1C(=O)N[C@H](C)C(=O)N[C@@H](CC(C)C)C(=O)N[C@@H](C(=O)O)[C@H](C)C(=O)N[C@@H](CCCN=C(N)N)C(=O)N[C@@H](/C=C/C(C)=C/[C@H](C)[C@H](Cc2ccccc2)OC)[C@H](C)C(=O)N[C@@H](C(=O)O)CCC(=O)N1C
REMARK SMILES IDX 39 1 38 2 37 3 36 4 28 6 27 7 25 8 26 9 23 11 24 12 19 13
REMARK SMILES IDX 18 14 16 15 17 16 11 18 10 19 8 20 9 21 12 24 13 25 14 26
REMARK SMILES IDX 15 27 20 28 21 29 22 30 29 32 30 33 31 34 32 35 33 36 34 37
REMARK SMILES IDX 35 38 57 43 58 44 59 45 60 46 61 47 62 49 66 50 67 51 68 52
REMARK SMILES IDX 69 53 70 54 71 55 2 56 1 57 3 58 4 59 5 60 6 62 7 63 63 65
REMARK SMILES IDX 64 66 65 67 40 69 41 70 42 71 44 72 43 73 45 74 46 75 47 76
REMARK SMILES IDX 55 77 56 78 48 79 49 80 50 81 54 82 51 83 53 84 52 85
REMARK H PARENT 38 5 27 10 18 17 10 22 22 31 34 39 34 40 35 41 35 42 61 48
REMARK H PARENT 5 61 65 68
REMARK Flexibility Score:  369.900
ROOT
ATOM      1  C   UNL     1      -2.186  -3.468  -2.495  1.00  0.00     0.117 C 
ENDROOT
BRANCH   1   2
ATOM      2  N   UNL     1      -0.756  -3.652  -2.742  1.00  0.00    -0.347 N 
ATOM      3  O   UNL     1      -0.336  -1.601  -3.684  1.00  0.00    -0.273 OA
ATOM      4  C   UNL     1       0.077  -2.665  -3.235  1.00  0.00     0.243 C 
ATOM      5  H   UNL     1      -0.320  -4.529  -2.499  1.00  0.00     0.164 HD
BRANCH   4   6
ATOM      6  C   UNL     1       1.564  -3.091  -3.322  1.00  0.00     0.171 C 
BRANCH   6   7
ATOM      7  N   UNL     1       1.723  -4.216  -4.258  1.00  0.00    -0.344 N 
ATOM      8  C   UNL     1       2.370  -5.368  -3.867  1.00  0.00     0.226 C 
ATOM      9  O   UNL     1       2.857  -5.506  -2.751  1.00  0.00    -0.275 OA
ATOM     10  H   UNL     1       1.394  -4.113  -5.209  1.00  0.00     0.164 HD
BRANCH   8  11
ATOM     11  C   UNL     1       2.405  -6.456  -4.926  1.00  0.00     0.109 C 
ATOM     12  C   UNL     1       2.785  -7.795  -4.293  1.00  0.00     0.021 C 
BRANCH  11  13
ATOM     13  C   UNL     1       1.077  -6.463  -5.710  1.00  0.00     0.204 C 
BRANCH  13  14
ATOM     14  N   UNL     1       1.235  -7.018  -7.058  1.00  0.00    -0.340 N 
ATOM     15  C   UNL     1       1.573  -6.247  -8.149  1.00  0.00     0.243 C 
ATOM     16  O   UNL     1       1.827  -5.048  -8.057  1.00  0.00    -0.273 OA
ATOM     17  H   UNL     1       0.893  -7.967  -7.230  1.00  0.00     0.164 HD
BRANCH  15  18
ATOM     18  C   UNL     1       1.478  -7.006  -9.496  1.00  0.00     0.171 C 
BRANCH  18  19
ATOM     19  N   UNL     1       2.609  -7.930  -9.537  1.00  0.00    -0.343 N 
ATOM     20  C   UNL     1       3.887  -7.504  -9.844  1.00  0.00     0.242 CG0
ATOM     21  O   UNL     1       4.109  -6.358 -10.227  1.00  0.00    -0.273 OA
ATOM     22  H   UNL     1       2.456  -8.913  -9.341  1.00  0.00     0.164 HD
ATOM     23  G   UNL     1       4.963  -8.607  -9.761  1.00  0.00     0.000 G0
ENDBRANCH  18  19
BRANCH  18  24
ATOM     24  C   UNL     1       0.141  -7.750  -9.604  1.00  0.00     0.038 C 
BRANCH  24  25
ATOM     25  C   UNL     1      -0.718  -7.356 -10.825  1.00  0.00    -0.015 C 
ATOM     26  C   UNL     1      -2.035  -6.691 -10.424  1.00  0.00     0.007 C 
ATOM     27  C   UNL     1      -1.005  -8.598 -11.674  1.00  0.00     0.007 C 
ENDBRANCH  24  25
ENDBRANCH  18  24
ENDBRANCH  15  18
ENDBRANCH  13  14
BRANCH  13  28
ATOM     28  C   UNL     1      -0.029  -7.264  -5.016  1.00  0.00     0.327 C 
ATOM     29  O   UNL     1      -0.562  -8.278  -5.441  1.00  0.00    -0.250 OA
BRANCH  28  30
ATOM     30  O   UNL     1      -0.480  -6.676  -3.889  1.00  0.00    -0.480 OA
ATOM     31  H   UNL     1      -0.482  -5.720  -4.100  1.00  0.00     0.296 HD
ENDBRANCH  28  30
ENDBRANCH  13  28
ENDBRANCH  11  13
ENDBRANCH   8  11
ENDBRANCH   6   7
BRANCH   6  32
ATOM     32  C   UNL     1       2.407  -1.889  -3.763  1.00  0.00     0.037 C 
BRANCH  32  33
ATOM     33  C   UNL     1       3.909  -2.206  -3.771  1.00  0.00     0.026 C 
BRANCH  33  34
ATOM     34  C   UNL     1       4.550  -1.965  -5.139  1.00  0.00     0.146 C 
BRANCH  34  35
ATOM     35  N   UNL     1       4.188  -3.061  -6.027  1.00  0.00    -0.254 NA
ATOM     36  C   UNL     1       5.014  -3.409  -6.942  1.00  0.00     0.185 C 
ATOM     37  N   UNL     1       4.693  -4.421  -7.763  1.00  0.00    -0.370 N 
ATOM     38  N   UNL     1       6.224  -2.895  -7.228  1.00  0.00    -0.370 N 
ATOM     39  H   UNL     1       3.799  -4.868  -7.604  1.00  0.00     0.159 HD
ATOM     40  H   UNL     1       5.349  -4.863  -8.383  1.00  0.00     0.159 HD
ATOM     41  H   UNL     1       6.720  -3.164  -8.062  1.00  0.00     0.159 HD
ATOM     42  H   UNL     1       6.588  -2.117  -6.700  1.00  0.00     0.159 HD
ENDBRANCH  34  35
ENDBRANCH  33  34
ENDBRANCH  32  33
ENDBRANCH   6  32
ENDBRANCH   4   6
ENDBRANCH   1   2
BRANCH   1  43
ATOM     43  C   UNL     1      -2.383  -3.067  -1.004  1.00  0.00     0.102 C 
ATOM     44  C   UNL     1      -1.931  -1.631  -0.692  1.00  0.00     0.020 C 
BRANCH  43  45
ATOM     45  C   UNL     1      -1.789  -4.123  -0.067  1.00  0.00     0.225 C 
ATOM     46  O   UNL     1      -0.592  -4.392  -0.033  1.00  0.00    -0.275 OA
ATOM     47  N   UNL     1      -2.701  -4.831   0.682  1.00  0.00    -0.342 N 
ATOM     48  H   UNL     1      -3.653  -4.499   0.756  1.00  0.00     0.164 HD
BRANCH  47  49
ATOM     49  C   UNL     1      -2.275  -5.848   1.648  1.00  0.00     0.192 C 
BRANCH  49  50
ATOM     50  C   UNL     1      -3.296  -6.988   1.679  1.00  0.00     0.047 C 
BRANCH  50  51
ATOM     51  C   UNL     1      -4.559  -6.660   0.871  1.00  0.00     0.103 C 
BRANCH  51  52
ATOM     52  C   UNL     1      -5.833  -7.069   1.607  1.00  0.00     0.226 C 
ATOM     53  O   UNL     1      -6.529  -6.206   2.148  1.00  0.00    -0.275 OA
BRANCH  52  54
ATOM     54  N   UNL     1      -6.178  -8.432   1.555  1.00  0.00    -0.311 N 
ATOM     55  C   UNL     1      -6.330  -9.124   0.269  1.00  0.00     0.153 C 
BRANCH  54  56
ATOM     56  C   UNL     1      -6.383  -9.181   2.726  1.00  0.00     0.102 C 
ATOM     57  C   UNL     1      -5.483 -10.016   3.271  1.00  0.00     0.043 C 
BRANCH  56  58
ATOM     58  C   UNL     1      -7.668  -9.058   3.509  1.00  0.00     0.268 C 
ATOM     59  O   UNL     1      -8.749  -8.816   2.989  1.00  0.00    -0.268 OA
ATOM     60  N   UNL     1      -7.509  -9.312   4.851  1.00  0.00    -0.339 N 
ATOM     61  H   UNL     1      -6.578  -9.495   5.205  1.00  0.00     0.164 HD
BRANCH  60  62
ATOM     62  C   UNL     1      -8.636  -9.309   5.783  1.00  0.00     0.168 CG0
ATOM     63  C   UNL     1      -8.745  -7.971   6.505  1.00  0.00     0.041 C 
ATOM     64  G   UNL     1      -8.474 -10.463   6.793  1.00  0.00     0.000 G0
ENDBRANCH  60  62
ENDBRANCH  56  58
ENDBRANCH  54  56
ENDBRANCH  52  54
ENDBRANCH  51  52
ENDBRANCH  50  51
ENDBRANCH  49  50
BRANCH  49  65
ATOM     65  C   UNL     1      -2.124  -5.260   3.060  1.00  0.00     0.326 C 
ATOM     66  O   UNL     1      -1.637  -5.837   4.021  1.00  0.00    -0.250 OA
BRANCH  65  67
ATOM     67  O   UNL     1      -2.639  -4.020   3.212  1.00  0.00    -0.480 OA
ATOM     68  H   UNL     1      -2.116  -3.641   3.951  1.00  0.00     0.296 HD
ENDBRANCH  65  67
ENDBRANCH  49  65
ENDBRANCH  47  49
ENDBRANCH  43  45
ENDBRANCH   1  43
BRANCH   1  69
ATOM     69  C   UNL     1      -2.870  -4.720  -3.014  1.00  0.00    -0.001 C 
ATOM     70  C   UNL     1      -4.120  -5.137  -2.748  1.00  0.00     0.001 C 
BRANCH  70  71
ATOM     71  C   UNL     1      -4.777  -6.336  -3.273  1.00  0.00    -0.055 C 
ATOM     72  C   UNL     1      -4.129  -7.042  -4.224  1.00  0.00    -0.018 C 
ATOM     73  C   UNL     1      -6.125  -6.703  -2.708  1.00  0.00     0.044 C 
BRANCH  72  74
ATOM     74  C   UNL     1      -4.560  -8.313  -4.941  1.00  0.00     0.038 C 
ATOM     75  C   UNL     1      -3.767  -9.472  -4.324  1.00  0.00     0.015 C 
BRANCH  74  76
ATOM     76  C   UNL     1      -4.350  -8.121  -6.472  1.00  0.00     0.128 C 
BRANCH  76  77
ATOM     77  O   UNL     1      -5.403  -8.776  -7.198  1.00  0.00    -0.381 OA
ATOM     78  C   UNL     1      -4.967  -9.906  -7.941  1.00  0.00     0.195 C 
ENDBRANCH  76  77
BRANCH  76  79
ATOM     79  C   UNL     1      -4.156  -6.644  -6.899  1.00  0.00     0.068 C 
BRANCH  79  80
ATOM     80  C   UNL     1      -5.326  -5.933  -7.535  1.00  0.00    -0.045 A 
ATOM     81  C   UNL     1      -6.313  -5.323  -6.750  1.00  0.00     0.004 A 
ATOM     82  C   UNL     1      -5.457  -5.895  -8.931  1.00  0.00     0.004 A 
ATOM     83  C   UNL     1      -7.400  -4.679  -7.345  1.00  0.00     0.000 A 
ATOM     84  C   UNL     1      -6.544  -5.251  -9.526  1.00  0.00     0.000 A 
ATOM     85  C   UNL     1      -7.514  -4.642  -8.733  1.00  0.00     0.000 A 
ENDBRANCH  79  80
ENDBRANCH  76  79
ENDBRANCH  74  76
ENDBRANCH  72  74
ENDBRANCH  70  71
ENDBRANCH   1  69
TORSDOF 17
ENDMDL
MODEL 10
REMARK VINA RESULT:    -7.464      3.245     12.329
REMARK INTER + INTRA:         -29.241
REMARK INTER:                 -21.084
REMARK INTRA:                  -8.157
REMARK UNBOUND:                -6.942
REMARK SMILES C=C1C(=O)N[C@H](C)C(=O)N[C@@H](CC(C)C)C(=O)N[C@@H](C(=O)O)[C@H](C)C(=O)N[C@@H](CCCN=C(N)N)C(=O)N[C@@H](/C=C/C(C)=C/[C@H](C)[C@H](Cc2ccccc2)OC)[C@H](C)C(=O)N[C@@H](C(=O)O)CCC(=O)N1C
REMARK SMILES IDX 39 1 38 2 37 3 36 4 28 6 27 7 25 8 26 9 23 11 24 12 19 13
REMARK SMILES IDX 18 14 16 15 17 16 11 18 10 19 8 20 9 21 12 24 13 25 14 26
REMARK SMILES IDX 15 27 20 28 21 29 22 30 29 32 30 33 31 34 32 35 33 36 34 37
REMARK SMILES IDX 35 38 57 43 58 44 59 45 60 46 61 47 62 49 66 50 67 51 68 52
REMARK SMILES IDX 69 53 70 54 71 55 2 56 1 57 3 58 4 59 5 60 6 62 7 63 63 65
REMARK SMILES IDX 64 66 65 67 40 69 41 70 42 71 44 72 43 73 45 74 46 75 47 76
REMARK SMILES IDX 55 77 56 78 48 79 49 80 50 81 54 82 51 83 53 84 52 85
REMARK H PARENT 38 5 27 10 18 17 10 22 22 31 34 39 34 40 35 41 35 42 61 48
REMARK H PARENT 5 61 65 68
REMARK Flexibility Score:  369.900
ROOT
ATOM      1  C   UNL     1      -0.561  -8.018  -5.375  1.00  0.00     0.117 C 
ENDROOT
BRANCH   1   2
ATOM      2  N   UNL     1      -0.081  -6.667  -5.080  1.00  0.00    -0.347 N 
ATOM      3  O   UNL     1       0.361  -6.972  -2.848  1.00  0.00    -0.273 OA
ATOM      4  C   UNL     1       0.429  -6.278  -3.857  1.00  0.00     0.243 C 
ATOM      5  H   UNL     1      -0.068  -5.976  -5.815  1.00  0.00     0.164 HD
BRANCH   4   6
ATOM      6  C   UNL     1       0.947  -4.817  -3.835  1.00  0.00     0.171 C 
BRANCH   6   7
ATOM      7  N   UNL     1       0.442  -4.110  -2.647  1.00  0.00    -0.344 N 
ATOM      8  C   UNL     1      -0.039  -2.822  -2.748  1.00  0.00     0.226 C 
ATOM      9  O   UNL     1      -0.050  -2.202  -3.804  1.00  0.00    -0.275 OA
ATOM     10  H   UNL     1       0.497  -4.565  -1.744  1.00  0.00     0.164 HD
BRANCH   8  11
ATOM     11  C   UNL     1      -0.574  -2.251  -1.446  1.00  0.00     0.109 C 
ATOM     12  C   UNL     1      -0.336  -0.742  -1.397  1.00  0.00     0.021 C 
BRANCH  11  13
ATOM     13  C   UNL     1      -2.041  -2.683  -1.252  1.00  0.00     0.204 C 
BRANCH  13  14
ATOM     14  N   UNL     1      -2.230  -3.459  -0.022  1.00  0.00    -0.340 N 
ATOM     15  C   UNL     1      -2.176  -4.835   0.010  1.00  0.00     0.243 C 
ATOM     16  O   UNL     1      -1.906  -5.509  -0.983  1.00  0.00    -0.273 OA
ATOM     17  H   UNL     1      -2.605  -2.975   0.798  1.00  0.00     0.164 HD
BRANCH  15  18
ATOM     18  C   UNL     1      -2.610  -5.440   1.368  1.00  0.00     0.171 C 
BRANCH  18  19
ATOM     19  N   UNL     1      -2.368  -4.413   2.379  1.00  0.00    -0.343 N 
ATOM     20  C   UNL     1      -1.888  -4.728   3.636  1.00  0.00     0.242 CG0
ATOM     21  O   UNL     1      -1.770  -5.893   4.007  1.00  0.00    -0.273 OA
ATOM     22  H   UNL     1      -2.561  -3.443   2.160  1.00  0.00     0.164 HD
ATOM     23  G   UNL     1      -1.620  -3.506   4.540  1.00  0.00     0.000 G0
ENDBRANCH  18  19
BRANCH  18  24
ATOM     24  C   UNL     1      -4.086  -5.854   1.330  1.00  0.00     0.038 C 
BRANCH  24  25
ATOM     25  C   UNL     1      -4.343  -7.351   1.602  1.00  0.00    -0.015 C 
ATOM     26  C   UNL     1      -5.124  -7.585   2.896  1.00  0.00     0.007 C 
ATOM     27  C   UNL     1      -3.009  -8.099   1.664  1.00  0.00     0.007 C 
ENDBRANCH  24  25
ENDBRANCH  18  24
ENDBRANCH  15  18
ENDBRANCH  13  14
BRANCH  13  28
ATOM     28  C   UNL     1      -3.016  -1.502  -1.197  1.00  0.00     0.327 C 
ATOM     29  O   UNL     1      -3.277  -0.826  -0.214  1.00  0.00    -0.250 OA
BRANCH  28  30
ATOM     30  O   UNL     1      -3.690  -1.319  -2.351  1.00  0.00    -0.480 OA
ATOM     31  H   UNL     1      -4.204  -2.146  -2.463  1.00  0.00     0.296 HD
ENDBRANCH  28  30
ENDBRANCH  13  28
ENDBRANCH  11  13
ENDBRANCH   8  11
ENDBRANCH   6   7
BRANCH   6  32
ATOM     32  C   UNL     1       2.480  -4.827  -3.855  1.00  0.00     0.037 C 
BRANCH  32  33
ATOM     33  C   UNL     1       3.040  -4.930  -5.281  1.00  0.00     0.026 C 
BRANCH  33  34
ATOM     34  C   UNL     1       3.588  -3.598  -5.792  1.00  0.00     0.146 C 
BRANCH  34  35
ATOM     35  N   UNL     1       3.317  -2.566  -4.801  1.00  0.00    -0.254 NA
ATOM     36  C   UNL     1       2.875  -1.432  -5.200  1.00  0.00     0.185 C 
ATOM     37  N   UNL     1       2.616  -0.476  -4.294  1.00  0.00    -0.370 N 
ATOM     38  N   UNL     1       2.612  -1.021  -6.453  1.00  0.00    -0.370 N 
ATOM     39  H   UNL     1       2.779  -0.713  -3.324  1.00  0.00     0.159 HD
ATOM     40  H   UNL     1       2.110   0.367  -4.505  1.00  0.00     0.159 HD
ATOM     41  H   UNL     1       2.400  -0.057  -6.651  1.00  0.00     0.159 HD
ATOM     42  H   UNL     1       2.775  -1.632  -7.238  1.00  0.00     0.159 HD
ENDBRANCH  34  35
ENDBRANCH  33  34
ENDBRANCH  32  33
ENDBRANCH   6  32
ENDBRANCH   4   6
ENDBRANCH   1   2
BRANCH   1  43
ATOM     43  C   UNL     1       0.221  -8.564  -6.605  1.00  0.00     0.102 C 
ATOM     44  C   UNL     1       1.450  -7.716  -6.974  1.00  0.00     0.020 C 
BRANCH  43  45
ATOM     45  C   UNL     1      -0.723  -8.834  -7.780  1.00  0.00     0.225 C 
ATOM     46  O   UNL     1      -1.350  -9.881  -7.910  1.00  0.00    -0.275 OA
ATOM     47  N   UNL     1      -0.758  -7.856  -8.748  1.00  0.00    -0.342 N 
ATOM     48  H   UNL     1      -0.362  -6.947  -8.556  1.00  0.00     0.164 HD
BRANCH  47  49
ATOM     49  C   UNL     1      -1.643  -7.963  -9.913  1.00  0.00     0.192 C 
BRANCH  49  50
ATOM     50  C   UNL     1      -0.834  -7.748 -11.195  1.00  0.00     0.047 C 
BRANCH  50  51
ATOM     51  C   UNL     1       0.066  -8.948 -11.522  1.00  0.00     0.103 C 
BRANCH  51  52
ATOM     52  C   UNL     1       1.546  -8.621 -11.337  1.00  0.00     0.226 C 
ATOM     53  O   UNL     1       1.948  -8.208 -10.248  1.00  0.00    -0.275 OA
BRANCH  52  54
ATOM     54  N   UNL     1       2.390  -8.893 -12.431  1.00  0.00    -0.311 N 
ATOM     55  C   UNL     1       1.868  -8.900 -13.804  1.00  0.00     0.153 C 
BRANCH  54  56
ATOM     56  C   UNL     1       3.757  -9.159 -12.253  1.00  0.00     0.102 C 
ATOM     57  C   UNL     1       4.278 -10.373 -12.007  1.00  0.00     0.043 C 
BRANCH  56  58
ATOM     58  C   UNL     1       4.784  -8.058 -12.375  1.00  0.00     0.268 C 
ATOM     59  O   UNL     1       4.735  -7.022 -11.727  1.00  0.00    -0.268 OA
ATOM     60  N   UNL     1       5.809  -8.369 -13.237  1.00  0.00    -0.339 N 
ATOM     61  H   UNL     1       5.770  -9.245 -13.745  1.00  0.00     0.164 HD
BRANCH  60  62
ATOM     62  C   UNL     1       6.941  -7.470 -13.457  1.00  0.00     0.168 CG0
ATOM     63  C   UNL     1       6.747  -6.645 -14.723  1.00  0.00     0.041 C 
ATOM     64  G   UNL     1       8.245  -8.291 -13.535  1.00  0.00     0.000 G0
ENDBRANCH  60  62
ENDBRANCH  56  58
ENDBRANCH  54  56
ENDBRANCH  52  54
ENDBRANCH  51  52
ENDBRANCH  50  51
ENDBRANCH  49  50
BRANCH  49  65
ATOM     65  C   UNL     1      -2.784  -6.936  -9.853  1.00  0.00     0.326 C 
ATOM     66  O   UNL     1      -2.769  -5.893  -9.215  1.00  0.00    -0.250 OA
BRANCH  65  67
ATOM     67  O   UNL     1      -3.896  -7.288 -10.536  1.00  0.00    -0.480 OA
ATOM     68  H   UNL     1      -4.626  -7.068  -9.918  1.00  0.00     0.296 HD
ENDBRANCH  65  67
ENDBRANCH  49  65
ENDBRANCH  47  49
ENDBRANCH  43  45
ENDBRANCH   1  43
BRANCH   1  69
ATOM     69  C   UNL     1      -2.074  -7.924  -5.449  1.00  0.00    -0.001 C 
ATOM     70  C   UNL     1      -2.811  -6.841  -5.750  1.00  0.00     0.001 C 
BRANCH  70  71
ATOM     71  C   UNL     1      -4.271  -6.768  -5.840  1.00  0.00    -0.055 C 
ATOM     72  C   UNL     1      -4.912  -5.949  -4.980  1.00  0.00    -0.018 C 
ATOM     73  C   UNL     1      -4.952  -7.604  -6.891  1.00  0.00     0.044 C 
BRANCH  72  74
ATOM     74  C   UNL     1      -6.403  -5.671  -4.845  1.00  0.00     0.038 C 
ATOM     75  C   UNL     1      -6.691  -4.368  -5.601  1.00  0.00     0.015 C 
BRANCH  74  76
ATOM     76  C   UNL     1      -6.772  -5.645  -3.332  1.00  0.00     0.128 C 
BRANCH  76  77
ATOM     77  O   UNL     1      -7.892  -4.769  -3.116  1.00  0.00    -0.381 OA
ATOM     78  C   UNL     1      -9.145  -5.439  -3.102  1.00  0.00     0.195 C 
ENDBRANCH  76  77
BRANCH  76  79
ATOM     79  C   UNL     1      -6.979  -7.048  -2.710  1.00  0.00     0.068 C 
BRANCH  79  80
ATOM     80  C   UNL     1      -5.822  -8.017  -2.749  1.00  0.00    -0.045 A 
ATOM     81  C   UNL     1      -5.864  -9.161  -3.556  1.00  0.00     0.004 A 
ATOM     82  C   UNL     1      -4.690  -7.798  -1.949  1.00  0.00     0.004 A 
ATOM     83  C   UNL     1      -4.795 -10.059  -3.575  1.00  0.00     0.000 A 
ATOM     84  C   UNL     1      -3.621  -8.697  -1.969  1.00  0.00     0.000 A 
ATOM     85  C   UNL     1      -3.674  -9.826  -2.782  1.00  0.00     0.000 A 
ENDBRANCH  79  80
ENDBRANCH  76  79
ENDBRANCH  74  76
ENDBRANCH  72  74
ENDBRANCH  70  71
ENDBRANCH   1  69
TORSDOF 17
ENDMDL
MODEL 11
REMARK VINA RESULT:    -7.419      5.299     11.683
REMARK INTER + INTRA:         -29.108
REMARK INTER:                 -21.871
REMARK INTRA:                  -7.237
REMARK UNBOUND:                -6.942
REMARK SMILES C=C1C(=O)N[C@H](C)C(=O)N[C@@H](CC(C)C)C(=O)N[C@@H](C(=O)O)[C@H](C)C(=O)N[C@@H](CCCN=C(N)N)C(=O)N[C@@H](/C=C/C(C)=C/[C@H](C)[C@H](Cc2ccccc2)OC)[C@H](C)C(=O)N[C@@H](C(=O)O)CCC(=O)N1C
REMARK SMILES IDX 39 1 38 2 37 3 36 4 28 6 27 7 25 8 26 9 23 11 24 12 19 13
REMARK SMILES IDX 18 14 16 15 17 16 11 18 10 19 8 20 9 21 12 24 13 25 14 26
REMARK SMILES IDX 15 27 20 28 21 29 22 30 29 32 30 33 31 34 32 35 33 36 34 37
REMARK SMILES IDX 35 38 57 43 58 44 59 45 60 46 61 47 62 49 66 50 67 51 68 52
REMARK SMILES IDX 69 53 70 54 71 55 2 56 1 57 3 58 4 59 5 60 6 62 7 63 63 65
REMARK SMILES IDX 64 66 65 67 40 69 41 70 42 71 44 72 43 73 45 74 46 75 47 76
REMARK SMILES IDX 55 77 56 78 48 79 49 80 50 81 54 82 51 83 53 84 52 85
REMARK H PARENT 38 5 27 10 18 17 10 22 22 31 34 39 34 40 35 41 35 42 61 48
REMARK H PARENT 5 61 65 68
REMARK Flexibility Score:  369.900
ROOT
ATOM      1  C   UNL     1      -3.053  -7.073  -8.530  1.00  0.00     0.117 C 
ENDROOT
BRANCH   1   2
ATOM      2  N   UNL     1      -3.325  -6.989  -7.095  1.00  0.00    -0.347 N 
ATOM      3  O   UNL     1      -4.940  -5.360  -7.177  1.00  0.00    -0.273 OA
ATOM      4  C   UNL     1      -4.315  -6.202  -6.540  1.00  0.00     0.243 C 
ATOM      5  H   UNL     1      -2.801  -7.570  -6.458  1.00  0.00     0.164 HD
BRANCH   4   6
ATOM      6  C   UNL     1      -4.451  -6.361  -5.004  1.00  0.00     0.171 C 
BRANCH   6   7
ATOM      7  N   UNL     1      -3.187  -6.840  -4.423  1.00  0.00    -0.344 N 
ATOM      8  C   UNL     1      -3.178  -7.884  -3.523  1.00  0.00     0.226 C 
ATOM      9  O   UNL     1      -4.203  -8.442  -3.149  1.00  0.00    -0.275 OA
ATOM     10  H   UNL     1      -2.327  -6.360  -4.656  1.00  0.00     0.164 HD
BRANCH   8  11
ATOM     11  C   UNL     1      -1.793  -8.296  -3.057  1.00  0.00     0.109 C 
ATOM     12  C   UNL     1      -0.734  -7.770  -4.025  1.00  0.00     0.021 C 
BRANCH  11  13
ATOM     13  C   UNL     1      -1.591  -7.877  -1.586  1.00  0.00     0.204 C 
BRANCH  13  14
ATOM     14  N   UNL     1      -2.204  -6.578  -1.294  1.00  0.00    -0.340 N 
ATOM     15  C   UNL     1      -1.475  -5.413  -1.192  1.00  0.00     0.243 C 
ATOM     16  O   UNL     1      -0.264  -5.372  -1.399  1.00  0.00    -0.273 OA
ATOM     17  H   UNL     1      -3.173  -6.567  -0.964  1.00  0.00     0.164 HD
BRANCH  15  18
ATOM     18  C   UNL     1      -2.301  -4.210  -0.673  1.00  0.00     0.171 C 
BRANCH  18  19
ATOM     19  N   UNL     1      -1.879  -3.977   0.707  1.00  0.00    -0.343 N 
ATOM     20  C   UNL     1      -2.335  -4.761   1.750  1.00  0.00     0.242 CG0
ATOM     21  O   UNL     1      -3.215  -5.602   1.586  1.00  0.00    -0.273 OA
ATOM     22  H   UNL     1      -1.240  -3.217   0.910  1.00  0.00     0.164 HD
ATOM     23  G   UNL     1      -1.720  -4.415   3.122  1.00  0.00     0.000 G0
ENDBRANCH  18  19
BRANCH  18  24
ATOM     24  C   UNL     1      -2.065  -2.973  -1.549  1.00  0.00     0.038 C 
BRANCH  24  25
ATOM     25  C   UNL     1      -1.950  -1.645  -0.771  1.00  0.00    -0.015 C 
ATOM     26  C   UNL     1      -3.313  -1.020  -0.476  1.00  0.00     0.007 C 
ATOM     27  C   UNL     1      -1.090  -0.657  -1.564  1.00  0.00     0.007 C 
ENDBRANCH  24  25
ENDBRANCH  18  24
ENDBRANCH  15  18
ENDBRANCH  13  14
BRANCH  13  28
ATOM     28  C   UNL     1      -2.167  -8.886  -0.588  1.00  0.00     0.327 C 
ATOM     29  O   UNL     1      -2.614  -9.991  -0.853  1.00  0.00    -0.250 OA
BRANCH  28  30
ATOM     30  O   UNL     1      -2.256  -8.397   0.666  1.00  0.00    -0.480 OA
ATOM     31  H   UNL     1      -1.819  -7.521   0.615  1.00  0.00     0.296 HD
ENDBRANCH  28  30
ENDBRANCH  13  28
ENDBRANCH  11  13
ENDBRANCH   8  11
ENDBRANCH   6   7
BRANCH   6  32
ATOM     32  C   UNL     1      -4.860  -5.017  -4.393  1.00  0.00     0.037 C 
BRANCH  32  33
ATOM     33  C   UNL     1      -6.090  -5.144  -3.483  1.00  0.00     0.026 C 
BRANCH  33  34
ATOM     34  C   UNL     1      -7.231  -5.916  -4.147  1.00  0.00     0.146 C 
BRANCH  34  35
ATOM     35  N   UNL     1      -7.743  -6.901  -3.204  1.00  0.00    -0.254 NA
ATOM     36  C   UNL     1      -7.567  -8.144  -3.459  1.00  0.00     0.185 C 
ATOM     37  N   UNL     1      -8.030  -9.060  -2.595  1.00  0.00    -0.370 N 
ATOM     38  N   UNL     1      -6.958  -8.712  -4.515  1.00  0.00    -0.370 N 
ATOM     39  H   UNL     1      -8.494  -8.710  -1.766  1.00  0.00     0.159 HD
ATOM     40  H   UNL     1      -7.784 -10.035  -2.633  1.00  0.00     0.159 HD
ATOM     41  H   UNL     1      -7.006  -9.705  -4.672  1.00  0.00     0.159 HD
ATOM     42  H   UNL     1      -6.575  -8.142  -5.253  1.00  0.00     0.159 HD
ENDBRANCH  34  35
ENDBRANCH  33  34
ENDBRANCH  32  33
ENDBRANCH   6  32
ENDBRANCH   4   6
ENDBRANCH   1   2
BRANCH   1  43
ATOM     43  C   UNL     1      -3.770  -8.332  -9.097  1.00  0.00     0.102 C 
ATOM     44  C   UNL     1      -3.269  -8.746 -10.491  1.00  0.00     0.020 C 
BRANCH  43  45
ATOM     45  C   UNL     1      -5.292  -8.189  -9.000  1.00  0.00     0.225 C 
ATOM     46  O   UNL     1      -6.014  -9.038  -8.486  1.00  0.00    -0.275 OA
ATOM     47  N   UNL     1      -5.822  -7.079  -9.616  1.00  0.00    -0.342 N 
ATOM     48  H   UNL     1      -5.213  -6.323  -9.897  1.00  0.00     0.164 HD
BRANCH  47  49
ATOM     49  C   UNL     1      -7.260  -6.793  -9.574  1.00  0.00     0.192 C 
BRANCH  49  50
ATOM     50  C   UNL     1      -7.874  -7.039 -10.955  1.00  0.00     0.047 C 
BRANCH  50  51
ATOM     51  C   UNL     1      -8.448  -8.456 -11.092  1.00  0.00     0.103 C 
BRANCH  51  52
ATOM     52  C   UNL     1      -9.603  -8.513 -12.090  1.00  0.00     0.226 C 
ATOM     53  O   UNL     1      -9.371  -8.743 -13.278  1.00  0.00    -0.275 OA
BRANCH  52  54
ATOM     54  N   UNL     1     -10.898  -8.368 -11.559  1.00  0.00    -0.311 N 
ATOM     55  C   UNL     1     -11.316  -7.116 -10.914  1.00  0.00     0.153 C 
BRANCH  54  56
ATOM     56  C   UNL     1     -11.839  -9.409 -11.630  1.00  0.00     0.102 C 
ATOM     57  C   UNL     1     -12.188 -10.201 -10.604  1.00  0.00     0.043 C 
BRANCH  56  58
ATOM     58  C   UNL     1     -12.588  -9.690 -12.912  1.00  0.00     0.268 C 
ATOM     59  O   UNL     1     -12.268 -10.575 -13.694  1.00  0.00    -0.268 OA
ATOM     60  N   UNL     1     -13.698  -8.896 -13.074  1.00  0.00    -0.339 N 
ATOM     61  H   UNL     1     -13.888  -8.178 -12.386  1.00  0.00     0.164 HD
BRANCH  60  62
ATOM     62  C   UNL     1     -14.601  -9.043 -14.215  1.00  0.00     0.168 CG0
ATOM     63  C   UNL     1     -15.763  -9.969 -13.876  1.00  0.00     0.041 C 
ATOM     64  G   UNL     1     -13.815  -9.575 -15.431  1.00  0.00     0.000 G0
ENDBRANCH  60  62
ENDBRANCH  56  58
ENDBRANCH  54  56
ENDBRANCH  52  54
ENDBRANCH  51  52
ENDBRANCH  50  51
ENDBRANCH  49  50
BRANCH  49  65
ATOM     65  C   UNL     1      -7.537  -5.344  -9.145  1.00  0.00     0.326 C 
ATOM     66  O   UNL     1      -7.416  -4.357  -9.856  1.00  0.00    -0.250 OA
BRANCH  65  67
ATOM     67  O   UNL     1      -7.888  -5.197  -7.849  1.00  0.00    -0.480 OA
ATOM     68  H   UNL     1      -8.792  -4.817  -7.895  1.00  0.00     0.296 HD
ENDBRANCH  65  67
ENDBRANCH  49  65
ENDBRANCH  47  49
ENDBRANCH  43  45
ENDBRANCH   1  43
BRANCH   1  69
ATOM     69  C   UNL     1      -1.548  -6.954  -8.684  1.00  0.00    -0.001 C 
ATOM     70  C   UNL     1      -0.601  -7.455  -7.870  1.00  0.00     0.001 C 
BRANCH  70  71
ATOM     71  C   UNL     1       0.850  -7.352  -8.041  1.00  0.00    -0.055 C 
ATOM     72  C   UNL     1       1.605  -7.229  -6.929  1.00  0.00    -0.018 C 
ATOM     73  C   UNL     1       1.397  -7.399  -9.444  1.00  0.00     0.044 C 
BRANCH  72  74
ATOM     74  C   UNL     1       3.117  -7.107  -6.801  1.00  0.00     0.038 C 
ATOM     75  C   UNL     1       3.563  -8.116  -5.736  1.00  0.00     0.015 C 
BRANCH  74  76
ATOM     76  C   UNL     1       3.475  -5.625  -6.488  1.00  0.00     0.128 C 
BRANCH  76  77
ATOM     77  O   UNL     1       2.523  -4.747  -7.111  1.00  0.00    -0.381 OA
ATOM     78  C   UNL     1       2.986  -4.170  -8.325  1.00  0.00     0.195 C 
ENDBRANCH  76  77
BRANCH  76  79
ATOM     79  C   UNL     1       3.665  -5.328  -4.979  1.00  0.00     0.068 C 
BRANCH  79  80
ATOM     80  C   UNL     1       3.085  -4.047  -4.431  1.00  0.00    -0.045 A 
ATOM     81  C   UNL     1       3.813  -2.850  -4.470  1.00  0.00     0.004 A 
ATOM     82  C   UNL     1       1.810  -4.041  -3.846  1.00  0.00     0.004 A 
ATOM     83  C   UNL     1       3.274  -1.672  -3.948  1.00  0.00     0.000 A 
ATOM     84  C   UNL     1       1.272  -2.862  -3.324  1.00  0.00     0.000 A 
ATOM     85  C   UNL     1       2.004  -1.678  -3.377  1.00  0.00     0.000 A 
ENDBRANCH  79  80
ENDBRANCH  76  79
ENDBRANCH  74  76
ENDBRANCH  72  74
ENDBRANCH  70  71
ENDBRANCH   1  69
TORSDOF 17
ENDMDL
MODEL 12
REMARK VINA RESULT:    -7.391      4.917     12.008
REMARK INTER + INTRA:         -29.023
REMARK INTER:                 -22.624
REMARK INTRA:                  -6.398
REMARK UNBOUND:                -6.942
REMARK SMILES C=C1C(=O)N[C@H](C)C(=O)N[C@@H](CC(C)C)C(=O)N[C@@H](C(=O)O)[C@H](C)C(=O)N[C@@H](CCCN=C(N)N)C(=O)N[C@@H](/C=C/C(C)=C/[C@H](C)[C@H](Cc2ccccc2)OC)[C@H](C)C(=O)N[C@@H](C(=O)O)CCC(=O)N1C
REMARK SMILES IDX 39 1 38 2 37 3 36 4 28 6 27 7 25 8 26 9 23 11 24 12 19 13
REMARK SMILES IDX 18 14 16 15 17 16 11 18 10 19 8 20 9 21 12 24 13 25 14 26
REMARK SMILES IDX 15 27 20 28 21 29 22 30 29 32 30 33 31 34 32 35 33 36 34 37
REMARK SMILES IDX 35 38 57 43 58 44 59 45 60 46 61 47 62 49 66 50 67 51 68 52
REMARK SMILES IDX 69 53 70 54 71 55 2 56 1 57 3 58 4 59 5 60 6 62 7 63 63 65
REMARK SMILES IDX 64 66 65 67 40 69 41 70 42 71 44 72 43 73 45 74 46 75 47 76
REMARK SMILES IDX 55 77 56 78 48 79 49 80 50 81 54 82 51 83 53 84 52 85
REMARK H PARENT 38 5 27 10 18 17 10 22 22 31 34 39 34 40 35 41 35 42 61 48
REMARK H PARENT 5 61 65 68
REMARK Flexibility Score:  369.900
ROOT
ATOM      1  C   UNL     1      -4.932  -5.298  -4.454  1.00  0.00     0.117 C 
ENDROOT
BRANCH   1   2
ATOM      2  N   UNL     1      -5.481  -6.550  -3.930  1.00  0.00    -0.347 N 
ATOM      3  O   UNL     1      -5.718  -5.897  -1.742  1.00  0.00    -0.273 OA
ATOM      4  C   UNL     1      -5.916  -6.719  -2.630  1.00  0.00     0.243 C 
ATOM      5  H   UNL     1      -5.603  -7.334  -4.553  1.00  0.00     0.164 HD
BRANCH   4   6
ATOM      6  C   UNL     1      -6.534  -8.114  -2.357  1.00  0.00     0.171 C 
BRANCH   6   7
ATOM      7  N   UNL     1      -7.219  -8.128  -1.055  1.00  0.00    -0.344 N 
ATOM      8  C   UNL     1      -6.797  -8.968  -0.047  1.00  0.00     0.226 C 
ATOM      9  O   UNL     1      -5.863  -9.749  -0.187  1.00  0.00    -0.275 OA
ATOM     10  H   UNL     1      -8.036  -7.545  -0.924  1.00  0.00     0.164 HD
BRANCH   8  11
ATOM     11  C   UNL     1      -7.570  -8.824   1.252  1.00  0.00     0.109 C 
ATOM     12  C   UNL     1      -8.239 -10.150   1.615  1.00  0.00     0.021 C 
BRANCH  11  13
ATOM     13  C   UNL     1      -6.650  -8.242   2.344  1.00  0.00     0.204 C 
BRANCH  13  14
ATOM     14  N   UNL     1      -5.459  -7.601   1.779  1.00  0.00    -0.340 N 
ATOM     15  C   UNL     1      -4.191  -7.802   2.280  1.00  0.00     0.243 C 
ATOM     16  O   UNL     1      -3.962  -8.583   3.202  1.00  0.00    -0.273 OA
ATOM     17  H   UNL     1      -5.596  -6.832   1.118  1.00  0.00     0.164 HD
BRANCH  15  18
ATOM     18  C   UNL     1      -3.125  -6.865   1.661  1.00  0.00     0.171 C 
BRANCH  18  19
ATOM     19  N   UNL     1      -2.331  -6.344   2.771  1.00  0.00    -0.343 N 
ATOM     20  C   UNL     1      -2.193  -4.988   2.995  1.00  0.00     0.242 CG0
ATOM     21  O   UNL     1      -2.621  -4.157   2.197  1.00  0.00    -0.273 OA
ATOM     22  H   UNL     1      -1.860  -6.992   3.394  1.00  0.00     0.164 HD
ATOM     23  G   UNL     1      -1.384  -4.630   4.259  1.00  0.00     0.000 G0
ENDBRANCH  18  19
BRANCH  18  24
ATOM     24  C   UNL     1      -2.254  -7.627   0.655  1.00  0.00     0.038 C 
BRANCH  24  25
ATOM     25  C   UNL     1      -2.636  -7.409  -0.824  1.00  0.00    -0.015 C 
ATOM     26  C   UNL     1      -1.904  -8.366  -1.765  1.00  0.00     0.007 C 
ATOM     27  C   UNL     1      -2.336  -5.962  -1.225  1.00  0.00     0.007 C 
ENDBRANCH  24  25
ENDBRANCH  18  24
ENDBRANCH  15  18
ENDBRANCH  13  14
BRANCH  13  28
ATOM     28  C   UNL     1      -7.347  -7.205   3.230  1.00  0.00     0.327 C 
ATOM     29  O   UNL     1      -8.080  -7.440   4.179  1.00  0.00    -0.250 OA
BRANCH  28  30
ATOM     30  O   UNL     1      -7.176  -5.940   2.796  1.00  0.00    -0.480 OA
ATOM     31  H   UNL     1      -7.222  -6.011   1.820  1.00  0.00     0.296 HD
ENDBRANCH  28  30
ENDBRANCH  13  28
ENDBRANCH  11  13
ENDBRANCH   8  11
ENDBRANCH   6   7
BRANCH   6  32
ATOM     32  C   UNL     1      -7.505  -8.466  -3.490  1.00  0.00     0.037 C 
BRANCH  32  33
ATOM     33  C   UNL     1      -8.835  -9.021  -2.961  1.00  0.00     0.026 C 
BRANCH  33  34
ATOM     34  C   UNL     1     -10.002  -8.059  -3.186  1.00  0.00     0.146 C 
BRANCH  34  35
ATOM     35  N   UNL     1      -9.714  -6.804  -2.505  1.00  0.00    -0.254 NA
ATOM     36  C   UNL     1      -9.983  -5.704  -3.104  1.00  0.00     0.185 C 
ATOM     37  N   UNL     1      -9.727  -4.542  -2.483  1.00  0.00    -0.370 N 
ATOM     38  N   UNL     1     -10.512  -5.515  -4.325  1.00  0.00    -0.370 N 
ATOM     39  H   UNL     1      -9.335  -4.602  -1.552  1.00  0.00     0.159 HD
ATOM     40  H   UNL     1     -10.064  -3.652  -2.807  1.00  0.00     0.159 HD
ATOM     41  H   UNL     1     -10.546  -4.599  -4.742  1.00  0.00     0.159 HD
ATOM     42  H   UNL     1     -10.740  -6.302  -4.913  1.00  0.00     0.159 HD
ENDBRANCH  34  35
ENDBRANCH  33  34
ENDBRANCH  32  33
ENDBRANCH   6  32
ENDBRANCH   4   6
ENDBRANCH   1   2
BRANCH   1  43
ATOM     43  C   UNL     1      -5.812  -4.833  -5.650  1.00  0.00     0.102 C 
ATOM     44  C   UNL     1      -7.277  -4.567  -5.265  1.00  0.00     0.020 C 
BRANCH  43  45
ATOM     45  C   UNL     1      -5.646  -5.769  -6.851  1.00  0.00     0.225 C 
ATOM     46  O   UNL     1      -5.547  -6.988  -6.744  1.00  0.00    -0.275 OA
ATOM     47  N   UNL     1      -5.517  -5.147  -8.072  1.00  0.00    -0.342 N 
ATOM     48  H   UNL     1      -5.751  -4.168  -8.163  1.00  0.00     0.164 HD
BRANCH  47  49
ATOM     49  C   UNL     1      -5.387  -5.916  -9.314  1.00  0.00     0.192 C 
BRANCH  49  50
ATOM     50  C   UNL     1      -6.527  -6.934  -9.410  1.00  0.00     0.047 C 
BRANCH  50  51
ATOM     51  C   UNL     1      -7.901  -6.259  -9.523  1.00  0.00     0.103 C 
BRANCH  51  52
ATOM     52  C   UNL     1      -8.379  -6.171 -10.971  1.00  0.00     0.226 C 
ATOM     53  O   UNL     1      -8.172  -5.145 -11.621  1.00  0.00    -0.275 OA
BRANCH  52  54
ATOM     54  N   UNL     1      -8.975  -7.329 -11.506  1.00  0.00    -0.311 N 
ATOM     55  C   UNL     1      -8.262  -8.165 -12.481  1.00  0.00     0.153 C 
BRANCH  54  56
ATOM     56  C   UNL     1     -10.267  -7.730 -11.126  1.00  0.00     0.102 C 
ATOM     57  C   UNL     1     -11.205  -6.916 -10.615  1.00  0.00     0.043 C 
BRANCH  56  58
ATOM     58  C   UNL     1     -10.722  -9.158 -11.315  1.00  0.00     0.268 C 
ATOM     59  O   UNL     1     -10.361 -10.077 -10.593  1.00  0.00    -0.268 OA
ATOM     60  N   UNL     1     -11.630  -9.304 -12.337  1.00  0.00    -0.339 N 
ATOM     61  H   UNL     1     -11.869  -8.493 -12.895  1.00  0.00     0.164 HD
BRANCH  60  62
ATOM     62  C   UNL     1     -12.247 -10.591 -12.652  1.00  0.00     0.168 CG0
ATOM     63  C   UNL     1     -11.722 -11.141 -13.973  1.00  0.00     0.041 C 
ATOM     64  G   UNL     1     -13.781 -10.432 -12.698  1.00  0.00     0.000 G0
ENDBRANCH  60  62
ENDBRANCH  56  58
ENDBRANCH  54  56
ENDBRANCH  52  54
ENDBRANCH  51  52
ENDBRANCH  50  51
ENDBRANCH  49  50
BRANCH  49  65
ATOM     65  C   UNL     1      -4.040  -6.653  -9.385  1.00  0.00     0.326 C 
ATOM     66  O   UNL     1      -3.895  -7.853  -9.567  1.00  0.00    -0.250 OA
BRANCH  65  67
ATOM     67  O   UNL     1      -2.959  -5.872  -9.168  1.00  0.00    -0.480 OA
ATOM     68  H   UNL     1      -2.361  -6.446  -8.642  1.00  0.00     0.296 HD
ENDBRANCH  65  67
ENDBRANCH  49  65
ENDBRANCH  47  49
ENDBRANCH  43  45
ENDBRANCH   1  43
BRANCH   1  69
ATOM     69  C   UNL     1      -3.453  -5.547  -4.685  1.00  0.00    -0.001 C 
ATOM     70  C   UNL     1      -2.847  -6.728  -4.901  1.00  0.00     0.001 C 
BRANCH  70  71
ATOM     71  C   UNL     1      -1.421  -6.954  -5.144  1.00  0.00    -0.055 C 
ATOM     72  C   UNL     1      -0.540  -6.327  -4.337  1.00  0.00    -0.018 C 
ATOM     73  C   UNL     1      -1.039  -7.877  -6.271  1.00  0.00     0.044 C 
BRANCH  72  74
ATOM     74  C   UNL     1       0.981  -6.374  -4.350  1.00  0.00     0.038 C 
ATOM     75  C   UNL     1       1.392  -7.806  -3.986  1.00  0.00     0.015 C 
BRANCH  74  76
ATOM     76  C   UNL     1       1.525  -5.274  -3.391  1.00  0.00     0.128 C 
BRANCH  76  77
ATOM     77  O   UNL     1       2.913  -5.517  -3.103  1.00  0.00    -0.381 OA
ATOM     78  C   UNL     1       3.736  -4.368  -3.251  1.00  0.00     0.195 C 
ENDBRANCH  76  77
BRANCH  76  79
ATOM     79  C   UNL     1       1.258  -3.827  -3.877  1.00  0.00     0.068 C 
BRANCH  79  80
ATOM     80  C   UNL     1       0.382  -2.945  -3.021  1.00  0.00    -0.045 A 
ATOM     81  C   UNL     1      -0.033  -1.685  -3.472  1.00  0.00     0.004 A 
ATOM     82  C   UNL     1      -0.011  -3.366  -1.742  1.00  0.00     0.004 A 
ATOM     83  C   UNL     1      -0.832  -0.868  -2.668  1.00  0.00     0.000 A 
ATOM     84  C   UNL     1      -0.809  -2.548  -0.939  1.00  0.00     0.000 A 
ATOM     85  C   UNL     1      -1.221  -1.301  -1.403  1.00  0.00     0.000 A 
ENDBRANCH  79  80
ENDBRANCH  76  79
ENDBRANCH  74  76
ENDBRANCH  72  74
ENDBRANCH  70  71
ENDBRANCH   1  69
TORSDOF 17
ENDMDL
MODEL 13
REMARK VINA RESULT:    -7.336      2.421      3.818
REMARK INTER + INTRA:         -28.860
REMARK INTER:                 -22.305
REMARK INTRA:                  -6.554
REMARK UNBOUND:                -6.942
REMARK SMILES C=C1C(=O)N[C@H](C)C(=O)N[C@@H](CC(C)C)C(=O)N[C@@H](C(=O)O)[C@H](C)C(=O)N[C@@H](CCCN=C(N)N)C(=O)N[C@@H](/C=C/C(C)=C/[C@H](C)[C@H](Cc2ccccc2)OC)[C@H](C)C(=O)N[C@@H](C(=O)O)CCC(=O)N1C
REMARK SMILES IDX 39 1 38 2 37 3 36 4 28 6 27 7 25 8 26 9 23 11 24 12 19 13
REMARK SMILES IDX 18 14 16 15 17 16 11 18 10 19 8 20 9 21 12 24 13 25 14 26
REMARK SMILES IDX 15 27 20 28 21 29 22 30 29 32 30 33 31 34 32 35 33 36 34 37
REMARK SMILES IDX 35 38 57 43 58 44 59 45 60 46 61 47 62 49 66 50 67 51 68 52
REMARK SMILES IDX 69 53 70 54 71 55 2 56 1 57 3 58 4 59 5 60 6 62 7 63 63 65
REMARK SMILES IDX 64 66 65 67 40 69 41 70 42 71 44 72 43 73 45 74 46 75 47 76
REMARK SMILES IDX 55 77 56 78 48 79 49 80 50 81 54 82 51 83 53 84 52 85
REMARK H PARENT 38 5 27 10 18 17 10 22 22 31 34 39 34 40 35 41 35 42 61 48
REMARK H PARENT 5 61 65 68
REMARK Flexibility Score:  369.900
ROOT
ATOM      1  C   UNL     1      -1.700  -3.654  -2.542  1.00  0.00     0.117 C 
ENDROOT
BRANCH   1   2
ATOM      2  N   UNL     1      -0.297  -3.903  -2.873  1.00  0.00    -0.347 N 
ATOM      3  O   UNL     1       0.033  -2.079  -4.228  1.00  0.00    -0.273 OA
ATOM      4  C   UNL     1       0.486  -3.043  -3.619  1.00  0.00     0.243 C 
ATOM      5  H   UNL     1       0.161  -4.722  -2.503  1.00  0.00     0.164 HD
BRANCH   4   6
ATOM      6  C   UNL     1       1.962  -3.499  -3.751  1.00  0.00     0.171 C 
BRANCH   6   7
ATOM      7  N   UNL     1       2.029  -4.918  -4.135  1.00  0.00    -0.344 N 
ATOM      8  C   UNL     1       2.741  -5.819  -3.375  1.00  0.00     0.226 C 
ATOM      9  O   UNL     1       3.363  -5.490  -2.371  1.00  0.00    -0.275 OA
ATOM     10  H   UNL     1       1.584  -5.215  -4.995  1.00  0.00     0.164 HD
BRANCH   8  11
ATOM     11  C   UNL     1       2.669  -7.252  -3.872  1.00  0.00     0.109 C 
ATOM     12  C   UNL     1       1.320  -7.508  -4.545  1.00  0.00     0.021 C 
BRANCH  11  13
ATOM     13  C   UNL     1       3.900  -7.564  -4.746  1.00  0.00     0.204 C 
BRANCH  13  14
ATOM     14  N   UNL     1       3.691  -7.185  -6.147  1.00  0.00    -0.340 N 
ATOM     15  C   UNL     1       4.208  -7.905  -7.202  1.00  0.00     0.243 C 
ATOM     16  O   UNL     1       4.833  -8.953  -7.044  1.00  0.00    -0.273 OA
ATOM     17  H   UNL     1       3.315  -6.253  -6.342  1.00  0.00     0.164 HD
BRANCH  15  18
ATOM     18  C   UNL     1       4.036  -7.205  -8.573  1.00  0.00     0.171 C 
BRANCH  18  19
ATOM     19  N   UNL     1       5.177  -7.606  -9.394  1.00  0.00    -0.343 N 
ATOM     20  C   UNL     1       5.744  -6.753 -10.321  1.00  0.00     0.242 CG0
ATOM     21  O   UNL     1       5.234  -5.669 -10.593  1.00  0.00    -0.273 OA
ATOM     22  H   UNL     1       5.563  -8.538  -9.288  1.00  0.00     0.164 HD
ATOM     23  G   UNL     1       6.986  -7.323 -11.035  1.00  0.00     0.000 G0
ENDBRANCH  18  19
BRANCH  18  24
ATOM     24  C   UNL     1       2.707  -7.607  -9.223  1.00  0.00     0.038 C 
BRANCH  24  25
ATOM     25  C   UNL     1       1.585  -6.554  -9.100  1.00  0.00    -0.015 C 
ATOM     26  C   UNL     1       2.117  -5.176  -8.703  1.00  0.00     0.007 C 
ATOM     27  C   UNL     1       0.551  -7.022  -8.072  1.00  0.00     0.007 C 
ENDBRANCH  24  25
ENDBRANCH  18  24
ENDBRANCH  15  18
ENDBRANCH  13  14
BRANCH  13  28
ATOM     28  C   UNL     1       5.173  -6.857  -4.271  1.00  0.00     0.327 C 
ATOM     29  O   UNL     1       5.768  -5.967  -4.858  1.00  0.00    -0.250 OA
BRANCH  28  30
ATOM     30  O   UNL     1       5.686  -7.394  -3.145  1.00  0.00    -0.480 OA
ATOM     31  H   UNL     1       5.733  -8.354  -3.336  1.00  0.00     0.296 HD
ENDBRANCH  28  30
ENDBRANCH  13  28
ENDBRANCH  11  13
ENDBRANCH   8  11
ENDBRANCH   6   7
BRANCH   6  32
ATOM     32  C   UNL     1       2.670  -2.617  -4.785  1.00  0.00     0.037 C 
BRANCH  32  33
ATOM     33  C   UNL     1       4.196  -2.786  -4.742  1.00  0.00     0.026 C 
BRANCH  33  34
ATOM     34  C   UNL     1       4.853  -2.514  -6.096  1.00  0.00     0.146 C 
BRANCH  34  35
ATOM     35  N   UNL     1       4.400  -1.219  -6.586  1.00  0.00    -0.254 NA
ATOM     36  C   UNL     1       5.262  -0.281  -6.729  1.00  0.00     0.185 C 
ATOM     37  N   UNL     1       4.857   0.914  -7.184  1.00  0.00    -0.370 N 
ATOM     38  N   UNL     1       6.584  -0.304  -6.484  1.00  0.00    -0.370 N 
ATOM     39  H   UNL     1       3.873   1.008  -7.403  1.00  0.00     0.159 HD
ATOM     40  H   UNL     1       5.487   1.637  -7.487  1.00  0.00     0.159 HD
ATOM     41  H   UNL     1       7.132   0.541  -6.504  1.00  0.00     0.159 HD
ATOM     42  H   UNL     1       7.024  -1.135  -6.122  1.00  0.00     0.159 HD
ENDBRANCH  34  35
ENDBRANCH  33  34
ENDBRANCH  32  33
ENDBRANCH   6  32
ENDBRANCH   4   6
ENDBRANCH   1   2
BRANCH   1  43
ATOM     43  C   UNL     1      -1.776  -3.109  -1.087  1.00  0.00     0.102 C 
ATOM     44  C   UNL     1      -0.876  -1.886  -0.844  1.00  0.00     0.020 C 
BRANCH  43  45
ATOM     45  C   UNL     1      -1.584  -4.235  -0.067  1.00  0.00     0.225 C 
ATOM     46  O   UNL     1      -0.488  -4.717   0.201  1.00  0.00    -0.275 OA
ATOM     47  N   UNL     1      -2.741  -4.748   0.474  1.00  0.00    -0.342 N 
ATOM     48  H   UNL     1      -3.611  -4.246   0.362  1.00  0.00     0.164 HD
BRANCH  47  49
ATOM     49  C   UNL     1      -2.709  -5.804   1.490  1.00  0.00     0.192 C 
BRANCH  49  50
ATOM     50  C   UNL     1      -4.100  -6.429   1.626  1.00  0.00     0.047 C 
BRANCH  50  51
ATOM     51  C   UNL     1      -4.100  -7.928   1.294  1.00  0.00     0.103 C 
BRANCH  51  52
ATOM     52  C   UNL     1      -4.899  -8.740   2.311  1.00  0.00     0.226 C 
ATOM     53  O   UNL     1      -4.322  -9.256   3.270  1.00  0.00    -0.275 OA
BRANCH  52  54
ATOM     54  N   UNL     1      -6.293  -8.785   2.120  1.00  0.00    -0.311 N 
ATOM     55  C   UNL     1      -6.877  -8.666   0.778  1.00  0.00     0.153 C 
BRANCH  54  56
ATOM     56  C   UNL     1      -7.175  -8.952   3.201  1.00  0.00     0.102 C 
ATOM     57  C   UNL     1      -7.874 -10.069   3.458  1.00  0.00     0.043 C 
BRANCH  56  58
ATOM     58  C   UNL     1      -7.371  -7.852   4.218  1.00  0.00     0.268 C 
ATOM     59  O   UNL     1      -7.141  -6.673   3.981  1.00  0.00    -0.268 OA
ATOM     60  N   UNL     1      -7.893  -8.302   5.407  1.00  0.00    -0.339 N 
ATOM     61  H   UNL     1      -8.045  -9.296   5.527  1.00  0.00     0.164 HD
BRANCH  60  62
ATOM     62  C   UNL     1      -8.220  -7.395   6.506  1.00  0.00     0.168 CG0
ATOM     63  C   UNL     1      -8.588  -8.172   7.764  1.00  0.00     0.041 C 
ATOM     64  G   UNL     1      -9.374  -6.463   6.083  1.00  0.00     0.000 G0
ENDBRANCH  60  62
ENDBRANCH  56  58
ENDBRANCH  54  56
ENDBRANCH  52  54
ENDBRANCH  51  52
ENDBRANCH  50  51
ENDBRANCH  49  50
BRANCH  49  65
ATOM     65  C   UNL     1      -2.258  -5.264   2.856  1.00  0.00     0.326 C 
ATOM     66  O   UNL     1      -1.648  -5.897   3.705  1.00  0.00    -0.250 OA
BRANCH  65  67
ATOM     67  O   UNL     1      -2.640  -3.993   3.114  1.00  0.00    -0.480 OA
ATOM     68  H   UNL     1      -3.619  -4.046   3.138  1.00  0.00     0.296 HD
ENDBRANCH  65  67
ENDBRANCH  49  65
ENDBRANCH  47  49
ENDBRANCH  43  45
ENDBRANCH   1  43
BRANCH   1  69
ATOM     69  C   UNL     1      -2.449  -4.928  -2.888  1.00  0.00    -0.001 C 
ATOM     70  C   UNL     1      -2.110  -5.852  -3.804  1.00  0.00     0.001 C 
BRANCH  70  71
ATOM     71  C   UNL     1      -2.830  -7.089  -4.114  1.00  0.00    -0.055 C 
ATOM     72  C   UNL     1      -2.515  -7.728  -5.260  1.00  0.00    -0.018 C 
ATOM     73  C   UNL     1      -3.865  -7.565  -3.128  1.00  0.00     0.044 C 
BRANCH  72  74
ATOM     74  C   UNL     1      -3.087  -9.016  -5.833  1.00  0.00     0.038 C 
ATOM     75  C   UNL     1      -1.918  -9.801  -6.440  1.00  0.00     0.015 C 
BRANCH  74  76
ATOM     76  C   UNL     1      -4.223  -8.658  -6.837  1.00  0.00     0.128 C 
BRANCH  76  77
ATOM     77  O   UNL     1      -5.495  -8.685  -6.169  1.00  0.00    -0.381 OA
ATOM     78  C   UNL     1      -5.713  -9.863  -5.404  1.00  0.00     0.195 C 
ENDBRANCH  76  77
BRANCH  76  79
ATOM     79  C   UNL     1      -3.982  -7.339  -7.614  1.00  0.00     0.068 C 
BRANCH  79  80
ATOM     80  C   UNL     1      -3.240  -7.417  -8.926  1.00  0.00    -0.045 A 
ATOM     81  C   UNL     1      -3.123  -8.630  -9.619  1.00  0.00     0.004 A 
ATOM     82  C   UNL     1      -2.627  -6.274  -9.462  1.00  0.00     0.004 A 
ATOM     83  C   UNL     1      -2.422  -8.697 -10.825  1.00  0.00     0.000 A 
ATOM     84  C   UNL     1      -1.926  -6.342 -10.668  1.00  0.00     0.000 A 
ATOM     85  C   UNL     1      -1.826  -7.553 -11.350  1.00  0.00     0.000 A 
ENDBRANCH  79  80
ENDBRANCH  76  79
ENDBRANCH  74  76
ENDBRANCH  72  74
ENDBRANCH  70  71
ENDBRANCH   1  69
TORSDOF 17
ENDMDL
MODEL 14
REMARK VINA RESULT:    -7.219      2.295      3.407
REMARK INTER + INTRA:         -28.510
REMARK INTER:                 -22.193
REMARK INTRA:                  -6.317
REMARK UNBOUND:                -6.942
REMARK SMILES C=C1C(=O)N[C@H](C)C(=O)N[C@@H](CC(C)C)C(=O)N[C@@H](C(=O)O)[C@H](C)C(=O)N[C@@H](CCCN=C(N)N)C(=O)N[C@@H](/C=C/C(C)=C/[C@H](C)[C@H](Cc2ccccc2)OC)[C@H](C)C(=O)N[C@@H](C(=O)O)CCC(=O)N1C
REMARK SMILES IDX 39 1 38 2 37 3 36 4 28 6 27 7 25 8 26 9 23 11 24 12 19 13
REMARK SMILES IDX 18 14 16 15 17 16 11 18 10 19 8 20 9 21 12 24 13 25 14 26
REMARK SMILES IDX 15 27 20 28 21 29 22 30 29 32 30 33 31 34 32 35 33 36 34 37
REMARK SMILES IDX 35 38 57 43 58 44 59 45 60 46 61 47 62 49 66 50 67 51 68 52
REMARK SMILES IDX 69 53 70 54 71 55 2 56 1 57 3 58 4 59 5 60 6 62 7 63 63 65
REMARK SMILES IDX 64 66 65 67 40 69 41 70 42 71 44 72 43 73 45 74 46 75 47 76
REMARK SMILES IDX 55 77 56 78 48 79 49 80 50 81 54 82 51 83 53 84 52 85
REMARK H PARENT 38 5 27 10 18 17 10 22 22 31 34 39 34 40 35 41 35 42 61 48
REMARK H PARENT 5 61 65 68
REMARK Flexibility Score:  369.900
ROOT
ATOM      1  C   UNL     1      -1.379  -3.666  -2.716  1.00  0.00     0.117 C 
ENDROOT
BRANCH   1   2
ATOM      2  N   UNL     1       0.076  -3.743  -2.851  1.00  0.00    -0.347 N 
ATOM      3  O   UNL     1       0.356  -1.942  -4.246  1.00  0.00    -0.273 OA
ATOM      4  C   UNL     1       0.839  -2.816  -3.534  1.00  0.00     0.243 C 
ATOM      5  H   UNL     1       0.577  -4.482  -2.383  1.00  0.00     0.164 HD
BRANCH   4   6
ATOM      6  C   UNL     1       2.364  -3.082  -3.452  1.00  0.00     0.171 C 
BRANCH   6   7
ATOM      7  N   UNL     1       2.726  -4.254  -4.265  1.00  0.00    -0.344 N 
ATOM      8  C   UNL     1       3.184  -5.408  -3.669  1.00  0.00     0.226 C 
ATOM      9  O   UNL     1       3.333  -5.511  -2.457  1.00  0.00    -0.275 OA
ATOM     10  H   UNL     1       2.680  -4.184  -5.274  1.00  0.00     0.164 HD
BRANCH   8  11
ATOM     11  C   UNL     1       3.463  -6.544  -4.638  1.00  0.00     0.109 C 
ATOM     12  C   UNL     1       3.455  -7.881  -3.897  1.00  0.00     0.021 C 
BRANCH  11  13
ATOM     13  C   UNL     1       2.494  -6.460  -5.833  1.00  0.00     0.204 C 
BRANCH  13  14
ATOM     14  N   UNL     1       2.984  -7.209  -6.995  1.00  0.00    -0.340 N 
ATOM     15  C   UNL     1       2.880  -6.739  -8.286  1.00  0.00     0.243 C 
ATOM     16  O   UNL     1       2.422  -5.629  -8.550  1.00  0.00    -0.273 OA
ATOM     17  H   UNL     1       3.233  -8.192  -6.862  1.00  0.00     0.164 HD
BRANCH  15  18
ATOM     18  C   UNL     1       3.272  -7.785  -9.358  1.00  0.00     0.171 C 
BRANCH  18  19
ATOM     19  N   UNL     1       4.733  -7.838  -9.377  1.00  0.00    -0.343 N 
ATOM     20  C   UNL     1       5.482  -7.001 -10.182  1.00  0.00     0.242 CG0
ATOM     21  O   UNL     1       4.955  -6.268 -11.015  1.00  0.00    -0.273 OA
ATOM     22  H   UNL     1       5.214  -8.509  -8.789  1.00  0.00     0.164 HD
ATOM     23  G   UNL     1       7.008  -7.149 -10.007  1.00  0.00     0.000 G0
ENDBRANCH  18  19
BRANCH  18  24
ATOM     24  C   UNL     1       2.665  -9.154  -9.027  1.00  0.00     0.038 C 
BRANCH  24  25
ATOM     25  C   UNL     1       1.328  -9.454  -9.738  1.00  0.00    -0.015 C 
ATOM     26  C   UNL     1       0.254  -9.960  -8.775  1.00  0.00     0.007 C 
ATOM     27  C   UNL     1       1.555 -10.487 -10.845  1.00  0.00     0.007 C 
ENDBRANCH  24  25
ENDBRANCH  18  24
ENDBRANCH  15  18
ENDBRANCH  13  14
BRANCH  13  28
ATOM     28  C   UNL     1       1.092  -6.987  -5.512  1.00  0.00     0.327 C 
ATOM     29  O   UNL     1       0.442  -7.770  -6.188  1.00  0.00    -0.250 OA
BRANCH  28  30
ATOM     30  O   UNL     1       0.546  -6.407  -4.424  1.00  0.00    -0.480 OA
ATOM     31  H   UNL     1       0.101  -5.608  -4.775  1.00  0.00     0.296 HD
ENDBRANCH  28  30
ENDBRANCH  13  28
ENDBRANCH  11  13
ENDBRANCH   8  11
ENDBRANCH   6   7
BRANCH   6  32
ATOM     32  C   UNL     1       3.118  -1.834  -3.923  1.00  0.00     0.037 C 
BRANCH  32  33
ATOM     33  C   UNL     1       4.535  -2.165  -4.415  1.00  0.00     0.026 C 
BRANCH  33  34
ATOM     34  C   UNL     1       4.649  -2.123  -5.939  1.00  0.00     0.146 C 
BRANCH  34  35
ATOM     35  N   UNL     1       4.273  -0.795  -6.403  1.00  0.00    -0.254 NA
ATOM     36  C   UNL     1       5.194   0.002  -6.799  1.00  0.00     0.185 C 
ATOM     37  N   UNL     1       4.858   1.226  -7.233  1.00  0.00    -0.370 N 
ATOM     38  N   UNL     1       6.522  -0.204  -6.855  1.00  0.00    -0.370 N 
ATOM     39  H   UNL     1       3.872   1.453  -7.232  1.00  0.00     0.159 HD
ATOM     40  H   UNL     1       5.492   1.838  -7.718  1.00  0.00     0.159 HD
ATOM     41  H   UNL     1       7.158   0.551  -7.055  1.00  0.00     0.159 HD
ATOM     42  H   UNL     1       6.919  -1.077  -6.544  1.00  0.00     0.159 HD
ENDBRANCH  34  35
ENDBRANCH  33  34
ENDBRANCH  32  33
ENDBRANCH   6  32
ENDBRANCH   4   6
ENDBRANCH   1   2
BRANCH   1  43
ATOM     43  C   UNL     1      -1.719  -3.210  -1.267  1.00  0.00     0.102 C 
ATOM     44  C   UNL     1      -0.990  -1.923  -0.844  1.00  0.00     0.020 C 
BRANCH  43  45
ATOM     45  C   UNL     1      -1.563  -4.367  -0.276  1.00  0.00     0.225 C 
ATOM     46  O   UNL     1      -0.504  -4.963  -0.101  1.00  0.00    -0.275 OA
ATOM     47  N   UNL     1      -2.720  -4.769   0.351  1.00  0.00    -0.342 N 
ATOM     48  H   UNL     1      -3.540  -4.180   0.314  1.00  0.00     0.164 HD
BRANCH  47  49
ATOM     49  C   UNL     1      -2.717  -5.841   1.352  1.00  0.00     0.192 C 
BRANCH  49  50
ATOM     50  C   UNL     1      -4.098  -6.498   1.406  1.00  0.00     0.047 C 
BRANCH  50  51
ATOM     51  C   UNL     1      -4.025  -8.022   1.233  1.00  0.00     0.103 C 
BRANCH  51  52
ATOM     52  C   UNL     1      -4.670  -8.763   2.402  1.00  0.00     0.226 C 
ATOM     53  O   UNL     1      -3.958  -9.269   3.271  1.00  0.00    -0.275 OA
BRANCH  52  54
ATOM     54  N   UNL     1      -6.076  -8.755   2.449  1.00  0.00    -0.311 N 
ATOM     55  C   UNL     1      -6.875  -9.190   1.295  1.00  0.00     0.153 C 
BRANCH  54  56
ATOM     56  C   UNL     1      -6.768  -8.338   3.599  1.00  0.00     0.102 C 
ATOM     57  C   UNL     1      -7.118  -7.070   3.867  1.00  0.00     0.043 C 
BRANCH  56  58
ATOM     58  C   UNL     1      -7.223  -9.339   4.635  1.00  0.00     0.268 C 
ATOM     59  O   UNL     1      -6.665 -10.412   4.821  1.00  0.00    -0.268 OA
ATOM     60  N   UNL     1      -8.284  -8.893   5.387  1.00  0.00    -0.339 N 
ATOM     61  H   UNL     1      -8.697  -7.996   5.163  1.00  0.00     0.164 HD
BRANCH  60  62
ATOM     62  C   UNL     1      -8.843  -9.678   6.487  1.00  0.00     0.168 CG0
ATOM     63  C   UNL     1      -9.905  -8.885   7.240  1.00  0.00     0.041 C 
ATOM     64  G   UNL     1      -7.710 -10.114   7.439  1.00  0.00     0.000 G0
ENDBRANCH  60  62
ENDBRANCH  56  58
ENDBRANCH  54  56
ENDBRANCH  52  54
ENDBRANCH  51  52
ENDBRANCH  50  51
ENDBRANCH  49  50
BRANCH  49  65
ATOM     65  C   UNL     1      -2.350  -5.312   2.747  1.00  0.00     0.326 C 
ATOM     66  O   UNL     1      -1.884  -5.978   3.660  1.00  0.00    -0.250 OA
BRANCH  65  67
ATOM     67  O   UNL     1      -2.636  -4.007   2.949  1.00  0.00    -0.480 OA
ATOM     68  H   UNL     1      -2.238  -3.815   3.825  1.00  0.00     0.296 HD
ENDBRANCH  65  67
ENDBRANCH  49  65
ENDBRANCH  47  49
ENDBRANCH  43  45
ENDBRANCH   1  43
BRANCH   1  69
ATOM     69  C   UNL     1      -1.922  -4.993  -3.213  1.00  0.00    -0.001 C 
ATOM     70  C   UNL     1      -3.208  -5.385  -3.259  1.00  0.00     0.001 C 
BRANCH  70  71
ATOM     71  C   UNL     1      -3.721  -6.661  -3.762  1.00  0.00    -0.055 C 
ATOM     72  C   UNL     1      -3.493  -6.963  -5.057  1.00  0.00    -0.018 C 
ATOM     73  C   UNL     1      -4.460  -7.549  -2.796  1.00  0.00     0.044 C 
BRANCH  72  74
ATOM     74  C   UNL     1      -3.899  -8.201  -5.843  1.00  0.00     0.038 C 
ATOM     75  C   UNL     1      -2.710  -9.169  -5.809  1.00  0.00     0.015 C 
BRANCH  74  76
ATOM     76  C   UNL     1      -4.344  -7.765  -7.270  1.00  0.00     0.128 C 
BRANCH  76  77
ATOM     77  O   UNL     1      -5.631  -7.125  -7.209  1.00  0.00    -0.381 OA
ATOM     78  C   UNL     1      -5.690  -5.894  -7.916  1.00  0.00     0.195 C 
ENDBRANCH  76  77
BRANCH  76  79
ATOM     79  C   UNL     1      -3.290  -6.919  -8.028  1.00  0.00     0.068 C 
BRANCH  79  80
ATOM     80  C   UNL     1      -2.721  -7.481  -9.309  1.00  0.00    -0.045 A 
ATOM     81  C   UNL     1      -1.644  -6.859  -9.953  1.00  0.00     0.004 A 
ATOM     82  C   UNL     1      -3.286  -8.625  -9.891  1.00  0.00     0.004 A 
ATOM     83  C   UNL     1      -1.133  -7.376 -11.146  1.00  0.00     0.000 A 
ATOM     84  C   UNL     1      -2.774  -9.142 -11.084  1.00  0.00     0.000 A 
ATOM     85  C   UNL     1      -1.697  -8.518 -11.710  1.00  0.00     0.000 A 
ENDBRANCH  79  80
ENDBRANCH  76  79
ENDBRANCH  74  76
ENDBRANCH  72  74
ENDBRANCH  70  71
ENDBRANCH   1  69
TORSDOF 17
ENDMDL
MODEL 15
REMARK VINA RESULT:    -7.197      3.168     12.389
REMARK INTER + INTRA:         -28.443
REMARK INTER:                 -23.445
REMARK INTRA:                  -4.997
REMARK UNBOUND:                -6.942
REMARK SMILES C=C1C(=O)N[C@H](C)C(=O)N[C@@H](CC(C)C)C(=O)N[C@@H](C(=O)O)[C@H](C)C(=O)N[C@@H](CCCN=C(N)N)C(=O)N[C@@H](/C=C/C(C)=C/[C@H](C)[C@H](Cc2ccccc2)OC)[C@H](C)C(=O)N[C@@H](C(=O)O)CCC(=O)N1C
REMARK SMILES IDX 39 1 38 2 37 3 36 4 28 6 27 7 25 8 26 9 23 11 24 12 19 13
REMARK SMILES IDX 18 14 16 15 17 16 11 18 10 19 8 20 9 21 12 24 13 25 14 26
REMARK SMILES IDX 15 27 20 28 21 29 22 30 29 32 30 33 31 34 32 35 33 36 34 37
REMARK SMILES IDX 35 38 57 43 58 44 59 45 60 46 61 47 62 49 66 50 67 51 68 52
REMARK SMILES IDX 69 53 70 54 71 55 2 56 1 57 3 58 4 59 5 60 6 62 7 63 63 65
REMARK SMILES IDX 64 66 65 67 40 69 41 70 42 71 44 72 43 73 45 74 46 75 47 76
REMARK SMILES IDX 55 77 56 78 48 79 49 80 50 81 54 82 51 83 53 84 52 85
REMARK H PARENT 38 5 27 10 18 17 10 22 22 31 34 39 34 40 35 41 35 42 61 48
REMARK H PARENT 5 61 65 68
REMARK Flexibility Score:  369.900
ROOT
ATOM      1  C   UNL     1      -2.544  -7.501  -2.061  1.00  0.00     0.117 C 
ENDROOT
BRANCH   1   2
ATOM      2  N   UNL     1      -3.999  -7.517  -2.211  1.00  0.00    -0.347 N 
ATOM      3  O   UNL     1      -4.374  -9.633  -1.405  1.00  0.00    -0.273 OA
ATOM      4  C   UNL     1      -4.810  -8.551  -1.784  1.00  0.00     0.243 C 
ATOM      5  H   UNL     1      -4.464  -6.712  -2.603  1.00  0.00     0.164 HD
BRANCH   4   6
ATOM      6  C   UNL     1      -6.322  -8.280  -1.983  1.00  0.00     0.171 C 
BRANCH   6   7
ATOM      7  N   UNL     1      -7.059  -8.535  -0.735  1.00  0.00    -0.344 N 
ATOM      8  C   UNL     1      -6.812  -7.783   0.393  1.00  0.00     0.226 C 
ATOM      9  O   UNL     1      -5.967  -6.896   0.423  1.00  0.00    -0.275 OA
ATOM     10  H   UNL     1      -7.717  -9.303  -0.702  1.00  0.00     0.164 HD
BRANCH   8  11
ATOM     11  C   UNL     1      -7.691  -8.131   1.581  1.00  0.00     0.109 C 
ATOM     12  C   UNL     1      -8.688  -9.224   1.196  1.00  0.00     0.021 C 
BRANCH  11  13
ATOM     13  C   UNL     1      -6.809  -8.458   2.803  1.00  0.00     0.204 C 
BRANCH  13  14
ATOM     14  N   UNL     1      -7.608  -8.737   4.001  1.00  0.00    -0.340 N 
ATOM     15  C   UNL     1      -7.498  -8.002   5.161  1.00  0.00     0.243 C 
ATOM     16  O   UNL     1      -6.764  -7.020   5.254  1.00  0.00    -0.273 OA
ATOM     17  H   UNL     1      -8.120  -9.622   4.041  1.00  0.00     0.164 HD
BRANCH  15  18
ATOM     18  C   UNL     1      -8.282  -8.606   6.352  1.00  0.00     0.171 C 
BRANCH  18  19
ATOM     19  N   UNL     1      -7.890  -7.848   7.539  1.00  0.00    -0.343 N 
ATOM     20  C   UNL     1      -7.087  -8.396   8.521  1.00  0.00     0.242 CG0
ATOM     21  O   UNL     1      -6.776  -9.585   8.509  1.00  0.00    -0.273 OA
ATOM     22  H   UNL     1      -8.218  -6.896   7.652  1.00  0.00     0.164 HD
ATOM     23  G   UNL     1      -6.715  -7.421   9.657  1.00  0.00     0.000 G0
ENDBRANCH  18  19
BRANCH  18  24
ATOM     24  C   UNL     1      -9.794  -8.520   6.105  1.00  0.00     0.038 C 
BRANCH  24  25
ATOM     25  C   UNL     1     -10.537  -9.870   6.185  1.00  0.00    -0.015 C 
ATOM     26  C   UNL     1     -12.054  -9.698   6.271  1.00  0.00     0.007 C 
ATOM     27  C   UNL     1     -10.039 -10.661   7.397  1.00  0.00     0.007 C 
ENDBRANCH  24  25
ENDBRANCH  18  24
ENDBRANCH  15  18
ENDBRANCH  13  14
BRANCH  13  28
ATOM     28  C   UNL     1      -5.891  -9.663   2.580  1.00  0.00     0.327 C 
ATOM     29  O   UNL     1      -5.931 -10.724   3.184  1.00  0.00    -0.250 OA
BRANCH  28  30
ATOM     30  O   UNL     1      -4.904  -9.418   1.694  1.00  0.00    -0.480 OA
ATOM     31  H   UNL     1      -4.856  -8.441   1.650  1.00  0.00     0.296 HD
ENDBRANCH  28  30
ENDBRANCH  13  28
ENDBRANCH  11  13
ENDBRANCH   8  11
ENDBRANCH   6   7
BRANCH   6  32
ATOM     32  C   UNL     1      -6.518  -6.833  -2.449  1.00  0.00     0.037 C 
BRANCH  32  33
ATOM     33  C   UNL     1      -8.001  -6.460  -2.575  1.00  0.00     0.026 C 
BRANCH  33  34
ATOM     34  C   UNL     1      -8.310  -5.721  -3.877  1.00  0.00     0.146 C 
BRANCH  34  35
ATOM     35  N   UNL     1      -7.196  -4.837  -4.191  1.00  0.00    -0.254 NA
ATOM     36  C   UNL     1      -7.034  -4.460  -5.405  1.00  0.00     0.185 C 
ATOM     37  N   UNL     1      -6.014  -3.641  -5.705  1.00  0.00    -0.370 N 
ATOM     38  N   UNL     1      -7.765  -4.770  -6.491  1.00  0.00    -0.370 N 
ATOM     39  H   UNL     1      -5.422  -3.353  -4.936  1.00  0.00     0.159 HD
ATOM     40  H   UNL     1      -5.922  -3.167  -6.587  1.00  0.00     0.159 HD
ATOM     41  H   UNL     1      -7.454  -4.522  -7.416  1.00  0.00     0.159 HD
ATOM     42  H   UNL     1      -8.555  -5.391  -6.416  1.00  0.00     0.159 HD
ENDBRANCH  34  35
ENDBRANCH  33  34
ENDBRANCH  32  33
ENDBRANCH   6  32
ENDBRANCH   4   6
ENDBRANCH   1   2
BRANCH   1  43
ATOM     43  C   UNL     1      -2.151  -6.292  -1.164  1.00  0.00     0.102 C 
ATOM     44  C   UNL     1      -2.715  -6.380   0.264  1.00  0.00     0.020 C 
BRANCH  43  45
ATOM     45  C   UNL     1      -2.450  -4.965  -1.869  1.00  0.00     0.225 C 
ATOM     46  O   UNL     1      -3.484  -4.757  -2.497  1.00  0.00    -0.275 OA
ATOM     47  N   UNL     1      -1.436  -4.035  -1.836  1.00  0.00    -0.342 N 
ATOM     48  H   UNL     1      -0.665  -4.159  -1.195  1.00  0.00     0.164 HD
BRANCH  47  49
ATOM     49  C   UNL     1      -1.594  -2.707  -2.437  1.00  0.00     0.192 C 
BRANCH  49  50
ATOM     50  C   UNL     1      -0.220  -2.058  -2.618  1.00  0.00     0.047 C 
BRANCH  50  51
ATOM     51  C   UNL     1       0.920  -3.085  -2.575  1.00  0.00     0.103 C 
BRANCH  51  52
ATOM     52  C   UNL     1       1.746  -3.079  -3.859  1.00  0.00     0.226 C 
ATOM     53  O   UNL     1       1.576  -2.185  -4.690  1.00  0.00    -0.275 OA
BRANCH  52  54
ATOM     54  N   UNL     1       2.727  -4.081  -3.977  1.00  0.00    -0.311 N 
ATOM     55  C   UNL     1       2.426  -5.360  -4.636  1.00  0.00     0.153 C 
BRANCH  54  56
ATOM     56  C   UNL     1       4.027  -3.896  -3.479  1.00  0.00     0.102 C 
ATOM     57  C   UNL     1       4.751  -4.838  -2.851  1.00  0.00     0.043 C 
BRANCH  56  58
ATOM     58  C   UNL     1       4.748  -2.581  -3.662  1.00  0.00     0.268 C 
ATOM     59  O   UNL     1       5.204  -1.932  -2.730  1.00  0.00    -0.268 OA
ATOM     60  N   UNL     1       4.895  -2.225  -4.981  1.00  0.00    -0.339 N 
ATOM     61  H   UNL     1       4.478  -2.812  -5.694  1.00  0.00     0.164 HD
BRANCH  60  62
ATOM     62  C   UNL     1       5.617  -1.020  -5.387  1.00  0.00     0.168 CG0
ATOM     63  C   UNL     1       4.861  -0.271  -6.478  1.00  0.00     0.041 C 
ATOM     64  G   UNL     1       7.032  -1.402  -5.867  1.00  0.00     0.000 G0
ENDBRANCH  60  62
ENDBRANCH  56  58
ENDBRANCH  54  56
ENDBRANCH  52  54
ENDBRANCH  51  52
ENDBRANCH  50  51
ENDBRANCH  49  50
BRANCH  49  65
ATOM     65  C   UNL     1      -2.478  -1.795  -1.572  1.00  0.00     0.326 C 
ATOM     66  O   UNL     1      -2.121  -1.212  -0.559  1.00  0.00    -0.250 OA
BRANCH  65  67
ATOM     67  O   UNL     1      -3.764  -1.707  -1.978  1.00  0.00    -0.480 OA
ATOM     68  H   UNL     1      -4.000  -0.772  -1.798  1.00  0.00     0.296 HD
ENDBRANCH  65  67
ENDBRANCH  49  65
ENDBRANCH  47  49
ENDBRANCH  43  45
ENDBRANCH   1  43
BRANCH   1  69
ATOM     69  C   UNL     1      -1.971  -7.590  -3.464  1.00  0.00    -0.001 C 
ATOM     70  C   UNL     1      -2.358  -8.416  -4.453  1.00  0.00     0.001 C 
BRANCH  70  71
ATOM     71  C   UNL     1      -1.812  -8.478  -5.810  1.00  0.00    -0.055 C 
ATOM     72  C   UNL     1      -2.630  -8.146  -6.831  1.00  0.00    -0.018 C 
ATOM     73  C   UNL     1      -0.375  -8.899  -5.971  1.00  0.00     0.044 C 
BRANCH  72  74
ATOM     74  C   UNL     1      -2.342  -8.115  -8.325  1.00  0.00     0.038 C 
ATOM     75  C   UNL     1      -2.151  -6.645  -8.719  1.00  0.00     0.015 C 
BRANCH  74  76
ATOM     76  C   UNL     1      -3.495  -8.846  -9.073  1.00  0.00     0.128 C 
BRANCH  76  77
ATOM     77  O   UNL     1      -4.622  -9.013  -8.196  1.00  0.00    -0.381 OA
ATOM     78  C   UNL     1      -5.071 -10.357  -8.091  1.00  0.00     0.195 C 
ENDBRANCH  76  77
BRANCH  76  79
ATOM     79  C   UNL     1      -3.880  -8.196 -10.426  1.00  0.00     0.068 C 
BRANCH  79  80
ATOM     80  C   UNL     1      -5.264  -7.608 -10.560  1.00  0.00    -0.045 A 
ATOM     81  C   UNL     1      -5.515  -6.270 -10.228  1.00  0.00     0.004 A 
ATOM     82  C   UNL     1      -6.333  -8.407 -10.995  1.00  0.00     0.004 A 
ATOM     83  C   UNL     1      -6.801  -5.738 -10.341  1.00  0.00     0.000 A 
ATOM     84  C   UNL     1      -7.618  -7.873 -11.107  1.00  0.00     0.000 A 
ATOM     85  C   UNL     1      -7.852  -6.539 -10.782  1.00  0.00     0.000 A 
ENDBRANCH  79  80
ENDBRANCH  76  79
ENDBRANCH  74  76
ENDBRANCH  72  74
ENDBRANCH  70  71
ENDBRANCH   1  69
TORSDOF 17
ENDMDL
MODEL 16
REMARK VINA RESULT:    -7.172      3.150     11.318
REMARK INTER + INTRA:         -28.368
REMARK INTER:                 -21.774
REMARK INTRA:                  -6.595
REMARK UNBOUND:                -6.942
REMARK SMILES C=C1C(=O)N[C@H](C)C(=O)N[C@@H](CC(C)C)C(=O)N[C@@H](C(=O)O)[C@H](C)C(=O)N[C@@H](CCCN=C(N)N)C(=O)N[C@@H](/C=C/C(C)=C/[C@H](C)[C@H](Cc2ccccc2)OC)[C@H](C)C(=O)N[C@@H](C(=O)O)CCC(=O)N1C
REMARK SMILES IDX 39 1 38 2 37 3 36 4 28 6 27 7 25 8 26 9 23 11 24 12 19 13
REMARK SMILES IDX 18 14 16 15 17 16 11 18 10 19 8 20 9 21 12 24 13 25 14 26
REMARK SMILES IDX 15 27 20 28 21 29 22 30 29 32 30 33 31 34 32 35 33 36 34 37
REMARK SMILES IDX 35 38 57 43 58 44 59 45 60 46 61 47 62 49 66 50 67 51 68 52
REMARK SMILES IDX 69 53 70 54 71 55 2 56 1 57 3 58 4 59 5 60 6 62 7 63 63 65
REMARK SMILES IDX 64 66 65 67 40 69 41 70 42 71 44 72 43 73 45 74 46 75 47 76
REMARK SMILES IDX 55 77 56 78 48 79 49 80 50 81 54 82 51 83 53 84 52 85
REMARK H PARENT 38 5 27 10 18 17 10 22 22 31 34 39 34 40 35 41 35 42 61 48
REMARK H PARENT 5 61 65 68
REMARK Flexibility Score:  369.900
ROOT
ATOM      1  C   UNL     1       0.407  -7.695  -5.468  1.00  0.00     0.117 C 
ENDROOT
BRANCH   1   2
ATOM      2  N   UNL     1      -0.661  -7.749  -4.470  1.00  0.00    -0.347 N 
ATOM      3  O   UNL     1      -1.849  -5.918  -5.183  1.00  0.00    -0.273 OA
ATOM      4  C   UNL     1      -1.757  -6.907  -4.464  1.00  0.00     0.243 C 
ATOM      5  H   UNL     1      -0.641  -8.468  -3.763  1.00  0.00     0.164 HD
BRANCH   4   6
ATOM      6  C   UNL     1      -2.785  -7.231  -3.350  1.00  0.00     0.171 C 
BRANCH   6   7
ATOM      7  N   UNL     1      -2.557  -6.374  -2.175  1.00  0.00    -0.344 N 
ATOM      8  C   UNL     1      -1.693  -6.767  -1.176  1.00  0.00     0.226 C 
ATOM      9  O   UNL     1      -1.099  -7.838  -1.200  1.00  0.00    -0.275 OA
ATOM     10  H   UNL     1      -3.082  -5.512  -2.087  1.00  0.00     0.164 HD
BRANCH   8  11
ATOM     11  C   UNL     1      -1.524  -5.751  -0.060  1.00  0.00     0.109 C 
ATOM     12  C   UNL     1      -1.256  -4.365  -0.647  1.00  0.00     0.021 C 
BRANCH  11  13
ATOM     13  C   UNL     1      -2.728  -5.826   0.901  1.00  0.00     0.204 C 
BRANCH  13  14
ATOM     14  N   UNL     1      -3.251  -7.190   1.024  1.00  0.00    -0.340 N 
ATOM     15  C   UNL     1      -4.590  -7.492   0.900  1.00  0.00     0.243 C 
ATOM     16  O   UNL     1      -5.435  -6.644   0.616  1.00  0.00    -0.273 OA
ATOM     17  H   UNL     1      -2.632  -7.909   1.406  1.00  0.00     0.164 HD
BRANCH  15  18
ATOM     18  C   UNL     1      -4.932  -8.955   1.274  1.00  0.00     0.171 C 
BRANCH  18  19
ATOM     19  N   UNL     1      -5.813  -8.895   2.438  1.00  0.00    -0.343 N 
ATOM     20  C   UNL     1      -5.660  -9.749   3.513  1.00  0.00     0.242 CG0
ATOM     21  O   UNL     1      -4.862 -10.683   3.484  1.00  0.00    -0.273 OA
ATOM     22  H   UNL     1      -6.563  -8.213   2.459  1.00  0.00     0.164 HD
ATOM     23  G   UNL     1      -6.632  -9.483   4.681  1.00  0.00     0.000 G0
ENDBRANCH  18  19
BRANCH  18  24
ATOM     24  C   UNL     1      -5.604  -9.672   0.096  1.00  0.00     0.038 C 
BRANCH  24  25
ATOM     25  C   UNL     1      -4.866  -9.528  -1.252  1.00  0.00    -0.015 C 
ATOM     26  C   UNL     1      -5.729  -9.955  -2.440  1.00  0.00     0.007 C 
ATOM     27  C   UNL     1      -3.579 -10.356  -1.226  1.00  0.00     0.007 C 
ENDBRANCH  24  25
ENDBRANCH  18  24
ENDBRANCH  15  18
ENDBRANCH  13  14
BRANCH  13  28
ATOM     28  C   UNL     1      -2.403  -5.335   2.315  1.00  0.00     0.327 C 
ATOM     29  O   UNL     1      -2.048  -6.027   3.256  1.00  0.00    -0.250 OA
BRANCH  28  30
ATOM     30  O   UNL     1      -2.659  -4.023   2.491  1.00  0.00    -0.480 OA
ATOM     31  H   UNL     1      -2.709  -3.663   1.581  1.00  0.00     0.296 HD
ENDBRANCH  28  30
ENDBRANCH  13  28
ENDBRANCH  11  13
ENDBRANCH   8  11
ENDBRANCH   6   7
BRANCH   6  32
ATOM     32  C   UNL     1      -4.202  -7.038  -3.901  1.00  0.00     0.037 C 
BRANCH  32  33
ATOM     33  C   UNL     1      -5.111  -6.291  -2.915  1.00  0.00     0.026 C 
BRANCH  33  34
ATOM     34  C   UNL     1      -5.588  -4.946  -3.463  1.00  0.00     0.146 C 
BRANCH  34  35
ATOM     35  N   UNL     1      -6.725  -5.174  -4.343  1.00  0.00    -0.254 NA
ATOM     36  C   UNL     1      -6.889  -4.397  -5.349  1.00  0.00     0.185 C 
ATOM     37  N   UNL     1      -7.931  -4.602  -6.170  1.00  0.00    -0.370 N 
ATOM     38  N   UNL     1      -6.142  -3.349  -5.737  1.00  0.00    -0.370 N 
ATOM     39  H   UNL     1      -8.537  -5.381  -5.949  1.00  0.00     0.159 HD
ATOM     40  H   UNL     1      -8.030  -4.154  -7.065  1.00  0.00     0.159 HD
ATOM     41  H   UNL     1      -6.453  -2.730  -6.468  1.00  0.00     0.159 HD
ATOM     42  H   UNL     1      -5.334  -3.070  -5.203  1.00  0.00     0.159 HD
ENDBRANCH  34  35
ENDBRANCH  33  34
ENDBRANCH  32  33
ENDBRANCH   6  32
ENDBRANCH   4   6
ENDBRANCH   1   2
BRANCH   1  43
ATOM     43  C   UNL     1       1.109  -6.310  -5.369  1.00  0.00     0.102 C 
ATOM     44  C   UNL     1       1.851  -5.906  -6.654  1.00  0.00     0.020 C 
BRANCH  43  45
ATOM     45  C   UNL     1       1.964  -6.216  -4.102  1.00  0.00     0.225 C 
ATOM     46  O   UNL     1       1.486  -6.102  -2.977  1.00  0.00    -0.275 OA
ATOM     47  N   UNL     1       3.324  -6.172  -4.307  1.00  0.00    -0.342 N 
ATOM     48  H   UNL     1       3.702  -6.418  -5.211  1.00  0.00     0.164 HD
BRANCH  47  49
ATOM     49  C   UNL     1       4.267  -6.119  -3.185  1.00  0.00     0.192 C 
BRANCH  49  50
ATOM     50  C   UNL     1       4.650  -4.663  -2.905  1.00  0.00     0.047 C 
BRANCH  50  51
ATOM     51  C   UNL     1       4.227  -3.721  -4.040  1.00  0.00     0.103 C 
BRANCH  51  52
ATOM     52  C   UNL     1       4.342  -2.252  -3.638  1.00  0.00     0.226 C 
ATOM     53  O   UNL     1       5.174  -1.913  -2.794  1.00  0.00    -0.275 OA
BRANCH  52  54
ATOM     54  N   UNL     1       3.519  -1.346  -4.333  1.00  0.00    -0.311 N 
ATOM     55  C   UNL     1       2.433  -0.633  -3.648  1.00  0.00     0.153 C 
BRANCH  54  56
ATOM     56  C   UNL     1       3.708  -1.085  -5.700  1.00  0.00     0.102 C 
ATOM     57  C   UNL     1       2.822  -1.372  -6.667  1.00  0.00     0.043 C 
BRANCH  56  58
ATOM     58  C   UNL     1       4.958  -0.392  -6.191  1.00  0.00     0.268 C 
ATOM     59  O   UNL     1       6.075  -0.641  -5.760  1.00  0.00    -0.268 OA
ATOM     60  N   UNL     1       4.717   0.494  -7.215  1.00  0.00    -0.339 N 
ATOM     61  H   UNL     1       3.761   0.651  -7.508  1.00  0.00     0.164 HD
BRANCH  60  62
ATOM     62  C   UNL     1       5.794   1.226  -7.880  1.00  0.00     0.168 CG0
ATOM     63  C   UNL     1       5.238   2.359  -8.733  1.00  0.00     0.041 C 
ATOM     64  G   UNL     1       6.627   0.253  -8.739  1.00  0.00     0.000 G0
ENDBRANCH  60  62
ENDBRANCH  56  58
ENDBRANCH  54  56
ENDBRANCH  52  54
ENDBRANCH  51  52
ENDBRANCH  50  51
ENDBRANCH  49  50
BRANCH  49  65
ATOM     65  C   UNL     1       5.538  -6.933  -3.474  1.00  0.00     0.326 C 
ATOM     66  O   UNL     1       5.777  -8.053  -3.045  1.00  0.00    -0.250 OA
BRANCH  65  67
ATOM     67  O   UNL     1       6.461  -6.291  -4.224  1.00  0.00    -0.480 OA
ATOM     68  H   UNL     1       6.243  -5.342  -4.096  1.00  0.00     0.296 HD
ENDBRANCH  65  67
ENDBRANCH  49  65
ENDBRANCH  47  49
ENDBRANCH  43  45
ENDBRANCH   1  43
BRANCH   1  69
ATOM     69  C   UNL     1      -0.224  -8.105  -6.787  1.00  0.00    -0.001 C 
ATOM     70  C   UNL     1      -0.146  -9.303  -7.392  1.00  0.00     0.001 C 
BRANCH  70  71
ATOM     71  C   UNL     1      -0.778  -9.693  -8.654  1.00  0.00    -0.055 C 
ATOM     72  C   UNL     1      -0.405  -9.034  -9.772  1.00  0.00    -0.018 C 
ATOM     73  C   UNL     1      -1.791 -10.807  -8.618  1.00  0.00     0.044 C 
BRANCH  72  74
ATOM     74  C   UNL     1      -0.882  -9.223 -11.205  1.00  0.00     0.038 C 
ATOM     75  C   UNL     1       0.304  -8.902 -12.123  1.00  0.00     0.015 C 
BRANCH  74  76
ATOM     76  C   UNL     1      -2.143  -8.339 -11.434  1.00  0.00     0.128 C 
BRANCH  76  77
ATOM     77  O   UNL     1      -3.333  -9.105 -11.178  1.00  0.00    -0.381 OA
ATOM     78  C   UNL     1      -3.367 -10.351 -11.861  1.00  0.00     0.195 C 
ENDBRANCH  76  77
BRANCH  76  79
ATOM     79  C   UNL     1      -2.118  -6.995 -10.663  1.00  0.00     0.068 C 
BRANCH  79  80
ATOM     80  C   UNL     1      -3.296  -6.664  -9.779  1.00  0.00    -0.045 A 
ATOM     81  C   UNL     1      -3.228  -6.838  -8.391  1.00  0.00     0.004 A 
ATOM     82  C   UNL     1      -4.495  -6.202 -10.343  1.00  0.00     0.004 A 
ATOM     83  C   UNL     1      -4.328  -6.543  -7.582  1.00  0.00     0.000 A 
ATOM     84  C   UNL     1      -5.594  -5.909  -9.533  1.00  0.00     0.000 A 
ATOM     85  C   UNL     1      -5.510  -6.077  -8.153  1.00  0.00     0.000 A 
ENDBRANCH  79  80
ENDBRANCH  76  79
ENDBRANCH  74  76
ENDBRANCH  72  74
ENDBRANCH  70  71
ENDBRANCH   1  69
TORSDOF 17
ENDMDL
MODEL 17
REMARK VINA RESULT:    -7.166      3.972     12.944
REMARK INTER + INTRA:         -28.353
REMARK INTER:                 -22.546
REMARK INTRA:                  -5.807
REMARK UNBOUND:                -6.942
REMARK SMILES C=C1C(=O)N[C@H](C)C(=O)N[C@@H](CC(C)C)C(=O)N[C@@H](C(=O)O)[C@H](C)C(=O)N[C@@H](CCCN=C(N)N)C(=O)N[C@@H](/C=C/C(C)=C/[C@H](C)[C@H](Cc2ccccc2)OC)[C@H](C)C(=O)N[C@@H](C(=O)O)CCC(=O)N1C
REMARK SMILES IDX 39 1 38 2 37 3 36 4 28 6 27 7 25 8 26 9 23 11 24 12 19 13
REMARK SMILES IDX 18 14 16 15 17 16 11 18 10 19 8 20 9 21 12 24 13 25 14 26
REMARK SMILES IDX 15 27 20 28 21 29 22 30 29 32 30 33 31 34 32 35 33 36 34 37
REMARK SMILES IDX 35 38 57 43 58 44 59 45 60 46 61 47 62 49 66 50 67 51 68 52
REMARK SMILES IDX 69 53 70 54 71 55 2 56 1 57 3 58 4 59 5 60 6 62 7 63 63 65
REMARK SMILES IDX 64 66 65 67 40 69 41 70 42 71 44 72 43 73 45 74 46 75 47 76
REMARK SMILES IDX 55 77 56 78 48 79 49 80 50 81 54 82 51 83 53 84 52 85
REMARK H PARENT 38 5 27 10 18 17 10 22 22 31 34 39 34 40 35 41 35 42 61 48
REMARK H PARENT 5 61 65 68
REMARK Flexibility Score:  369.900
ROOT
ATOM      1  C   UNL     1      -2.952  -7.120  -4.681  1.00  0.00     0.117 C 
ENDROOT
BRANCH   1   2
ATOM      2  N   UNL     1      -2.927  -6.887  -3.237  1.00  0.00    -0.347 N 
ATOM      3  O   UNL     1      -4.423  -5.147  -3.174  1.00  0.00    -0.273 OA
ATOM      4  C   UNL     1      -3.736  -5.976  -2.586  1.00  0.00     0.243 C 
ATOM      5  H   UNL     1      -2.324  -7.450  -2.656  1.00  0.00     0.164 HD
BRANCH   4   6
ATOM      6  C   UNL     1      -3.573  -5.987  -1.045  1.00  0.00     0.171 C 
BRANCH   6   7
ATOM      7  N   UNL     1      -4.647  -6.776  -0.420  1.00  0.00    -0.344 N 
ATOM      8  C   UNL     1      -4.924  -6.645   0.924  1.00  0.00     0.226 C 
ATOM      9  O   UNL     1      -4.289  -5.898   1.659  1.00  0.00    -0.275 OA
ATOM     10  H   UNL     1      -5.148  -7.454  -0.980  1.00  0.00     0.164 HD
BRANCH   8  11
ATOM     11  C   UNL     1      -6.093  -7.485   1.406  1.00  0.00     0.109 C 
ATOM     12  C   UNL     1      -6.402  -8.587   0.393  1.00  0.00     0.021 C 
BRANCH  11  13
ATOM     13  C   UNL     1      -5.823  -7.980   2.841  1.00  0.00     0.204 C 
BRANCH  13  14
ATOM     14  N   UNL     1      -7.055  -8.379   3.528  1.00  0.00    -0.340 N 
ATOM     15  C   UNL     1      -7.419  -7.881   4.761  1.00  0.00     0.243 C 
ATOM     16  O   UNL     1      -6.764  -7.020   5.345  1.00  0.00    -0.273 OA
ATOM     17  H   UNL     1      -7.561  -9.195   3.173  1.00  0.00     0.164 HD
BRANCH  15  18
ATOM     18  C   UNL     1      -8.644  -8.598   5.380  1.00  0.00     0.171 C 
BRANCH  18  19
ATOM     19  N   UNL     1      -9.103  -7.761   6.487  1.00  0.00    -0.343 N 
ATOM     20  C   UNL     1      -9.164  -8.236   7.783  1.00  0.00     0.242 CG0
ATOM     21  O   UNL     1      -8.963  -9.420   8.045  1.00  0.00    -0.273 OA
ATOM     22  H   UNL     1      -9.392  -6.807   6.303  1.00  0.00     0.164 HD
ATOM     23  G   UNL     1      -9.597  -7.185   8.826  1.00  0.00     0.000 G0
ENDBRANCH  18  19
BRANCH  18  24
ATOM     24  C   UNL     1      -9.744  -8.795   4.330  1.00  0.00     0.038 C 
BRANCH  24  25
ATOM     25  C   UNL     1     -10.478 -10.151   4.411  1.00  0.00    -0.015 C 
ATOM     26  C   UNL     1     -11.715 -10.094   5.307  1.00  0.00     0.007 C 
ATOM     27  C   UNL     1      -9.517 -11.225   4.927  1.00  0.00     0.007 C 
ENDBRANCH  24  25
ENDBRANCH  18  24
ENDBRANCH  15  18
ENDBRANCH  13  14
BRANCH  13  28
ATOM     28  C   UNL     1      -4.865  -9.175   2.897  1.00  0.00     0.327 C 
ATOM     29  O   UNL     1      -5.179 -10.347   3.034  1.00  0.00    -0.250 OA
BRANCH  28  30
ATOM     30  O   UNL     1      -3.567  -8.811   2.897  1.00  0.00    -0.480 OA
ATOM     31  H   UNL     1      -3.349  -8.695   1.949  1.00  0.00     0.296 HD
ENDBRANCH  28  30
ENDBRANCH  13  28
ENDBRANCH  11  13
ENDBRANCH   8  11
ENDBRANCH   6   7
BRANCH   6  32
ATOM     32  C   UNL     1      -2.196  -6.557  -0.689  1.00  0.00     0.037 C 
BRANCH  32  33
ATOM     33  C   UNL     1      -1.084  -5.507  -0.816  1.00  0.00     0.026 C 
BRANCH  33  34
ATOM     34  C   UNL     1      -1.504  -4.141  -0.273  1.00  0.00     0.146 C 
BRANCH  34  35
ATOM     35  N   UNL     1      -1.680  -3.224  -1.391  1.00  0.00    -0.254 NA
ATOM     36  C   UNL     1      -2.381  -2.166  -1.214  1.00  0.00     0.185 C 
ATOM     37  N   UNL     1      -2.546  -1.313  -2.236  1.00  0.00    -0.370 N 
ATOM     38  N   UNL     1      -3.013  -1.749  -0.103  1.00  0.00    -0.370 N 
ATOM     39  H   UNL     1      -2.090  -1.553  -3.107  1.00  0.00     0.159 HD
ATOM     40  H   UNL     1      -2.928  -0.388  -2.132  1.00  0.00     0.159 HD
ATOM     41  H   UNL     1      -3.649  -0.968  -0.128  1.00  0.00     0.159 HD
ATOM     42  H   UNL     1      -2.988  -2.301   0.740  1.00  0.00     0.159 HD
ENDBRANCH  34  35
ENDBRANCH  33  34
ENDBRANCH  32  33
ENDBRANCH   6  32
ENDBRANCH   4   6
ENDBRANCH   1   2
BRANCH   1  43
ATOM     43  C   UNL     1      -3.967  -8.261  -4.981  1.00  0.00     0.102 C 
ATOM     44  C   UNL     1      -3.326  -9.492  -5.643  1.00  0.00     0.020 C 
BRANCH  43  45
ATOM     45  C   UNL     1      -5.194  -7.725  -5.724  1.00  0.00     0.225 C 
ATOM     46  O   UNL     1      -6.014  -8.452  -6.278  1.00  0.00    -0.275 OA
ATOM     47  N   UNL     1      -5.278  -6.354  -5.817  1.00  0.00    -0.342 N 
ATOM     48  H   UNL     1      -4.689  -5.777  -5.234  1.00  0.00     0.164 HD
BRANCH  47  49
ATOM     49  C   UNL     1      -6.416  -5.699  -6.469  1.00  0.00     0.192 C 
BRANCH  49  50
ATOM     50  C   UNL     1      -6.116  -5.507  -7.957  1.00  0.00     0.047 C 
BRANCH  50  51
ATOM     51  C   UNL     1      -7.394  -5.356  -8.794  1.00  0.00     0.103 C 
BRANCH  51  52
ATOM     52  C   UNL     1      -7.205  -5.859 -10.224  1.00  0.00     0.226 C 
ATOM     53  O   UNL     1      -6.195  -5.541 -10.854  1.00  0.00    -0.275 OA
BRANCH  52  54
ATOM     54  N   UNL     1      -8.188  -6.738 -10.714  1.00  0.00    -0.311 N 
ATOM     55  C   UNL     1      -9.607  -6.357 -10.724  1.00  0.00     0.153 C 
BRANCH  54  56
ATOM     56  C   UNL     1      -7.852  -8.007 -11.216  1.00  0.00     0.102 C 
ATOM     57  C   UNL     1      -6.975  -8.850 -10.649  1.00  0.00     0.043 C 
BRANCH  56  58
ATOM     58  C   UNL     1      -8.518  -8.549 -12.459  1.00  0.00     0.268 C 
ATOM     59  O   UNL     1      -8.264  -8.145 -13.586  1.00  0.00    -0.268 OA
ATOM     60  N   UNL     1      -9.385  -9.584 -12.199  1.00  0.00    -0.339 N 
ATOM     61  H   UNL     1      -9.548  -9.853 -11.237  1.00  0.00     0.164 HD
BRANCH  60  62
ATOM     62  C   UNL     1     -10.089 -10.296 -13.265  1.00  0.00     0.168 CG0
ATOM     63  C   UNL     1     -11.556  -9.889 -13.319  1.00  0.00     0.041 C 
ATOM     64  G   UNL     1      -9.952 -11.817 -13.048  1.00  0.00     0.000 G0
ENDBRANCH  60  62
ENDBRANCH  56  58
ENDBRANCH  54  56
ENDBRANCH  52  54
ENDBRANCH  51  52
ENDBRANCH  50  51
ENDBRANCH  49  50
BRANCH  49  65
ATOM     65  C   UNL     1      -6.726  -4.335  -5.831  1.00  0.00     0.326 C 
ATOM     66  O   UNL     1      -7.837  -3.837  -5.724  1.00  0.00    -0.250 OA
BRANCH  65  67
ATOM     67  O   UNL     1      -5.639  -3.645  -5.421  1.00  0.00    -0.480 OA
ATOM     68  H   UNL     1      -5.133  -4.302  -4.896  1.00  0.00     0.296 HD
ENDBRANCH  65  67
ENDBRANCH  49  65
ENDBRANCH  47  49
ENDBRANCH  43  45
ENDBRANCH   1  43
BRANCH   1  69
ATOM     69  C   UNL     1      -1.506  -7.294  -5.108  1.00  0.00    -0.001 C 
ATOM     70  C   UNL     1      -0.456  -7.603  -4.328  1.00  0.00     0.001 C 
BRANCH  70  71
ATOM     71  C   UNL     1       0.933  -7.789  -4.755  1.00  0.00    -0.055 C 
ATOM     72  C   UNL     1       1.881  -7.042  -4.151  1.00  0.00    -0.018 C 
ATOM     73  C   UNL     1       1.206  -8.806  -5.832  1.00  0.00     0.044 C 
BRANCH  72  74
ATOM     74  C   UNL     1       3.385  -7.023  -4.383  1.00  0.00     0.038 C 
ATOM     75  C   UNL     1       4.048  -7.536  -3.099  1.00  0.00     0.015 C 
BRANCH  74  76
ATOM     76  C   UNL     1       3.808  -5.585  -4.806  1.00  0.00     0.128 C 
BRANCH  76  77
ATOM     77  O   UNL     1       4.873  -5.650  -5.769  1.00  0.00    -0.381 OA
ATOM     78  C   UNL     1       4.731  -6.709  -6.708  1.00  0.00     0.195 C 
ENDBRANCH  76  77
BRANCH  76  79
ATOM     79  C   UNL     1       2.630  -4.694  -5.275  1.00  0.00     0.068 C 
BRANCH  79  80
ATOM     80  C   UNL     1       2.370  -3.412  -4.522  1.00  0.00    -0.045 A 
ATOM     81  C   UNL     1       1.516  -3.388  -3.411  1.00  0.00     0.004 A 
ATOM     82  C   UNL     1       2.961  -2.212  -4.943  1.00  0.00     0.004 A 
ATOM     83  C   UNL     1       1.269  -2.195  -2.728  1.00  0.00     0.000 A 
ATOM     84  C   UNL     1       2.713  -1.019  -4.260  1.00  0.00     0.000 A 
ATOM     85  C   UNL     1       1.869  -1.012  -3.152  1.00  0.00     0.000 A 
ENDBRANCH  79  80
ENDBRANCH  76  79
ENDBRANCH  74  76
ENDBRANCH  72  74
ENDBRANCH  70  71
ENDBRANCH   1  69
TORSDOF 17
ENDMDL
MODEL 18
REMARK VINA RESULT:    -7.114      4.817     12.087
REMARK INTER + INTRA:         -28.196
REMARK INTER:                 -21.858
REMARK INTRA:                  -6.338
REMARK UNBOUND:                -6.942
REMARK SMILES C=C1C(=O)N[C@H](C)C(=O)N[C@@H](CC(C)C)C(=O)N[C@@H](C(=O)O)[C@H](C)C(=O)N[C@@H](CCCN=C(N)N)C(=O)N[C@@H](/C=C/C(C)=C/[C@H](C)[C@H](Cc2ccccc2)OC)[C@H](C)C(=O)N[C@@H](C(=O)O)CCC(=O)N1C
REMARK SMILES IDX 39 1 38 2 37 3 36 4 28 6 27 7 25 8 26 9 23 11 24 12 19 13
REMARK SMILES IDX 18 14 16 15 17 16 11 18 10 19 8 20 9 21 12 24 13 25 14 26
REMARK SMILES IDX 15 27 20 28 21 29 22 30 29 32 30 33 31 34 32 35 33 36 34 37
REMARK SMILES IDX 35 38 57 43 58 44 59 45 60 46 61 47 62 49 66 50 67 51 68 52
REMARK SMILES IDX 69 53 70 54 71 55 2 56 1 57 3 58 4 59 5 60 6 62 7 63 63 65
REMARK SMILES IDX 64 66 65 67 40 69 41 70 42 71 44 72 43 73 45 74 46 75 47 76
REMARK SMILES IDX 55 77 56 78 48 79 49 80 50 81 54 82 51 83 53 84 52 85
REMARK H PARENT 38 5 27 10 18 17 10 22 22 31 34 39 34 40 35 41 35 42 61 48
REMARK H PARENT 5 61 65 68
REMARK Flexibility Score:  369.900
ROOT
ATOM      1  C   UNL     1      -5.285  -5.380  -4.329  1.00  0.00     0.117 C 
ENDROOT
BRANCH   1   2
ATOM      2  N   UNL     1      -5.771  -6.673  -3.846  1.00  0.00    -0.347 N 
ATOM      3  O   UNL     1      -5.741  -6.200  -1.600  1.00  0.00    -0.273 OA
ATOM      4  C   UNL     1      -6.048  -6.949  -2.521  1.00  0.00     0.243 C 
ATOM      5  H   UNL     1      -5.969  -7.406  -4.510  1.00  0.00     0.164 HD
BRANCH   4   6
ATOM      6  C   UNL     1      -6.633  -8.366  -2.289  1.00  0.00     0.171 C 
BRANCH   6   7
ATOM      7  N   UNL     1      -7.323  -8.431  -0.991  1.00  0.00    -0.344 N 
ATOM      8  C   UNL     1      -6.839  -9.231   0.022  1.00  0.00     0.226 C 
ATOM      9  O   UNL     1      -5.844  -9.933  -0.109  1.00  0.00    -0.275 OA
ATOM     10  H   UNL     1      -8.186  -7.917  -0.868  1.00  0.00     0.164 HD
BRANCH   8  11
ATOM     11  C   UNL     1      -7.630  -9.147   1.316  1.00  0.00     0.109 C 
ATOM     12  C   UNL     1      -8.234 -10.511   1.653  1.00  0.00     0.021 C 
BRANCH  11  13
ATOM     13  C   UNL     1      -6.752  -8.535   2.425  1.00  0.00     0.204 C 
BRANCH  13  14
ATOM     14  N   UNL     1      -5.592  -7.823   1.880  1.00  0.00    -0.340 N 
ATOM     15  C   UNL     1      -4.304  -8.045   2.317  1.00  0.00     0.243 C 
ATOM     16  O   UNL     1      -4.029  -8.903   3.154  1.00  0.00    -0.273 OA
ATOM     17  H   UNL     1      -5.764  -6.999   1.298  1.00  0.00     0.164 HD
BRANCH  15  18
ATOM     18  C   UNL     1      -3.275  -7.036   1.751  1.00  0.00     0.171 C 
BRANCH  18  19
ATOM     19  N   UNL     1      -2.553  -6.486   2.897  1.00  0.00    -0.343 N 
ATOM     20  C   UNL     1      -2.344  -5.129   3.043  1.00  0.00     0.242 CG0
ATOM     21  O   UNL     1      -2.637  -4.333   2.154  1.00  0.00    -0.273 OA
ATOM     22  H   UNL     1      -2.189  -7.116   3.603  1.00  0.00     0.164 HD
ATOM     23  G   UNL     1      -1.633  -4.732   4.353  1.00  0.00     0.000 G0
ENDBRANCH  18  19
BRANCH  18  24
ATOM     24  C   UNL     1      -2.324  -7.727   0.766  1.00  0.00     0.038 C 
BRANCH  24  25
ATOM     25  C   UNL     1      -2.663  -7.503  -0.723  1.00  0.00    -0.015 C 
ATOM     26  C   UNL     1      -1.988  -8.525  -1.637  1.00  0.00     0.007 C 
ATOM     27  C   UNL     1      -2.250  -6.088  -1.137  1.00  0.00     0.007 C 
ENDBRANCH  24  25
ENDBRANCH  18  24
ENDBRANCH  15  18
ENDBRANCH  13  14
BRANCH  13  28
ATOM     28  C   UNL     1      -7.509  -7.550   3.321  1.00  0.00     0.327 C 
ATOM     29  O   UNL     1      -8.436  -7.820   4.070  1.00  0.00    -0.250 OA
BRANCH  28  30
ATOM     30  O   UNL     1      -7.135  -6.269   3.132  1.00  0.00    -0.480 OA
ATOM     31  H   UNL     1      -6.273  -6.199   3.591  1.00  0.00     0.296 HD
ENDBRANCH  28  30
ENDBRANCH  13  28
ENDBRANCH  11  13
ENDBRANCH   8  11
ENDBRANCH   6   7
BRANCH   6  32
ATOM     32  C   UNL     1      -7.590  -8.709  -3.436  1.00  0.00     0.037 C 
BRANCH  32  33
ATOM     33  C   UNL     1      -7.592 -10.210  -3.760  1.00  0.00     0.026 C 
BRANCH  33  34
ATOM     34  C   UNL     1      -6.785 -10.537  -5.017  1.00  0.00     0.146 C 
BRANCH  34  35
ATOM     35  N   UNL     1      -5.441  -9.997  -4.868  1.00  0.00    -0.254 NA
ATOM     36  C   UNL     1      -4.455 -10.813  -4.803  1.00  0.00     0.185 C 
ATOM     37  N   UNL     1      -3.212 -10.326  -4.670  1.00  0.00    -0.370 N 
ATOM     38  N   UNL     1      -4.466 -12.157  -4.850  1.00  0.00    -0.370 N 
ATOM     39  H   UNL     1      -3.120  -9.318  -4.637  1.00  0.00     0.159 HD
ATOM     40  H   UNL     1      -2.382 -10.881  -4.786  1.00  0.00     0.159 HD
ATOM     41  H   UNL     1      -3.637 -12.691  -4.648  1.00  0.00     0.159 HD
ATOM     42  H   UNL     1      -5.335 -12.660  -4.932  1.00  0.00     0.159 HD
ENDBRANCH  34  35
ENDBRANCH  33  34
ENDBRANCH  32  33
ENDBRANCH   6  32
ENDBRANCH   4   6
ENDBRANCH   1   2
BRANCH   1  43
ATOM     43  C   UNL     1      -6.167  -4.937  -5.532  1.00  0.00     0.102 C 
ATOM     44  C   UNL     1      -7.652  -4.767  -5.171  1.00  0.00     0.020 C 
BRANCH  43  45
ATOM     45  C   UNL     1      -5.922  -5.829  -6.752  1.00  0.00     0.225 C 
ATOM     46  O   UNL     1      -5.918  -7.056  -6.696  1.00  0.00    -0.275 OA
ATOM     47  N   UNL     1      -5.608  -5.167  -7.917  1.00  0.00    -0.342 N 
ATOM     48  H   UNL     1      -5.763  -4.171  -7.983  1.00  0.00     0.164 HD
BRANCH  47  49
ATOM     49  C   UNL     1      -5.383  -5.890  -9.172  1.00  0.00     0.192 C 
BRANCH  49  50
ATOM     50  C   UNL     1      -6.475  -6.945  -9.361  1.00  0.00     0.047 C 
BRANCH  50  51
ATOM     51  C   UNL     1      -7.860  -6.319  -9.572  1.00  0.00     0.103 C 
BRANCH  51  52
ATOM     52  C   UNL     1      -8.241  -6.252 -11.049  1.00  0.00     0.226 C 
ATOM     53  O   UNL     1      -7.891  -5.284 -11.727  1.00  0.00    -0.275 OA
BRANCH  52  54
ATOM     54  N   UNL     1      -8.920  -7.368 -11.572  1.00  0.00    -0.311 N 
ATOM     55  C   UNL     1      -8.236  -8.328 -12.448  1.00  0.00     0.153 C 
BRANCH  54  56
ATOM     56  C   UNL     1     -10.272  -7.609 -11.273  1.00  0.00     0.102 C 
ATOM     57  C   UNL     1     -11.171  -6.660 -10.964  1.00  0.00     0.043 C 
BRANCH  56  58
ATOM     58  C   UNL     1     -10.840  -9.007 -11.325  1.00  0.00     0.268 C 
ATOM     59  O   UNL     1     -10.477  -9.906 -10.578  1.00  0.00    -0.268 OA
ATOM     60  N   UNL     1     -11.848  -9.147 -12.249  1.00  0.00    -0.339 N 
ATOM     61  H   UNL     1     -12.083  -8.356 -12.837  1.00  0.00     0.164 HD
BRANCH  60  62
ATOM     62  C   UNL     1     -12.579 -10.402 -12.420  1.00  0.00     0.168 CG0
ATOM     63  C   UNL     1     -12.107 -11.144 -13.664  1.00  0.00     0.041 C 
ATOM     64  G   UNL     1     -14.093 -10.111 -12.500  1.00  0.00     0.000 G0
ENDBRANCH  60  62
ENDBRANCH  56  58
ENDBRANCH  54  56
ENDBRANCH  52  54
ENDBRANCH  51  52
ENDBRANCH  50  51
ENDBRANCH  49  50
BRANCH  49  65
ATOM     65  C   UNL     1      -4.006  -6.572  -9.194  1.00  0.00     0.326 C 
ATOM     66  O   UNL     1      -3.792  -7.748  -8.937  1.00  0.00    -0.250 OA
BRANCH  65  67
ATOM     67  O   UNL     1      -2.973  -5.748  -9.474  1.00  0.00    -0.480 OA
ATOM     68  H   UNL     1      -2.301  -5.981  -8.798  1.00  0.00     0.296 HD
ENDBRANCH  65  67
ENDBRANCH  49  65
ENDBRANCH  47  49
ENDBRANCH  43  45
ENDBRANCH   1  43
BRANCH   1  69
ATOM     69  C   UNL     1      -3.789  -5.539  -4.535  1.00  0.00    -0.001 C 
ATOM     70  C   UNL     1      -3.122  -6.667  -4.840  1.00  0.00     0.001 C 
BRANCH  70  71
ATOM     71  C   UNL     1      -1.681  -6.804  -5.058  1.00  0.00    -0.055 C 
ATOM     72  C   UNL     1      -0.854  -6.120  -4.239  1.00  0.00    -0.018 C 
ATOM     73  C   UNL     1      -1.222  -7.705  -6.175  1.00  0.00     0.044 C 
BRANCH  72  74
ATOM     74  C   UNL     1       0.667  -6.073  -4.227  1.00  0.00     0.038 C 
ATOM     75  C   UNL     1       1.160  -7.471  -3.833  1.00  0.00     0.015 C 
BRANCH  74  76
ATOM     76  C   UNL     1       1.125  -4.928  -3.276  1.00  0.00     0.128 C 
BRANCH  76  77
ATOM     77  O   UNL     1       2.508  -5.104  -2.926  1.00  0.00    -0.381 OA
ATOM     78  C   UNL     1       3.372  -4.137  -3.509  1.00  0.00     0.195 C 
ENDBRANCH  76  77
BRANCH  76  79
ATOM     79  C   UNL     1       0.817  -3.506  -3.809  1.00  0.00     0.068 C 
BRANCH  79  80
ATOM     80  C   UNL     1      -0.103  -2.629  -2.996  1.00  0.00    -0.045 A 
ATOM     81  C   UNL     1      -1.078  -3.187  -2.158  1.00  0.00     0.004 A 
ATOM     82  C   UNL     1      -0.015  -1.232  -3.089  1.00  0.00     0.004 A 
ATOM     83  C   UNL     1      -1.935  -2.369  -1.419  1.00  0.00     0.000 A 
ATOM     84  C   UNL     1      -0.873  -0.415  -2.350  1.00  0.00     0.000 A 
ATOM     85  C   UNL     1      -1.832  -0.983  -1.515  1.00  0.00     0.000 A 
ENDBRANCH  79  80
ENDBRANCH  76  79
ENDBRANCH  74  76
ENDBRANCH  72  74
ENDBRANCH  70  71
ENDBRANCH   1  69
TORSDOF 17
ENDMDL
MODEL 19
REMARK VINA RESULT:    -7.111      2.078      3.846
REMARK INTER + INTRA:         -28.186
REMARK INTER:                 -20.680
REMARK INTRA:                  -7.506
REMARK UNBOUND:                -6.942
REMARK SMILES C=C1C(=O)N[C@H](C)C(=O)N[C@@H](CC(C)C)C(=O)N[C@@H](C(=O)O)[C@H](C)C(=O)N[C@@H](CCCN=C(N)N)C(=O)N[C@@H](/C=C/C(C)=C/[C@H](C)[C@H](Cc2ccccc2)OC)[C@H](C)C(=O)N[C@@H](C(=O)O)CCC(=O)N1C
REMARK SMILES IDX 39 1 38 2 37 3 36 4 28 6 27 7 25 8 26 9 23 11 24 12 19 13
REMARK SMILES IDX 18 14 16 15 17 16 11 18 10 19 8 20 9 21 12 24 13 25 14 26
REMARK SMILES IDX 15 27 20 28 21 29 22 30 29 32 30 33 31 34 32 35 33 36 34 37
REMARK SMILES IDX 35 38 57 43 58 44 59 45 60 46 61 47 62 49 66 50 67 51 68 52
REMARK SMILES IDX 69 53 70 54 71 55 2 56 1 57 3 58 4 59 5 60 6 62 7 63 63 65
REMARK SMILES IDX 64 66 65 67 40 69 41 70 42 71 44 72 43 73 45 74 46 75 47 76
REMARK SMILES IDX 55 77 56 78 48 79 49 80 50 81 54 82 51 83 53 84 52 85
REMARK H PARENT 38 5 27 10 18 17 10 22 22 31 34 39 34 40 35 41 35 42 61 48
REMARK H PARENT 5 61 65 68
REMARK Flexibility Score:  369.900
ROOT
ATOM      1  C   UNL     1      -2.198  -7.663  -3.769  1.00  0.00     0.117 C 
ENDROOT
BRANCH   1   2
ATOM      2  N   UNL     1      -1.083  -6.792  -3.395  1.00  0.00    -0.347 N 
ATOM      3  O   UNL     1      -1.996  -4.802  -4.087  1.00  0.00    -0.273 OA
ATOM      4  C   UNL     1      -1.109  -5.414  -3.501  1.00  0.00     0.243 C 
ATOM      5  H   UNL     1      -0.254  -7.197  -2.988  1.00  0.00     0.164 HD
BRANCH   4   6
ATOM      6  C   UNL     1       0.167  -4.723  -2.957  1.00  0.00     0.171 C 
BRANCH   6   7
ATOM      7  N   UNL     1       1.288  -5.676  -2.909  1.00  0.00    -0.344 N 
ATOM      8  C   UNL     1       1.817  -6.198  -4.069  1.00  0.00     0.226 C 
ATOM      9  O   UNL     1       1.378  -5.920  -5.178  1.00  0.00    -0.275 OA
ATOM     10  H   UNL     1       1.633  -5.982  -2.007  1.00  0.00     0.164 HD
BRANCH   8  11
ATOM     11  C   UNL     1       3.002  -7.124  -3.855  1.00  0.00     0.109 C 
ATOM     12  C   UNL     1       2.878  -8.353  -4.755  1.00  0.00     0.021 C 
BRANCH  11  13
ATOM     13  C   UNL     1       4.316  -6.333  -4.014  1.00  0.00     0.204 C 
BRANCH  13  14
ATOM     14  N   UNL     1       4.203  -5.271  -5.019  1.00  0.00    -0.340 N 
ATOM     15  C   UNL     1       4.628  -5.424  -6.321  1.00  0.00     0.243 C 
ATOM     16  O   UNL     1       5.078  -6.485  -6.748  1.00  0.00    -0.273 OA
ATOM     17  H   UNL     1       3.982  -4.326  -4.695  1.00  0.00     0.164 HD
BRANCH  15  18
ATOM     18  C   UNL     1       4.601  -4.109  -7.139  1.00  0.00     0.171 C 
BRANCH  18  19
ATOM     19  N   UNL     1       4.065  -4.447  -8.456  1.00  0.00    -0.343 N 
ATOM     20  C   UNL     1       4.889  -4.688  -9.538  1.00  0.00     0.242 CG0
ATOM     21  O   UNL     1       6.102  -4.500  -9.478  1.00  0.00    -0.273 OA
ATOM     22  H   UNL     1       3.061  -4.501  -8.585  1.00  0.00     0.164 HD
ATOM     23  G   UNL     1       4.146  -5.106 -10.823  1.00  0.00     0.000 G0
ENDBRANCH  18  19
BRANCH  18  24
ATOM     24  C   UNL     1       3.741  -3.052  -6.436  1.00  0.00     0.038 C 
BRANCH  24  25
ATOM     25  C   UNL     1       4.494  -1.762  -6.049  1.00  0.00    -0.015 C 
ATOM     26  C   UNL     1       5.797  -1.588  -6.830  1.00  0.00     0.007 C 
ATOM     27  C   UNL     1       4.790  -1.770  -4.547  1.00  0.00     0.007 C 
ENDBRANCH  24  25
ENDBRANCH  18  24
ENDBRANCH  15  18
ENDBRANCH  13  14
BRANCH  13  28
ATOM     28  C   UNL     1       4.788  -5.678  -2.713  1.00  0.00     0.327 C 
ATOM     29  O   UNL     1       5.611  -4.781  -2.612  1.00  0.00    -0.250 OA
BRANCH  28  30
ATOM     30  O   UNL     1       4.287  -6.271  -1.610  1.00  0.00    -0.480 OA
ATOM     31  H   UNL     1       5.061  -6.709  -1.198  1.00  0.00     0.296 HD
ENDBRANCH  28  30
ENDBRANCH  13  28
ENDBRANCH  11  13
ENDBRANCH   8  11
ENDBRANCH   6   7
BRANCH   6  32
ATOM     32  C   UNL     1       0.508  -3.523  -3.847  1.00  0.00     0.037 C 
BRANCH  32  33
ATOM     33  C   UNL     1       1.473  -2.547  -3.159  1.00  0.00     0.026 C 
BRANCH  33  34
ATOM     34  C   UNL     1       0.742  -1.472  -2.353  1.00  0.00     0.146 C 
BRANCH  34  35
ATOM     35  N   UNL     1      -0.655  -1.447  -2.763  1.00  0.00    -0.254 NA
ATOM     36  C   UNL     1      -1.561  -1.423  -1.856  1.00  0.00     0.185 C 
ATOM     37  N   UNL     1      -2.851  -1.394  -2.222  1.00  0.00    -0.370 N 
ATOM     38  N   UNL     1      -1.417  -1.419  -0.519  1.00  0.00    -0.370 N 
ATOM     39  H   UNL     1      -3.042  -1.385  -3.216  1.00  0.00     0.159 HD
ATOM     40  H   UNL     1      -3.606  -1.200  -1.586  1.00  0.00     0.159 HD
ATOM     41  H   UNL     1      -2.210  -1.539   0.090  1.00  0.00     0.159 HD
ATOM     42  H   UNL     1      -0.500  -1.454  -0.102  1.00  0.00     0.159 HD
ENDBRANCH  34  35
ENDBRANCH  33  34
ENDBRANCH  32  33
ENDBRANCH   6  32
ENDBRANCH   4   6
ENDBRANCH   1   2
BRANCH   1  43
ATOM     43  C   UNL     1      -2.640  -8.467  -2.512  1.00  0.00     0.102 C 
ATOM     44  C   UNL     1      -4.117  -8.895  -2.548  1.00  0.00     0.020 C 
BRANCH  43  45
ATOM     45  C   UNL     1      -2.235  -7.742  -1.225  1.00  0.00     0.225 C 
ATOM     46  O   UNL     1      -1.136  -7.880  -0.695  1.00  0.00    -0.275 OA
ATOM     47  N   UNL     1      -3.221  -6.986  -0.635  1.00  0.00    -0.342 N 
ATOM     48  H   UNL     1      -4.058  -6.761  -1.155  1.00  0.00     0.164 HD
BRANCH  47  49
ATOM     49  C   UNL     1      -2.966  -6.208   0.582  1.00  0.00     0.192 C 
BRANCH  49  50
ATOM     50  C   UNL     1      -4.193  -6.266   1.495  1.00  0.00     0.047 C 
BRANCH  50  51
ATOM     51  C   UNL     1      -4.112  -7.416   2.508  1.00  0.00     0.103 C 
BRANCH  51  52
ATOM     52  C   UNL     1      -4.876  -8.652   2.035  1.00  0.00     0.226 C 
ATOM     53  O   UNL     1      -4.498  -9.254   1.028  1.00  0.00    -0.275 OA
BRANCH  52  54
ATOM     54  N   UNL     1      -5.945  -9.076   2.845  1.00  0.00    -0.311 N 
ATOM     55  C   UNL     1      -5.945 -10.409   3.461  1.00  0.00     0.153 C 
BRANCH  54  56
ATOM     56  C   UNL     1      -7.047  -8.242   3.099  1.00  0.00     0.102 C 
ATOM     57  C   UNL     1      -7.886  -7.770   2.162  1.00  0.00     0.043 C 
BRANCH  56  58
ATOM     58  C   UNL     1      -7.405  -7.838   4.510  1.00  0.00     0.268 C 
ATOM     59  O   UNL     1      -6.764  -7.020   5.155  1.00  0.00    -0.268 OA
ATOM     60  N   UNL     1      -8.557  -8.433   4.966  1.00  0.00    -0.339 N 
ATOM     61  H   UNL     1      -9.024  -9.109   4.373  1.00  0.00     0.164 HD
BRANCH  60  62
ATOM     62  C   UNL     1      -9.118  -8.136   6.283  1.00  0.00     0.168 CG0
ATOM     63  C   UNL     1      -8.716  -9.195   7.302  1.00  0.00     0.041 C 
ATOM     64  G   UNL     1     -10.654  -8.034   6.179  1.00  0.00     0.000 G0
ENDBRANCH  60  62
ENDBRANCH  56  58
ENDBRANCH  54  56
ENDBRANCH  52  54
ENDBRANCH  51  52
ENDBRANCH  50  51
ENDBRANCH  49  50
BRANCH  49  65
ATOM     65  C   UNL     1      -2.640  -4.742   0.259  1.00  0.00     0.326 C 
ATOM     66  O   UNL     1      -2.639  -4.243  -0.857  1.00  0.00    -0.250 OA
BRANCH  65  67
ATOM     67  O   UNL     1      -2.277  -3.997   1.327  1.00  0.00    -0.480 OA
ATOM     68  H   UNL     1      -3.064  -4.031   1.912  1.00  0.00     0.296 HD
ENDBRANCH  65  67
ENDBRANCH  49  65
ENDBRANCH  47  49
ENDBRANCH  43  45
ENDBRANCH   1  43
BRANCH   1  69
ATOM     69  C   UNL     1      -1.747  -8.422  -5.003  1.00  0.00    -0.001 C 
ATOM     70  C   UNL     1      -2.383  -8.510  -6.185  1.00  0.00     0.001 C 
BRANCH  70  71
ATOM     71  C   UNL     1      -1.928  -9.228  -7.377  1.00  0.00    -0.055 C 
ATOM     72  C   UNL     1      -0.704  -8.930  -7.861  1.00  0.00    -0.018 C 
ATOM     73  C   UNL     1      -2.854 -10.255  -7.975  1.00  0.00     0.044 C 
BRANCH  72  74
ATOM     74  C   UNL     1       0.023  -9.509  -9.066  1.00  0.00     0.038 C 
ATOM     75  C   UNL     1       1.174 -10.369  -8.530  1.00  0.00     0.015 C 
BRANCH  74  76
ATOM     76  C   UNL     1       0.461  -8.339  -9.997  1.00  0.00     0.128 C 
BRANCH  76  77
ATOM     77  O   UNL     1       1.849  -8.481 -10.344  1.00  0.00    -0.381 OA
ATOM     78  C   UNL     1       2.677  -7.453  -9.819  1.00  0.00     0.195 C 
ENDBRANCH  76  77
BRANCH  76  79
ATOM     79  C   UNL     1      -0.450  -8.145 -11.235  1.00  0.00     0.068 C 
BRANCH  79  80
ATOM     80  C   UNL     1      -1.934  -7.990 -11.004  1.00  0.00    -0.045 A 
ATOM     81  C   UNL     1      -2.830  -9.009 -11.353  1.00  0.00     0.004 A 
ATOM     82  C   UNL     1      -2.443  -6.802 -10.457  1.00  0.00     0.004 A 
ATOM     83  C   UNL     1      -4.202  -8.851 -11.149  1.00  0.00     0.000 A 
ATOM     84  C   UNL     1      -3.816  -6.645 -10.254  1.00  0.00     0.000 A 
ATOM     85  C   UNL     1      -4.695  -7.670 -10.598  1.00  0.00     0.000 A 
ENDBRANCH  79  80
ENDBRANCH  76  79
ENDBRANCH  74  76
ENDBRANCH  72  74
ENDBRANCH  70  71
ENDBRANCH   1  69
TORSDOF 17
ENDMDL
MODEL 20
REMARK VINA RESULT:    -7.086      2.057      3.831
REMARK INTER + INTRA:         -28.113
REMARK INTER:                 -22.672
REMARK INTRA:                  -5.441
REMARK UNBOUND:                -6.942
REMARK SMILES C=C1C(=O)N[C@H](C)C(=O)N[C@@H](CC(C)C)C(=O)N[C@@H](C(=O)O)[C@H](C)C(=O)N[C@@H](CCCN=C(N)N)C(=O)N[C@@H](/C=C/C(C)=C/[C@H](C)[C@H](Cc2ccccc2)OC)[C@H](C)C(=O)N[C@@H](C(=O)O)CCC(=O)N1C
REMARK SMILES IDX 39 1 38 2 37 3 36 4 28 6 27 7 25 8 26 9 23 11 24 12 19 13
REMARK SMILES IDX 18 14 16 15 17 16 11 18 10 19 8 20 9 21 12 24 13 25 14 26
REMARK SMILES IDX 15 27 20 28 21 29 22 30 29 32 30 33 31 34 32 35 33 36 34 37
REMARK SMILES IDX 35 38 57 43 58 44 59 45 60 46 61 47 62 49 66 50 67 51 68 52
REMARK SMILES IDX 69 53 70 54 71 55 2 56 1 57 3 58 4 59 5 60 6 62 7 63 63 65
REMARK SMILES IDX 64 66 65 67 40 69 41 70 42 71 44 72 43 73 45 74 46 75 47 76
REMARK SMILES IDX 55 77 56 78 48 79 49 80 50 81 54 82 51 83 53 84 52 85
REMARK H PARENT 38 5 27 10 18 17 10 22 22 31 34 39 34 40 35 41 35 42 61 48
REMARK H PARENT 5 61 65 68
REMARK Flexibility Score:  369.900
ROOT
ATOM      1  C   UNL     1      -2.404  -6.899  -3.178  1.00  0.00     0.117 C 
ENDROOT
BRANCH   1   2
ATOM      2  N   UNL     1      -1.214  -6.577  -3.966  1.00  0.00    -0.347 N 
ATOM      3  O   UNL     1      -0.017  -5.531  -2.310  1.00  0.00    -0.273 OA
ATOM      4  C   UNL     1      -0.074  -5.998  -3.443  1.00  0.00     0.243 C 
ATOM      5  H   UNL     1      -1.184  -6.830  -4.942  1.00  0.00     0.164 HD
BRANCH   4   6
ATOM      6  C   UNL     1       1.074  -5.843  -4.472  1.00  0.00     0.171 C 
BRANCH   6   7
ATOM      7  N   UNL     1       1.447  -4.426  -4.618  1.00  0.00    -0.344 N 
ATOM      8  C   UNL     1       2.661  -3.968  -4.154  1.00  0.00     0.226 C 
ATOM      9  O   UNL     1       3.468  -4.695  -3.587  1.00  0.00    -0.275 OA
ATOM     10  H   UNL     1       0.778  -3.782  -5.020  1.00  0.00     0.164 HD
BRANCH   8  11
ATOM     11  C   UNL     1       2.920  -2.497  -4.427  1.00  0.00     0.109 C 
ATOM     12  C   UNL     1       3.446  -1.812  -3.166  1.00  0.00     0.021 C 
BRANCH  11  13
ATOM     13  C   UNL     1       3.820  -2.348  -5.669  1.00  0.00     0.204 C 
BRANCH  13  14
ATOM     14  N   UNL     1       3.692  -3.486  -6.584  1.00  0.00    -0.340 N 
ATOM     15  C   UNL     1       4.680  -3.847  -7.474  1.00  0.00     0.243 C 
ATOM     16  O   UNL     1       5.767  -3.274  -7.522  1.00  0.00    -0.273 OA
ATOM     17  H   UNL     1       2.765  -3.906  -6.701  1.00  0.00     0.164 HD
BRANCH  15  18
ATOM     18  C   UNL     1       4.241  -4.943  -8.476  1.00  0.00     0.171 C 
BRANCH  18  19
ATOM     19  N   UNL     1       5.460  -5.609  -8.929  1.00  0.00    -0.343 N 
ATOM     20  C   UNL     1       5.972  -5.409 -10.196  1.00  0.00     0.242 CG0
ATOM     21  O   UNL     1       5.356  -4.769 -11.045  1.00  0.00    -0.273 OA
ATOM     22  H   UNL     1       5.944  -6.241  -8.301  1.00  0.00     0.164 HD
ATOM     23  G   UNL     1       7.307  -6.134 -10.465  1.00  0.00     0.000 G0
ENDBRANCH  18  19
BRANCH  18  24
ATOM     24  C   UNL     1       3.275  -5.930  -7.809  1.00  0.00     0.038 C 
BRANCH  24  25
ATOM     25  C   UNL     1       2.130  -6.425  -8.718  1.00  0.00    -0.015 C 
ATOM     26  C   UNL     1       0.846  -6.709  -7.939  1.00  0.00     0.007 C 
ATOM     27  C   UNL     1       2.572  -7.689  -9.460  1.00  0.00     0.007 C 
ENDBRANCH  24  25
ENDBRANCH  18  24
ENDBRANCH  15  18
ENDBRANCH  13  14
BRANCH  13  28
ATOM     28  C   UNL     1       3.528  -1.080  -6.479  1.00  0.00     0.327 C 
ATOM     29  O   UNL     1       4.311  -0.171  -6.705  1.00  0.00    -0.250 OA
BRANCH  28  30
ATOM     30  O   UNL     1       2.236  -0.978  -6.852  1.00  0.00    -0.480 OA
ATOM     31  H   UNL     1       2.249  -0.335  -7.591  1.00  0.00     0.296 HD
ENDBRANCH  28  30
ENDBRANCH  13  28
ENDBRANCH  11  13
ENDBRANCH   8  11
ENDBRANCH   6   7
BRANCH   6  32
ATOM     32  C   UNL     1       2.274  -6.680  -4.018  1.00  0.00     0.037 C 
BRANCH  32  33
ATOM     33  C   UNL     1       2.260  -8.090  -4.625  1.00  0.00     0.026 C 
BRANCH  33  34
ATOM     34  C   UNL     1       3.646  -8.543  -5.086  1.00  0.00     0.146 C 
BRANCH  34  35
ATOM     35  N   UNL     1       4.601  -7.476  -4.821  1.00  0.00    -0.254 NA
ATOM     36  C   UNL     1       5.660  -7.750  -4.154  1.00  0.00     0.185 C 
ATOM     37  N   UNL     1       6.549  -6.775  -3.908  1.00  0.00    -0.370 N 
ATOM     38  N   UNL     1       6.047  -8.926  -3.629  1.00  0.00    -0.370 N 
ATOM     39  H   UNL     1       6.333  -5.859  -4.281  1.00  0.00     0.159 HD
ATOM     40  H   UNL     1       7.473  -6.943  -3.550  1.00  0.00     0.159 HD
ATOM     41  H   UNL     1       6.834  -8.984  -3.005  1.00  0.00     0.159 HD
ATOM     42  H   UNL     1       5.466  -9.745  -3.723  1.00  0.00     0.159 HD
ENDBRANCH  34  35
ENDBRANCH  33  34
ENDBRANCH  32  33
ENDBRANCH   6  32
ENDBRANCH   4   6
ENDBRANCH   1   2
BRANCH   1  43
ATOM     43  C   UNL     1      -2.096  -8.147  -2.302  1.00  0.00     0.102 C 
ATOM     44  C   UNL     1      -3.038  -9.333  -2.571  1.00  0.00     0.020 C 
BRANCH  43  45
ATOM     45  C   UNL     1      -1.983  -7.767  -0.822  1.00  0.00     0.225 C 
ATOM     46  O   UNL     1      -1.535  -8.525   0.033  1.00  0.00    -0.275 OA
ATOM     47  N   UNL     1      -2.508  -6.540  -0.485  1.00  0.00    -0.342 N 
ATOM     48  H   UNL     1      -2.731  -5.874  -1.211  1.00  0.00     0.164 HD
BRANCH  47  49
ATOM     49  C   UNL     1      -2.439  -6.029   0.887  1.00  0.00     0.192 C 
BRANCH  49  50
ATOM     50  C   UNL     1      -3.846  -5.978   1.488  1.00  0.00     0.047 C 
BRANCH  50  51
ATOM     51  C   UNL     1      -4.272  -7.325   2.088  1.00  0.00     0.103 C 
BRANCH  51  52
ATOM     52  C   UNL     1      -5.395  -7.980   1.287  1.00  0.00     0.226 C 
ATOM     53  O   UNL     1      -5.191  -8.327   0.121  1.00  0.00    -0.275 OA
BRANCH  52  54
ATOM     54  N   UNL     1      -6.599  -8.220   1.975  1.00  0.00    -0.311 N 
ATOM     55  C   UNL     1      -7.891  -7.823   1.399  1.00  0.00     0.153 C 
BRANCH  54  56
ATOM     56  C   UNL     1      -6.612  -8.849   3.230  1.00  0.00     0.102 C 
ATOM     57  C   UNL     1      -6.140 -10.082   3.477  1.00  0.00     0.043 C 
BRANCH  56  58
ATOM     58  C   UNL     1      -7.140  -8.133   4.451  1.00  0.00     0.268 C 
ATOM     59  O   UNL     1      -6.763  -7.020   4.790  1.00  0.00    -0.268 OA
ATOM     60  N   UNL     1      -8.131  -8.830   5.100  1.00  0.00    -0.339 N 
ATOM     61  H   UNL     1      -8.380  -9.752   4.762  1.00  0.00     0.164 HD
BRANCH  60  62
ATOM     62  C   UNL     1      -8.824  -8.292   6.270  1.00  0.00     0.168 CG0
ATOM     63  C   UNL     1     -10.191  -8.943   6.443  1.00  0.00     0.041 C 
ATOM     64  G   UNL     1      -8.962  -6.762   6.130  1.00  0.00     0.000 G0
ENDBRANCH  60  62
ENDBRANCH  56  58
ENDBRANCH  54  56
ENDBRANCH  52  54
ENDBRANCH  51  52
ENDBRANCH  50  51
ENDBRANCH  49  50
BRANCH  49  65
ATOM     65  C   UNL     1      -1.813  -4.626   0.939  1.00  0.00     0.326 C 
ATOM     66  O   UNL     1      -0.648  -4.358   0.681  1.00  0.00    -0.250 OA
BRANCH  65  67
ATOM     67  O   UNL     1      -2.647  -3.652   1.363  1.00  0.00    -0.480 OA
ATOM     68  H   UNL     1      -2.123  -3.180   2.046  1.00  0.00     0.296 HD
ENDBRANCH  65  67
ENDBRANCH  49  65
ENDBRANCH  47  49
ENDBRANCH  43  45
ENDBRANCH   1  43
BRANCH   1  69
ATOM     69  C   UNL     1      -3.559  -6.961  -4.161  1.00  0.00    -0.001 C 
ATOM     70  C   UNL     1      -3.687  -6.284  -5.315  1.00  0.00     0.001 C 
BRANCH  70  71
ATOM     71  C   UNL     1      -4.797  -6.367  -6.267  1.00  0.00    -0.055 C 
ATOM     72  C   UNL     1      -4.686  -7.246  -7.285  1.00  0.00    -0.018 C 
ATOM     73  C   UNL     1      -5.988  -5.474  -6.037  1.00  0.00     0.044 C 
BRANCH  72  74
ATOM     74  C   UNL     1      -5.668  -7.549  -8.408  1.00  0.00     0.038 C 
ATOM     75  C   UNL     1      -5.642  -9.065  -8.635  1.00  0.00     0.015 C 
BRANCH  74  76
ATOM     76  C   UNL     1      -5.284  -6.695  -9.652  1.00  0.00     0.128 C 
BRANCH  76  77
ATOM     77  O   UNL     1      -6.143  -5.546  -9.743  1.00  0.00    -0.381 OA
ATOM     78  C   UNL     1      -7.511  -5.834  -9.488  1.00  0.00     0.195 C 
ENDBRANCH  76  77
BRANCH  76  79
ATOM     79  C   UNL     1      -3.781  -6.327  -9.724  1.00  0.00     0.068 C 
BRANCH  79  80
ATOM     80  C   UNL     1      -2.863  -7.248 -10.491  1.00  0.00    -0.045 A 
ATOM     81  C   UNL     1      -3.332  -8.456 -11.023  1.00  0.00     0.004 A 
ATOM     82  C   UNL     1      -1.509  -6.919 -10.658  1.00  0.00     0.004 A 
ATOM     83  C   UNL     1      -2.474  -9.309 -11.719  1.00  0.00     0.000 A 
ATOM     84  C   UNL     1      -0.651  -7.773 -11.353  1.00  0.00     0.000 A 
ATOM     85  C   UNL     1      -1.133  -8.967 -11.885  1.00  0.00     0.000 A 
ENDBRANCH  79  80
ENDBRANCH  76  79
ENDBRANCH  74  76
ENDBRANCH  72  74
ENDBRANCH  70  71
ENDBRANCH   1  69
TORSDOF 17
ENDMDL
MODEL 21
REMARK VINA RESULT:    -7.082      2.000      3.484
REMARK INTER + INTRA:         -28.102
REMARK INTER:                 -21.027
REMARK INTRA:                  -7.074
REMARK UNBOUND:                -6.942
REMARK SMILES C=C1C(=O)N[C@H](C)C(=O)N[C@@H](CC(C)C)C(=O)N[C@@H](C(=O)O)[C@H](C)C(=O)N[C@@H](CCCN=C(N)N)C(=O)N[C@@H](/C=C/C(C)=C/[C@H](C)[C@H](Cc2ccccc2)OC)[C@H](C)C(=O)N[C@@H](C(=O)O)CCC(=O)N1C
REMARK SMILES IDX 39 1 38 2 37 3 36 4 28 6 27 7 25 8 26 9 23 11 24 12 19 13
REMARK SMILES IDX 18 14 16 15 17 16 11 18 10 19 8 20 9 21 12 24 13 25 14 26
REMARK SMILES IDX 15 27 20 28 21 29 22 30 29 32 30 33 31 34 32 35 33 36 34 37
REMARK SMILES IDX 35 38 57 43 58 44 59 45 60 46 61 47 62 49 66 50 67 51 68 52
REMARK SMILES IDX 69 53 70 54 71 55 2 56 1 57 3 58 4 59 5 60 6 62 7 63 63 65
REMARK SMILES IDX 64 66 65 67 40 69 41 70 42 71 44 72 43 73 45 74 46 75 47 76
REMARK SMILES IDX 55 77 56 78 48 79 49 80 50 81 54 82 51 83 53 84 52 85
REMARK H PARENT 38 5 27 10 18 17 10 22 22 31 34 39 34 40 35 41 35 42 61 48
REMARK H PARENT 5 61 65 68
REMARK Flexibility Score:  369.900
ROOT
ATOM      1  C   UNL     1      -2.638  -6.293  -3.969  1.00  0.00     0.117 C 
ENDROOT
BRANCH   1   2
ATOM      2  N   UNL     1      -1.276  -5.812  -3.735  1.00  0.00    -0.347 N 
ATOM      3  O   UNL     1      -1.816  -3.764  -2.850  1.00  0.00    -0.273 OA
ATOM      4  C   UNL     1      -0.975  -4.619  -3.108  1.00  0.00     0.243 C 
ATOM      5  H   UNL     1      -0.495  -6.394  -3.996  1.00  0.00     0.164 HD
BRANCH   4   6
ATOM      6  C   UNL     1       0.544  -4.387  -2.907  1.00  0.00     0.171 C 
BRANCH   6   7
ATOM      7  N   UNL     1       1.290  -4.797  -4.108  1.00  0.00    -0.344 N 
ATOM      8  C   UNL     1       2.542  -5.362  -3.998  1.00  0.00     0.226 C 
ATOM      9  O   UNL     1       3.099  -5.529  -2.919  1.00  0.00    -0.275 OA
ATOM     10  H   UNL     1       0.892  -4.613  -5.020  1.00  0.00     0.164 HD
BRANCH   8  11
ATOM     11  C   UNL     1       3.158  -5.781  -5.322  1.00  0.00     0.109 C 
ATOM     12  C   UNL     1       4.520  -6.434  -5.085  1.00  0.00     0.021 C 
BRANCH  11  13
ATOM     13  C   UNL     1       2.154  -6.643  -6.113  1.00  0.00     0.204 C 
BRANCH  13  14
ATOM     14  N   UNL     1       2.683  -7.045  -7.420  1.00  0.00    -0.340 N 
ATOM     15  C   UNL     1       2.093  -6.681  -8.611  1.00  0.00     0.243 C 
ATOM     16  O   UNL     1       1.113  -5.940  -8.662  1.00  0.00    -0.273 OA
ATOM     17  H   UNL     1       3.397  -7.778  -7.445  1.00  0.00     0.164 HD
BRANCH  15  18
ATOM     18  C   UNL     1       2.701  -7.390  -9.846  1.00  0.00     0.171 C 
BRANCH  18  19
ATOM     19  N   UNL     1       4.085  -7.713  -9.504  1.00  0.00    -0.343 N 
ATOM     20  C   UNL     1       5.136  -6.894  -9.869  1.00  0.00     0.242 CG0
ATOM     21  O   UNL     1       4.972  -5.929 -10.611  1.00  0.00    -0.273 OA
ATOM     22  H   UNL     1       4.284  -8.563  -8.989  1.00  0.00     0.164 HD
ATOM     23  G   UNL     1       6.513  -7.358  -9.351  1.00  0.00     0.000 G0
ENDBRANCH  18  19
BRANCH  18  24
ATOM     24  C   UNL     1       1.900  -8.650 -10.196  1.00  0.00     0.038 C 
BRANCH  24  25
ATOM     25  C   UNL     1       1.350  -8.684 -11.638  1.00  0.00    -0.015 C 
ATOM     26  C   UNL     1      -0.171  -8.836 -11.681  1.00  0.00     0.007 C 
ATOM     27  C   UNL     1       2.005  -9.831 -12.412  1.00  0.00     0.007 C 
ENDBRANCH  24  25
ENDBRANCH  18  24
ENDBRANCH  15  18
ENDBRANCH  13  14
BRANCH  13  28
ATOM     28  C   UNL     1       1.744  -7.922  -5.377  1.00  0.00     0.327 C 
ATOM     29  O   UNL     1       1.062  -7.987  -4.366  1.00  0.00    -0.250 OA
BRANCH  28  30
ATOM     30  O   UNL     1       2.315  -9.032  -5.887  1.00  0.00    -0.480 OA
ATOM     31  H   UNL     1       3.176  -8.721  -6.238  1.00  0.00     0.296 HD
ENDBRANCH  28  30
ENDBRANCH  13  28
ENDBRANCH  11  13
ENDBRANCH   8  11
ENDBRANCH   6   7
BRANCH   6  32
ATOM     32  C   UNL     1       0.790  -2.907  -2.589  1.00  0.00     0.037 C 
BRANCH  32  33
ATOM     33  C   UNL     1       1.161  -2.100  -3.841  1.00  0.00     0.026 C 
BRANCH  33  34
ATOM     34  C   UNL     1       2.472  -1.331  -3.673  1.00  0.00     0.146 C 
BRANCH  34  35
ATOM     35  N   UNL     1       3.329  -1.606  -4.819  1.00  0.00    -0.254 NA
ATOM     36  C   UNL     1       4.389  -2.302  -4.640  1.00  0.00     0.185 C 
ATOM     37  N   UNL     1       5.183  -2.566  -5.689  1.00  0.00    -0.370 N 
ATOM     38  N   UNL     1       4.863  -2.843  -3.503  1.00  0.00    -0.370 N 
ATOM     39  H   UNL     1       4.887  -2.201  -6.585  1.00  0.00     0.159 HD
ATOM     40  H   UNL     1       5.928  -3.241  -5.667  1.00  0.00     0.159 HD
ATOM     41  H   UNL     1       5.782  -3.252  -3.465  1.00  0.00     0.159 HD
ATOM     42  H   UNL     1       4.375  -2.711  -2.631  1.00  0.00     0.159 HD
ENDBRANCH  34  35
ENDBRANCH  33  34
ENDBRANCH  32  33
ENDBRANCH   6  32
ENDBRANCH   4   6
ENDBRANCH   1   2
BRANCH   1  43
ATOM     43  C   UNL     1      -2.987  -7.343  -2.875  1.00  0.00     0.102 C 
ATOM     44  C   UNL     1      -4.500  -7.517  -2.655  1.00  0.00     0.020 C 
BRANCH  43  45
ATOM     45  C   UNL     1      -2.198  -7.081  -1.589  1.00  0.00     0.225 C 
ATOM     46  O   UNL     1      -1.051  -7.481  -1.413  1.00  0.00    -0.275 OA
ATOM     47  N   UNL     1      -2.892  -6.439  -0.589  1.00  0.00    -0.342 N 
ATOM     48  H   UNL     1      -3.770  -5.986  -0.800  1.00  0.00     0.164 HD
BRANCH  47  49
ATOM     49  C   UNL     1      -2.253  -6.090   0.684  1.00  0.00     0.192 C 
BRANCH  49  50
ATOM     50  C   UNL     1      -2.953  -6.826   1.829  1.00  0.00     0.047 C 
BRANCH  50  51
ATOM     51  C   UNL     1      -4.044  -7.782   1.326  1.00  0.00     0.103 C 
BRANCH  51  52
ATOM     52  C   UNL     1      -4.524  -8.731   2.422  1.00  0.00     0.226 C 
ATOM     53  O   UNL     1      -3.728  -9.135   3.272  1.00  0.00    -0.275 OA
BRANCH  52  54
ATOM     54  N   UNL     1      -5.899  -9.031   2.433  1.00  0.00    -0.311 N 
ATOM     55  C   UNL     1      -6.381 -10.379   2.101  1.00  0.00     0.153 C 
BRANCH  54  56
ATOM     56  C   UNL     1      -6.858  -8.060   2.766  1.00  0.00     0.102 C 
ATOM     57  C   UNL     1      -7.618  -7.396   1.881  1.00  0.00     0.043 C 
BRANCH  56  58
ATOM     58  C   UNL     1      -7.143  -7.715   4.209  1.00  0.00     0.268 C 
ATOM     59  O   UNL     1      -6.478  -6.911   4.849  1.00  0.00    -0.268 OA
ATOM     60  N   UNL     1      -8.259  -8.345   4.705  1.00  0.00    -0.339 N 
ATOM     61  H   UNL     1      -8.749  -9.006   4.114  1.00  0.00     0.164 HD
BRANCH  60  62
ATOM     62  C   UNL     1      -8.751  -8.106   6.061  1.00  0.00     0.168 CG0
ATOM     63  C   UNL     1     -10.027  -8.895   6.328  1.00  0.00     0.041 C 
ATOM     64  G   UNL     1      -8.991  -6.595   6.265  1.00  0.00     0.000 G0
ENDBRANCH  60  62
ENDBRANCH  56  58
ENDBRANCH  54  56
ENDBRANCH  52  54
ENDBRANCH  51  52
ENDBRANCH  50  51
ENDBRANCH  49  50
BRANCH  49  65
ATOM     65  C   UNL     1      -2.302  -4.577   0.946  1.00  0.00     0.326 C 
ATOM     66  O   UNL     1      -3.014  -4.021   1.770  1.00  0.00    -0.250 OA
BRANCH  65  67
ATOM     67  O   UNL     1      -1.514  -3.838   0.134  1.00  0.00    -0.480 OA
ATOM     68  H   UNL     1      -1.165  -3.137   0.726  1.00  0.00     0.296 HD
ENDBRANCH  65  67
ENDBRANCH  49  65
ENDBRANCH  47  49
ENDBRANCH  43  45
ENDBRANCH   1  43
BRANCH   1  69
ATOM     69  C   UNL     1      -2.697  -6.707  -5.428  1.00  0.00    -0.001 C 
ATOM     70  C   UNL     1      -1.773  -7.398  -6.119  1.00  0.00     0.001 C 
BRANCH  70  71
ATOM     71  C   UNL     1      -1.850  -7.810  -7.522  1.00  0.00    -0.055 C 
ATOM     72  C   UNL     1      -2.609  -7.067  -8.354  1.00  0.00    -0.018 C 
ATOM     73  C   UNL     1      -1.071  -9.030  -7.939  1.00  0.00     0.044 C 
BRANCH  72  74
ATOM     74  C   UNL     1      -2.870  -7.250  -9.842  1.00  0.00     0.038 C 
ATOM     75  C   UNL     1      -2.628  -5.894 -10.515  1.00  0.00     0.015 C 
BRANCH  74  76
ATOM     76  C   UNL     1      -4.305  -7.826 -10.032  1.00  0.00     0.128 C 
BRANCH  76  77
ATOM     77  O   UNL     1      -4.258  -9.263 -10.052  1.00  0.00    -0.381 OA
ATOM     78  C   UNL     1      -5.136  -9.876  -9.117  1.00  0.00     0.195 C 
ENDBRANCH  76  77
BRANCH  76  79
ATOM     79  C   UNL     1      -5.343  -7.274  -9.023  1.00  0.00     0.068 C 
BRANCH  79  80
ATOM     80  C   UNL     1      -6.449  -6.397  -9.556  1.00  0.00    -0.045 A 
ATOM     81  C   UNL     1      -6.724  -5.150  -8.979  1.00  0.00     0.004 A 
ATOM     82  C   UNL     1      -7.244  -6.832 -10.628  1.00  0.00     0.004 A 
ATOM     83  C   UNL     1      -7.758  -4.350  -9.469  1.00  0.00     0.000 A 
ATOM     84  C   UNL     1      -8.278  -6.032 -11.116  1.00  0.00     0.000 A 
ATOM     85  C   UNL     1      -8.534  -4.791 -10.538  1.00  0.00     0.000 A 
ENDBRANCH  79  80
ENDBRANCH  76  79
ENDBRANCH  74  76
ENDBRANCH  72  74
ENDBRANCH  70  71
ENDBRANCH   1  69
TORSDOF 17
ENDMDL
MODEL 22
REMARK VINA RESULT:    -7.068      2.014      3.222
REMARK INTER + INTRA:         -28.058
REMARK INTER:                 -21.654
REMARK INTRA:                  -6.404
REMARK UNBOUND:                -6.942
REMARK SMILES C=C1C(=O)N[C@H](C)C(=O)N[C@@H](CC(C)C)C(=O)N[C@@H](C(=O)O)[C@H](C)C(=O)N[C@@H](CCCN=C(N)N)C(=O)N[C@@H](/C=C/C(C)=C/[C@H](C)[C@H](Cc2ccccc2)OC)[C@H](C)C(=O)N[C@@H](C(=O)O)CCC(=O)N1C
REMARK SMILES IDX 39 1 38 2 37 3 36 4 28 6 27 7 25 8 26 9 23 11 24 12 19 13
REMARK SMILES IDX 18 14 16 15 17 16 11 18 10 19 8 20 9 21 12 24 13 25 14 26
REMARK SMILES IDX 15 27 20 28 21 29 22 30 29 32 30 33 31 34 32 35 33 36 34 37
REMARK SMILES IDX 35 38 57 43 58 44 59 45 60 46 61 47 62 49 66 50 67 51 68 52
REMARK SMILES IDX 69 53 70 54 71 55 2 56 1 57 3 58 4 59 5 60 6 62 7 63 63 65
REMARK SMILES IDX 64 66 65 67 40 69 41 70 42 71 44 72 43 73 45 74 46 75 47 76
REMARK SMILES IDX 55 77 56 78 48 79 49 80 50 81 54 82 51 83 53 84 52 85
REMARK H PARENT 38 5 27 10 18 17 10 22 22 31 34 39 34 40 35 41 35 42 61 48
REMARK H PARENT 5 61 65 68
REMARK Flexibility Score:  369.900
ROOT
ATOM      1  C   UNL     1      -1.333  -3.839  -2.915  1.00  0.00     0.117 C 
ENDROOT
BRANCH   1   2
ATOM      2  N   UNL     1       0.119  -4.021  -2.872  1.00  0.00    -0.347 N 
ATOM      3  O   UNL     1       0.697  -2.246  -4.208  1.00  0.00    -0.273 OA
ATOM      4  C   UNL     1       1.025  -3.153  -3.449  1.00  0.00     0.243 C 
ATOM      5  H   UNL     1       0.505  -4.795  -2.352  1.00  0.00     0.164 HD
BRANCH   4   6
ATOM      6  C   UNL     1       2.505  -3.528  -3.183  1.00  0.00     0.171 C 
BRANCH   6   7
ATOM      7  N   UNL     1       2.993  -4.458  -4.215  1.00  0.00    -0.344 N 
ATOM      8  C   UNL     1       3.379  -5.738  -3.881  1.00  0.00     0.226 C 
ATOM      9  O   UNL     1       3.359  -6.154  -2.729  1.00  0.00    -0.275 OA
ATOM     10  H   UNL     1       3.087  -4.128  -5.167  1.00  0.00     0.164 HD
BRANCH   8  11
ATOM     11  C   UNL     1       3.806  -6.590  -5.063  1.00  0.00     0.109 C 
ATOM     12  C   UNL     1       4.057  -8.029  -4.610  1.00  0.00     0.021 C 
BRANCH  11  13
ATOM     13  C   UNL     1       2.786  -6.440  -6.210  1.00  0.00     0.204 C 
BRANCH  13  14
ATOM     14  N   UNL     1       3.355  -6.820  -7.507  1.00  0.00    -0.340 N 
ATOM     15  C   UNL     1       3.193  -6.061  -8.646  1.00  0.00     0.243 C 
ATOM     16  O   UNL     1       2.611  -4.979  -8.641  1.00  0.00    -0.273 OA
ATOM     17  H   UNL     1       3.715  -7.772  -7.612  1.00  0.00     0.164 HD
BRANCH  15  18
ATOM     18  C   UNL     1       3.699  -6.761  -9.931  1.00  0.00     0.171 C 
BRANCH  18  19
ATOM     19  N   UNL     1       5.149  -6.884  -9.798  1.00  0.00    -0.343 N 
ATOM     20  C   UNL     1       6.017  -6.270 -10.681  1.00  0.00     0.242 CG0
ATOM     21  O   UNL     1       5.611  -5.704 -11.694  1.00  0.00    -0.273 OA
ATOM     22  H   UNL     1       5.534  -7.439  -9.042  1.00  0.00     0.164 HD
ATOM     23  G   UNL     1       7.509  -6.448 -10.334  1.00  0.00     0.000 G0
ENDBRANCH  18  19
BRANCH  18  24
ATOM     24  C   UNL     1       3.032  -8.131 -10.100  1.00  0.00     0.038 C 
BRANCH  24  25
ATOM     25  C   UNL     1       3.109  -8.714 -11.527  1.00  0.00    -0.015 C 
ATOM     26  C   UNL     1       1.730  -8.900 -12.160  1.00  0.00     0.007 C 
ATOM     27  C   UNL     1       3.847 -10.056 -11.496  1.00  0.00     0.007 C 
ENDBRANCH  24  25
ENDBRANCH  18  24
ENDBRANCH  15  18
ENDBRANCH  13  14
BRANCH  13  28
ATOM     28  C   UNL     1       1.520  -7.278  -6.006  1.00  0.00     0.327 C 
ATOM     29  O   UNL     1       0.633  -7.061  -5.194  1.00  0.00    -0.250 OA
BRANCH  28  30
ATOM     30  O   UNL     1       1.504  -8.401  -6.751  1.00  0.00    -0.480 OA
ATOM     31  H   UNL     1       1.755  -9.111  -6.123  1.00  0.00     0.296 HD
ENDBRANCH  28  30
ENDBRANCH  13  28
ENDBRANCH  11  13
ENDBRANCH   8  11
ENDBRANCH   6   7
BRANCH   6  32
ATOM     32  C   UNL     1       3.351  -2.250  -3.153  1.00  0.00     0.037 C 
BRANCH  32  33
ATOM     33  C   UNL     1       4.793  -2.500  -3.615  1.00  0.00     0.026 C 
BRANCH  33  34
ATOM     34  C   UNL     1       5.155  -1.695  -4.863  1.00  0.00     0.146 C 
BRANCH  34  35
ATOM     35  N   UNL     1       3.951  -1.058  -5.378  1.00  0.00    -0.254 NA
ATOM     36  C   UNL     1       3.350  -1.595  -6.374  1.00  0.00     0.185 C 
ATOM     37  N   UNL     1       2.236  -1.020  -6.853  1.00  0.00    -0.370 N 
ATOM     38  N   UNL     1       3.674  -2.708  -7.056  1.00  0.00    -0.370 N 
ATOM     39  H   UNL     1       1.920  -0.181  -6.384  1.00  0.00     0.159 HD
ATOM     40  H   UNL     1       1.617  -1.466  -7.508  1.00  0.00     0.159 HD
ATOM     41  H   UNL     1       3.200  -2.952  -7.910  1.00  0.00     0.159 HD
ATOM     42  H   UNL     1       4.498  -3.235  -6.815  1.00  0.00     0.159 HD
ENDBRANCH  34  35
ENDBRANCH  33  34
ENDBRANCH  32  33
ENDBRANCH   6  32
ENDBRANCH   4   6
ENDBRANCH   1   2
BRANCH   1  43
ATOM     43  C   UNL     1      -1.811  -3.340  -1.521  1.00  0.00     0.102 C 
ATOM     44  C   UNL     1      -1.119  -2.045  -1.064  1.00  0.00     0.020 C 
BRANCH  43  45
ATOM     45  C   UNL     1      -1.763  -4.469  -0.487  1.00  0.00     0.225 C 
ATOM     46  O   UNL     1      -0.749  -5.121  -0.252  1.00  0.00    -0.275 OA
ATOM     47  N   UNL     1      -2.964  -4.778   0.109  1.00  0.00    -0.342 N 
ATOM     48  H   UNL     1      -3.745  -4.143   0.021  1.00  0.00     0.164 HD
BRANCH  47  49
ATOM     49  C   UNL     1      -3.063  -5.812   1.144  1.00  0.00     0.192 C 
BRANCH  49  50
ATOM     50  C   UNL     1      -4.517  -6.269   1.278  1.00  0.00     0.047 C 
BRANCH  50  51
ATOM     51  C   UNL     1      -4.766  -7.044   2.579  1.00  0.00     0.103 C 
BRANCH  51  52
ATOM     52  C   UNL     1      -6.256  -7.183   2.888  1.00  0.00     0.226 C 
ATOM     53  O   UNL     1      -7.028  -6.269   2.592  1.00  0.00    -0.275 OA
BRANCH  52  54
ATOM     54  N   UNL     1      -6.670  -8.410   3.437  1.00  0.00    -0.311 N 
ATOM     55  C   UNL     1      -5.861  -9.625   3.271  1.00  0.00     0.153 C 
BRANCH  54  56
ATOM     56  C   UNL     1      -7.866  -8.520   4.167  1.00  0.00     0.102 C 
ATOM     57  C   UNL     1      -9.029  -8.973   3.673  1.00  0.00     0.043 C 
BRANCH  56  58
ATOM     58  C   UNL     1      -7.914  -8.161   5.634  1.00  0.00     0.268 C 
ATOM     59  O   UNL     1      -7.764  -7.020   6.049  1.00  0.00    -0.268 OA
ATOM     60  N   UNL     1      -8.207  -9.233   6.443  1.00  0.00    -0.339 N 
ATOM     61  H   UNL     1      -8.306 -10.149   6.021  1.00  0.00     0.164 HD
BRANCH  60  62
ATOM     62  C   UNL     1      -8.364  -9.097   7.890  1.00  0.00     0.168 CG0
ATOM     63  C   UNL     1      -7.884 -10.350   8.612  1.00  0.00     0.041 C 
ATOM     64  G   UNL     1      -9.841  -8.805   8.225  1.00  0.00     0.000 G0
ENDBRANCH  60  62
ENDBRANCH  56  58
ENDBRANCH  54  56
ENDBRANCH  52  54
ENDBRANCH  51  52
ENDBRANCH  50  51
ENDBRANCH  49  50
BRANCH  49  65
ATOM     65  C   UNL     1      -2.562  -5.302   2.504  1.00  0.00     0.326 C 
ATOM     66  O   UNL     1      -1.959  -5.966   3.334  1.00  0.00    -0.250 OA
BRANCH  65  67
ATOM     67  O   UNL     1      -2.889  -4.020   2.780  1.00  0.00    -0.480 OA
ATOM     68  H   UNL     1      -3.013  -4.018   3.754  1.00  0.00     0.296 HD
ENDBRANCH  65  67
ENDBRANCH  49  65
ENDBRANCH  47  49
ENDBRANCH  43  45
ENDBRANCH   1  43
BRANCH   1  69
ATOM     69  C   UNL     1      -1.906  -5.131  -3.468  1.00  0.00    -0.001 C 
ATOM     70  C   UNL     1      -3.166  -5.356  -3.879  1.00  0.00     0.001 C 
BRANCH  70  71
ATOM     71  C   UNL     1      -3.702  -6.602  -4.431  1.00  0.00    -0.055 C 
ATOM     72  C   UNL     1      -2.822  -7.509  -4.904  1.00  0.00    -0.018 C 
ATOM     73  C   UNL     1      -5.197  -6.787  -4.424  1.00  0.00     0.044 C 
BRANCH  72  74
ATOM     74  C   UNL     1      -3.085  -8.874  -5.524  1.00  0.00     0.038 C 
ATOM     75  C   UNL     1      -3.156  -9.887  -4.375  1.00  0.00     0.015 C 
BRANCH  74  76
ATOM     76  C   UNL     1      -1.981  -9.164  -6.583  1.00  0.00     0.128 C 
BRANCH  76  77
ATOM     77  O   UNL     1      -1.101 -10.196  -6.105  1.00  0.00    -0.381 OA
ATOM     78  C   UNL     1      -0.699 -11.115  -7.112  1.00  0.00     0.195 C 
ENDBRANCH  76  77
BRANCH  76  79
ATOM     79  C   UNL     1      -2.531  -9.454  -8.002  1.00  0.00     0.068 C 
BRANCH  79  80
ATOM     80  C   UNL     1      -2.442  -8.355  -9.033  1.00  0.00    -0.045 A 
ATOM     81  C   UNL     1      -3.586  -7.665  -9.453  1.00  0.00     0.004 A 
ATOM     82  C   UNL     1      -1.206  -8.026  -9.611  1.00  0.00     0.004 A 
ATOM     83  C   UNL     1      -3.498  -6.659 -10.417  1.00  0.00     0.000 A 
ATOM     84  C   UNL     1      -1.119  -7.020 -10.576  1.00  0.00     0.000 A 
ATOM     85  C   UNL     1      -2.264  -6.336 -10.978  1.00  0.00     0.000 A 
ENDBRANCH  79  80
ENDBRANCH  76  79
ENDBRANCH  74  76
ENDBRANCH  72  74
ENDBRANCH  70  71
ENDBRANCH   1  69
TORSDOF 17
ENDMDL
MODEL 23
REMARK VINA RESULT:    -7.019      2.675     13.132
REMARK INTER + INTRA:         -27.913
REMARK INTER:                 -21.360
REMARK INTRA:                  -6.553
REMARK UNBOUND:                -6.942
REMARK SMILES C=C1C(=O)N[C@H](C)C(=O)N[C@@H](CC(C)C)C(=O)N[C@@H](C(=O)O)[C@H](C)C(=O)N[C@@H](CCCN=C(N)N)C(=O)N[C@@H](/C=C/C(C)=C/[C@H](C)[C@H](Cc2ccccc2)OC)[C@H](C)C(=O)N[C@@H](C(=O)O)CCC(=O)N1C
REMARK SMILES IDX 39 1 38 2 37 3 36 4 28 6 27 7 25 8 26 9 23 11 24 12 19 13
REMARK SMILES IDX 18 14 16 15 17 16 11 18 10 19 8 20 9 21 12 24 13 25 14 26
REMARK SMILES IDX 15 27 20 28 21 29 22 30 29 32 30 33 31 34 32 35 33 36 34 37
REMARK SMILES IDX 35 38 57 43 58 44 59 45 60 46 61 47 62 49 66 50 67 51 68 52
REMARK SMILES IDX 69 53 70 54 71 55 2 56 1 57 3 58 4 59 5 60 6 62 7 63 63 65
REMARK SMILES IDX 64 66 65 67 40 69 41 70 42 71 44 72 43 73 45 74 46 75 47 76
REMARK SMILES IDX 55 77 56 78 48 79 49 80 50 81 54 82 51 83 53 84 52 85
REMARK H PARENT 38 5 27 10 18 17 10 22 22 31 34 39 34 40 35 41 35 42 61 48
REMARK H PARENT 5 61 65 68
REMARK Flexibility Score:  369.900
ROOT
ATOM      1  C   UNL     1      -3.084  -7.752  -4.203  1.00  0.00     0.117 C 
ENDROOT
BRANCH   1   2
ATOM      2  N   UNL     1      -3.123  -7.396  -2.784  1.00  0.00    -0.347 N 
ATOM      3  O   UNL     1      -4.495  -5.564  -2.957  1.00  0.00    -0.273 OA
ATOM      4  C   UNL     1      -3.902  -6.382  -2.262  1.00  0.00     0.243 C 
ATOM      5  H   UNL     1      -2.594  -7.944  -2.122  1.00  0.00     0.164 HD
BRANCH   4   6
ATOM      6  C   UNL     1      -3.826  -6.270  -0.718  1.00  0.00     0.171 C 
BRANCH   6   7
ATOM      7  N   UNL     1      -4.724  -7.250  -0.086  1.00  0.00    -0.344 N 
ATOM      8  C   UNL     1      -5.362  -6.956   1.100  1.00  0.00     0.226 C 
ATOM      9  O   UNL     1      -5.201  -5.895   1.691  1.00  0.00    -0.275 OA
ATOM     10  H   UNL     1      -4.830  -8.163  -0.509  1.00  0.00     0.164 HD
BRANCH   8  11
ATOM     11  C   UNL     1      -6.296  -8.047   1.595  1.00  0.00     0.109 C 
ATOM     12  C   UNL     1      -6.232  -9.256   0.662  1.00  0.00     0.021 C 
BRANCH  11  13
ATOM     13  C   UNL     1      -6.000  -8.354   3.076  1.00  0.00     0.204 C 
BRANCH  13  14
ATOM     14  N   UNL     1      -7.226  -8.559   3.853  1.00  0.00    -0.340 N 
ATOM     15  C   UNL     1      -7.502  -7.869   5.013  1.00  0.00     0.243 C 
ATOM     16  O   UNL     1      -6.764  -6.987   5.448  1.00  0.00    -0.273 OA
ATOM     17  H   UNL     1      -7.803  -9.376   3.633  1.00  0.00     0.164 HD
BRANCH  15  18
ATOM     18  C   UNL     1      -8.746  -8.399   5.767  1.00  0.00     0.171 C 
BRANCH  18  19
ATOM     19  N   UNL     1      -9.014  -7.453   6.849  1.00  0.00    -0.343 N 
ATOM     20  C   UNL     1      -9.033  -7.847   8.173  1.00  0.00     0.242 CG0
ATOM     21  O   UNL     1      -8.957  -9.031   8.494  1.00  0.00    -0.273 OA
ATOM     22  H   UNL     1      -9.198  -6.481   6.626  1.00  0.00     0.164 HD
ATOM     23  G   UNL     1      -9.254  -6.696   9.177  1.00  0.00     0.000 G0
ENDBRANCH  18  19
BRANCH  18  24
ATOM     24  C   UNL     1      -9.944  -8.520   4.817  1.00  0.00     0.038 C 
BRANCH  24  25
ATOM     25  C   UNL     1     -10.831  -9.761   5.053  1.00  0.00    -0.015 C 
ATOM     26  C   UNL     1     -11.982  -9.483   6.019  1.00  0.00     0.007 C 
ATOM     27  C   UNL     1      -9.974 -10.911   5.589  1.00  0.00     0.007 C 
ENDBRANCH  24  25
ENDBRANCH  18  24
ENDBRANCH  15  18
ENDBRANCH  13  14
BRANCH  13  28
ATOM     28  C   UNL     1      -5.125  -9.596   3.272  1.00  0.00     0.327 C 
ATOM     29  O   UNL     1      -5.520 -10.727   3.512  1.00  0.00    -0.250 OA
BRANCH  28  30
ATOM     30  O   UNL     1      -3.806  -9.319   3.272  1.00  0.00    -0.480 OA
ATOM     31  H   UNL     1      -3.427  -9.949   2.623  1.00  0.00     0.296 HD
ENDBRANCH  28  30
ENDBRANCH  13  28
ENDBRANCH  11  13
ENDBRANCH   8  11
ENDBRANCH   6   7
BRANCH   6  32
ATOM     32  C   UNL     1      -2.377  -6.486  -0.268  1.00  0.00     0.037 C 
BRANCH  32  33
ATOM     33  C   UNL     1      -1.527  -5.216  -0.421  1.00  0.00     0.026 C 
BRANCH  33  34
ATOM     34  C   UNL     1      -2.264  -3.960   0.045  1.00  0.00     0.146 C 
BRANCH  34  35
ATOM     35  N   UNL     1      -1.769  -2.818  -0.712  1.00  0.00    -0.254 NA
ATOM     36  C   UNL     1      -2.497  -2.342  -1.653  1.00  0.00     0.185 C 
ATOM     37  N   UNL     1      -2.053  -1.287  -2.353  1.00  0.00    -0.370 N 
ATOM     38  N   UNL     1      -3.705  -2.754  -2.076  1.00  0.00    -0.370 N 
ATOM     39  H   UNL     1      -1.152  -0.911  -2.086  1.00  0.00     0.159 HD
ATOM     40  H   UNL     1      -2.631  -0.753  -2.980  1.00  0.00     0.159 HD
ATOM     41  H   UNL     1      -4.115  -2.385  -2.919  1.00  0.00     0.159 HD
ATOM     42  H   UNL     1      -4.154  -3.549  -1.650  1.00  0.00     0.159 HD
ENDBRANCH  34  35
ENDBRANCH  33  34
ENDBRANCH  32  33
ENDBRANCH   6  32
ENDBRANCH   4   6
ENDBRANCH   1   2
BRANCH   1  43
ATOM     43  C   UNL     1      -4.249  -8.740  -4.498  1.00  0.00     0.102 C 
ATOM     44  C   UNL     1      -3.773 -10.159  -4.851  1.00  0.00     0.020 C 
BRANCH  43  45
ATOM     45  C   UNL     1      -5.232  -8.144  -5.510  1.00  0.00     0.225 C 
ATOM     46  O   UNL     1      -6.014  -8.826  -6.167  1.00  0.00    -0.275 OA
ATOM     47  N   UNL     1      -5.124  -6.788  -5.713  1.00  0.00    -0.342 N 
ATOM     48  H   UNL     1      -4.591  -6.226  -5.065  1.00  0.00     0.164 HD
BRANCH  47  49
ATOM     49  C   UNL     1      -6.023  -6.076  -6.626  1.00  0.00     0.192 C 
BRANCH  49  50
ATOM     50  C   UNL     1      -5.310  -5.822  -7.957  1.00  0.00     0.047 C 
BRANCH  50  51
ATOM     51  C   UNL     1      -3.842  -6.270  -7.925  1.00  0.00     0.103 C 
BRANCH  51  52
ATOM     52  C   UNL     1      -3.267  -6.449  -9.329  1.00  0.00     0.226 C 
ATOM     53  O   UNL     1      -2.640  -5.528  -9.853  1.00  0.00    -0.275 OA
BRANCH  52  54
ATOM     54  N   UNL     1      -3.432  -7.717  -9.916  1.00  0.00    -0.311 N 
ATOM     55  C   UNL     1      -4.683  -8.078 -10.597  1.00  0.00     0.153 C 
BRANCH  54  56
ATOM     56  C   UNL     1      -2.410  -8.681  -9.879  1.00  0.00     0.102 C 
ATOM     57  C   UNL     1      -2.044  -9.371  -8.787  1.00  0.00     0.043 C 
BRANCH  56  58
ATOM     58  C   UNL     1      -1.651  -9.054 -11.131  1.00  0.00     0.268 C 
ATOM     59  O   UNL     1      -2.178  -9.578 -12.102  1.00  0.00    -0.268 OA
ATOM     60  N   UNL     1      -0.328  -8.684 -11.090  1.00  0.00    -0.339 N 
ATOM     61  H   UNL     1       0.034  -8.263 -10.243  1.00  0.00     0.164 HD
BRANCH  60  62
ATOM     62  C   UNL     1       0.575  -8.893 -12.221  1.00  0.00     0.168 CG0
ATOM     63  C   UNL     1       1.784  -9.724 -11.810  1.00  0.00     0.041 C 
ATOM     64  G   UNL     1       1.017  -7.529 -12.789  1.00  0.00     0.000 G0
ENDBRANCH  60  62
ENDBRANCH  56  58
ENDBRANCH  54  56
ENDBRANCH  52  54
ENDBRANCH  51  52
ENDBRANCH  50  51
ENDBRANCH  49  50
BRANCH  49  65
ATOM     65  C   UNL     1      -6.488  -4.736  -6.034  1.00  0.00     0.326 C 
ATOM     66  O   UNL     1      -7.555  -4.188  -6.268  1.00  0.00    -0.250 OA
BRANCH  65  67
ATOM     67  O   UNL     1      -5.582  -4.127  -5.237  1.00  0.00    -0.480 OA
ATOM     68  H   UNL     1      -5.211  -4.864  -4.705  1.00  0.00     0.296 HD
ENDBRANCH  65  67
ENDBRANCH  49  65
ENDBRANCH  47  49
ENDBRANCH  43  45
ENDBRANCH   1  43
BRANCH   1  69
ATOM     69  C   UNL     1      -1.660  -8.190  -4.491  1.00  0.00    -0.001 C 
ATOM     70  C   UNL     1      -0.623  -7.413  -4.851  1.00  0.00     0.001 C 
BRANCH  70  71
ATOM     71  C   UNL     1       0.753  -7.844  -5.106  1.00  0.00    -0.055 C 
ATOM     72  C   UNL     1       1.740  -7.233  -4.417  1.00  0.00    -0.018 C 
ATOM     73  C   UNL     1       0.969  -8.944  -6.112  1.00  0.00     0.044 C 
BRANCH  72  74
ATOM     74  C   UNL     1       3.242  -7.472  -4.471  1.00  0.00     0.038 C 
ATOM     75  C   UNL     1       3.593  -8.416  -3.315  1.00  0.00     0.015 C 
BRANCH  74  76
ATOM     76  C   UNL     1       3.970  -6.096  -4.434  1.00  0.00     0.128 C 
BRANCH  76  77
ATOM     77  O   UNL     1       3.650  -5.339  -5.614  1.00  0.00    -0.381 OA
ATOM     78  C   UNL     1       4.708  -5.284  -6.561  1.00  0.00     0.195 C 
ENDBRANCH  76  77
BRANCH  76  79
ATOM     79  C   UNL     1       3.737  -5.296  -3.127  1.00  0.00     0.068 C 
BRANCH  79  80
ATOM     80  C   UNL     1       3.027  -3.968  -3.228  1.00  0.00    -0.045 A 
ATOM     81  C   UNL     1       1.634  -3.883  -3.103  1.00  0.00     0.004 A 
ATOM     82  C   UNL     1       3.754  -2.794  -3.478  1.00  0.00     0.004 A 
ATOM     83  C   UNL     1       0.982  -2.653  -3.212  1.00  0.00     0.000 A 
ATOM     84  C   UNL     1       3.101  -1.564  -3.587  1.00  0.00     0.000 A 
ATOM     85  C   UNL     1       1.717  -1.493  -3.453  1.00  0.00     0.000 A 
ENDBRANCH  79  80
ENDBRANCH  76  79
ENDBRANCH  74  76
ENDBRANCH  72  74
ENDBRANCH  70  71
ENDBRANCH   1  69
TORSDOF 17
ENDMDL
MODEL 24
REMARK VINA RESULT:    -6.995      2.428      3.921
REMARK INTER + INTRA:         -27.841
REMARK INTER:                 -21.921
REMARK INTRA:                  -5.920
REMARK UNBOUND:                -6.942
REMARK SMILES C=C1C(=O)N[C@H](C)C(=O)N[C@@H](CC(C)C)C(=O)N[C@@H](C(=O)O)[C@H](C)C(=O)N[C@@H](CCCN=C(N)N)C(=O)N[C@@H](/C=C/C(C)=C/[C@H](C)[C@H](Cc2ccccc2)OC)[C@H](C)C(=O)N[C@@H](C(=O)O)CCC(=O)N1C
REMARK SMILES IDX 39 1 38 2 37 3 36 4 28 6 27 7 25 8 26 9 23 11 24 12 19 13
REMARK SMILES IDX 18 14 16 15 17 16 11 18 10 19 8 20 9 21 12 24 13 25 14 26
REMARK SMILES IDX 15 27 20 28 21 29 22 30 29 32 30 33 31 34 32 35 33 36 34 37
REMARK SMILES IDX 35 38 57 43 58 44 59 45 60 46 61 47 62 49 66 50 67 51 68 52
REMARK SMILES IDX 69 53 70 54 71 55 2 56 1 57 3 58 4 59 5 60 6 62 7 63 63 65
REMARK SMILES IDX 64 66 65 67 40 69 41 70 42 71 44 72 43 73 45 74 46 75 47 76
REMARK SMILES IDX 55 77 56 78 48 79 49 80 50 81 54 82 51 83 53 84 52 85
REMARK H PARENT 38 5 27 10 18 17 10 22 22 31 34 39 34 40 35 41 35 42 61 48
REMARK H PARENT 5 61 65 68
REMARK Flexibility Score:  369.900
ROOT
ATOM      1  C   UNL     1      -4.222  -7.067  -2.315  1.00  0.00     0.117 C 
ENDROOT
BRANCH   1   2
ATOM      2  N   UNL     1      -2.825  -6.723  -2.582  1.00  0.00    -0.347 N 
ATOM      3  O   UNL     1      -2.554  -5.187  -0.897  1.00  0.00    -0.273 OA
ATOM      4  C   UNL     1      -2.073  -5.875  -1.791  1.00  0.00     0.243 C 
ATOM      5  H   UNL     1      -2.348  -7.159  -3.356  1.00  0.00     0.164 HD
BRANCH   4   6
ATOM      6  C   UNL     1      -0.596  -5.747  -2.244  1.00  0.00     0.171 C 
BRANCH   6   7
ATOM      7  N   UNL     1      -0.469  -6.056  -3.677  1.00  0.00    -0.344 N 
ATOM      8  C   UNL     1       0.504  -6.923  -4.125  1.00  0.00     0.226 C 
ATOM      9  O   UNL     1       1.313  -7.454  -3.373  1.00  0.00    -0.275 OA
ATOM     10  H   UNL     1      -1.076  -5.585  -4.337  1.00  0.00     0.164 HD
BRANCH   8  11
ATOM     11  C   UNL     1       0.471  -7.181  -5.622  1.00  0.00     0.109 C 
ATOM     12  C   UNL     1      -0.969  -7.395  -6.087  1.00  0.00     0.021 C 
BRANCH  11  13
ATOM     13  C   UNL     1       1.232  -6.062  -6.361  1.00  0.00     0.204 C 
BRANCH  13  14
ATOM     14  N   UNL     1       2.528  -5.772  -5.740  1.00  0.00    -0.340 N 
ATOM     15  C   UNL     1       2.947  -4.493  -5.445  1.00  0.00     0.243 C 
ATOM     16  O   UNL     1       2.236  -3.507  -5.627  1.00  0.00    -0.273 OA
ATOM     17  H   UNL     1       3.221  -6.524  -5.703  1.00  0.00     0.164 HD
BRANCH  15  18
ATOM     18  C   UNL     1       4.425  -4.416  -4.989  1.00  0.00     0.171 C 
BRANCH  18  19
ATOM     19  N   UNL     1       4.483  -3.419  -3.922  1.00  0.00    -0.343 N 
ATOM     20  C   UNL     1       4.802  -2.099  -4.174  1.00  0.00     0.242 CG0
ATOM     21  O   UNL     1       5.181  -1.729  -5.283  1.00  0.00    -0.273 OA
ATOM     22  H   UNL     1       4.290  -3.701  -2.967  1.00  0.00     0.164 HD
ATOM     23  G   UNL     1       4.735  -1.180  -2.937  1.00  0.00     0.000 G0
ENDBRANCH  18  19
BRANCH  18  24
ATOM     24  C   UNL     1       4.915  -5.786  -4.506  1.00  0.00     0.038 C 
BRANCH  24  25
ATOM     25  C   UNL     1       4.623  -6.088  -3.020  1.00  0.00    -0.015 C 
ATOM     26  C   UNL     1       5.692  -5.521  -2.087  1.00  0.00     0.007 C 
ATOM     27  C   UNL     1       4.508  -7.601  -2.815  1.00  0.00     0.007 C 
ENDBRANCH  24  25
ENDBRANCH  18  24
ENDBRANCH  15  18
ENDBRANCH  13  14
BRANCH  13  28
ATOM     28  C   UNL     1       1.497  -6.384  -7.835  1.00  0.00     0.327 C 
ATOM     29  O   UNL     1       1.794  -7.476  -8.294  1.00  0.00    -0.250 OA
BRANCH  28  30
ATOM     30  O   UNL     1       1.488  -5.291  -8.625  1.00  0.00    -0.480 OA
ATOM     31  H   UNL     1       1.161  -5.620  -9.488  1.00  0.00     0.296 HD
ENDBRANCH  28  30
ENDBRANCH  13  28
ENDBRANCH  11  13
ENDBRANCH   8  11
ENDBRANCH   6   7
BRANCH   6  32
ATOM     32  C   UNL     1      -0.098  -4.329  -1.944  1.00  0.00     0.037 C 
BRANCH  32  33
ATOM     33  C   UNL     1      -0.357  -3.365  -3.110  1.00  0.00     0.026 C 
BRANCH  33  34
ATOM     34  C   UNL     1      -0.770  -1.971  -2.636  1.00  0.00     0.146 C 
BRANCH  34  35
ATOM     35  N   UNL     1      -1.273  -2.068  -1.273  1.00  0.00    -0.254 NA
ATOM     36  C   UNL     1      -2.537  -1.997  -1.078  1.00  0.00     0.185 C 
ATOM     37  N   UNL     1      -3.012  -2.090   0.173  1.00  0.00    -0.370 N 
ATOM     38  N   UNL     1      -3.523  -1.835  -1.979  1.00  0.00    -0.370 N 
ATOM     39  H   UNL     1      -2.330  -2.224   0.909  1.00  0.00     0.159 HD
ATOM     40  H   UNL     1      -3.986  -2.217   0.391  1.00  0.00     0.159 HD
ATOM     41  H   UNL     1      -4.470  -1.653  -1.688  1.00  0.00     0.159 HD
ATOM     42  H   UNL     1      -3.310  -1.734  -2.959  1.00  0.00     0.159 HD
ENDBRANCH  34  35
ENDBRANCH  33  34
ENDBRANCH  32  33
ENDBRANCH   6  32
ENDBRANCH   4   6
ENDBRANCH   1   2
BRANCH   1  43
ATOM     43  C   UNL     1      -4.268  -8.471  -1.647  1.00  0.00     0.102 C 
ATOM     44  C   UNL     1      -5.423  -9.352  -2.151  1.00  0.00     0.020 C 
BRANCH  43  45
ATOM     45  C   UNL     1      -4.194  -8.357  -0.121  1.00  0.00     0.225 C 
ATOM     46  O   UNL     1      -3.805  -9.270   0.602  1.00  0.00    -0.275 OA
ATOM     47  N   UNL     1      -4.684  -7.185   0.410  1.00  0.00    -0.342 N 
ATOM     48  H   UNL     1      -4.855  -6.395  -0.196  1.00  0.00     0.164 HD
BRANCH  47  49
ATOM     49  C   UNL     1      -4.645  -6.922   1.851  1.00  0.00     0.192 C 
BRANCH  49  50
ATOM     50  C   UNL     1      -5.990  -6.350   2.306  1.00  0.00     0.047 C 
BRANCH  50  51
ATOM     51  C   UNL     1      -7.058  -7.440   2.477  1.00  0.00     0.103 C 
BRANCH  51  52
ATOM     52  C   UNL     1      -7.276  -7.804   3.944  1.00  0.00     0.226 C 
ATOM     53  O   UNL     1      -6.923  -7.020   4.826  1.00  0.00    -0.275 OA
BRANCH  52  54
ATOM     54  N   UNL     1      -7.952  -9.013   4.196  1.00  0.00    -0.311 N 
ATOM     55  C   UNL     1      -8.035 -10.061   3.170  1.00  0.00     0.153 C 
BRANCH  54  56
ATOM     56  C   UNL     1      -8.566  -9.264   5.434  1.00  0.00     0.102 C 
ATOM     57  C   UNL     1      -7.917  -9.379   6.604  1.00  0.00     0.043 C 
BRANCH  56  58
ATOM     58  C   UNL     1     -10.068  -9.383   5.544  1.00  0.00     0.268 C 
ATOM     59  O   UNL     1     -10.839  -8.520   5.148  1.00  0.00    -0.268 OA
ATOM     60  N   UNL     1     -10.477 -10.584   6.073  1.00  0.00    -0.339 N 
ATOM     61  H   UNL     1      -9.775 -11.242   6.388  1.00  0.00     0.164 HD
BRANCH  60  62
ATOM     62  C   UNL     1     -11.890 -10.933   6.211  1.00  0.00     0.168 CG0
ATOM     63  C   UNL     1     -12.116 -12.416   5.940  1.00  0.00     0.041 C 
ATOM     64  G   UNL     1     -12.733 -10.068   5.251  1.00  0.00     0.000 G0
ENDBRANCH  60  62
ENDBRANCH  56  58
ENDBRANCH  54  56
ENDBRANCH  52  54
ENDBRANCH  51  52
ENDBRANCH  50  51
ENDBRANCH  49  50
BRANCH  49  65
ATOM     65  C   UNL     1      -3.524  -5.937   2.217  1.00  0.00     0.326 C 
ATOM     66  O   UNL     1      -2.542  -6.199   2.897  1.00  0.00    -0.250 OA
BRANCH  65  67
ATOM     67  O   UNL     1      -3.713  -4.676   1.772  1.00  0.00    -0.480 OA
ATOM     68  H   UNL     1      -2.826  -4.409   1.448  1.00  0.00     0.296 HD
ENDBRANCH  65  67
ENDBRANCH  49  65
ENDBRANCH  47  49
ENDBRANCH  43  45
ENDBRANCH   1  43
BRANCH   1  69
ATOM     69  C   UNL     1      -4.968  -6.850  -3.619  1.00  0.00    -0.001 C 
ATOM     70  C   UNL     1      -4.441  -6.710  -4.848  1.00  0.00     0.001 C 
BRANCH  70  71
ATOM     71  C   UNL     1      -5.172  -6.523  -6.103  1.00  0.00    -0.055 C 
ATOM     72  C   UNL     1      -5.046  -7.475  -7.051  1.00  0.00    -0.018 C 
ATOM     73  C   UNL     1      -6.020  -5.286  -6.244  1.00  0.00     0.044 C 
BRANCH  72  74
ATOM     74  C   UNL     1      -5.681  -7.550  -8.432  1.00  0.00     0.038 C 
ATOM     75  C   UNL     1      -5.391  -8.949  -8.988  1.00  0.00     0.015 C 
BRANCH  74  76
ATOM     76  C   UNL     1      -5.135  -6.377  -9.298  1.00  0.00     0.128 C 
BRANCH  76  77
ATOM     77  O   UNL     1      -4.060  -6.842 -10.133  1.00  0.00    -0.381 OA
ATOM     78  C   UNL     1      -2.799  -6.270  -9.811  1.00  0.00     0.195 C 
ENDBRANCH  76  77
BRANCH  76  79
ATOM     79  C   UNL     1      -6.228  -5.620 -10.094  1.00  0.00     0.068 C 
BRANCH  79  80
ATOM     80  C   UNL     1      -7.398  -6.416 -10.621  1.00  0.00    -0.045 A 
ATOM     81  C   UNL     1      -8.691  -6.215 -10.121  1.00  0.00     0.004 A 
ATOM     82  C   UNL     1      -7.200  -7.396 -11.606  1.00  0.00     0.004 A 
ATOM     83  C   UNL     1      -9.766  -6.966 -10.603  1.00  0.00     0.000 A 
ATOM     84  C   UNL     1      -8.276  -8.146 -12.087  1.00  0.00     0.000 A 
ATOM     85  C   UNL     1      -9.558  -7.930 -11.587  1.00  0.00     0.000 A 
ENDBRANCH  79  80
ENDBRANCH  76  79
ENDBRANCH  74  76
ENDBRANCH  72  74
ENDBRANCH  70  71
ENDBRANCH   1  69
TORSDOF 17
ENDMDL
MODEL 25
REMARK VINA RESULT:    -6.902      2.801     11.929
REMARK INTER + INTRA:         -27.563
REMARK INTER:                 -19.985
REMARK INTRA:                  -7.578
REMARK UNBOUND:                -6.942
REMARK SMILES C=C1C(=O)N[C@H](C)C(=O)N[C@@H](CC(C)C)C(=O)N[C@@H](C(=O)O)[C@H](C)C(=O)N[C@@H](CCCN=C(N)N)C(=O)N[C@@H](/C=C/C(C)=C/[C@H](C)[C@H](Cc2ccccc2)OC)[C@H](C)C(=O)N[C@@H](C(=O)O)CCC(=O)N1C
REMARK SMILES IDX 39 1 38 2 37 3 36 4 28 6 27 7 25 8 26 9 23 11 24 12 19 13
REMARK SMILES IDX 18 14 16 15 17 16 11 18 10 19 8 20 9 21 12 24 13 25 14 26
REMARK SMILES IDX 15 27 20 28 21 29 22 30 29 32 30 33 31 34 32 35 33 36 34 37
REMARK SMILES IDX 35 38 57 43 58 44 59 45 60 46 61 47 62 49 66 50 67 51 68 52
REMARK SMILES IDX 69 53 70 54 71 55 2 56 1 57 3 58 4 59 5 60 6 62 7 63 63 65
REMARK SMILES IDX 64 66 65 67 40 69 41 70 42 71 44 72 43 73 45 74 46 75 47 76
REMARK SMILES IDX 55 77 56 78 48 79 49 80 50 81 54 82 51 83 53 84 52 85
REMARK H PARENT 38 5 27 10 18 17 10 22 22 31 34 39 34 40 35 41 35 42 61 48
REMARK H PARENT 5 61 65 68
REMARK Flexibility Score:  369.900
ROOT
ATOM      1  C   UNL     1       1.772  -6.214  -5.843  1.00  0.00     0.117 C 
ENDROOT
BRANCH   1   2
ATOM      2  N   UNL     1       0.724  -5.576  -5.046  1.00  0.00    -0.347 N 
ATOM      3  O   UNL     1       1.846  -5.517  -3.044  1.00  0.00    -0.273 OA
ATOM      4  C   UNL     1       0.880  -5.194  -3.727  1.00  0.00     0.243 C 
ATOM      5  H   UNL     1      -0.157  -5.348  -5.480  1.00  0.00     0.164 HD
BRANCH   4   6
ATOM      6  C   UNL     1      -0.354  -4.462  -3.141  1.00  0.00     0.171 C 
BRANCH   6   7
ATOM      7  N   UNL     1      -1.005  -5.291  -2.114  1.00  0.00    -0.344 N 
ATOM      8  C   UNL     1      -2.379  -5.349  -2.025  1.00  0.00     0.226 C 
ATOM      9  O   UNL     1      -3.116  -4.708  -2.765  1.00  0.00    -0.275 OA
ATOM     10  H   UNL     1      -0.429  -5.782  -1.442  1.00  0.00     0.164 HD
BRANCH   8  11
ATOM     11  C   UNL     1      -2.897  -6.290  -0.952  1.00  0.00     0.109 C 
ATOM     12  C   UNL     1      -1.791  -7.251  -0.516  1.00  0.00     0.021 C 
BRANCH  11  13
ATOM     13  C   UNL     1      -3.536  -5.476   0.191  1.00  0.00     0.204 C 
BRANCH  13  14
ATOM     14  N   UNL     1      -4.406  -6.301   1.035  1.00  0.00    -0.340 N 
ATOM     15  C   UNL     1      -5.577  -6.866   0.577  1.00  0.00     0.243 C 
ATOM     16  O   UNL     1      -5.943  -6.769  -0.593  1.00  0.00    -0.273 OA
ATOM     17  H   UNL     1      -4.241  -6.295   2.045  1.00  0.00     0.164 HD
BRANCH  15  18
ATOM     18  C   UNL     1      -6.430  -7.515   1.695  1.00  0.00     0.171 C 
BRANCH  18  19
ATOM     19  N   UNL     1      -6.408  -6.591   2.827  1.00  0.00    -0.343 N 
ATOM     20  C   UNL     1      -6.398  -7.040   4.134  1.00  0.00     0.242 CG0
ATOM     21  O   UNL     1      -6.540  -8.229   4.407  1.00  0.00    -0.273 OA
ATOM     22  H   UNL     1      -6.407  -5.592   2.654  1.00  0.00     0.164 HD
ATOM     23  G   UNL     1      -6.295  -5.921   5.191  1.00  0.00     0.000 G0
ENDBRANCH  18  19
BRANCH  18  24
ATOM     24  C   UNL     1      -7.860  -7.770   1.205  1.00  0.00     0.038 C 
BRANCH  24  25
ATOM     25  C   UNL     1      -8.309  -9.246   1.268  1.00  0.00    -0.015 C 
ATOM     26  C   UNL     1      -9.025  -9.695  -0.006  1.00  0.00     0.007 C 
ATOM     27  C   UNL     1      -9.227  -9.453   2.476  1.00  0.00     0.007 C 
ENDBRANCH  24  25
ENDBRANCH  18  24
ENDBRANCH  15  18
ENDBRANCH  13  14
BRANCH  13  28
ATOM     28  C   UNL     1      -2.506  -4.815   1.111  1.00  0.00     0.327 C 
ATOM     29  O   UNL     1      -1.311  -4.693   0.888  1.00  0.00    -0.250 OA
BRANCH  28  30
ATOM     30  O   UNL     1      -3.018  -4.452   2.304  1.00  0.00    -0.480 OA
ATOM     31  H   UNL     1      -3.987  -4.443   2.158  1.00  0.00     0.296 HD
ENDBRANCH  28  30
ENDBRANCH  13  28
ENDBRANCH  11  13
ENDBRANCH   8  11
ENDBRANCH   6   7
BRANCH   6  32
ATOM     32  C   UNL     1       0.091  -3.117  -2.556  1.00  0.00     0.037 C 
BRANCH  32  33
ATOM     33  C   UNL     1       0.695  -2.192  -3.623  1.00  0.00     0.026 C 
BRANCH  33  34
ATOM     34  C   UNL     1       1.830  -1.328  -3.073  1.00  0.00     0.146 C 
BRANCH  34  35
ATOM     35  N   UNL     1       3.102  -1.952  -3.412  1.00  0.00    -0.254 NA
ATOM     36  C   UNL     1       3.721  -1.555  -4.461  1.00  0.00     0.185 C 
ATOM     37  N   UNL     1       4.896  -2.119  -4.780  1.00  0.00    -0.370 N 
ATOM     38  N   UNL     1       3.362  -0.607  -5.345  1.00  0.00    -0.370 N 
ATOM     39  H   UNL     1       5.239  -2.837  -4.155  1.00  0.00     0.159 HD
ATOM     40  H   UNL     1       5.519  -1.750  -5.477  1.00  0.00     0.159 HD
ATOM     41  H   UNL     1       3.867  -0.482  -6.208  1.00  0.00     0.159 HD
ATOM     42  H   UNL     1       2.492  -0.109  -5.239  1.00  0.00     0.159 HD
ENDBRANCH  34  35
ENDBRANCH  33  34
ENDBRANCH  32  33
ENDBRANCH   6  32
ENDBRANCH   4   6
ENDBRANCH   1   2
BRANCH   1  43
ATOM     43  C   UNL     1       2.670  -5.103  -6.460  1.00  0.00     0.102 C 
ATOM     44  C   UNL     1       2.634  -5.070  -7.997  1.00  0.00     0.020 C 
BRANCH  43  45
ATOM     45  C   UNL     1       4.084  -5.149  -5.873  1.00  0.00     0.225 C 
ATOM     46  O   UNL     1       5.050  -4.611  -6.406  1.00  0.00    -0.275 OA
ATOM     47  N   UNL     1       4.231  -5.921  -4.743  1.00  0.00    -0.342 N 
ATOM     48  H   UNL     1       3.412  -6.227  -4.236  1.00  0.00     0.164 HD
BRANCH  47  49
ATOM     49  C   UNL     1       5.519  -6.029  -4.051  1.00  0.00     0.192 C 
BRANCH  49  50
ATOM     50  C   UNL     1       5.878  -7.505  -3.860  1.00  0.00     0.047 C 
BRANCH  50  51
ATOM     51  C   UNL     1       6.516  -8.116  -5.116  1.00  0.00     0.103 C 
BRANCH  51  52
ATOM     52  C   UNL     1       5.471  -8.707  -6.060  1.00  0.00     0.226 C 
ATOM     53  O   UNL     1       4.312  -8.861  -5.668  1.00  0.00    -0.275 OA
BRANCH  52  54
ATOM     54  N   UNL     1       5.894  -8.975  -7.375  1.00  0.00    -0.311 N 
ATOM     55  C   UNL     1       6.931  -9.980  -7.646  1.00  0.00     0.153 C 
BRANCH  54  56
ATOM     56  C   UNL     1       5.341  -8.297  -8.474  1.00  0.00     0.102 C 
ATOM     57  C   UNL     1       5.609  -7.024  -8.807  1.00  0.00     0.043 C 
BRANCH  56  58
ATOM     58  C   UNL     1       4.400  -9.001  -9.424  1.00  0.00     0.268 C 
ATOM     59  O   UNL     1       3.342  -9.503  -9.069  1.00  0.00    -0.268 OA
ATOM     60  N   UNL     1       4.822  -8.960 -10.732  1.00  0.00    -0.339 N 
ATOM     61  H   UNL     1       5.717  -8.534 -10.942  1.00  0.00     0.164 HD
BRANCH  60  62
ATOM     62  C   UNL     1       4.031  -9.525 -11.824  1.00  0.00     0.168 CG0
ATOM     63  C   UNL     1       4.593 -10.871 -12.267  1.00  0.00     0.041 C 
ATOM     64  G   UNL     1       3.996  -8.533 -13.004  1.00  0.00     0.000 G0
ENDBRANCH  60  62
ENDBRANCH  56  58
ENDBRANCH  54  56
ENDBRANCH  52  54
ENDBRANCH  51  52
ENDBRANCH  50  51
ENDBRANCH  49  50
BRANCH  49  65
ATOM     65  C   UNL     1       5.489  -5.332  -2.682  1.00  0.00     0.326 C 
ATOM     66  O   UNL     1       5.320  -5.886  -1.606  1.00  0.00    -0.250 OA
BRANCH  65  67
ATOM     67  O   UNL     1       5.608  -3.987  -2.732  1.00  0.00    -0.480 OA
ATOM     68  H   UNL     1       6.163  -3.833  -3.527  1.00  0.00     0.296 HD
ENDBRANCH  65  67
ENDBRANCH  49  65
ENDBRANCH  47  49
ENDBRANCH  43  45
ENDBRANCH   1  43
BRANCH   1  69
ATOM     69  C   UNL     1       1.067  -7.186  -6.771  1.00  0.00    -0.001 C 
ATOM     70  C   UNL     1      -0.204  -7.617  -6.690  1.00  0.00     0.001 C 
BRANCH  70  71
ATOM     71  C   UNL     1      -0.881  -8.539  -7.604  1.00  0.00    -0.055 C 
ATOM     72  C   UNL     1      -0.115  -9.255  -8.454  1.00  0.00    -0.018 C 
ATOM     73  C   UNL     1      -2.382  -8.630  -7.526  1.00  0.00     0.044 C 
BRANCH  72  74
ATOM     74  C   UNL     1      -0.534 -10.278  -9.500  1.00  0.00     0.038 C 
ATOM     75  C   UNL     1      -0.234 -11.666  -8.921  1.00  0.00     0.015 C 
BRANCH  74  76
ATOM     76  C   UNL     1       0.197  -9.956 -10.837  1.00  0.00     0.128 C 
BRANCH  76  77
ATOM     77  O   UNL     1       0.827 -11.142 -11.350  1.00  0.00    -0.381 OA
ATOM     78  C   UNL     1       0.829 -11.219 -12.769  1.00  0.00     0.195 C 
ENDBRANCH  76  77
BRANCH  76  79
ATOM     79  C   UNL     1      -0.695  -9.249 -11.887  1.00  0.00     0.068 C 
BRANCH  79  80
ATOM     80  C   UNL     1      -1.824  -8.380 -11.387  1.00  0.00    -0.045 A 
ATOM     81  C   UNL     1      -1.593  -7.060 -10.978  1.00  0.00     0.004 A 
ATOM     82  C   UNL     1      -3.126  -8.895 -11.297  1.00  0.00     0.004 A 
ATOM     83  C   UNL     1      -2.640  -6.268 -10.502  1.00  0.00     0.000 A 
ATOM     84  C   UNL     1      -4.172  -8.102 -10.820  1.00  0.00     0.000 A 
ATOM     85  C   UNL     1      -3.930  -6.789 -10.425  1.00  0.00     0.000 A 
ENDBRANCH  79  80
ENDBRANCH  76  79
ENDBRANCH  74  76
ENDBRANCH  72  74
ENDBRANCH  70  71
ENDBRANCH   1  69
TORSDOF 17
ENDMDL
MODEL 26
REMARK VINA RESULT:    -6.886      2.570     12.492
REMARK INTER + INTRA:         -27.513
REMARK INTER:                 -21.148
REMARK INTRA:                  -6.365
REMARK UNBOUND:                -6.942
REMARK SMILES C=C1C(=O)N[C@H](C)C(=O)N[C@@H](CC(C)C)C(=O)N[C@@H](C(=O)O)[C@H](C)C(=O)N[C@@H](CCCN=C(N)N)C(=O)N[C@@H](/C=C/C(C)=C/[C@H](C)[C@H](Cc2ccccc2)OC)[C@H](C)C(=O)N[C@@H](C(=O)O)CCC(=O)N1C
REMARK SMILES IDX 39 1 38 2 37 3 36 4 28 6 27 7 25 8 26 9 23 11 24 12 19 13
REMARK SMILES IDX 18 14 16 15 17 16 11 18 10 19 8 20 9 21 12 24 13 25 14 26
REMARK SMILES IDX 15 27 20 28 21 29 22 30 29 32 30 33 31 34 32 35 33 36 34 37
REMARK SMILES IDX 35 38 57 43 58 44 59 45 60 46 61 47 62 49 66 50 67 51 68 52
REMARK SMILES IDX 69 53 70 54 71 55 2 56 1 57 3 58 4 59 5 60 6 62 7 63 63 65
REMARK SMILES IDX 64 66 65 67 40 69 41 70 42 71 44 72 43 73 45 74 46 75 47 76
REMARK SMILES IDX 55 77 56 78 48 79 49 80 50 81 54 82 51 83 53 84 52 85
REMARK H PARENT 38 5 27 10 18 17 10 22 22 31 34 39 34 40 35 41 35 42 61 48
REMARK H PARENT 5 61 65 68
REMARK Flexibility Score:  369.900
ROOT
ATOM      1  C   UNL     1      -2.439  -8.196  -1.576  1.00  0.00     0.117 C 
ENDROOT
BRANCH   1   2
ATOM      2  N   UNL     1      -3.896  -8.206  -1.707  1.00  0.00    -0.347 N 
ATOM      3  O   UNL     1      -4.305 -10.122  -0.510  1.00  0.00    -0.273 OA
ATOM      4  C   UNL     1      -4.722  -9.121  -1.084  1.00  0.00     0.243 C 
ATOM      5  H   UNL     1      -4.350  -7.479  -2.239  1.00  0.00     0.164 HD
BRANCH   4   6
ATOM      6  C   UNL     1      -6.232  -8.858  -1.316  1.00  0.00     0.171 C 
BRANCH   6   7
ATOM      7  N   UNL     1      -6.956  -8.855  -0.035  1.00  0.00    -0.344 N 
ATOM      8  C   UNL     1      -6.763  -7.842   0.879  1.00  0.00     0.226 C 
ATOM      9  O   UNL     1      -5.978  -6.921   0.688  1.00  0.00    -0.275 OA
ATOM     10  H   UNL     1      -7.563  -9.634   0.188  1.00  0.00     0.164 HD
BRANCH   8  11
ATOM     11  C   UNL     1      -7.623  -7.952   2.126  1.00  0.00     0.109 C 
ATOM     12  C   UNL     1      -8.801  -8.892   1.871  1.00  0.00     0.021 C 
BRANCH  11  13
ATOM     13  C   UNL     1      -6.743  -8.328   3.335  1.00  0.00     0.204 C 
BRANCH  13  14
ATOM     14  N   UNL     1      -7.535  -8.850   4.453  1.00  0.00    -0.340 N 
ATOM     15  C   UNL     1      -7.719  -8.155   5.629  1.00  0.00     0.243 C 
ATOM     16  O   UNL     1      -7.280  -7.019   5.800  1.00  0.00    -0.273 OA
ATOM     17  H   UNL     1      -7.797  -9.839   4.435  1.00  0.00     0.164 HD
BRANCH  15  18
ATOM     18  C   UNL     1      -8.410  -8.987   6.737  1.00  0.00     0.171 C 
BRANCH  18  19
ATOM     19  N   UNL     1      -8.541 -10.348   6.219  1.00  0.00    -0.343 N 
ATOM     20  C   UNL     1      -9.637 -10.743   5.478  1.00  0.00     0.242 CG0
ATOM     21  O   UNL     1     -10.613 -10.012   5.332  1.00  0.00    -0.273 OA
ATOM     22  H   UNL     1      -7.812 -11.025   6.412  1.00  0.00     0.164 HD
ATOM     23  G   UNL     1      -9.560 -12.192   4.952  1.00  0.00     0.000 G0
ENDBRANCH  18  19
BRANCH  18  24
ATOM     24  C   UNL     1      -7.588  -8.954   8.031  1.00  0.00     0.038 C 
BRANCH  24  25
ATOM     25  C   UNL     1      -8.130  -7.997   9.114  1.00  0.00    -0.015 C 
ATOM     26  C   UNL     1      -7.888  -8.520  10.531  1.00  0.00     0.007 C 
ATOM     27  C   UNL     1      -9.628  -7.770   8.898  1.00  0.00     0.007 C 
ENDBRANCH  24  25
ENDBRANCH  18  24
ENDBRANCH  15  18
ENDBRANCH  13  14
BRANCH  13  28
ATOM     28  C   UNL     1      -5.679  -9.378   3.003  1.00  0.00     0.327 C 
ATOM     29  O   UNL     1      -5.885 -10.523   2.632  1.00  0.00    -0.250 OA
BRANCH  28  30
ATOM     30  O   UNL     1      -4.424  -8.963   3.272  1.00  0.00    -0.480 OA
ATOM     31  H   UNL     1      -3.854  -9.572   2.759  1.00  0.00     0.296 HD
ENDBRANCH  28  30
ENDBRANCH  13  28
ENDBRANCH  11  13
ENDBRANCH   8  11
ENDBRANCH   6   7
BRANCH   6  32
ATOM     32  C   UNL     1      -6.403  -7.521  -2.045  1.00  0.00     0.037 C 
BRANCH  32  33
ATOM     33  C   UNL     1      -6.960  -7.702  -3.464  1.00  0.00     0.026 C 
BRANCH  33  34
ATOM     34  C   UNL     1      -5.995  -7.201  -4.539  1.00  0.00     0.146 C 
BRANCH  34  35
ATOM     35  N   UNL     1      -6.346  -5.830  -4.883  1.00  0.00    -0.254 NA
ATOM     36  C   UNL     1      -5.405  -4.972  -5.029  1.00  0.00     0.185 C 
ATOM     37  N   UNL     1      -5.717  -3.708  -5.351  1.00  0.00    -0.370 N 
ATOM     38  N   UNL     1      -4.077  -5.147  -4.906  1.00  0.00    -0.370 N 
ATOM     39  H   UNL     1      -6.700  -3.499  -5.472  1.00  0.00     0.159 HD
ATOM     40  H   UNL     1      -5.041  -3.027  -5.651  1.00  0.00     0.159 HD
ATOM     41  H   UNL     1      -3.447  -4.362  -4.909  1.00  0.00     0.159 HD
ATOM     42  H   UNL     1      -3.700  -6.046  -4.652  1.00  0.00     0.159 HD
ENDBRANCH  34  35
ENDBRANCH  33  34
ENDBRANCH  32  33
ENDBRANCH   6  32
ENDBRANCH   4   6
ENDBRANCH   1   2
BRANCH   1  43
ATOM     43  C   UNL     1      -2.021  -6.919  -0.791  1.00  0.00     0.102 C 
ATOM     44  C   UNL     1      -2.609  -6.853   0.629  1.00  0.00     0.020 C 
BRANCH  43  45
ATOM     45  C   UNL     1      -2.265  -5.657  -1.624  1.00  0.00     0.225 C 
ATOM     46  O   UNL     1      -3.332  -5.417  -2.182  1.00  0.00    -0.275 OA
ATOM     47  N   UNL     1      -1.173  -4.837  -1.791  1.00  0.00    -0.342 N 
ATOM     48  H   UNL     1      -0.357  -4.965  -1.209  1.00  0.00     0.164 HD
BRANCH  47  49
ATOM     49  C   UNL     1      -1.267  -3.577  -2.534  1.00  0.00     0.192 C 
BRANCH  49  50
ATOM     50  C   UNL     1       0.035  -3.333  -3.301  1.00  0.00     0.047 C 
BRANCH  50  51
ATOM     51  C   UNL     1       1.191  -4.193  -2.773  1.00  0.00     0.103 C 
BRANCH  51  52
ATOM     52  C   UNL     1       1.650  -5.228  -3.798  1.00  0.00     0.226 C 
ATOM     53  O   UNL     1       0.849  -5.660  -4.630  1.00  0.00    -0.275 OA
BRANCH  52  54
ATOM     54  N   UNL     1       3.013  -5.575  -3.772  1.00  0.00    -0.311 N 
ATOM     55  C   UNL     1       3.438  -6.952  -3.482  1.00  0.00     0.153 C 
BRANCH  54  56
ATOM     56  C   UNL     1       4.016  -4.625  -4.025  1.00  0.00     0.102 C 
ATOM     57  C   UNL     1       4.861  -4.135  -3.104  1.00  0.00     0.043 C 
BRANCH  56  58
ATOM     58  C   UNL     1       4.251  -4.100  -5.422  1.00  0.00     0.268 C 
ATOM     59  O   UNL     1       3.895  -4.696  -6.430  1.00  0.00    -0.268 OA
ATOM     60  N   UNL     1       4.843  -2.860  -5.441  1.00  0.00    -0.339 N 
ATOM     61  H   UNL     1       5.117  -2.438  -4.562  1.00  0.00     0.164 HD
BRANCH  60  62
ATOM     62  C   UNL     1       5.105  -2.140  -6.687  1.00  0.00     0.168 CG0
ATOM     63  C   UNL     1       5.445  -0.680  -6.414  1.00  0.00     0.041 C 
ATOM     64  G   UNL     1       3.877  -2.251  -7.615  1.00  0.00     0.000 G0
ENDBRANCH  60  62
ENDBRANCH  56  58
ENDBRANCH  54  56
ENDBRANCH  52  54
ENDBRANCH  51  52
ENDBRANCH  50  51
ENDBRANCH  49  50
BRANCH  49  65
ATOM     65  C   UNL     1      -1.538  -2.387  -1.600  1.00  0.00     0.326 C 
ATOM     66  O   UNL     1      -1.904  -1.275  -1.952  1.00  0.00    -0.250 OA
BRANCH  65  67
ATOM     67  O   UNL     1      -1.282  -2.625  -0.294  1.00  0.00    -0.480 OA
ATOM     68  H   UNL     1      -2.144  -2.461   0.145  1.00  0.00     0.296 HD
ENDBRANCH  65  67
ENDBRANCH  49  65
ENDBRANCH  47  49
ENDBRANCH  43  45
ENDBRANCH   1  43
BRANCH   1  69
ATOM     69  C   UNL     1      -1.887  -8.411  -2.973  1.00  0.00    -0.001 C 
ATOM     70  C   UNL     1      -2.570  -8.763  -4.077  1.00  0.00     0.001 C 
BRANCH  70  71
ATOM     71  C   UNL     1      -2.029  -8.947  -5.425  1.00  0.00    -0.055 C 
ATOM     72  C   UNL     1      -0.754  -8.567  -5.647  1.00  0.00    -0.018 C 
ATOM     73  C   UNL     1      -2.932  -9.556  -6.466  1.00  0.00     0.044 C 
BRANCH  72  74
ATOM     74  C   UNL     1       0.064  -8.640  -6.928  1.00  0.00     0.038 C 
ATOM     75  C   UNL     1       1.483  -9.069  -6.536  1.00  0.00     0.015 C 
BRANCH  74  76
ATOM     76  C   UNL     1      -0.025  -7.268  -7.659  1.00  0.00     0.128 C 
BRANCH  76  77
ATOM     77  O   UNL     1       1.255  -6.614  -7.633  1.00  0.00    -0.381 OA
ATOM     78  C   UNL     1       1.666  -6.113  -8.898  1.00  0.00     0.195 C 
ENDBRANCH  76  77
BRANCH  76  79
ATOM     79  C   UNL     1      -0.626  -7.351  -9.084  1.00  0.00     0.068 C 
BRANCH  79  80
ATOM     80  C   UNL     1      -2.100  -7.067  -9.248  1.00  0.00    -0.045 A 
ATOM     81  C   UNL     1      -2.849  -6.516  -8.200  1.00  0.00     0.004 A 
ATOM     82  C   UNL     1      -2.751  -7.378 -10.451  1.00  0.00     0.004 A 
ATOM     83  C   UNL     1      -4.215  -6.269  -8.354  1.00  0.00     0.000 A 
ATOM     84  C   UNL     1      -4.117  -7.131 -10.604  1.00  0.00     0.000 A 
ATOM     85  C   UNL     1      -4.848  -6.576  -9.557  1.00  0.00     0.000 A 
ENDBRANCH  79  80
ENDBRANCH  76  79
ENDBRANCH  74  76
ENDBRANCH  72  74
ENDBRANCH  70  71
ENDBRANCH   1  69
TORSDOF 17
ENDMDL
MODEL 27
REMARK VINA RESULT:    -6.863      2.226      3.205
REMARK INTER + INTRA:         -27.445
REMARK INTER:                 -23.136
REMARK INTRA:                  -4.308
REMARK UNBOUND:                -6.942
REMARK SMILES C=C1C(=O)N[C@H](C)C(=O)N[C@@H](CC(C)C)C(=O)N[C@@H](C(=O)O)[C@H](C)C(=O)N[C@@H](CCCN=C(N)N)C(=O)N[C@@H](/C=C/C(C)=C/[C@H](C)[C@H](Cc2ccccc2)OC)[C@H](C)C(=O)N[C@@H](C(=O)O)CCC(=O)N1C
REMARK SMILES IDX 39 1 38 2 37 3 36 4 28 6 27 7 25 8 26 9 23 11 24 12 19 13
REMARK SMILES IDX 18 14 16 15 17 16 11 18 10 19 8 20 9 21 12 24 13 25 14 26
REMARK SMILES IDX 15 27 20 28 21 29 22 30 29 32 30 33 31 34 32 35 33 36 34 37
REMARK SMILES IDX 35 38 57 43 58 44 59 45 60 46 61 47 62 49 66 50 67 51 68 52
REMARK SMILES IDX 69 53 70 54 71 55 2 56 1 57 3 58 4 59 5 60 6 62 7 63 63 65
REMARK SMILES IDX 64 66 65 67 40 69 41 70 42 71 44 72 43 73 45 74 46 75 47 76
REMARK SMILES IDX 55 77 56 78 48 79 49 80 50 81 54 82 51 83 53 84 52 85
REMARK H PARENT 38 5 27 10 18 17 10 22 22 31 34 39 34 40 35 41 35 42 61 48
REMARK H PARENT 5 61 65 68
REMARK Flexibility Score:  369.900
ROOT
ATOM      1  C   UNL     1      -4.342  -6.344  -3.095  1.00  0.00     0.117 C 
ENDROOT
BRANCH   1   2
ATOM      2  N   UNL     1      -2.937  -6.028  -3.349  1.00  0.00    -0.347 N 
ATOM      3  O   UNL     1      -2.538  -4.818  -1.439  1.00  0.00    -0.273 OA
ATOM      4  C   UNL     1      -2.119  -5.365  -2.454  1.00  0.00     0.243 C 
ATOM      5  H   UNL     1      -2.504  -6.347  -4.202  1.00  0.00     0.164 HD
BRANCH   4   6
ATOM      6  C   UNL     1      -0.650  -5.233  -2.930  1.00  0.00     0.171 C 
BRANCH   6   7
ATOM      7  N   UNL     1      -0.433  -6.025  -4.152  1.00  0.00    -0.344 N 
ATOM      8  C   UNL     1       0.467  -7.068  -4.162  1.00  0.00     0.226 C 
ATOM      9  O   UNL     1       1.137  -7.372  -3.182  1.00  0.00    -0.275 OA
ATOM     10  H   UNL     1      -0.919  -5.762  -5.000  1.00  0.00     0.164 HD
BRANCH   8  11
ATOM     11  C   UNL     1       0.537  -7.821  -5.479  1.00  0.00     0.109 C 
ATOM     12  C   UNL     1      -0.862  -7.968  -6.076  1.00  0.00     0.021 C 
BRANCH  11  13
ATOM     13  C   UNL     1       1.571  -7.152  -6.407  1.00  0.00     0.204 C 
BRANCH  13  14
ATOM     14  N   UNL     1       2.608  -6.440  -5.655  1.00  0.00    -0.340 N 
ATOM     15  C   UNL     1       2.884  -5.103  -5.843  1.00  0.00     0.243 C 
ATOM     16  O   UNL     1       2.236  -4.397  -6.614  1.00  0.00    -0.273 OA
ATOM     17  H   UNL     1       3.278  -6.995  -5.115  1.00  0.00     0.164 HD
BRANCH  15  18
ATOM     18  C   UNL     1       4.151  -4.621  -5.094  1.00  0.00     0.171 C 
BRANCH  18  19
ATOM     19  N   UNL     1       4.255  -3.182  -5.329  1.00  0.00    -0.343 N 
ATOM     20  C   UNL     1       4.884  -2.671  -6.448  1.00  0.00     0.242 CG0
ATOM     21  O   UNL     1       5.500  -3.394  -7.227  1.00  0.00    -0.273 OA
ATOM     22  H   UNL     1       3.861  -2.538  -4.653  1.00  0.00     0.164 HD
ATOM     23  G   UNL     1       4.825  -1.134  -6.564  1.00  0.00     0.000 G0
ENDBRANCH  18  19
BRANCH  18  24
ATOM     24  C   UNL     1       4.049  -4.939  -3.597  1.00  0.00     0.038 C 
BRANCH  24  25
ATOM     25  C   UNL     1       5.031  -6.021  -3.100  1.00  0.00    -0.015 C 
ATOM     26  C   UNL     1       5.934  -5.519  -1.974  1.00  0.00     0.007 C 
ATOM     27  C   UNL     1       5.889  -6.513  -4.268  1.00  0.00     0.007 C 
ENDBRANCH  24  25
ENDBRANCH  18  24
ENDBRANCH  15  18
ENDBRANCH  13  14
BRANCH  13  28
ATOM     28  C   UNL     1       2.282  -8.144  -7.333  1.00  0.00     0.327 C 
ATOM     29  O   UNL     1       3.387  -8.001  -7.833  1.00  0.00    -0.250 OA
BRANCH  28  30
ATOM     30  O   UNL     1       1.513  -9.200  -7.667  1.00  0.00    -0.480 OA
ATOM     31  H   UNL     1       0.673  -9.049  -7.185  1.00  0.00     0.296 HD
ENDBRANCH  28  30
ENDBRANCH  13  28
ENDBRANCH  11  13
ENDBRANCH   8  11
ENDBRANCH   6   7
BRANCH   6  32
ATOM     32  C   UNL     1      -0.331  -3.754  -3.172  1.00  0.00     0.037 C 
BRANCH  32  33
ATOM     33  C   UNL     1       0.358  -3.105  -1.964  1.00  0.00     0.026 C 
BRANCH  33  34
ATOM     34  C   UNL     1      -0.240  -1.742  -1.612  1.00  0.00     0.146 C 
BRANCH  34  35
ATOM     35  N   UNL     1      -1.568  -1.646  -2.202  1.00  0.00    -0.254 NA
ATOM     36  C   UNL     1      -2.590  -1.787  -1.442  1.00  0.00     0.185 C 
ATOM     37  N   UNL     1      -3.818  -1.695  -1.974  1.00  0.00    -0.370 N 
ATOM     38  N   UNL     1      -2.632  -2.025  -0.119  1.00  0.00    -0.370 N 
ATOM     39  H   UNL     1      -3.870  -1.505  -2.967  1.00  0.00     0.159 HD
ATOM     40  H   UNL     1      -4.658  -1.620  -1.426  1.00  0.00     0.159 HD
ATOM     41  H   UNL     1      -3.498  -2.256   0.341  1.00  0.00     0.159 HD
ATOM     42  H   UNL     1      -1.781  -2.135   0.410  1.00  0.00     0.159 HD
ENDBRANCH  34  35
ENDBRANCH  33  34
ENDBRANCH  32  33
ENDBRANCH   6  32
ENDBRANCH   4   6
ENDBRANCH   1   2
BRANCH   1  43
ATOM     43  C   UNL     1      -4.418  -7.726  -2.383  1.00  0.00     0.102 C 
ATOM     44  C   UNL     1      -5.255  -8.764  -3.150  1.00  0.00     0.020 C 
BRANCH  43  45
ATOM     45  C   UNL     1      -4.821  -7.566  -0.914  1.00  0.00     0.225 C 
ATOM     46  O   UNL     1      -5.202  -6.502  -0.435  1.00  0.00    -0.275 OA
ATOM     47  N   UNL     1      -4.640  -8.680  -0.126  1.00  0.00    -0.342 N 
ATOM     48  H   UNL     1      -4.474  -9.577  -0.559  1.00  0.00     0.164 HD
BRANCH  47  49
ATOM     49  C   UNL     1      -5.015  -8.684   1.291  1.00  0.00     0.192 C 
BRANCH  49  50
ATOM     50  C   UNL     1      -6.448  -8.168   1.446  1.00  0.00     0.047 C 
BRANCH  50  51
ATOM     51  C   UNL     1      -7.275  -9.027   2.412  1.00  0.00     0.103 C 
BRANCH  51  52
ATOM     52  C   UNL     1      -7.815  -8.212   3.586  1.00  0.00     0.226 C 
ATOM     53  O   UNL     1      -7.517  -7.021   3.689  1.00  0.00    -0.275 OA
BRANCH  52  54
ATOM     54  N   UNL     1      -8.702  -8.876   4.454  1.00  0.00    -0.311 N 
ATOM     55  C   UNL     1     -10.047  -9.263   4.010  1.00  0.00     0.153 C 
BRANCH  54  56
ATOM     56  C   UNL     1      -8.334  -9.196   5.772  1.00  0.00     0.102 C 
ATOM     57  C   UNL     1      -7.729 -10.335   6.145  1.00  0.00     0.043 C 
BRANCH  56  58
ATOM     58  C   UNL     1      -8.564  -8.218   6.900  1.00  0.00     0.268 C 
ATOM     59  O   UNL     1      -8.637  -7.008   6.733  1.00  0.00    -0.268 OA
ATOM     60  N   UNL     1      -8.749  -8.830   8.116  1.00  0.00    -0.339 N 
ATOM     61  H   UNL     1      -8.662  -9.838   8.173  1.00  0.00     0.164 HD
BRANCH  60  62
ATOM     62  C   UNL     1      -9.048  -8.074   9.332  1.00  0.00     0.168 CG0
ATOM     63  C   UNL     1      -7.890  -8.146  10.320  1.00  0.00     0.041 C 
ATOM     64  G   UNL     1     -10.344  -8.614   9.970  1.00  0.00     0.000 G0
ENDBRANCH  60  62
ENDBRANCH  56  58
ENDBRANCH  54  56
ENDBRANCH  52  54
ENDBRANCH  51  52
ENDBRANCH  50  51
ENDBRANCH  49  50
BRANCH  49  65
ATOM     65  C   UNL     1      -4.067  -7.814   2.131  1.00  0.00     0.326 C 
ATOM     66  O   UNL     1      -2.917  -8.100   2.430  1.00  0.00    -0.250 OA
BRANCH  65  67
ATOM     67  O   UNL     1      -4.617  -6.673   2.601  1.00  0.00    -0.480 OA
ATOM     68  H   UNL     1      -3.931  -6.317   3.206  1.00  0.00     0.296 HD
ENDBRANCH  65  67
ENDBRANCH  49  65
ENDBRANCH  47  49
ENDBRANCH  43  45
ENDBRANCH   1  43
BRANCH   1  69
ATOM     69  C   UNL     1      -5.064  -6.160  -4.418  1.00  0.00    -0.001 C 
ATOM     70  C   UNL     1      -5.625  -5.034  -4.892  1.00  0.00     0.001 C 
BRANCH  70  71
ATOM     71  C   UNL     1      -6.301  -4.863  -6.180  1.00  0.00    -0.055 C 
ATOM     72  C   UNL     1      -5.797  -5.522  -7.245  1.00  0.00    -0.018 C 
ATOM     73  C   UNL     1      -7.514  -3.972  -6.224  1.00  0.00     0.044 C 
BRANCH  72  74
ATOM     74  C   UNL     1      -6.284  -5.537  -8.687  1.00  0.00     0.038 C 
ATOM     75  C   UNL     1      -7.784  -5.219  -8.662  1.00  0.00     0.015 C 
BRANCH  74  76
ATOM     76  C   UNL     1      -5.918  -6.909  -9.325  1.00  0.00     0.128 C 
BRANCH  76  77
ATOM     77  O   UNL     1      -7.109  -7.686  -9.537  1.00  0.00    -0.381 OA
ATOM     78  C   UNL     1      -7.077  -8.470 -10.721  1.00  0.00     0.195 C 
ENDBRANCH  76  77
BRANCH  76  79
ATOM     79  C   UNL     1      -5.041  -6.798 -10.598  1.00  0.00     0.068 C 
BRANCH  79  80
ATOM     80  C   UNL     1      -3.570  -7.114 -10.474  1.00  0.00    -0.045 A 
ATOM     81  C   UNL     1      -2.736  -6.354  -9.644  1.00  0.00     0.004 A 
ATOM     82  C   UNL     1      -3.008  -8.165 -11.214  1.00  0.00     0.004 A 
ATOM     83  C   UNL     1      -1.374  -6.644  -9.546  1.00  0.00     0.000 A 
ATOM     84  C   UNL     1      -1.645  -8.454 -11.115  1.00  0.00     0.000 A 
ATOM     85  C   UNL     1      -0.829  -7.695 -10.280  1.00  0.00     0.000 A 
ENDBRANCH  79  80
ENDBRANCH  76  79
ENDBRANCH  74  76
ENDBRANCH  72  74
ENDBRANCH  70  71
ENDBRANCH   1  69
TORSDOF 17
ENDMDL
MODEL 28
REMARK VINA RESULT:    -6.849      2.553     11.739
REMARK INTER + INTRA:         -27.405
REMARK INTER:                 -21.977
REMARK INTRA:                  -5.428
REMARK UNBOUND:                -6.942
REMARK SMILES C=C1C(=O)N[C@H](C)C(=O)N[C@@H](CC(C)C)C(=O)N[C@@H](C(=O)O)[C@H](C)C(=O)N[C@@H](CCCN=C(N)N)C(=O)N[C@@H](/C=C/C(C)=C/[C@H](C)[C@H](Cc2ccccc2)OC)[C@H](C)C(=O)N[C@@H](C(=O)O)CCC(=O)N1C
REMARK SMILES IDX 39 1 38 2 37 3 36 4 28 6 27 7 25 8 26 9 23 11 24 12 19 13
REMARK SMILES IDX 18 14 16 15 17 16 11 18 10 19 8 20 9 21 12 24 13 25 14 26
REMARK SMILES IDX 15 27 20 28 21 29 22 30 29 32 30 33 31 34 32 35 33 36 34 37
REMARK SMILES IDX 35 38 57 43 58 44 59 45 60 46 61 47 62 49 66 50 67 51 68 52
REMARK SMILES IDX 69 53 70 54 71 55 2 56 1 57 3 58 4 59 5 60 6 62 7 63 63 65
REMARK SMILES IDX 64 66 65 67 40 69 41 70 42 71 44 72 43 73 45 74 46 75 47 76
REMARK SMILES IDX 55 77 56 78 48 79 49 80 50 81 54 82 51 83 53 84 52 85
REMARK H PARENT 38 5 27 10 18 17 10 22 22 31 34 39 34 40 35 41 35 42 61 48
REMARK H PARENT 5 61 65 68
REMARK Flexibility Score:  369.900
ROOT
ATOM      1  C   UNL     1       0.488  -8.088  -4.818  1.00  0.00     0.117 C 
ENDROOT
BRANCH   1   2
ATOM      2  N   UNL     1      -0.041  -7.165  -3.813  1.00  0.00    -0.347 N 
ATOM      3  O   UNL     1      -1.805  -6.349  -5.035  1.00  0.00    -0.273 OA
ATOM      4  C   UNL     1      -1.203  -6.434  -3.970  1.00  0.00     0.243 C 
ATOM      5  H   UNL     1       0.429  -7.078  -2.925  1.00  0.00     0.164 HD
BRANCH   4   6
ATOM      6  C   UNL     1      -1.587  -5.599  -2.722  1.00  0.00     0.171 C 
BRANCH   6   7
ATOM      7  N   UNL     1      -2.093  -6.474  -1.653  1.00  0.00    -0.344 N 
ATOM      8  C   UNL     1      -3.433  -6.486  -1.330  1.00  0.00     0.226 C 
ATOM      9  O   UNL     1      -4.253  -5.767  -1.888  1.00  0.00    -0.275 OA
ATOM     10  H   UNL     1      -1.436  -7.033  -1.124  1.00  0.00     0.164 HD
BRANCH   8  11
ATOM     11  C   UNL     1      -3.806  -7.481  -0.245  1.00  0.00     0.109 C 
ATOM     12  C   UNL     1      -2.572  -8.273   0.189  1.00  0.00     0.021 C 
BRANCH  11  13
ATOM     13  C   UNL     1      -4.545  -6.755   0.896  1.00  0.00     0.204 C 
BRANCH  13  14
ATOM     14  N   UNL     1      -5.321  -7.681   1.728  1.00  0.00    -0.340 N 
ATOM     15  C   UNL     1      -6.486  -7.316   2.367  1.00  0.00     0.243 C 
ATOM     16  O   UNL     1      -6.991  -6.202   2.235  1.00  0.00    -0.273 OA
ATOM     17  H   UNL     1      -4.882  -8.564   2.000  1.00  0.00     0.164 HD
BRANCH  15  18
ATOM     18  C   UNL     1      -7.014  -8.389   3.351  1.00  0.00     0.171 C 
BRANCH  18  19
ATOM     19  N   UNL     1      -8.024  -7.735   4.181  1.00  0.00    -0.343 N 
ATOM     20  C   UNL     1      -8.152  -8.014   5.528  1.00  0.00     0.242 CG0
ATOM     21  O   UNL     1      -7.514  -8.919   6.061  1.00  0.00    -0.273 OA
ATOM     22  H   UNL     1      -8.654  -7.062   3.760  1.00  0.00     0.164 HD
ATOM     23  G   UNL     1      -9.219  -7.170   6.255  1.00  0.00     0.000 G0
ENDBRANCH  18  19
BRANCH  18  24
ATOM     24  C   UNL     1      -7.601  -9.582   2.587  1.00  0.00     0.038 C 
BRANCH  24  25
ATOM     25  C   UNL     1      -8.888  -9.270   1.795  1.00  0.00    -0.015 C 
ATOM     26  C   UNL     1     -10.084 -10.094   2.273  1.00  0.00     0.007 C 
ATOM     27  C   UNL     1      -8.650  -9.524   0.304  1.00  0.00     0.007 C 
ENDBRANCH  24  25
ENDBRANCH  18  24
ENDBRANCH  15  18
ENDBRANCH  13  14
BRANCH  13  28
ATOM     28  C   UNL     1      -3.607  -5.984   1.829  1.00  0.00     0.327 C 
ATOM     29  O   UNL     1      -3.087  -6.413   2.848  1.00  0.00    -0.250 OA
BRANCH  28  30
ATOM     30  O   UNL     1      -3.473  -4.686   1.490  1.00  0.00    -0.480 OA
ATOM     31  H   UNL     1      -2.511  -4.516   1.559  1.00  0.00     0.296 HD
ENDBRANCH  28  30
ENDBRANCH  13  28
ENDBRANCH  11  13
ENDBRANCH   8  11
ENDBRANCH   6   7
BRANCH   6  32
ATOM     32  C   UNL     1      -0.362  -4.809  -2.249  1.00  0.00     0.037 C 
BRANCH  32  33
ATOM     33  C   UNL     1      -0.424  -4.488  -0.749  1.00  0.00     0.026 C 
BRANCH  33  34
ATOM     34  C   UNL     1      -0.757  -3.020  -0.478  1.00  0.00     0.146 C 
BRANCH  34  35
ATOM     35  N   UNL     1      -2.167  -2.797  -0.767  1.00  0.00    -0.254 NA
ATOM     36  C   UNL     1      -2.481  -1.978  -1.700  1.00  0.00     0.185 C 
ATOM     37  N   UNL     1      -3.777  -1.769  -1.978  1.00  0.00    -0.370 N 
ATOM     38  N   UNL     1      -1.673  -1.252  -2.494  1.00  0.00    -0.370 N 
ATOM     39  H   UNL     1      -4.449  -2.289  -1.429  1.00  0.00     0.159 HD
ATOM     40  H   UNL     1      -4.098  -1.284  -2.798  1.00  0.00     0.159 HD
ATOM     41  H   UNL     1      -2.043  -0.537  -3.099  1.00  0.00     0.159 HD
ATOM     42  H   UNL     1      -0.672  -1.298  -2.386  1.00  0.00     0.159 HD
ENDBRANCH  34  35
ENDBRANCH  33  34
ENDBRANCH  32  33
ENDBRANCH   6  32
ENDBRANCH   4   6
ENDBRANCH   1   2
BRANCH   1  43
ATOM     43  C   UNL     1       1.867  -7.556  -5.302  1.00  0.00     0.102 C 
ATOM     44  C   UNL     1       2.409  -8.295  -6.537  1.00  0.00     0.020 C 
BRANCH  43  45
ATOM     45  C   UNL     1       2.863  -7.472  -4.141  1.00  0.00     0.225 C 
ATOM     46  O   UNL     1       2.738  -8.116  -3.103  1.00  0.00    -0.275 OA
ATOM     47  N   UNL     1       3.873  -6.550  -4.292  1.00  0.00    -0.342 N 
ATOM     48  H   UNL     1       4.049  -6.145  -5.201  1.00  0.00     0.164 HD
BRANCH  47  49
ATOM     49  C   UNL     1       4.918  -6.386  -3.277  1.00  0.00     0.192 C 
BRANCH  49  50
ATOM     50  C   UNL     1       5.236  -4.899  -3.102  1.00  0.00     0.047 C 
BRANCH  50  51
ATOM     51  C   UNL     1       4.009  -4.009  -3.343  1.00  0.00     0.103 C 
BRANCH  51  52
ATOM     52  C   UNL     1       4.392  -2.542  -3.530  1.00  0.00     0.226 C 
ATOM     53  O   UNL     1       5.159  -2.005  -2.728  1.00  0.00    -0.275 OA
BRANCH  52  54
ATOM     54  N   UNL     1       3.889  -1.905  -4.679  1.00  0.00    -0.311 N 
ATOM     55  C   UNL     1       2.718  -1.020  -4.602  1.00  0.00     0.153 C 
BRANCH  54  56
ATOM     56  C   UNL     1       4.487  -2.084  -5.937  1.00  0.00     0.102 C 
ATOM     57  C   UNL     1       5.542  -1.388  -6.392  1.00  0.00     0.043 C 
BRANCH  56  58
ATOM     58  C   UNL     1       3.991  -3.148  -6.887  1.00  0.00     0.268 C 
ATOM     59  O   UNL     1       2.804  -3.401  -7.049  1.00  0.00    -0.268 OA
ATOM     60  N   UNL     1       5.001  -3.755  -7.595  1.00  0.00    -0.339 N 
ATOM     61  H   UNL     1       5.960  -3.496  -7.394  1.00  0.00     0.164 HD
BRANCH  60  62
ATOM     62  C   UNL     1       4.738  -4.770  -8.614  1.00  0.00     0.168 CG0
ATOM     63  C   UNL     1       4.861  -6.173  -8.032  1.00  0.00     0.041 C 
ATOM     64  G   UNL     1       5.711  -4.581  -9.795  1.00  0.00     0.000 G0
ENDBRANCH  60  62
ENDBRANCH  56  58
ENDBRANCH  54  56
ENDBRANCH  52  54
ENDBRANCH  51  52
ENDBRANCH  50  51
ENDBRANCH  49  50
BRANCH  49  65
ATOM     65  C   UNL     1       6.202  -7.139  -3.659  1.00  0.00     0.326 C 
ATOM     66  O   UNL     1       7.111  -7.427  -2.895  1.00  0.00    -0.250 OA
BRANCH  65  67
ATOM     67  O   UNL     1       6.311  -7.436  -4.973  1.00  0.00    -0.480 OA
ATOM     68  H   UNL     1       5.449  -7.154  -5.347  1.00  0.00     0.296 HD
ENDBRANCH  65  67
ENDBRANCH  49  65
ENDBRANCH  47  49
ENDBRANCH  43  45
ENDBRANCH   1  43
BRANCH   1  69
ATOM     69  C   UNL     1      -0.620  -8.286  -5.836  1.00  0.00    -0.001 C 
ATOM     70  C   UNL     1      -1.030  -9.444  -6.383  1.00  0.00     0.001 C 
BRANCH  70  71
ATOM     71  C   UNL     1      -2.115  -9.626  -7.350  1.00  0.00    -0.055 C 
ATOM     72  C   UNL     1      -1.946 -10.553  -8.316  1.00  0.00    -0.018 C 
ATOM     73  C   UNL     1      -3.345  -8.771  -7.193  1.00  0.00     0.044 C 
BRANCH  72  74
ATOM     74  C   UNL     1      -2.891 -10.957  -9.438  1.00  0.00     0.038 C 
ATOM     75  C   UNL     1      -3.394 -12.370  -9.121  1.00  0.00     0.015 C 
BRANCH  74  76
ATOM     76  C   UNL     1      -2.142 -10.820 -10.797  1.00  0.00     0.128 C 
BRANCH  76  77
ATOM     77  O   UNL     1      -2.153 -12.078 -11.492  1.00  0.00    -0.381 OA
ATOM     78  C   UNL     1      -0.858 -12.547 -11.844  1.00  0.00     0.195 C 
ENDBRANCH  76  77
BRANCH  76  79
ATOM     79  C   UNL     1      -2.642  -9.645 -11.675  1.00  0.00     0.068 C 
BRANCH  79  80
ATOM     80  C   UNL     1      -3.122  -8.395 -10.978  1.00  0.00    -0.045 A 
ATOM     81  C   UNL     1      -4.488  -8.161 -10.775  1.00  0.00     0.004 A 
ATOM     82  C   UNL     1      -2.201  -7.429 -10.545  1.00  0.00     0.004 A 
ATOM     83  C   UNL     1      -4.925  -6.996 -10.142  1.00  0.00     0.000 A 
ATOM     84  C   UNL     1      -2.639  -6.263  -9.913  1.00  0.00     0.000 A 
ATOM     85  C   UNL     1      -4.000  -6.048  -9.710  1.00  0.00     0.000 A 
ENDBRANCH  79  80
ENDBRANCH  76  79
ENDBRANCH  74  76
ENDBRANCH  72  74
ENDBRANCH  70  71
ENDBRANCH   1  69
TORSDOF 17
ENDMDL
MODEL 29
REMARK VINA RESULT:    -6.828      2.750      5.720
REMARK INTER + INTRA:         -27.340
REMARK INTER:                 -20.907
REMARK INTRA:                  -6.433
REMARK UNBOUND:                -6.942
REMARK SMILES C=C1C(=O)N[C@H](C)C(=O)N[C@@H](CC(C)C)C(=O)N[C@@H](C(=O)O)[C@H](C)C(=O)N[C@@H](CCCN=C(N)N)C(=O)N[C@@H](/C=C/C(C)=C/[C@H](C)[C@H](Cc2ccccc2)OC)[C@H](C)C(=O)N[C@@H](C(=O)O)CCC(=O)N1C
REMARK SMILES IDX 39 1 38 2 37 3 36 4 28 6 27 7 25 8 26 9 23 11 24 12 19 13
REMARK SMILES IDX 18 14 16 15 17 16 11 18 10 19 8 20 9 21 12 24 13 25 14 26
REMARK SMILES IDX 15 27 20 28 21 29 22 30 29 32 30 33 31 34 32 35 33 36 34 37
REMARK SMILES IDX 35 38 57 43 58 44 59 45 60 46 61 47 62 49 66 50 67 51 68 52
REMARK SMILES IDX 69 53 70 54 71 55 2 56 1 57 3 58 4 59 5 60 6 62 7 63 63 65
REMARK SMILES IDX 64 66 65 67 40 69 41 70 42 71 44 72 43 73 45 74 46 75 47 76
REMARK SMILES IDX 55 77 56 78 48 79 49 80 50 81 54 82 51 83 53 84 52 85
REMARK H PARENT 38 5 27 10 18 17 10 22 22 31 34 39 34 40 35 41 35 42 61 48
REMARK H PARENT 5 61 65 68
REMARK Flexibility Score:  369.900
ROOT
ATOM      1  C   UNL     1      -2.674  -5.716  -3.140  1.00  0.00     0.117 C 
ENDROOT
BRANCH   1   2
ATOM      2  N   UNL     1      -1.412  -6.254  -3.648  1.00  0.00    -0.347 N 
ATOM      3  O   UNL     1      -2.100  -6.690  -5.795  1.00  0.00    -0.273 OA
ATOM      4  C   UNL     1      -1.200  -6.614  -4.965  1.00  0.00     0.243 C 
ATOM      5  H   UNL     1      -0.621  -6.329  -3.027  1.00  0.00     0.164 HD
BRANCH   4   6
ATOM      6  C   UNL     1       0.251  -7.073  -5.259  1.00  0.00     0.171 C 
BRANCH   6   7
ATOM      7  N   UNL     1       0.571  -6.886  -6.684  1.00  0.00    -0.344 N 
ATOM      8  C   UNL     1       1.538  -7.655  -7.293  1.00  0.00     0.226 C 
ATOM      9  O   UNL     1       2.186  -8.502  -6.690  1.00  0.00    -0.275 OA
ATOM     10  H   UNL     1       0.104  -6.151  -7.199  1.00  0.00     0.164 HD
BRANCH   8  11
ATOM     11  C   UNL     1       1.713  -7.381  -8.777  1.00  0.00     0.109 C 
ATOM     12  C   UNL     1       0.386  -6.931  -9.388  1.00  0.00     0.021 C 
BRANCH  11  13
ATOM     13  C   UNL     1       2.888  -6.406  -8.992  1.00  0.00     0.204 C 
BRANCH  13  14
ATOM     14  N   UNL     1       3.350  -5.813  -7.733  1.00  0.00    -0.340 N 
ATOM     15  C   UNL     1       3.145  -4.489  -7.411  1.00  0.00     0.243 C 
ATOM     16  O   UNL     1       2.505  -3.725  -8.131  1.00  0.00    -0.273 OA
ATOM     17  H   UNL     1       4.014  -6.347  -7.165  1.00  0.00     0.164 HD
BRANCH  15  18
ATOM     18  C   UNL     1       3.899  -4.039  -6.135  1.00  0.00     0.171 C 
BRANCH  18  19
ATOM     19  N   UNL     1       5.233  -3.624  -6.561  1.00  0.00    -0.343 N 
ATOM     20  C   UNL     1       5.534  -2.302  -6.829  1.00  0.00     0.242 CG0
ATOM     21  O   UNL     1       4.663  -1.436  -6.851  1.00  0.00    -0.273 OA
ATOM     22  H   UNL     1       5.961  -4.322  -6.670  1.00  0.00     0.164 HD
ATOM     23  G   UNL     1       7.012  -2.046  -7.189  1.00  0.00     0.000 G0
ENDBRANCH  18  19
BRANCH  18  24
ATOM     24  C   UNL     1       3.150  -2.896  -5.438  1.00  0.00     0.038 C 
BRANCH  24  25
ATOM     25  C   UNL     1       3.028  -3.045  -3.907  1.00  0.00    -0.015 C 
ATOM     26  C   UNL     1       1.943  -2.145  -3.316  1.00  0.00     0.007 C 
ATOM     27  C   UNL     1       4.374  -2.727  -3.250  1.00  0.00     0.007 C 
ENDBRANCH  24  25
ENDBRANCH  18  24
ENDBRANCH  15  18
ENDBRANCH  13  14
BRANCH  13  28
ATOM     28  C   UNL     1       4.102  -7.063  -9.657  1.00  0.00     0.327 C 
ATOM     29  O   UNL     1       4.723  -6.630 -10.616  1.00  0.00    -0.250 OA
BRANCH  28  30
ATOM     30  O   UNL     1       4.389  -8.280  -9.151  1.00  0.00    -0.480 OA
ATOM     31  H   UNL     1       3.613  -8.829  -9.390  1.00  0.00     0.296 HD
ENDBRANCH  28  30
ENDBRANCH  13  28
ENDBRANCH  11  13
ENDBRANCH   8  11
ENDBRANCH   6   7
BRANCH   6  32
ATOM     32  C   UNL     1       1.219  -6.282  -4.373  1.00  0.00     0.037 C 
BRANCH  32  33
ATOM     33  C   UNL     1       2.140  -7.200  -3.557  1.00  0.00     0.026 C 
BRANCH  33  34
ATOM     34  C   UNL     1       3.619  -6.983  -3.881  1.00  0.00     0.146 C 
BRANCH  34  35
ATOM     35  N   UNL     1       4.267  -6.372  -2.729  1.00  0.00    -0.254 NA
ATOM     36  C   UNL     1       5.513  -6.084  -2.806  1.00  0.00     0.185 C 
ATOM     37  N   UNL     1       6.119  -5.516  -1.752  1.00  0.00    -0.370 N 
ATOM     38  N   UNL     1       6.361  -6.270  -3.833  1.00  0.00    -0.370 N 
ATOM     39  H   UNL     1       5.543  -5.334  -0.940  1.00  0.00     0.159 HD
ATOM     40  H   UNL     1       7.036  -5.106  -1.793  1.00  0.00     0.159 HD
ATOM     41  H   UNL     1       7.352  -6.130  -3.722  1.00  0.00     0.159 HD
ATOM     42  H   UNL     1       6.045  -6.703  -4.687  1.00  0.00     0.159 HD
ENDBRANCH  34  35
ENDBRANCH  33  34
ENDBRANCH  32  33
ENDBRANCH   6  32
ENDBRANCH   4   6
ENDBRANCH   1   2
BRANCH   1  43
ATOM     43  C   UNL     1      -2.361  -4.745  -1.965  1.00  0.00     0.102 C 
ATOM     44  C   UNL     1      -1.269  -3.714  -2.298  1.00  0.00     0.020 C 
BRANCH  43  45
ATOM     45  C   UNL     1      -2.112  -5.516  -0.665  1.00  0.00     0.225 C 
ATOM     46  O   UNL     1      -1.119  -6.213  -0.478  1.00  0.00    -0.275 OA
ATOM     47  N   UNL     1      -3.127  -5.457   0.262  1.00  0.00    -0.342 N 
ATOM     48  H   UNL     1      -3.858  -4.767   0.161  1.00  0.00     0.164 HD
BRANCH  47  49
ATOM     49  C   UNL     1      -3.012  -6.116   1.566  1.00  0.00     0.192 C 
BRANCH  49  50
ATOM     50  C   UNL     1      -4.388  -6.620   2.011  1.00  0.00     0.047 C 
BRANCH  50  51
ATOM     51  C   UNL     1      -4.702  -8.017   1.459  1.00  0.00     0.103 C 
BRANCH  51  52
ATOM     52  C   UNL     1      -4.907  -9.041   2.574  1.00  0.00     0.226 C 
ATOM     53  O   UNL     1      -3.952  -9.380   3.275  1.00  0.00    -0.275 OA
BRANCH  52  54
ATOM     54  N   UNL     1      -6.226  -9.486   2.782  1.00  0.00    -0.311 N 
ATOM     55  C   UNL     1      -6.568 -10.911   2.682  1.00  0.00     0.153 C 
BRANCH  54  56
ATOM     56  C   UNL     1      -7.261  -8.589   3.097  1.00  0.00     0.102 C 
ATOM     57  C   UNL     1      -8.267  -8.257   2.272  1.00  0.00     0.043 C 
BRANCH  56  58
ATOM     58  C   UNL     1      -7.339  -7.943   4.460  1.00  0.00     0.268 C 
ATOM     59  O   UNL     1      -6.618  -7.016   4.804  1.00  0.00    -0.268 OA
ATOM     60  N   UNL     1      -8.342  -8.459   5.246  1.00  0.00    -0.339 N 
ATOM     61  H   UNL     1      -8.888  -9.235   4.891  1.00  0.00     0.164 HD
BRANCH  60  62
ATOM     62  C   UNL     1      -8.633  -7.936   6.580  1.00  0.00     0.168 CG0
ATOM     63  C   UNL     1      -9.526  -8.894   7.359  1.00  0.00     0.041 C 
ATOM     64  G   UNL     1      -9.295  -6.548   6.458  1.00  0.00     0.000 G0
ENDBRANCH  60  62
ENDBRANCH  56  58
ENDBRANCH  54  56
ENDBRANCH  52  54
ENDBRANCH  51  52
ENDBRANCH  50  51
ENDBRANCH  49  50
BRANCH  49  65
ATOM     65  C   UNL     1      -2.449  -5.166   2.634  1.00  0.00     0.326 C 
ATOM     66  O   UNL     1      -1.908  -5.508   3.676  1.00  0.00    -0.250 OA
BRANCH  65  67
ATOM     67  O   UNL     1      -2.642  -3.853   2.380  1.00  0.00    -0.480 OA
ATOM     68  H   UNL     1      -1.768  -3.449   2.570  1.00  0.00     0.296 HD
ENDBRANCH  65  67
ENDBRANCH  49  65
ENDBRANCH  47  49
ENDBRANCH  43  45
ENDBRANCH   1  43
BRANCH   1  69
ATOM     69  C   UNL     1      -3.572  -6.912  -2.882  1.00  0.00    -0.001 C 
ATOM     70  C   UNL     1      -3.195  -8.172  -2.599  1.00  0.00     0.001 C 
BRANCH  70  71
ATOM     71  C   UNL     1      -4.071  -9.314  -2.332  1.00  0.00    -0.055 C 
ATOM     72  C   UNL     1      -5.360  -9.220  -2.720  1.00  0.00    -0.018 C 
ATOM     73  C   UNL     1      -3.470 -10.516  -1.651  1.00  0.00     0.044 C 
BRANCH  72  74
ATOM     74  C   UNL     1      -6.485 -10.235  -2.578  1.00  0.00     0.038 C 
ATOM     75  C   UNL     1      -6.836 -10.721  -3.989  1.00  0.00     0.015 C 
BRANCH  74  76
ATOM     76  C   UNL     1      -7.663  -9.573  -1.803  1.00  0.00     0.128 C 
BRANCH  76  77
ATOM     77  O   UNL     1      -7.981 -10.350  -0.636  1.00  0.00    -0.381 OA
ATOM     78  C   UNL     1      -8.778 -11.495  -0.912  1.00  0.00     0.195 C 
ENDBRANCH  76  77
BRANCH  76  79
ATOM     79  C   UNL     1      -7.442  -8.074  -1.483  1.00  0.00     0.068 C 
BRANCH  79  80
ATOM     80  C   UNL     1      -8.007  -7.055  -2.443  1.00  0.00    -0.045 A 
ATOM     81  C   UNL     1      -7.183  -6.094  -3.044  1.00  0.00     0.004 A 
ATOM     82  C   UNL     1      -9.381  -7.037  -2.728  1.00  0.00     0.004 A 
ATOM     83  C   UNL     1      -7.716  -5.146  -3.920  1.00  0.00     0.000 A 
ATOM     84  C   UNL     1      -9.913  -6.088  -3.603  1.00  0.00     0.000 A 
ATOM     85  C   UNL     1      -9.080  -5.144  -4.200  1.00  0.00     0.000 A 
ENDBRANCH  79  80
ENDBRANCH  76  79
ENDBRANCH  74  76
ENDBRANCH  72  74
ENDBRANCH  70  71
ENDBRANCH   1  69
TORSDOF 17
ENDMDL
MODEL 30
REMARK VINA RESULT:    -6.809      4.170     13.086
REMARK INTER + INTRA:         -27.286
REMARK INTER:                 -22.010
REMARK INTRA:                  -5.276
REMARK UNBOUND:                -6.942
REMARK SMILES C=C1C(=O)N[C@H](C)C(=O)N[C@@H](CC(C)C)C(=O)N[C@@H](C(=O)O)[C@H](C)C(=O)N[C@@H](CCCN=C(N)N)C(=O)N[C@@H](/C=C/C(C)=C/[C@H](C)[C@H](Cc2ccccc2)OC)[C@H](C)C(=O)N[C@@H](C(=O)O)CCC(=O)N1C
REMARK SMILES IDX 39 1 38 2 37 3 36 4 28 6 27 7 25 8 26 9 23 11 24 12 19 13
REMARK SMILES IDX 18 14 16 15 17 16 11 18 10 19 8 20 9 21 12 24 13 25 14 26
REMARK SMILES IDX 15 27 20 28 21 29 22 30 29 32 30 33 31 34 32 35 33 36 34 37
REMARK SMILES IDX 35 38 57 43 58 44 59 45 60 46 61 47 62 49 66 50 67 51 68 52
REMARK SMILES IDX 69 53 70 54 71 55 2 56 1 57 3 58 4 59 5 60 6 62 7 63 63 65
REMARK SMILES IDX 64 66 65 67 40 69 41 70 42 71 44 72 43 73 45 74 46 75 47 76
REMARK SMILES IDX 55 77 56 78 48 79 49 80 50 81 54 82 51 83 53 84 52 85
REMARK H PARENT 38 5 27 10 18 17 10 22 22 31 34 39 34 40 35 41 35 42 61 48
REMARK H PARENT 5 61 65 68
REMARK Flexibility Score:  369.900
ROOT
ATOM      1  C   UNL     1      -3.184  -7.429  -4.619  1.00  0.00     0.117 C 
ENDROOT
BRANCH   1   2
ATOM      2  N   UNL     1      -3.190  -7.157  -3.182  1.00  0.00    -0.347 N 
ATOM      3  O   UNL     1      -5.210  -6.071  -3.077  1.00  0.00    -0.273 OA
ATOM      4  C   UNL     1      -4.249  -6.578  -2.509  1.00  0.00     0.243 C 
ATOM      5  H   UNL     1      -2.403  -7.446  -2.620  1.00  0.00     0.164 HD
BRANCH   4   6
ATOM      6  C   UNL     1      -4.035  -6.481  -0.977  1.00  0.00     0.171 C 
BRANCH   6   7
ATOM      7  N   UNL     1      -4.943  -7.400  -0.271  1.00  0.00    -0.344 N 
ATOM      8  C   UNL     1      -5.429  -7.085   0.979  1.00  0.00     0.226 C 
ATOM      9  O   UNL     1      -5.121  -6.056   1.568  1.00  0.00    -0.275 OA
ATOM     10  H   UNL     1      -5.167  -8.291  -0.697  1.00  0.00     0.164 HD
BRANCH   8  11
ATOM     11  C   UNL     1      -6.395  -8.108   1.550  1.00  0.00     0.109 C 
ATOM     12  C   UNL     1      -6.407  -9.364   0.679  1.00  0.00     0.021 C 
BRANCH  11  13
ATOM     13  C   UNL     1      -6.075  -8.354   3.038  1.00  0.00     0.204 C 
BRANCH  13  14
ATOM     14  N   UNL     1      -7.289  -8.541   3.840  1.00  0.00    -0.340 N 
ATOM     15  C   UNL     1      -7.521  -7.861   5.015  1.00  0.00     0.243 C 
ATOM     16  O   UNL     1      -6.752  -7.002   5.444  1.00  0.00    -0.273 OA
ATOM     17  H   UNL     1      -7.889  -9.341   3.623  1.00  0.00     0.164 HD
BRANCH  15  18
ATOM     18  C   UNL     1      -8.760  -8.371   5.791  1.00  0.00     0.171 C 
BRANCH  18  19
ATOM     19  N   UNL     1      -9.020  -7.399   6.851  1.00  0.00    -0.343 N 
ATOM     20  C   UNL     1      -9.046  -7.763   8.183  1.00  0.00     0.242 CG0
ATOM     21  O   UNL     1      -8.984  -8.940   8.530  1.00  0.00    -0.273 OA
ATOM     22  H   UNL     1      -9.193  -6.431   6.606  1.00  0.00     0.164 HD
ATOM     23  G   UNL     1      -9.257  -6.588   9.160  1.00  0.00     0.000 G0
ENDBRANCH  18  19
BRANCH  18  24
ATOM     24  C   UNL     1      -9.965  -8.515   4.852  1.00  0.00     0.038 C 
BRANCH  24  25
ATOM     25  C   UNL     1     -10.865  -9.736   5.142  1.00  0.00    -0.015 C 
ATOM     26  C   UNL     1     -11.963  -9.425   6.159  1.00  0.00     0.007 C 
ATOM     27  C   UNL     1     -10.008 -10.899   5.648  1.00  0.00     0.007 C 
ENDBRANCH  24  25
ENDBRANCH  18  24
ENDBRANCH  15  18
ENDBRANCH  13  14
BRANCH  13  28
ATOM     28  C   UNL     1      -5.185  -9.579   3.269  1.00  0.00     0.327 C 
ATOM     29  O   UNL     1      -5.566 -10.710   3.533  1.00  0.00    -0.250 OA
BRANCH  28  30
ATOM     30  O   UNL     1      -3.870  -9.284   3.272  1.00  0.00    -0.480 OA
ATOM     31  H   UNL     1      -3.550  -9.617   4.136  1.00  0.00     0.296 HD
ENDBRANCH  28  30
ENDBRANCH  13  28
ENDBRANCH  11  13
ENDBRANCH   8  11
ENDBRANCH   6   7
BRANCH   6  32
ATOM     32  C   UNL     1      -2.572  -6.800  -0.651  1.00  0.00     0.037 C 
BRANCH  32  33
ATOM     33  C   UNL     1      -1.720  -5.531  -0.508  1.00  0.00     0.026 C 
BRANCH  33  34
ATOM     34  C   UNL     1      -2.348  -4.323  -1.205  1.00  0.00     0.146 C 
BRANCH  34  35
ATOM     35  N   UNL     1      -1.356  -3.260  -1.287  1.00  0.00    -0.254 NA
ATOM     36  C   UNL     1      -1.626  -2.126  -0.754  1.00  0.00     0.185 C 
ATOM     37  N   UNL     1      -0.717  -1.141  -0.819  1.00  0.00    -0.370 N 
ATOM     38  N   UNL     1      -2.737  -1.742  -0.102  1.00  0.00    -0.370 N 
ATOM     39  H   UNL     1       0.154  -1.356  -1.288  1.00  0.00     0.159 HD
ATOM     40  H   UNL     1      -0.778  -0.292  -0.284  1.00  0.00     0.159 HD
ATOM     41  H   UNL     1      -2.887  -0.779   0.150  1.00  0.00     0.159 HD
ATOM     42  H   UNL     1      -3.512  -2.377   0.009  1.00  0.00     0.159 HD
ENDBRANCH  34  35
ENDBRANCH  33  34
ENDBRANCH  32  33
ENDBRANCH   6  32
ENDBRANCH   4   6
ENDBRANCH   1   2
BRANCH   1  43
ATOM     43  C   UNL     1      -3.975  -8.743  -4.878  1.00  0.00     0.102 C 
ATOM     44  C   UNL     1      -3.072  -9.973  -5.070  1.00  0.00     0.020 C 
BRANCH  43  45
ATOM     45  C   UNL     1      -5.010  -8.552  -5.991  1.00  0.00     0.225 C 
ATOM     46  O   UNL     1      -5.997  -9.270  -6.120  1.00  0.00    -0.275 OA
ATOM     47  N   UNL     1      -4.716  -7.572  -6.911  1.00  0.00    -0.342 N 
ATOM     48  H   UNL     1      -3.990  -6.898  -6.710  1.00  0.00     0.164 HD
BRANCH  47  49
ATOM     49  C   UNL     1      -5.632  -7.253  -8.011  1.00  0.00     0.192 C 
BRANCH  49  50
ATOM     50  C   UNL     1      -4.927  -7.483  -9.350  1.00  0.00     0.047 C 
BRANCH  50  51
ATOM     51  C   UNL     1      -4.643  -8.969  -9.610  1.00  0.00     0.103 C 
BRANCH  51  52
ATOM     52  C   UNL     1      -5.914  -9.746  -9.946  1.00  0.00     0.226 C 
ATOM     53  O   UNL     1      -6.382 -10.534  -9.122  1.00  0.00    -0.275 OA
BRANCH  52  54
ATOM     54  N   UNL     1      -6.526  -9.447 -11.177  1.00  0.00    -0.311 N 
ATOM     55  C   UNL     1      -5.812  -9.650 -12.445  1.00  0.00     0.153 C 
BRANCH  54  56
ATOM     56  C   UNL     1      -7.838  -8.950 -11.242  1.00  0.00     0.102 C 
ATOM     57  C   UNL     1      -8.176  -7.655 -11.133  1.00  0.00     0.043 C 
BRANCH  56  58
ATOM     58  C   UNL     1      -9.005  -9.876 -11.494  1.00  0.00     0.268 C 
ATOM     59  O   UNL     1      -9.615 -10.443 -10.597  1.00  0.00    -0.268 OA
ATOM     60  N   UNL     1      -9.351  -9.961 -12.821  1.00  0.00    -0.339 N 
ATOM     61  H   UNL     1      -8.788  -9.467 -13.504  1.00  0.00     0.164 HD
BRANCH  60  62
ATOM     62  C   UNL     1     -10.491 -10.752 -13.280  1.00  0.00     0.168 CG0
ATOM     63  C   UNL     1     -11.225 -10.048 -14.415  1.00  0.00     0.041 C 
ATOM     64  G   UNL     1     -11.444 -11.020 -12.097  1.00  0.00     0.000 G0
ENDBRANCH  60  62
ENDBRANCH  56  58
ENDBRANCH  54  56
ENDBRANCH  52  54
ENDBRANCH  51  52
ENDBRANCH  50  51
ENDBRANCH  49  50
BRANCH  49  65
ATOM     65  C   UNL     1      -6.122  -5.798  -7.937  1.00  0.00     0.326 C 
ATOM     66  O   UNL     1      -6.547  -5.242  -6.935  1.00  0.00    -0.250 OA
BRANCH  65  67
ATOM     67  O   UNL     1      -6.113  -5.140  -9.117  1.00  0.00    -0.480 OA
ATOM     68  H   UNL     1      -6.947  -4.624  -9.100  1.00  0.00     0.296 HD
ENDBRANCH  65  67
ENDBRANCH  49  65
ENDBRANCH  47  49
ENDBRANCH  43  45
ENDBRANCH   1  43
BRANCH   1  69
ATOM     69  C   UNL     1      -1.733  -7.347  -5.060  1.00  0.00    -0.001 C 
ATOM     70  C   UNL     1      -0.663  -7.058  -4.298  1.00  0.00     0.001 C 
BRANCH  70  71
ATOM     71  C   UNL     1       0.735  -7.004  -4.731  1.00  0.00    -0.055 C 
ATOM     72  C   UNL     1       1.687  -7.274  -3.812  1.00  0.00    -0.018 C 
ATOM     73  C   UNL     1       1.012  -6.658  -6.170  1.00  0.00     0.044 C 
BRANCH  72  74
ATOM     74  C   UNL     1       3.200  -7.296  -3.972  1.00  0.00     0.038 C 
ATOM     75  C   UNL     1       3.722  -8.497  -3.174  1.00  0.00     0.015 C 
BRANCH  74  76
ATOM     76  C   UNL     1       3.771  -5.917  -3.525  1.00  0.00     0.128 C 
BRANCH  76  77
ATOM     77  O   UNL     1       4.291  -6.011  -2.188  1.00  0.00    -0.381 OA
ATOM     78  C   UNL     1       5.617  -5.517  -2.056  1.00  0.00     0.195 C 
ENDBRANCH  76  77
BRANCH  76  79
ATOM     79  C   UNL     1       4.786  -5.304  -4.522  1.00  0.00     0.068 C 
BRANCH  79  80
ATOM     80  C   UNL     1       4.369  -5.175  -5.967  1.00  0.00    -0.045 A 
ATOM     81  C   UNL     1       3.676  -4.045  -6.421  1.00  0.00     0.004 A 
ATOM     82  C   UNL     1       4.647  -6.206  -6.878  1.00  0.00     0.004 A 
ATOM     83  C   UNL     1       3.281  -3.940  -7.756  1.00  0.00     0.000 A 
ATOM     84  C   UNL     1       4.251  -6.100  -8.213  1.00  0.00     0.000 A 
ATOM     85  C   UNL     1       3.570  -4.967  -8.652  1.00  0.00     0.000 A 
ENDBRANCH  79  80
ENDBRANCH  76  79
ENDBRANCH  74  76
ENDBRANCH  72  74
ENDBRANCH  70  71
ENDBRANCH   1  69
TORSDOF 17
ENDMDL
MODEL 31
REMARK VINA RESULT:    -6.773      4.239     12.752
REMARK INTER + INTRA:         -27.177
REMARK INTER:                 -21.779
REMARK INTRA:                  -5.399
REMARK UNBOUND:                -6.942
REMARK SMILES C=C1C(=O)N[C@H](C)C(=O)N[C@@H](CC(C)C)C(=O)N[C@@H](C(=O)O)[C@H](C)C(=O)N[C@@H](CCCN=C(N)N)C(=O)N[C@@H](/C=C/C(C)=C/[C@H](C)[C@H](Cc2ccccc2)OC)[C@H](C)C(=O)N[C@@H](C(=O)O)CCC(=O)N1C
REMARK SMILES IDX 39 1 38 2 37 3 36 4 28 6 27 7 25 8 26 9 23 11 24 12 19 13
REMARK SMILES IDX 18 14 16 15 17 16 11 18 10 19 8 20 9 21 12 24 13 25 14 26
REMARK SMILES IDX 15 27 20 28 21 29 22 30 29 32 30 33 31 34 32 35 33 36 34 37
REMARK SMILES IDX 35 38 57 43 58 44 59 45 60 46 61 47 62 49 66 50 67 51 68 52
REMARK SMILES IDX 69 53 70 54 71 55 2 56 1 57 3 58 4 59 5 60 6 62 7 63 63 65
REMARK SMILES IDX 64 66 65 67 40 69 41 70 42 71 44 72 43 73 45 74 46 75 47 76
REMARK SMILES IDX 55 77 56 78 48 79 49 80 50 81 54 82 51 83 53 84 52 85
REMARK H PARENT 38 5 27 10 18 17 10 22 22 31 34 39 34 40 35 41 35 42 61 48
REMARK H PARENT 5 61 65 68
REMARK Flexibility Score:  369.900
ROOT
ATOM      1  C   UNL     1      -2.878  -7.153  -5.197  1.00  0.00     0.117 C 
ENDROOT
BRANCH   1   2
ATOM      2  N   UNL     1      -2.905  -6.731  -3.796  1.00  0.00    -0.347 N 
ATOM      3  O   UNL     1      -4.785  -5.418  -3.901  1.00  0.00    -0.273 OA
ATOM      4  C   UNL     1      -3.912  -5.968  -3.237  1.00  0.00     0.243 C 
ATOM      5  H   UNL     1      -2.179  -7.047  -3.171  1.00  0.00     0.164 HD
BRANCH   4   6
ATOM      6  C   UNL     1      -3.745  -5.735  -1.715  1.00  0.00     0.171 C 
BRANCH   6   7
ATOM      7  N   UNL     1      -4.902  -6.272  -0.981  1.00  0.00    -0.344 N 
ATOM      8  C   UNL     1      -5.220  -7.611  -1.055  1.00  0.00     0.226 C 
ATOM      9  O   UNL     1      -4.584  -8.404  -1.738  1.00  0.00    -0.275 OA
ATOM     10  H   UNL     1      -5.492  -5.636  -0.460  1.00  0.00     0.164 HD
BRANCH   8  11
ATOM     11  C   UNL     1      -6.407  -8.020  -0.200  1.00  0.00     0.109 C 
ATOM     12  C   UNL     1      -6.849  -9.439  -0.558  1.00  0.00     0.021 C 
BRANCH  11  13
ATOM     13  C   UNL     1      -6.076  -7.800   1.290  1.00  0.00     0.204 C 
BRANCH  13  14
ATOM     14  N   UNL     1      -7.091  -8.384   2.172  1.00  0.00    -0.340 N 
ATOM     15  C   UNL     1      -7.529  -7.764   3.323  1.00  0.00     0.243 C 
ATOM     16  O   UNL     1      -7.142  -6.646   3.659  1.00  0.00    -0.273 OA
ATOM     17  H   UNL     1      -7.339  -9.368   2.035  1.00  0.00     0.164 HD
BRANCH  15  18
ATOM     18  C   UNL     1      -8.443  -8.657   4.197  1.00  0.00     0.171 C 
BRANCH  18  19
ATOM     19  N   UNL     1      -8.969  -7.803   5.260  1.00  0.00    -0.343 N 
ATOM     20  C   UNL     1      -8.402  -7.773   6.519  1.00  0.00     0.242 CG0
ATOM     21  O   UNL     1      -7.515  -8.559   6.844  1.00  0.00    -0.273 OA
ATOM     22  H   UNL     1      -9.777  -7.219   5.075  1.00  0.00     0.164 HD
ATOM     23  G   UNL     1      -9.044  -6.754   7.483  1.00  0.00     0.000 G0
ENDBRANCH  18  19
BRANCH  18  24
ATOM     24  C   UNL     1      -9.571  -9.266   3.355  1.00  0.00     0.038 C 
BRANCH  24  25
ATOM     25  C   UNL     1      -9.926 -10.725   3.713  1.00  0.00    -0.015 C 
ATOM     26  C   UNL     1      -8.913 -11.357   4.668  1.00  0.00     0.007 C 
ATOM     27  C   UNL     1     -10.019 -11.560   2.433  1.00  0.00     0.007 C 
ENDBRANCH  24  25
ENDBRANCH  18  24
ENDBRANCH  15  18
ENDBRANCH  13  14
BRANCH  13  28
ATOM     28  C   UNL     1      -4.724  -8.390   1.702  1.00  0.00     0.327 C 
ATOM     29  O   UNL     1      -3.639  -7.834   1.625  1.00  0.00    -0.250 OA
BRANCH  28  30
ATOM     30  O   UNL     1      -4.802  -9.685   2.072  1.00  0.00    -0.480 OA
ATOM     31  H   UNL     1      -5.654  -9.991   1.697  1.00  0.00     0.296 HD
ENDBRANCH  28  30
ENDBRANCH  13  28
ENDBRANCH  11  13
ENDBRANCH   8  11
ENDBRANCH   6   7
BRANCH   6  32
ATOM     32  C   UNL     1      -2.444  -6.394  -1.244  1.00  0.00     0.037 C 
BRANCH  32  33
ATOM     33  C   UNL     1      -1.343  -5.364  -0.955  1.00  0.00     0.026 C 
BRANCH  33  34
ATOM     34  C   UNL     1      -1.857  -4.168  -0.153  1.00  0.00     0.146 C 
BRANCH  34  35
ATOM     35  N   UNL     1      -1.564  -4.387   1.257  1.00  0.00    -0.254 NA
ATOM     36  C   UNL     1      -2.532  -4.656   2.051  1.00  0.00     0.185 C 
ATOM     37  N   UNL     1      -2.273  -4.865   3.351  1.00  0.00    -0.370 N 
ATOM     38  N   UNL     1      -3.844  -4.770   1.776  1.00  0.00    -0.370 N 
ATOM     39  H   UNL     1      -1.303  -4.806   3.636  1.00  0.00     0.159 HD
ATOM     40  H   UNL     1      -2.941  -5.247   3.997  1.00  0.00     0.159 HD
ATOM     41  H   UNL     1      -4.525  -4.848   2.513  1.00  0.00     0.159 HD
ATOM     42  H   UNL     1      -4.186  -4.623   0.839  1.00  0.00     0.159 HD
ENDBRANCH  34  35
ENDBRANCH  33  34
ENDBRANCH  32  33
ENDBRANCH   6  32
ENDBRANCH   4   6
ENDBRANCH   1   2
BRANCH   1  43
ATOM     43  C   UNL     1      -3.869  -8.339  -5.377  1.00  0.00     0.102 C 
ATOM     44  C   UNL     1      -3.172  -9.703  -5.521  1.00  0.00     0.020 C 
BRANCH  43  45
ATOM     45  C   UNL     1      -4.888  -8.042  -6.481  1.00  0.00     0.225 C 
ATOM     46  O   UNL     1      -5.482  -8.921  -7.099  1.00  0.00    -0.275 OA
ATOM     47  N   UNL     1      -5.034  -6.715  -6.812  1.00  0.00    -0.342 N 
ATOM     48  H   UNL     1      -4.659  -6.003  -6.200  1.00  0.00     0.164 HD
BRANCH  47  49
ATOM     49  C   UNL     1      -5.999  -6.279  -7.826  1.00  0.00     0.192 C 
BRANCH  49  50
ATOM     50  C   UNL     1      -5.258  -5.895  -9.109  1.00  0.00     0.047 C 
BRANCH  50  51
ATOM     51  C   UNL     1      -5.488  -6.908 -10.239  1.00  0.00     0.103 C 
BRANCH  51  52
ATOM     52  C   UNL     1      -6.825  -6.689 -10.943  1.00  0.00     0.226 C 
ATOM     53  O   UNL     1      -7.131  -5.561 -11.334  1.00  0.00    -0.275 OA
BRANCH  52  54
ATOM     54  N   UNL     1      -7.608  -7.835 -11.172  1.00  0.00    -0.311 N 
ATOM     55  C   UNL     1      -6.991  -9.103 -11.584  1.00  0.00     0.153 C 
BRANCH  54  56
ATOM     56  C   UNL     1      -9.004  -7.813 -11.011  1.00  0.00     0.102 C 
ATOM     57  C   UNL     1      -9.709  -6.763 -10.560  1.00  0.00     0.043 C 
BRANCH  56  58
ATOM     58  C   UNL     1      -9.847  -9.007 -11.392  1.00  0.00     0.268 C 
ATOM     59  O   UNL     1     -10.147  -9.894 -10.604  1.00  0.00    -0.268 OA
ATOM     60  N   UNL     1     -10.295  -8.960 -12.691  1.00  0.00    -0.339 N 
ATOM     61  H   UNL     1      -9.992  -8.195 -13.283  1.00  0.00     0.164 HD
BRANCH  60  62
ATOM     62  C   UNL     1     -11.178  -9.983 -13.248  1.00  0.00     0.168 CG0
ATOM     63  C   UNL     1     -10.890 -10.207 -14.728  1.00  0.00     0.041 C 
ATOM     64  G   UNL     1     -12.648  -9.570 -13.035  1.00  0.00     0.000 G0
ENDBRANCH  60  62
ENDBRANCH  56  58
ENDBRANCH  54  56
ENDBRANCH  52  54
ENDBRANCH  51  52
ENDBRANCH  50  51
ENDBRANCH  49  50
BRANCH  49  65
ATOM     65  C   UNL     1      -6.829  -5.081  -7.340  1.00  0.00     0.326 C 
ATOM     66  O   UNL     1      -7.889  -4.709  -7.822  1.00  0.00    -0.250 OA
BRANCH  65  67
ATOM     67  O   UNL     1      -6.270  -4.380  -6.329  1.00  0.00    -0.480 OA
ATOM     68  H   UNL     1      -5.768  -3.673  -6.787  1.00  0.00     0.296 HD
ENDBRANCH  65  67
ENDBRANCH  49  65
ENDBRANCH  47  49
ENDBRANCH  43  45
ENDBRANCH   1  43
BRANCH   1  69
ATOM     69  C   UNL     1      -1.417  -7.359  -5.550  1.00  0.00    -0.001 C 
ATOM     70  C   UNL     1      -0.346  -7.098  -4.780  1.00  0.00     0.001 C 
BRANCH  70  71
ATOM     71  C   UNL     1       1.060  -7.321  -5.123  1.00  0.00    -0.055 C 
ATOM     72  C   UNL     1       1.984  -7.094  -4.166  1.00  0.00    -0.018 C 
ATOM     73  C   UNL     1       1.376  -7.796  -6.518  1.00  0.00     0.044 C 
BRANCH  72  74
ATOM     74  C   UNL     1       3.497  -7.242  -4.233  1.00  0.00     0.038 C 
ATOM     75  C   UNL     1       3.861  -8.521  -3.470  1.00  0.00     0.015 C 
BRANCH  74  76
ATOM     76  C   UNL     1       4.152  -5.942  -3.679  1.00  0.00     0.128 C 
BRANCH  76  77
ATOM     77  O   UNL     1       5.522  -6.197  -3.322  1.00  0.00    -0.381 OA
ATOM     78  C   UNL     1       5.930  -5.546  -2.126  1.00  0.00     0.195 C 
ENDBRANCH  76  77
BRANCH  76  79
ATOM     79  C   UNL     1       3.994  -4.712  -4.608  1.00  0.00     0.068 C 
BRANCH  79  80
ATOM     80  C   UNL     1       3.162  -3.554  -4.111  1.00  0.00    -0.045 A 
ATOM     81  C   UNL     1       3.763  -2.441  -3.509  1.00  0.00     0.004 A 
ATOM     82  C   UNL     1       1.764  -3.589  -4.221  1.00  0.00     0.004 A 
ATOM     83  C   UNL     1       2.986  -1.380  -3.039  1.00  0.00     0.000 A 
ATOM     84  C   UNL     1       0.988  -2.527  -3.751  1.00  0.00     0.000 A 
ATOM     85  C   UNL     1       1.599  -1.423  -3.162  1.00  0.00     0.000 A 
ENDBRANCH  79  80
ENDBRANCH  76  79
ENDBRANCH  74  76
ENDBRANCH  72  74
ENDBRANCH  70  71
ENDBRANCH   1  69
TORSDOF 17
ENDMDL
MODEL 32
REMARK VINA RESULT:    -6.772      3.265     12.081
REMARK INTER + INTRA:         -27.175
REMARK INTER:                 -21.442
REMARK INTRA:                  -5.733
REMARK UNBOUND:                -6.942
REMARK SMILES C=C1C(=O)N[C@H](C)C(=O)N[C@@H](CC(C)C)C(=O)N[C@@H](C(=O)O)[C@H](C)C(=O)N[C@@H](CCCN=C(N)N)C(=O)N[C@@H](/C=C/C(C)=C/[C@H](C)[C@H](Cc2ccccc2)OC)[C@H](C)C(=O)N[C@@H](C(=O)O)CCC(=O)N1C
REMARK SMILES IDX 39 1 38 2 37 3 36 4 28 6 27 7 25 8 26 9 23 11 24 12 19 13
REMARK SMILES IDX 18 14 16 15 17 16 11 18 10 19 8 20 9 21 12 24 13 25 14 26
REMARK SMILES IDX 15 27 20 28 21 29 22 30 29 32 30 33 31 34 32 35 33 36 34 37
REMARK SMILES IDX 35 38 57 43 58 44 59 45 60 46 61 47 62 49 66 50 67 51 68 52
REMARK SMILES IDX 69 53 70 54 71 55 2 56 1 57 3 58 4 59 5 60 6 62 7 63 63 65
REMARK SMILES IDX 64 66 65 67 40 69 41 70 42 71 44 72 43 73 45 74 46 75 47 76
REMARK SMILES IDX 55 77 56 78 48 79 49 80 50 81 54 82 51 83 53 84 52 85
REMARK H PARENT 38 5 27 10 18 17 10 22 22 31 34 39 34 40 35 41 35 42 61 48
REMARK H PARENT 5 61 65 68
REMARK Flexibility Score:  369.900
ROOT
ATOM      1  C   UNL     1       1.438  -7.953  -5.085  1.00  0.00     0.117 C 
ENDROOT
BRANCH   1   2
ATOM      2  N   UNL     1       1.407  -6.493  -5.170  1.00  0.00    -0.347 N 
ATOM      3  O   UNL     1       2.267  -6.040  -3.091  1.00  0.00    -0.273 OA
ATOM      4  C   UNL     1       1.911  -5.651  -4.198  1.00  0.00     0.243 C 
ATOM      5  H   UNL     1       1.044  -6.053  -6.003  1.00  0.00     0.164 HD
BRANCH   4   6
ATOM      6  C   UNL     1       1.833  -4.149  -4.572  1.00  0.00     0.171 C 
BRANCH   6   7
ATOM      7  N   UNL     1       1.128  -3.394  -3.524  1.00  0.00    -0.344 N 
ATOM      8  C   UNL     1      -0.197  -3.651  -3.243  1.00  0.00     0.226 C 
ATOM      9  O   UNL     1      -0.850  -4.489  -3.853  1.00  0.00    -0.275 OA
ATOM     10  H   UNL     1       1.615  -2.648  -3.045  1.00  0.00     0.164 HD
BRANCH   8  11
ATOM     11  C   UNL     1      -0.765  -2.828  -2.100  1.00  0.00     0.109 C 
ATOM     12  C   UNL     1      -0.203  -1.407  -2.145  1.00  0.00     0.021 C 
BRANCH  11  13
ATOM     13  C   UNL     1      -2.304  -2.918  -2.108  1.00  0.00     0.204 C 
BRANCH  13  14
ATOM     14  N   UNL     1      -2.791  -4.108  -1.403  1.00  0.00    -0.340 N 
ATOM     15  C   UNL     1      -2.131  -4.664  -0.329  1.00  0.00     0.243 C 
ATOM     16  O   UNL     1      -1.116  -4.164   0.153  1.00  0.00    -0.273 OA
ATOM     17  H   UNL     1      -3.536  -4.655  -1.843  1.00  0.00     0.164 HD
BRANCH  15  18
ATOM     18  C   UNL     1      -2.714  -6.027   0.117  1.00  0.00     0.171 C 
BRANCH  18  19
ATOM     19  N   UNL     1      -3.652  -5.746   1.202  1.00  0.00    -0.343 N 
ATOM     20  C   UNL     1      -3.337  -6.002   2.523  1.00  0.00     0.242 CG0
ATOM     21  O   UNL     1      -2.310  -6.600   2.835  1.00  0.00    -0.273 OA
ATOM     22  H   UNL     1      -4.563  -5.358   0.984  1.00  0.00     0.164 HD
ATOM     23  G   UNL     1      -4.420  -5.567   3.532  1.00  0.00     0.000 G0
ENDBRANCH  18  19
BRANCH  18  24
ATOM     24  C   UNL     1      -3.407  -6.730  -1.057  1.00  0.00     0.038 C 
BRANCH  24  25
ATOM     25  C   UNL     1      -2.596  -7.883  -1.687  1.00  0.00    -0.015 C 
ATOM     26  C   UNL     1      -2.651  -9.162  -0.852  1.00  0.00     0.007 C 
ATOM     27  C   UNL     1      -1.139  -7.448  -1.868  1.00  0.00     0.007 C 
ENDBRANCH  24  25
ENDBRANCH  18  24
ENDBRANCH  15  18
ENDBRANCH  13  14
BRANCH  13  28
ATOM     28  C   UNL     1      -2.983  -1.703  -1.469  1.00  0.00     0.327 C 
ATOM     29  O   UNL     1      -2.942  -1.390  -0.288  1.00  0.00    -0.250 OA
BRANCH  28  30
ATOM     30  O   UNL     1      -3.768  -1.023  -2.328  1.00  0.00    -0.480 OA
ATOM     31  H   UNL     1      -3.930  -1.655  -3.059  1.00  0.00     0.296 HD
ENDBRANCH  28  30
ENDBRANCH  13  28
ENDBRANCH  11  13
ENDBRANCH   8  11
ENDBRANCH   6   7
BRANCH   6  32
ATOM     32  C   UNL     1       3.251  -3.606  -4.777  1.00  0.00     0.037 C 
BRANCH  32  33
ATOM     33  C   UNL     1       3.614  -2.529  -3.745  1.00  0.00     0.026 C 
BRANCH  33  34
ATOM     34  C   UNL     1       4.927  -1.819  -4.078  1.00  0.00     0.146 C 
BRANCH  34  35
ATOM     35  N   UNL     1       4.636  -0.655  -4.902  1.00  0.00    -0.254 NA
ATOM     36  C   UNL     1       5.130  -0.599  -6.083  1.00  0.00     0.185 C 
ATOM     37  N   UNL     1       4.863   0.468  -6.853  1.00  0.00    -0.370 N 
ATOM     38  N   UNL     1       5.917  -1.489  -6.712  1.00  0.00    -0.370 N 
ATOM     39  H   UNL     1       4.266   1.180  -6.452  1.00  0.00     0.159 HD
ATOM     40  H   UNL     1       5.064   0.507  -7.838  1.00  0.00     0.159 HD
ATOM     41  H   UNL     1       6.356  -1.266  -7.591  1.00  0.00     0.159 HD
ATOM     42  H   UNL     1       6.211  -2.333  -6.246  1.00  0.00     0.159 HD
ENDBRANCH  34  35
ENDBRANCH  33  34
ENDBRANCH  32  33
ENDBRANCH   6  32
ENDBRANCH   4   6
ENDBRANCH   1   2
BRANCH   1  43
ATOM     43  C   UNL     1       2.487  -8.486  -6.103  1.00  0.00     0.102 C 
ATOM     44  C   UNL     1       3.589  -7.466  -6.437  1.00  0.00     0.020 C 
BRANCH  43  45
ATOM     45  C   UNL     1       1.803  -9.087  -7.335  1.00  0.00     0.225 C 
ATOM     46  O   UNL     1       1.642 -10.294  -7.491  1.00  0.00    -0.275 OA
ATOM     47  N   UNL     1       1.456  -8.188  -8.317  1.00  0.00    -0.342 N 
ATOM     48  H   UNL     1       1.454  -7.199  -8.112  1.00  0.00     0.164 HD
BRANCH  47  49
ATOM     49  C   UNL     1       0.762  -8.615  -9.536  1.00  0.00     0.192 C 
BRANCH  49  50
ATOM     50  C   UNL     1       1.632  -8.309 -10.757  1.00  0.00     0.047 C 
BRANCH  50  51
ATOM     51  C   UNL     1       3.109  -8.652 -10.520  1.00  0.00     0.103 C 
BRANCH  51  52
ATOM     52  C   UNL     1       3.984  -7.402 -10.450  1.00  0.00     0.226 C 
ATOM     53  O   UNL     1       3.597  -6.421  -9.813  1.00  0.00    -0.275 OA
BRANCH  52  54
ATOM     54  N   UNL     1       5.243  -7.483 -11.074  1.00  0.00    -0.311 N 
ATOM     55  C   UNL     1       6.403  -8.041 -10.366  1.00  0.00     0.153 C 
BRANCH  54  56
ATOM     56  C   UNL     1       5.437  -7.041 -12.393  1.00  0.00     0.102 C 
ATOM     57  C   UNL     1       6.052  -5.897 -12.737  1.00  0.00     0.043 C 
BRANCH  56  58
ATOM     58  C   UNL     1       4.987  -7.879 -13.566  1.00  0.00     0.268 C 
ATOM     59  O   UNL     1       5.654  -8.794 -14.030  1.00  0.00    -0.268 OA
ATOM     60  N   UNL     1       3.728  -7.554 -14.011  1.00  0.00    -0.339 N 
ATOM     61  H   UNL     1       3.245  -6.775 -13.579  1.00  0.00     0.164 HD
BRANCH  60  62
ATOM     62  C   UNL     1       3.074  -8.282 -15.097  1.00  0.00     0.168 CG0
ATOM     63  C   UNL     1       1.915  -9.121 -14.573  1.00  0.00     0.041 C 
ATOM     64  G   UNL     1       4.107  -9.170 -15.821  1.00  0.00     0.000 G0
ENDBRANCH  60  62
ENDBRANCH  56  58
ENDBRANCH  54  56
ENDBRANCH  52  54
ENDBRANCH  51  52
ENDBRANCH  50  51
ENDBRANCH  49  50
BRANCH  49  65
ATOM     65  C   UNL     1      -0.596  -7.912  -9.690  1.00  0.00     0.326 C 
ATOM     66  O   UNL     1      -1.688  -8.420  -9.475  1.00  0.00    -0.250 OA
BRANCH  65  67
ATOM     67  O   UNL     1      -0.527  -6.647 -10.159  1.00  0.00    -0.480 OA
ATOM     68  H   UNL     1      -1.226  -6.175  -9.657  1.00  0.00     0.296 HD
ENDBRANCH  65  67
ENDBRANCH  49  65
ENDBRANCH  47  49
ENDBRANCH  43  45
ENDBRANCH   1  43
BRANCH   1  69
ATOM     69  C   UNL     1      -0.003  -8.416  -5.207  1.00  0.00    -0.001 C 
ATOM     70  C   UNL     1      -1.076  -7.670  -5.525  1.00  0.00     0.001 C 
BRANCH  70  71
ATOM     71  C   UNL     1      -2.459  -8.132  -5.660  1.00  0.00    -0.055 C 
ATOM     72  C   UNL     1      -3.280  -7.427  -6.466  1.00  0.00    -0.018 C 
ATOM     73  C   UNL     1      -2.865  -9.367  -4.898  1.00  0.00     0.044 C 
BRANCH  72  74
ATOM     74  C   UNL     1      -4.746  -7.669  -6.797  1.00  0.00     0.038 C 
ATOM     75  C   UNL     1      -4.792  -8.734  -7.899  1.00  0.00     0.015 C 
BRANCH  74  76
ATOM     76  C   UNL     1      -5.405  -6.309  -7.174  1.00  0.00     0.128 C 
BRANCH  76  77
ATOM     77  O   UNL     1      -4.992  -5.290  -6.249  1.00  0.00    -0.381 OA
ATOM     78  C   UNL     1      -6.063  -4.494  -5.760  1.00  0.00     0.195 C 
ENDBRANCH  76  77
BRANCH  76  79
ATOM     79  C   UNL     1      -5.196  -5.897  -8.653  1.00  0.00     0.068 C 
BRANCH  79  80
ATOM     80  C   UNL     1      -6.416  -5.777  -9.533  1.00  0.00    -0.045 A 
ATOM     81  C   UNL     1      -7.285  -4.684  -9.417  1.00  0.00     0.004 A 
ATOM     82  C   UNL     1      -6.715  -6.780 -10.468  1.00  0.00     0.004 A 
ATOM     83  C   UNL     1      -8.420  -4.588 -10.226  1.00  0.00     0.000 A 
ATOM     84  C   UNL     1      -7.851  -6.683 -11.275  1.00  0.00     0.000 A 
ATOM     85  C   UNL     1      -8.702  -5.586 -11.155  1.00  0.00     0.000 A 
ENDBRANCH  79  80
ENDBRANCH  76  79
ENDBRANCH  74  76
ENDBRANCH  72  74
ENDBRANCH  70  71
ENDBRANCH   1  69
TORSDOF 17
ENDMDL
MODEL 33
REMARK VINA RESULT:    -6.668      3.386     12.783
REMARK INTER + INTRA:         -26.864
REMARK INTER:                 -19.607
REMARK INTRA:                  -7.257
REMARK UNBOUND:                -6.942
REMARK SMILES C=C1C(=O)N[C@H](C)C(=O)N[C@@H](CC(C)C)C(=O)N[C@@H](C(=O)O)[C@H](C)C(=O)N[C@@H](CCCN=C(N)N)C(=O)N[C@@H](/C=C/C(C)=C/[C@H](C)[C@H](Cc2ccccc2)OC)[C@H](C)C(=O)N[C@@H](C(=O)O)CCC(=O)N1C
REMARK SMILES IDX 39 1 38 2 37 3 36 4 28 6 27 7 25 8 26 9 23 11 24 12 19 13
REMARK SMILES IDX 18 14 16 15 17 16 11 18 10 19 8 20 9 21 12 24 13 25 14 26
REMARK SMILES IDX 15 27 20 28 21 29 22 30 29 32 30 33 31 34 32 35 33 36 34 37
REMARK SMILES IDX 35 38 57 43 58 44 59 45 60 46 61 47 62 49 66 50 67 51 68 52
REMARK SMILES IDX 69 53 70 54 71 55 2 56 1 57 3 58 4 59 5 60 6 62 7 63 63 65
REMARK SMILES IDX 64 66 65 67 40 69 41 70 42 71 44 72 43 73 45 74 46 75 47 76
REMARK SMILES IDX 55 77 56 78 48 79 49 80 50 81 54 82 51 83 53 84 52 85
REMARK H PARENT 38 5 27 10 18 17 10 22 22 31 34 39 34 40 35 41 35 42 61 48
REMARK H PARENT 5 61 65 68
REMARK Flexibility Score:  369.900
ROOT
ATOM      1  C   UNL     1      -2.208  -6.877  -3.560  1.00  0.00     0.117 C 
ENDROOT
BRANCH   1   2
ATOM      2  N   UNL     1      -2.436  -7.667  -2.350  1.00  0.00    -0.347 N 
ATOM      3  O   UNL     1      -3.901  -6.235  -1.313  1.00  0.00    -0.273 OA
ATOM      4  C   UNL     1      -3.339  -7.324  -1.361  1.00  0.00     0.243 C 
ATOM      5  H   UNL     1      -1.952  -8.544  -2.233  1.00  0.00     0.164 HD
BRANCH   4   6
ATOM      6  C   UNL     1      -3.451  -8.376  -0.228  1.00  0.00     0.171 C 
BRANCH   6   7
ATOM      7  N   UNL     1      -4.574  -8.050   0.666  1.00  0.00    -0.344 N 
ATOM      8  C   UNL     1      -4.433  -8.146   2.034  1.00  0.00     0.226 C 
ATOM      9  O   UNL     1      -3.396  -8.522   2.566  1.00  0.00    -0.275 OA
ATOM     10  H   UNL     1      -5.468  -7.801   0.261  1.00  0.00     0.164 HD
BRANCH   8  11
ATOM     11  C   UNL     1      -5.662  -7.724   2.820  1.00  0.00     0.109 C 
ATOM     12  C   UNL     1      -6.643  -6.988   1.907  1.00  0.00     0.021 C 
BRANCH  11  13
ATOM     13  C   UNL     1      -6.253  -8.942   3.558  1.00  0.00     0.204 C 
BRANCH  13  14
ATOM     14  N   UNL     1      -7.462  -8.597   4.312  1.00  0.00    -0.340 N 
ATOM     15  C   UNL     1      -7.830  -9.242   5.473  1.00  0.00     0.243 C 
ATOM     16  O   UNL     1      -7.136 -10.114   5.992  1.00  0.00    -0.273 OA
ATOM     17  H   UNL     1      -8.154  -7.993   3.860  1.00  0.00     0.164 HD
BRANCH  15  18
ATOM     18  C   UNL     1      -9.242  -8.853   5.976  1.00  0.00     0.171 C 
BRANCH  18  19
ATOM     19  N   UNL     1      -9.089  -7.615   6.737  1.00  0.00    -0.343 N 
ATOM     20  C   UNL     1      -9.008  -7.613   8.116  1.00  0.00     0.242 CG0
ATOM     21  O   UNL     1      -9.193  -8.634   8.773  1.00  0.00    -0.273 OA
ATOM     22  H   UNL     1      -9.047  -6.730   6.244  1.00  0.00     0.164 HD
ATOM     23  G   UNL     1      -8.769  -6.221   8.737  1.00  0.00     0.000 G0
ENDBRANCH  18  19
BRANCH  18  24
ATOM     24  C   UNL     1     -10.206  -8.673   4.797  1.00  0.00     0.038 C 
BRANCH  24  25
ATOM     25  C   UNL     1     -11.696  -8.869   5.147  1.00  0.00    -0.015 C 
ATOM     26  C   UNL     1     -11.897  -9.774   6.363  1.00  0.00     0.007 C 
ATOM     27  C   UNL     1     -12.435  -9.455   3.941  1.00  0.00     0.007 C 
ENDBRANCH  24  25
ENDBRANCH  18  24
ENDBRANCH  15  18
ENDBRANCH  13  14
BRANCH  13  28
ATOM     28  C   UNL     1      -6.616 -10.098   2.621  1.00  0.00     0.327 C 
ATOM     29  O   UNL     1      -7.586 -10.150   1.880  1.00  0.00    -0.250 OA
BRANCH  28  30
ATOM     30  O   UNL     1      -5.805 -11.166   2.760  1.00  0.00    -0.480 OA
ATOM     31  H   UNL     1      -6.417 -11.913   2.928  1.00  0.00     0.296 HD
ENDBRANCH  28  30
ENDBRANCH  13  28
ENDBRANCH  11  13
ENDBRANCH   8  11
ENDBRANCH   6   7
BRANCH   6  32
ATOM     32  C   UNL     1      -3.631  -9.766  -0.848  1.00  0.00     0.037 C 
BRANCH  32  33
ATOM     33  C   UNL     1      -5.061 -10.297  -0.675  1.00  0.00     0.026 C 
BRANCH  33  34
ATOM     34  C   UNL     1      -5.993  -9.846  -1.801  1.00  0.00     0.146 C 
BRANCH  34  35
ATOM     35  N   UNL     1      -6.908  -8.840  -1.280  1.00  0.00    -0.254 NA
ATOM     36  C   UNL     1      -7.766  -8.319  -2.075  1.00  0.00     0.185 C 
ATOM     37  N   UNL     1      -8.617  -7.395  -1.604  1.00  0.00    -0.370 N 
ATOM     38  N   UNL     1      -7.963  -8.564  -3.383  1.00  0.00    -0.370 N 
ATOM     39  H   UNL     1      -8.538  -7.163  -0.622  1.00  0.00     0.159 HD
ATOM     40  H   UNL     1      -9.423  -7.071  -2.111  1.00  0.00     0.159 HD
ATOM     41  H   UNL     1      -8.579  -7.987  -3.933  1.00  0.00     0.159 HD
ATOM     42  H   UNL     1      -7.383  -9.226  -3.874  1.00  0.00     0.159 HD
ENDBRANCH  34  35
ENDBRANCH  33  34
ENDBRANCH  32  33
ENDBRANCH   6  32
ENDBRANCH   4   6
ENDBRANCH   1   2
BRANCH   1  43
ATOM     43  C   UNL     1      -2.902  -7.591  -4.756  1.00  0.00     0.102 C 
ATOM     44  C   UNL     1      -2.254  -7.277  -6.115  1.00  0.00     0.020 C 
BRANCH  43  45
ATOM     45  C   UNL     1      -4.417  -7.370  -4.724  1.00  0.00     0.225 C 
ATOM     46  O   UNL     1      -5.228  -8.290  -4.655  1.00  0.00    -0.275 OA
ATOM     47  N   UNL     1      -4.829  -6.065  -4.872  1.00  0.00    -0.342 N 
ATOM     48  H   UNL     1      -4.160  -5.315  -4.774  1.00  0.00     0.164 HD
BRANCH  47  49
ATOM     49  C   UNL     1      -6.248  -5.700  -4.825  1.00  0.00     0.192 C 
BRANCH  49  50
ATOM     50  C   UNL     1      -6.574  -4.752  -5.982  1.00  0.00     0.047 C 
BRANCH  50  51
ATOM     51  C   UNL     1      -5.937  -5.205  -7.303  1.00  0.00     0.103 C 
BRANCH  51  52
ATOM     52  C   UNL     1      -6.986  -5.517  -8.368  1.00  0.00     0.226 C 
ATOM     53  O   UNL     1      -7.943  -4.755  -8.523  1.00  0.00    -0.275 OA
BRANCH  52  54
ATOM     54  N   UNL     1      -6.745  -6.645  -9.174  1.00  0.00    -0.311 N 
ATOM     55  C   UNL     1      -7.684  -7.029 -10.237  1.00  0.00     0.153 C 
BRANCH  54  56
ATOM     56  C   UNL     1      -5.600  -7.439  -8.998  1.00  0.00     0.102 C 
ATOM     57  C   UNL     1      -5.480  -8.425  -8.094  1.00  0.00     0.043 C 
BRANCH  56  58
ATOM     58  C   UNL     1      -4.389  -7.260  -9.883  1.00  0.00     0.268 C 
ATOM     59  O   UNL     1      -4.210  -6.270 -10.580  1.00  0.00    -0.268 OA
ATOM     60  N   UNL     1      -3.483  -8.288  -9.774  1.00  0.00    -0.339 N 
ATOM     61  H   UNL     1      -3.712  -9.078  -9.182  1.00  0.00     0.164 HD
BRANCH  60  62
ATOM     62  C   UNL     1      -2.212  -8.286 -10.496  1.00  0.00     0.168 CG0
ATOM     63  C   UNL     1      -1.035  -8.212  -9.531  1.00  0.00     0.041 C 
ATOM     64  G   UNL     1      -2.181  -7.102 -11.485  1.00  0.00     0.000 G0
ENDBRANCH  60  62
ENDBRANCH  56  58
ENDBRANCH  54  56
ENDBRANCH  52  54
ENDBRANCH  51  52
ENDBRANCH  50  51
ENDBRANCH  49  50
BRANCH  49  65
ATOM     65  C   UNL     1      -6.616  -5.025  -3.495  1.00  0.00     0.326 C 
ATOM     66  O   UNL     1      -7.749  -4.887  -3.057  1.00  0.00    -0.250 OA
BRANCH  65  67
ATOM     67  O   UNL     1      -5.568  -4.508  -2.816  1.00  0.00    -0.480 OA
ATOM     68  H   UNL     1      -5.670  -4.880  -1.913  1.00  0.00     0.296 HD
ENDBRANCH  65  67
ENDBRANCH  49  65
ENDBRANCH  47  49
ENDBRANCH  43  45
ENDBRANCH   1  43
BRANCH   1  69
ATOM     69  C   UNL     1      -0.713  -6.623  -3.625  1.00  0.00    -0.001 C 
ATOM     70  C   UNL     1      -0.092  -5.450  -3.836  1.00  0.00     0.001 C 
BRANCH  70  71
ATOM     71  C   UNL     1       1.353  -5.213  -3.875  1.00  0.00    -0.055 C 
ATOM     72  C   UNL     1       1.778  -3.934  -3.927  1.00  0.00    -0.018 C 
ATOM     73  C   UNL     1       2.262  -6.414  -3.846  1.00  0.00     0.044 C 
BRANCH  72  74
ATOM     74  C   UNL     1       3.200  -3.393  -3.973  1.00  0.00     0.038 C 
ATOM     75  C   UNL     1       3.232  -2.130  -3.103  1.00  0.00     0.015 C 
BRANCH  74  76
ATOM     76  C   UNL     1       3.604  -3.171  -5.460  1.00  0.00     0.128 C 
BRANCH  76  77
ATOM     77  O   UNL     1       4.201  -1.873  -5.619  1.00  0.00    -0.381 OA
ATOM     78  C   UNL     1       3.487  -1.019  -6.502  1.00  0.00     0.195 C 
ENDBRANCH  76  77
BRANCH  76  79
ATOM     79  C   UNL     1       4.475  -4.308  -6.052  1.00  0.00     0.068 C 
BRANCH  79  80
ATOM     80  C   UNL     1       3.828  -5.259  -7.030  1.00  0.00    -0.045 A 
ATOM     81  C   UNL     1       4.256  -6.589  -7.134  1.00  0.00     0.004 A 
ATOM     82  C   UNL     1       2.799  -4.813  -7.874  1.00  0.00     0.004 A 
ATOM     83  C   UNL     1       3.661  -7.458  -8.051  1.00  0.00     0.000 A 
ATOM     84  C   UNL     1       2.206  -5.684  -8.791  1.00  0.00     0.000 A 
ATOM     85  C   UNL     1       2.636  -7.006  -8.878  1.00  0.00     0.000 A 
ENDBRANCH  79  80
ENDBRANCH  76  79
ENDBRANCH  74  76
ENDBRANCH  72  74
ENDBRANCH  70  71
ENDBRANCH   1  69
TORSDOF 17
ENDMDL
MODEL 34
REMARK VINA RESULT:    -6.668      2.460      4.206
REMARK INTER + INTRA:         -26.862
REMARK INTER:                 -21.582
REMARK INTRA:                  -5.280
REMARK UNBOUND:                -6.942
REMARK SMILES C=C1C(=O)N[C@H](C)C(=O)N[C@@H](CC(C)C)C(=O)N[C@@H](C(=O)O)[C@H](C)C(=O)N[C@@H](CCCN=C(N)N)C(=O)N[C@@H](/C=C/C(C)=C/[C@H](C)[C@H](Cc2ccccc2)OC)[C@H](C)C(=O)N[C@@H](C(=O)O)CCC(=O)N1C
REMARK SMILES IDX 39 1 38 2 37 3 36 4 28 6 27 7 25 8 26 9 23 11 24 12 19 13
REMARK SMILES IDX 18 14 16 15 17 16 11 18 10 19 8 20 9 21 12 24 13 25 14 26
REMARK SMILES IDX 15 27 20 28 21 29 22 30 29 32 30 33 31 34 32 35 33 36 34 37
REMARK SMILES IDX 35 38 57 43 58 44 59 45 60 46 61 47 62 49 66 50 67 51 68 52
REMARK SMILES IDX 69 53 70 54 71 55 2 56 1 57 3 58 4 59 5 60 6 62 7 63 63 65
REMARK SMILES IDX 64 66 65 67 40 69 41 70 42 71 44 72 43 73 45 74 46 75 47 76
REMARK SMILES IDX 55 77 56 78 48 79 49 80 50 81 54 82 51 83 53 84 52 85
REMARK H PARENT 38 5 27 10 18 17 10 22 22 31 34 39 34 40 35 41 35 42 61 48
REMARK H PARENT 5 61 65 68
REMARK Flexibility Score:  369.900
ROOT
ATOM      1  C   UNL     1      -4.014  -8.281  -2.229  1.00  0.00     0.117 C 
ENDROOT
BRANCH   1   2
ATOM      2  N   UNL     1      -2.675  -7.729  -2.433  1.00  0.00    -0.347 N 
ATOM      3  O   UNL     1      -2.873  -5.907  -1.050  1.00  0.00    -0.273 OA
ATOM      4  C   UNL     1      -2.178  -6.633  -1.754  1.00  0.00     0.243 C 
ATOM      5  H   UNL     1      -2.041  -8.191  -3.068  1.00  0.00     0.164 HD
BRANCH   4   6
ATOM      6  C   UNL     1      -0.701  -6.306  -2.093  1.00  0.00     0.171 C 
BRANCH   6   7
ATOM      7  N   UNL     1      -0.427  -6.579  -3.513  1.00  0.00    -0.344 N 
ATOM      8  C   UNL     1       0.667  -7.330  -3.885  1.00  0.00     0.226 C 
ATOM      9  O   UNL     1       1.465  -7.783  -3.073  1.00  0.00    -0.275 OA
ATOM     10  H   UNL     1      -1.026  -6.166  -4.217  1.00  0.00     0.164 HD
BRANCH   8  11
ATOM     11  C   UNL     1       0.781  -7.569  -5.381  1.00  0.00     0.109 C 
ATOM     12  C   UNL     1      -0.556  -7.283  -6.063  1.00  0.00     0.021 C 
BRANCH  11  13
ATOM     13  C   UNL     1       1.979  -6.778  -5.945  1.00  0.00     0.204 C 
BRANCH  13  14
ATOM     14  N   UNL     1       2.613  -5.937  -4.925  1.00  0.00    -0.340 N 
ATOM     15  C   UNL     1       2.954  -4.620  -5.147  1.00  0.00     0.243 C 
ATOM     16  O   UNL     1       2.693  -4.039  -6.199  1.00  0.00    -0.273 OA
ATOM     17  H   UNL     1       2.991  -6.395  -4.092  1.00  0.00     0.164 HD
BRANCH  15  18
ATOM     18  C   UNL     1       3.796  -3.998  -4.007  1.00  0.00     0.171 C 
BRANCH  18  19
ATOM     19  N   UNL     1       5.048  -4.750  -3.953  1.00  0.00    -0.343 N 
ATOM     20  C   UNL     1       5.249  -5.766  -3.038  1.00  0.00     0.242 CG0
ATOM     21  O   UNL     1       4.438  -5.996  -2.143  1.00  0.00    -0.273 OA
ATOM     22  H   UNL     1       5.795  -4.520  -4.598  1.00  0.00     0.164 HD
ATOM     23  G   UNL     1       6.599  -6.497  -3.185  1.00  0.00     0.000 G0
ENDBRANCH  18  19
BRANCH  18  24
ATOM     24  C   UNL     1       4.047  -2.508  -4.269  1.00  0.00     0.038 C 
BRANCH  24  25
ATOM     25  C   UNL     1       2.806  -1.718  -4.738  1.00  0.00    -0.015 C 
ATOM     26  C   UNL     1       3.049  -0.969  -6.048  1.00  0.00     0.007 C 
ATOM     27  C   UNL     1       2.385  -0.728  -3.649  1.00  0.00     0.007 C 
ENDBRANCH  24  25
ENDBRANCH  18  24
ENDBRANCH  15  18
ENDBRANCH  13  14
BRANCH  13  28
ATOM     28  C   UNL     1       3.070  -7.675  -6.536  1.00  0.00     0.327 C 
ATOM     29  O   UNL     1       2.897  -8.633  -7.274  1.00  0.00    -0.250 OA
BRANCH  28  30
ATOM     30  O   UNL     1       4.302  -7.386  -6.071  1.00  0.00    -0.480 OA
ATOM     31  H   UNL     1       4.203  -6.503  -5.659  1.00  0.00     0.296 HD
ENDBRANCH  28  30
ENDBRANCH  13  28
ENDBRANCH  11  13
ENDBRANCH   8  11
ENDBRANCH   6   7
BRANCH   6  32
ATOM     32  C   UNL     1      -0.420  -4.839  -1.753  1.00  0.00     0.037 C 
BRANCH  32  33
ATOM     33  C   UNL     1      -0.205  -3.984  -3.010  1.00  0.00     0.026 C 
BRANCH  33  34
ATOM     34  C   UNL     1      -0.748  -2.563  -2.852  1.00  0.00     0.146 C 
BRANCH  34  35
ATOM     35  N   UNL     1      -1.884  -2.594  -1.941  1.00  0.00    -0.254 NA
ATOM     36  C   UNL     1      -1.909  -1.768  -0.962  1.00  0.00     0.185 C 
ATOM     37  N   UNL     1      -2.953  -1.783  -0.120  1.00  0.00    -0.370 N 
ATOM     38  N   UNL     1      -1.005  -0.832  -0.624  1.00  0.00    -0.370 N 
ATOM     39  H   UNL     1      -3.684  -2.456  -0.315  1.00  0.00     0.159 HD
ATOM     40  H   UNL     1      -3.131  -1.063   0.559  1.00  0.00     0.159 HD
ATOM     41  H   UNL     1      -1.070  -0.337   0.251  1.00  0.00     0.159 HD
ATOM     42  H   UNL     1      -0.159  -0.718  -1.161  1.00  0.00     0.159 HD
ENDBRANCH  34  35
ENDBRANCH  33  34
ENDBRANCH  32  33
ENDBRANCH   6  32
ENDBRANCH   4   6
ENDBRANCH   1   2
BRANCH   1  43
ATOM     43  C   UNL     1      -3.897  -9.546  -1.330  1.00  0.00     0.102 C 
ATOM     44  C   UNL     1      -4.511 -10.805  -1.964  1.00  0.00     0.020 C 
BRANCH  43  45
ATOM     45  C   UNL     1      -4.394  -9.259   0.090  1.00  0.00     0.225 C 
ATOM     46  O   UNL     1      -4.852 -10.127   0.828  1.00  0.00    -0.275 OA
ATOM     47  N   UNL     1      -4.384  -7.936   0.465  1.00  0.00    -0.342 N 
ATOM     48  H   UNL     1      -3.870  -7.263  -0.086  1.00  0.00     0.164 HD
BRANCH  47  49
ATOM     49  C   UNL     1      -4.798  -7.517   1.808  1.00  0.00     0.192 C 
BRANCH  49  50
ATOM     50  C   UNL     1      -6.257  -7.054   1.776  1.00  0.00     0.047 C 
BRANCH  50  51
ATOM     51  C   UNL     1      -7.206  -8.075   2.418  1.00  0.00     0.103 C 
BRANCH  51  52
ATOM     52  C   UNL     1      -7.380  -7.834   3.916  1.00  0.00     0.226 C 
ATOM     53  O   UNL     1      -7.104  -6.731   4.392  1.00  0.00    -0.275 OA
BRANCH  52  54
ATOM     54  N   UNL     1      -7.930  -8.892   4.662  1.00  0.00    -0.311 N 
ATOM     55  C   UNL     1      -7.140 -10.092   4.968  1.00  0.00     0.153 C 
BRANCH  54  56
ATOM     56  C   UNL     1      -9.248  -8.840   5.145  1.00  0.00     0.102 C 
ATOM     57  C   UNL     1     -10.344  -8.723   4.377  1.00  0.00     0.043 C 
BRANCH  56  58
ATOM     58  C   UNL     1      -9.538  -8.963   6.623  1.00  0.00     0.268 C 
ATOM     59  O   UNL     1      -9.925 -10.000   7.145  1.00  0.00    -0.268 OA
ATOM     60  N   UNL     1      -9.259  -7.815   7.325  1.00  0.00    -0.339 N 
ATOM     61  H   UNL     1      -8.951  -6.995   6.816  1.00  0.00     0.164 HD
BRANCH  60  62
ATOM     62  C   UNL     1      -9.408  -7.735   8.778  1.00  0.00     0.168 CG0
ATOM     63  C   UNL     1      -8.130  -8.174   9.483  1.00  0.00     0.041 C 
ATOM     64  G   UNL     1     -10.603  -8.603   9.223  1.00  0.00     0.000 G0
ENDBRANCH  60  62
ENDBRANCH  56  58
ENDBRANCH  54  56
ENDBRANCH  52  54
ENDBRANCH  51  52
ENDBRANCH  50  51
ENDBRANCH  49  50
BRANCH  49  65
ATOM     65  C   UNL     1      -3.915  -6.379   2.344  1.00  0.00     0.326 C 
ATOM     66  O   UNL     1      -3.101  -6.479   3.251  1.00  0.00    -0.250 OA
BRANCH  65  67
ATOM     67  O   UNL     1      -4.134  -5.176   1.769  1.00  0.00    -0.480 OA
ATOM     68  H   UNL     1      -4.748  -4.731   2.392  1.00  0.00     0.296 HD
ENDBRANCH  65  67
ENDBRANCH  49  65
ENDBRANCH  47  49
ENDBRANCH  43  45
ENDBRANCH   1  43
BRANCH   1  69
ATOM     69  C   UNL     1      -4.632  -8.416  -3.609  1.00  0.00    -0.001 C 
ATOM     70  C   UNL     1      -3.998  -8.382  -4.794  1.00  0.00     0.001 C 
BRANCH  70  71
ATOM     71  C   UNL     1      -4.603  -8.535  -6.119  1.00  0.00    -0.055 C 
ATOM     72  C   UNL     1      -4.138  -7.752  -7.115  1.00  0.00    -0.018 C 
ATOM     73  C   UNL     1      -5.694  -9.562  -6.279  1.00  0.00     0.044 C 
BRANCH  72  74
ATOM     74  C   UNL     1      -4.567  -7.693  -8.574  1.00  0.00     0.038 C 
ATOM     75  C   UNL     1      -3.335  -7.288  -9.392  1.00  0.00     0.015 C 
BRANCH  74  76
ATOM     76  C   UNL     1      -5.782  -6.728  -8.701  1.00  0.00     0.128 C 
BRANCH  76  77
ATOM     77  O   UNL     1      -5.546  -5.537  -7.930  1.00  0.00    -0.381 OA
ATOM     78  C   UNL     1      -6.595  -5.226  -7.024  1.00  0.00     0.195 C 
ENDBRANCH  76  77
BRANCH  76  79
ATOM     79  C   UNL     1      -6.194  -6.423 -10.163  1.00  0.00     0.068 C 
BRANCH  79  80
ATOM     80  C   UNL     1      -7.618  -6.711 -10.572  1.00  0.00    -0.045 A 
ATOM     81  C   UNL     1      -8.029  -8.013 -10.889  1.00  0.00     0.004 A 
ATOM     82  C   UNL     1      -8.552  -5.668 -10.667  1.00  0.00     0.004 A 
ATOM     83  C   UNL     1      -9.345  -8.270 -11.279  1.00  0.00     0.000 A 
ATOM     84  C   UNL     1      -9.868  -5.926 -11.059  1.00  0.00     0.000 A 
ATOM     85  C   UNL     1     -10.264  -7.226 -11.363  1.00  0.00     0.000 A 
ENDBRANCH  79  80
ENDBRANCH  76  79
ENDBRANCH  74  76
ENDBRANCH  72  74
ENDBRANCH  70  71
ENDBRANCH   1  69
TORSDOF 17
ENDMDL
MODEL 35
REMARK VINA RESULT:    -6.634      2.895     13.503
REMARK INTER + INTRA:         -26.760
REMARK INTER:                 -20.831
REMARK INTRA:                  -5.930
REMARK UNBOUND:                -6.942
REMARK SMILES C=C1C(=O)N[C@H](C)C(=O)N[C@@H](CC(C)C)C(=O)N[C@@H](C(=O)O)[C@H](C)C(=O)N[C@@H](CCCN=C(N)N)C(=O)N[C@@H](/C=C/C(C)=C/[C@H](C)[C@H](Cc2ccccc2)OC)[C@H](C)C(=O)N[C@@H](C(=O)O)CCC(=O)N1C
REMARK SMILES IDX 39 1 38 2 37 3 36 4 28 6 27 7 25 8 26 9 23 11 24 12 19 13
REMARK SMILES IDX 18 14 16 15 17 16 11 18 10 19 8 20 9 21 12 24 13 25 14 26
REMARK SMILES IDX 15 27 20 28 21 29 22 30 29 32 30 33 31 34 32 35 33 36 34 37
REMARK SMILES IDX 35 38 57 43 58 44 59 45 60 46 61 47 62 49 66 50 67 51 68 52
REMARK SMILES IDX 69 53 70 54 71 55 2 56 1 57 3 58 4 59 5 60 6 62 7 63 63 65
REMARK SMILES IDX 64 66 65 67 40 69 41 70 42 71 44 72 43 73 45 74 46 75 47 76
REMARK SMILES IDX 55 77 56 78 48 79 49 80 50 81 54 82 51 83 53 84 52 85
REMARK H PARENT 38 5 27 10 18 17 10 22 22 31 34 39 34 40 35 41 35 42 61 48
REMARK H PARENT 5 61 65 68
REMARK Flexibility Score:  369.900
ROOT
ATOM      1  C   UNL     1      -2.117  -6.815  -1.801  1.00  0.00     0.117 C 
ENDROOT
BRANCH   1   2
ATOM      2  N   UNL     1      -3.235  -7.705  -1.488  1.00  0.00    -0.347 N 
ATOM      3  O   UNL     1      -2.446  -8.509   0.512  1.00  0.00    -0.273 OA
ATOM      4  C   UNL     1      -3.353  -8.414  -0.308  1.00  0.00     0.243 C 
ATOM      5  H   UNL     1      -4.003  -7.782  -2.138  1.00  0.00     0.164 HD
BRANCH   4   6
ATOM      6  C   UNL     1      -4.675  -9.214  -0.190  1.00  0.00     0.171 C 
BRANCH   6   7
ATOM      7  N   UNL     1      -5.557  -8.605   0.818  1.00  0.00    -0.344 N 
ATOM      8  C   UNL     1      -5.575  -9.075   2.113  1.00  0.00     0.226 C 
ATOM      9  O   UNL     1      -4.889 -10.022   2.481  1.00  0.00    -0.275 OA
ATOM     10  H   UNL     1      -6.188  -7.865   0.535  1.00  0.00     0.164 HD
BRANCH   8  11
ATOM     11  C   UNL     1      -6.496  -8.308   3.045  1.00  0.00     0.109 C 
ATOM     12  C   UNL     1      -6.956  -7.011   2.379  1.00  0.00     0.021 C 
BRANCH  11  13
ATOM     13  C   UNL     1      -7.634  -9.228   3.529  1.00  0.00     0.204 C 
BRANCH  13  14
ATOM     14  N   UNL     1      -8.257  -8.734   4.760  1.00  0.00    -0.340 N 
ATOM     15  C   UNL     1      -8.008  -9.285   5.999  1.00  0.00     0.243 C 
ATOM     16  O   UNL     1      -7.197 -10.193   6.166  1.00  0.00    -0.273 OA
ATOM     17  H   UNL     1      -9.048  -8.089   4.673  1.00  0.00     0.164 HD
BRANCH  15  18
ATOM     18  C   UNL     1      -8.932  -8.740   7.115  1.00  0.00     0.171 C 
BRANCH  18  19
ATOM     19  N   UNL     1      -9.745  -9.865   7.572  1.00  0.00    -0.343 N 
ATOM     20  C   UNL     1     -10.789 -10.365   6.816  1.00  0.00     0.242 CG0
ATOM     21  O   UNL     1     -11.166  -9.804   5.790  1.00  0.00    -0.273 OA
ATOM     22  H   UNL     1      -9.546 -10.291   8.470  1.00  0.00     0.164 HD
ATOM     23  G   UNL     1     -11.480 -11.602   7.424  1.00  0.00     0.000 G0
ENDBRANCH  18  19
BRANCH  18  24
ATOM     24  C   UNL     1      -8.104  -8.144   8.260  1.00  0.00     0.038 C 
BRANCH  24  25
ATOM     25  C   UNL     1      -8.082  -8.992   9.549  1.00  0.00    -0.015 C 
ATOM     26  C   UNL     1      -8.260  -8.146  10.810  1.00  0.00     0.007 C 
ATOM     27  C   UNL     1      -6.766  -9.770   9.632  1.00  0.00     0.007 C 
ENDBRANCH  24  25
ENDBRANCH  18  24
ENDBRANCH  15  18
ENDBRANCH  13  14
BRANCH  13  28
ATOM     28  C   UNL     1      -8.750  -9.403   2.494  1.00  0.00     0.327 C 
ATOM     29  O   UNL     1      -8.603  -9.544   1.289  1.00  0.00    -0.250 OA
BRANCH  28  30
ATOM     30  O   UNL     1      -9.984  -9.272   3.020  1.00  0.00    -0.480 OA
ATOM     31  H   UNL     1     -10.056 -10.015   3.655  1.00  0.00     0.296 HD
ENDBRANCH  28  30
ENDBRANCH  13  28
ENDBRANCH  11  13
ENDBRANCH   8  11
ENDBRANCH   6   7
BRANCH   6  32
ATOM     32  C   UNL     1      -5.360  -9.259  -1.561  1.00  0.00     0.037 C 
BRANCH  32  33
ATOM     33  C   UNL     1      -6.738  -8.585  -1.542  1.00  0.00     0.026 C 
BRANCH  33  34
ATOM     34  C   UNL     1      -6.755  -7.266  -2.317  1.00  0.00     0.146 C 
BRANCH  34  35
ATOM     35  N   UNL     1      -7.998  -6.566  -2.025  1.00  0.00    -0.254 NA
ATOM     36  C   UNL     1      -8.616  -5.984  -2.985  1.00  0.00     0.185 C 
ATOM     37  N   UNL     1      -9.765  -5.340  -2.728  1.00  0.00    -0.370 N 
ATOM     38  N   UNL     1      -8.279  -5.913  -4.285  1.00  0.00    -0.370 N 
ATOM     39  H   UNL     1     -10.091  -5.358  -1.770  1.00  0.00     0.159 HD
ATOM     40  H   UNL     1     -10.391  -5.013  -3.444  1.00  0.00     0.159 HD
ATOM     41  H   UNL     1      -8.775  -5.307  -4.919  1.00  0.00     0.159 HD
ATOM     42  H   UNL     1      -7.429  -6.339  -4.619  1.00  0.00     0.159 HD
ENDBRANCH  34  35
ENDBRANCH  33  34
ENDBRANCH  32  33
ENDBRANCH   6  32
ENDBRANCH   4   6
ENDBRANCH   1   2
BRANCH   1  43
ATOM     43  C   UNL     1      -2.614  -5.344  -1.708  1.00  0.00     0.102 C 
ATOM     44  C   UNL     1      -3.782  -5.031  -2.658  1.00  0.00     0.020 C 
BRANCH  43  45
ATOM     45  C   UNL     1      -1.444  -4.360  -1.816  1.00  0.00     0.225 C 
ATOM     46  O   UNL     1      -0.759  -4.024  -0.855  1.00  0.00    -0.275 OA
ATOM     47  N   UNL     1      -1.260  -3.794  -3.057  1.00  0.00    -0.342 N 
ATOM     48  H   UNL     1      -1.726  -4.189  -3.862  1.00  0.00     0.164 HD
BRANCH  47  49
ATOM     49  C   UNL     1      -0.158  -2.863  -3.318  1.00  0.00     0.192 C 
BRANCH  49  50
ATOM     50  C   UNL     1       1.158  -3.474  -2.832  1.00  0.00     0.047 C 
BRANCH  50  51
ATOM     51  C   UNL     1       2.068  -3.897  -3.994  1.00  0.00     0.103 C 
BRANCH  51  52
ATOM     52  C   UNL     1       3.406  -3.162  -3.971  1.00  0.00     0.226 C 
ATOM     53  O   UNL     1       4.304  -3.553  -3.223  1.00  0.00    -0.275 OA
BRANCH  52  54
ATOM     54  N   UNL     1       3.555  -2.103  -4.886  1.00  0.00    -0.311 N 
ATOM     55  C   UNL     1       2.982  -0.779  -4.609  1.00  0.00     0.153 C 
BRANCH  54  56
ATOM     56  C   UNL     1       4.259  -2.268  -6.090  1.00  0.00     0.102 C 
ATOM     57  C   UNL     1       5.305  -1.520  -6.478  1.00  0.00     0.043 C 
BRANCH  56  58
ATOM     58  C   UNL     1       3.901  -3.377  -7.051  1.00  0.00     0.268 C 
ATOM     59  O   UNL     1       2.783  -3.513  -7.530  1.00  0.00    -0.268 OA
ATOM     60  N   UNL     1       4.971  -4.173  -7.382  1.00  0.00    -0.339 N 
ATOM     61  H   UNL     1       5.863  -4.001  -6.933  1.00  0.00     0.164 HD
BRANCH  60  62
ATOM     62  C   UNL     1       4.860  -5.267  -8.345  1.00  0.00     0.168 CG0
ATOM     63  C   UNL     1       5.427  -4.863  -9.700  1.00  0.00     0.041 C 
ATOM     64  G   UNL     1       3.383  -5.692  -8.477  1.00  0.00     0.000 G0
ENDBRANCH  60  62
ENDBRANCH  56  58
ENDBRANCH  54  56
ENDBRANCH  52  54
ENDBRANCH  51  52
ENDBRANCH  50  51
ENDBRANCH  49  50
BRANCH  49  65
ATOM     65  C   UNL     1      -0.380  -1.512  -2.620  1.00  0.00     0.326 C 
ATOM     66  O   UNL     1      -1.412  -0.857  -2.652  1.00  0.00    -0.250 OA
BRANCH  65  67
ATOM     67  O   UNL     1       0.703  -1.026  -1.975  1.00  0.00    -0.480 OA
ATOM     68  H   UNL     1       0.653  -0.059  -2.136  1.00  0.00     0.296 HD
ENDBRANCH  65  67
ENDBRANCH  49  65
ENDBRANCH  47  49
ENDBRANCH  43  45
ENDBRANCH   1  43
BRANCH   1  69
ATOM     69  C   UNL     1      -1.534  -7.311  -3.111  1.00  0.00    -0.001 C 
ATOM     70  C   UNL     1      -2.153  -8.043  -4.055  1.00  0.00     0.001 C 
BRANCH  70  71
ATOM     71  C   UNL     1      -1.587  -8.498  -5.327  1.00  0.00    -0.055 C 
ATOM     72  C   UNL     1      -0.243  -8.488  -5.455  1.00  0.00    -0.018 C 
ATOM     73  C   UNL     1      -2.543  -8.954  -6.398  1.00  0.00     0.044 C 
BRANCH  72  74
ATOM     74  C   UNL     1       0.614  -8.901  -6.643  1.00  0.00     0.038 C 
ATOM     75  C   UNL     1       0.892 -10.403  -6.499  1.00  0.00     0.015 C 
BRANCH  74  76
ATOM     76  C   UNL     1       1.885  -8.003  -6.680  1.00  0.00     0.128 C 
BRANCH  76  77
ATOM     77  O   UNL     1       1.791  -7.064  -7.765  1.00  0.00    -0.381 OA
ATOM     78  C   UNL     1       1.450  -7.662  -9.009  1.00  0.00     0.195 C 
ENDBRANCH  76  77
BRANCH  76  79
ATOM     79  C   UNL     1       2.216  -7.324  -5.327  1.00  0.00     0.068 C 
BRANCH  79  80
ATOM     80  C   UNL     1       3.403  -7.840  -4.549  1.00  0.00    -0.045 A 
ATOM     81  C   UNL     1       4.214  -6.970  -3.808  1.00  0.00     0.004 A 
ATOM     82  C   UNL     1       3.729  -9.204  -4.579  1.00  0.00     0.004 A 
ATOM     83  C   UNL     1       5.318  -7.453  -3.103  1.00  0.00     0.000 A 
ATOM     84  C   UNL     1       4.834  -9.686  -3.874  1.00  0.00     0.000 A 
ATOM     85  C   UNL     1       5.627  -8.811  -3.134  1.00  0.00     0.000 A 
ENDBRANCH  79  80
ENDBRANCH  76  79
ENDBRANCH  74  76
ENDBRANCH  72  74
ENDBRANCH  70  71
ENDBRANCH   1  69
TORSDOF 17
ENDMDL
MODEL 36
REMARK VINA RESULT:    -6.610      2.730     12.923
REMARK INTER + INTRA:         -26.691
REMARK INTER:                 -19.918
REMARK INTRA:                  -6.773
REMARK UNBOUND:                -6.942
REMARK SMILES C=C1C(=O)N[C@H](C)C(=O)N[C@@H](CC(C)C)C(=O)N[C@@H](C(=O)O)[C@H](C)C(=O)N[C@@H](CCCN=C(N)N)C(=O)N[C@@H](/C=C/C(C)=C/[C@H](C)[C@H](Cc2ccccc2)OC)[C@H](C)C(=O)N[C@@H](C(=O)O)CCC(=O)N1C
REMARK SMILES IDX 39 1 38 2 37 3 36 4 28 6 27 7 25 8 26 9 23 11 24 12 19 13
REMARK SMILES IDX 18 14 16 15 17 16 11 18 10 19 8 20 9 21 12 24 13 25 14 26
REMARK SMILES IDX 15 27 20 28 21 29 22 30 29 32 30 33 31 34 32 35 33 36 34 37
REMARK SMILES IDX 35 38 57 43 58 44 59 45 60 46 61 47 62 49 66 50 67 51 68 52
REMARK SMILES IDX 69 53 70 54 71 55 2 56 1 57 3 58 4 59 5 60 6 62 7 63 63 65
REMARK SMILES IDX 64 66 65 67 40 69 41 70 42 71 44 72 43 73 45 74 46 75 47 76
REMARK SMILES IDX 55 77 56 78 48 79 49 80 50 81 54 82 51 83 53 84 52 85
REMARK H PARENT 38 5 27 10 18 17 10 22 22 31 34 39 34 40 35 41 35 42 61 48
REMARK H PARENT 5 61 65 68
REMARK Flexibility Score:  369.900
ROOT
ATOM      1  C   UNL     1      -4.024  -5.185  -3.497  1.00  0.00     0.117 C 
ENDROOT
BRANCH   1   2
ATOM      2  N   UNL     1      -4.186  -6.182  -2.439  1.00  0.00    -0.347 N 
ATOM      3  O   UNL     1      -3.099  -5.045  -0.768  1.00  0.00    -0.273 OA
ATOM      4  C   UNL     1      -3.788  -5.992  -1.130  1.00  0.00     0.243 C 
ATOM      5  H   UNL     1      -4.658  -7.050  -2.645  1.00  0.00     0.164 HD
BRANCH   4   6
ATOM      6  C   UNL     1      -4.153  -7.170  -0.190  1.00  0.00     0.171 C 
BRANCH   6   7
ATOM      7  N   UNL     1      -5.074  -8.099  -0.864  1.00  0.00    -0.344 N 
ATOM      8  C   UNL     1      -5.794  -9.024  -0.140  1.00  0.00     0.226 C 
ATOM      9  O   UNL     1      -5.691  -9.136   1.076  1.00  0.00    -0.275 OA
ATOM     10  H   UNL     1      -5.135  -8.083  -1.875  1.00  0.00     0.164 HD
BRANCH   8  11
ATOM     11  C   UNL     1      -6.739  -9.872  -0.972  1.00  0.00     0.109 C 
ATOM     12  C   UNL     1      -6.483 -11.357  -0.711  1.00  0.00     0.021 C 
BRANCH  11  13
ATOM     13  C   UNL     1      -8.193  -9.415  -0.739  1.00  0.00     0.204 C 
BRANCH  13  14
ATOM     14  N   UNL     1      -8.456  -9.110   0.671  1.00  0.00    -0.340 N 
ATOM     15  C   UNL     1      -9.233  -9.913   1.478  1.00  0.00     0.243 C 
ATOM     16  O   UNL     1      -9.712 -10.976   1.087  1.00  0.00    -0.273 OA
ATOM     17  H   UNL     1      -8.217  -8.175   1.013  1.00  0.00     0.164 HD
BRANCH  15  18
ATOM     18  C   UNL     1      -9.541  -9.287   2.860  1.00  0.00     0.171 C 
BRANCH  18  19
ATOM     19  N   UNL     1     -10.504 -10.170   3.514  1.00  0.00    -0.343 N 
ATOM     20  C   UNL     1     -11.448  -9.689   4.401  1.00  0.00     0.242 CG0
ATOM     21  O   UNL     1     -11.437  -8.521   4.783  1.00  0.00    -0.273 OA
ATOM     22  H   UNL     1     -10.480 -11.164   3.319  1.00  0.00     0.164 HD
ATOM     23  G   UNL     1     -12.429 -10.757   4.929  1.00  0.00     0.000 G0
ENDBRANCH  18  19
BRANCH  18  24
ATOM     24  C   UNL     1      -8.258  -9.144   3.688  1.00  0.00     0.038 C 
BRANCH  24  25
ATOM     25  C   UNL     1      -8.023  -7.736   4.276  1.00  0.00    -0.015 C 
ATOM     26  C   UNL     1      -6.787  -7.055   3.688  1.00  0.00     0.007 C 
ATOM     27  C   UNL     1      -7.885  -7.831   5.798  1.00  0.00     0.007 C 
ENDBRANCH  24  25
ENDBRANCH  18  24
ENDBRANCH  15  18
ENDBRANCH  13  14
BRANCH  13  28
ATOM     28  C   UNL     1      -8.572  -8.172  -1.550  1.00  0.00     0.327 C 
ATOM     29  O   UNL     1      -9.113  -8.161  -2.645  1.00  0.00    -0.250 OA
BRANCH  28  30
ATOM     30  O   UNL     1      -8.141  -7.023  -0.990  1.00  0.00    -0.480 OA
ATOM     31  H   UNL     1      -8.332  -6.339  -1.665  1.00  0.00     0.296 HD
ENDBRANCH  28  30
ENDBRANCH  13  28
ENDBRANCH  11  13
ENDBRANCH   8  11
ENDBRANCH   6   7
BRANCH   6  32
ATOM     32  C   UNL     1      -2.869  -7.887   0.239  1.00  0.00     0.037 C 
BRANCH  32  33
ATOM     33  C   UNL     1      -2.634  -7.798   1.754  1.00  0.00     0.026 C 
BRANCH  33  34
ATOM     34  C   UNL     1      -3.434  -6.669   2.404  1.00  0.00     0.146 C 
BRANCH  34  35
ATOM     35  N   UNL     1      -2.598  -6.014   3.401  1.00  0.00    -0.254 NA
ATOM     36  C   UNL     1      -1.914  -4.989   3.051  1.00  0.00     0.185 C 
ATOM     37  N   UNL     1      -1.144  -4.375   3.963  1.00  0.00    -0.370 N 
ATOM     38  N   UNL     1      -1.840  -4.393   1.848  1.00  0.00    -0.370 N 
ATOM     39  H   UNL     1      -1.155  -4.759   4.899  1.00  0.00     0.159 HD
ATOM     40  H   UNL     1      -0.720  -3.475   3.816  1.00  0.00     0.159 HD
ATOM     41  H   UNL     1      -1.157  -3.676   1.662  1.00  0.00     0.159 HD
ATOM     42  H   UNL     1      -2.355  -4.759   1.062  1.00  0.00     0.159 HD
ENDBRANCH  34  35
ENDBRANCH  33  34
ENDBRANCH  32  33
ENDBRANCH   6  32
ENDBRANCH   4   6
ENDBRANCH   1   2
BRANCH   1  43
ATOM     43  C   UNL     1      -5.327  -5.150  -4.348  1.00  0.00     0.102 C 
ATOM     44  C   UNL     1      -6.610  -5.238  -3.505  1.00  0.00     0.020 C 
BRANCH  43  45
ATOM     45  C   UNL     1      -5.264  -6.165  -5.493  1.00  0.00     0.225 C 
ATOM     46  O   UNL     1      -5.201  -7.377  -5.312  1.00  0.00    -0.275 OA
ATOM     47  N   UNL     1      -5.186  -5.627  -6.757  1.00  0.00    -0.342 N 
ATOM     48  H   UNL     1      -5.391  -4.648  -6.898  1.00  0.00     0.164 HD
BRANCH  47  49
ATOM     49  C   UNL     1      -5.156  -6.478  -7.951  1.00  0.00     0.192 C 
BRANCH  49  50
ATOM     50  C   UNL     1      -3.877  -6.205  -8.745  1.00  0.00     0.047 C 
BRANCH  50  51
ATOM     51  C   UNL     1      -3.207  -7.497  -9.232  1.00  0.00     0.103 C 
BRANCH  51  52
ATOM     52  C   UNL     1      -2.208  -7.236 -10.358  1.00  0.00     0.226 C 
ATOM     53  O   UNL     1      -2.250  -6.170 -10.976  1.00  0.00    -0.275 OA
BRANCH  52  54
ATOM     54  N   UNL     1      -1.232  -8.227 -10.572  1.00  0.00    -0.311 N 
ATOM     55  C   UNL     1      -1.256  -9.064 -11.779  1.00  0.00     0.153 C 
BRANCH  54  56
ATOM     56  C   UNL     1      -0.198  -8.448  -9.648  1.00  0.00     0.102 C 
ATOM     57  C   UNL     1      -0.054  -9.559  -8.907  1.00  0.00     0.043 C 
BRANCH  56  58
ATOM     58  C   UNL     1       0.895  -7.424  -9.447  1.00  0.00     0.268 C 
ATOM     59  O   UNL     1       0.677  -6.271  -9.102  1.00  0.00    -0.268 OA
ATOM     60  N   UNL     1       2.156  -7.939  -9.628  1.00  0.00    -0.339 N 
ATOM     61  H   UNL     1       2.252  -8.903  -9.925  1.00  0.00     0.164 HD
BRANCH  60  62
ATOM     62  C   UNL     1       3.362  -7.136  -9.423  1.00  0.00     0.168 CG0
ATOM     63  C   UNL     1       3.979  -7.416  -8.058  1.00  0.00     0.041 C 
ATOM     64  G   UNL     1       3.018  -5.640  -9.571  1.00  0.00     0.000 G0
ENDBRANCH  60  62
ENDBRANCH  56  58
ENDBRANCH  54  56
ENDBRANCH  52  54
ENDBRANCH  51  52
ENDBRANCH  50  51
ENDBRANCH  49  50
BRANCH  49  65
ATOM     65  C   UNL     1      -6.377  -6.233  -8.852  1.00  0.00     0.326 C 
ATOM     66  O   UNL     1      -6.737  -5.147  -9.282  1.00  0.00    -0.250 OA
BRANCH  65  67
ATOM     67  O   UNL     1      -7.111  -7.336  -9.118  1.00  0.00    -0.480 OA
ATOM     68  H   UNL     1      -7.700  -7.051  -9.850  1.00  0.00     0.296 HD
ENDBRANCH  65  67
ENDBRANCH  49  65
ENDBRANCH  47  49
ENDBRANCH  43  45
ENDBRANCH   1  43
BRANCH   1  69
ATOM     69  C   UNL     1      -2.709  -5.504  -4.184  1.00  0.00    -0.001 C 
ATOM     70  C   UNL     1      -1.872  -6.521  -3.914  1.00  0.00     0.001 C 
BRANCH  70  71
ATOM     71  C   UNL     1      -0.615  -6.832  -4.598  1.00  0.00    -0.055 C 
ATOM     72  C   UNL     1       0.537  -6.543  -3.956  1.00  0.00    -0.018 C 
ATOM     73  C   UNL     1      -0.696  -7.458  -5.965  1.00  0.00     0.044 C 
BRANCH  72  74
ATOM     74  C   UNL     1       1.973  -6.755  -4.412  1.00  0.00     0.038 C 
ATOM     75  C   UNL     1       2.505  -7.990  -3.676  1.00  0.00     0.015 C 
BRANCH  74  76
ATOM     76  C   UNL     1       2.777  -5.446  -4.158  1.00  0.00     0.128 C 
BRANCH  76  77
ATOM     77  O   UNL     1       4.165  -5.655  -4.468  1.00  0.00    -0.381 OA
ATOM     78  C   UNL     1       4.654  -4.805  -5.497  1.00  0.00     0.195 C 
ENDBRANCH  76  77
BRANCH  76  79
ATOM     79  C   UNL     1       2.187  -4.197  -4.860  1.00  0.00     0.068 C 
BRANCH  79  80
ATOM     80  C   UNL     1       1.625  -3.097  -3.993  1.00  0.00    -0.045 A 
ATOM     81  C   UNL     1       0.269  -3.078  -3.639  1.00  0.00     0.004 A 
ATOM     82  C   UNL     1       2.452  -2.055  -3.548  1.00  0.00     0.004 A 
ATOM     83  C   UNL     1      -0.246  -2.049  -2.848  1.00  0.00     0.000 A 
ATOM     84  C   UNL     1       1.936  -1.026  -2.757  1.00  0.00     0.000 A 
ATOM     85  C   UNL     1       0.588  -1.025  -2.406  1.00  0.00     0.000 A 
ENDBRANCH  79  80
ENDBRANCH  76  79
ENDBRANCH  74  76
ENDBRANCH  72  74
ENDBRANCH  70  71
ENDBRANCH   1  69
TORSDOF 17
ENDMDL
MODEL 37
REMARK VINA RESULT:    -6.610      3.205     12.203
REMARK INTER + INTRA:         -26.690
REMARK INTER:                 -19.981
REMARK INTRA:                  -6.709
REMARK UNBOUND:                -6.942
REMARK SMILES C=C1C(=O)N[C@H](C)C(=O)N[C@@H](CC(C)C)C(=O)N[C@@H](C(=O)O)[C@H](C)C(=O)N[C@@H](CCCN=C(N)N)C(=O)N[C@@H](/C=C/C(C)=C/[C@H](C)[C@H](Cc2ccccc2)OC)[C@H](C)C(=O)N[C@@H](C(=O)O)CCC(=O)N1C
REMARK SMILES IDX 39 1 38 2 37 3 36 4 28 6 27 7 25 8 26 9 23 11 24 12 19 13
REMARK SMILES IDX 18 14 16 15 17 16 11 18 10 19 8 20 9 21 12 24 13 25 14 26
REMARK SMILES IDX 15 27 20 28 21 29 22 30 29 32 30 33 31 34 32 35 33 36 34 37
REMARK SMILES IDX 35 38 57 43 58 44 59 45 60 46 61 47 62 49 66 50 67 51 68 52
REMARK SMILES IDX 69 53 70 54 71 55 2 56 1 57 3 58 4 59 5 60 6 62 7 63 63 65
REMARK SMILES IDX 64 66 65 67 40 69 41 70 42 71 44 72 43 73 45 74 46 75 47 76
REMARK SMILES IDX 55 77 56 78 48 79 49 80 50 81 54 82 51 83 53 84 52 85
REMARK H PARENT 38 5 27 10 18 17 10 22 22 31 34 39 34 40 35 41 35 42 61 48
REMARK H PARENT 5 61 65 68
REMARK Flexibility Score:  369.900
ROOT
ATOM      1  C   UNL     1       0.698  -8.181  -4.984  1.00  0.00     0.117 C 
ENDROOT
BRANCH   1   2
ATOM      2  N   UNL     1       1.002  -6.751  -5.028  1.00  0.00    -0.347 N 
ATOM      3  O   UNL     1       1.617  -6.495  -2.831  1.00  0.00    -0.273 OA
ATOM      4  C   UNL     1       1.526  -6.039  -3.966  1.00  0.00     0.243 C 
ATOM      5  H   UNL     1       0.875  -6.244  -5.891  1.00  0.00     0.164 HD
BRANCH   4   6
ATOM      6  C   UNL     1       1.838  -4.558  -4.301  1.00  0.00     0.171 C 
BRANCH   6   7
ATOM      7  N   UNL     1       1.177  -3.663  -3.337  1.00  0.00    -0.344 N 
ATOM      8  C   UNL     1      -0.192  -3.686  -3.181  1.00  0.00     0.226 C 
ATOM      9  O   UNL     1      -0.919  -4.420  -3.839  1.00  0.00    -0.275 OA
ATOM     10  H   UNL     1       1.738  -2.995  -2.824  1.00  0.00     0.164 HD
BRANCH   8  11
ATOM     11  C   UNL     1      -0.715  -2.744  -2.111  1.00  0.00     0.109 C 
ATOM     12  C   UNL     1      -0.081  -1.362  -2.271  1.00  0.00     0.021 C 
BRANCH  11  13
ATOM     13  C   UNL     1      -2.257  -2.754  -2.116  1.00  0.00     0.204 C 
BRANCH  13  14
ATOM     14  N   UNL     1      -2.802  -3.966  -1.496  1.00  0.00    -0.340 N 
ATOM     15  C   UNL     1      -2.263  -4.534  -0.361  1.00  0.00     0.243 C 
ATOM     16  O   UNL     1      -1.322  -4.028   0.247  1.00  0.00    -0.273 OA
ATOM     17  H   UNL     1      -3.481  -4.515  -2.030  1.00  0.00     0.164 HD
BRANCH  15  18
ATOM     18  C   UNL     1      -2.871  -5.914  -0.012  1.00  0.00     0.171 C 
BRANCH  18  19
ATOM     19  N   UNL     1      -3.767  -5.702   1.123  1.00  0.00    -0.343 N 
ATOM     20  C   UNL     1      -3.529  -6.277   2.357  1.00  0.00     0.242 CG0
ATOM     21  O   UNL     1      -2.629  -7.097   2.521  1.00  0.00    -0.273 OA
ATOM     22  H   UNL     1      -4.591  -5.124   1.005  1.00  0.00     0.164 HD
ATOM     23  G   UNL     1      -4.539  -5.875   3.451  1.00  0.00     0.000 G0
ENDBRANCH  18  19
BRANCH  18  24
ATOM     24  C   UNL     1      -3.619  -6.497  -1.218  1.00  0.00     0.038 C 
BRANCH  24  25
ATOM     25  C   UNL     1      -3.037  -7.820  -1.760  1.00  0.00    -0.015 C 
ATOM     26  C   UNL     1      -3.507  -9.036  -0.962  1.00  0.00     0.007 C 
ATOM     27  C   UNL     1      -1.507  -7.753  -1.745  1.00  0.00     0.007 C 
ENDBRANCH  24  25
ENDBRANCH  18  24
ENDBRANCH  15  18
ENDBRANCH  13  14
BRANCH  13  28
ATOM     28  C   UNL     1      -2.870  -1.555  -1.386  1.00  0.00     0.327 C 
ATOM     29  O   UNL     1      -2.447  -1.037  -0.364  1.00  0.00    -0.250 OA
BRANCH  28  30
ATOM     30  O   UNL     1      -4.043  -1.156  -1.919  1.00  0.00    -0.480 OA
ATOM     31  H   UNL     1      -4.345  -1.927  -2.442  1.00  0.00     0.296 HD
ENDBRANCH  28  30
ENDBRANCH  13  28
ENDBRANCH  11  13
ENDBRANCH   8  11
ENDBRANCH   6   7
BRANCH   6  32
ATOM     32  C   UNL     1       3.356  -4.348  -4.291  1.00  0.00     0.037 C 
BRANCH  32  33
ATOM     33  C   UNL     1       3.783  -3.253  -3.304  1.00  0.00     0.026 C 
BRANCH  33  34
ATOM     34  C   UNL     1       4.228  -1.971  -4.010  1.00  0.00     0.146 C 
BRANCH  34  35
ATOM     35  N   UNL     1       3.124  -1.474  -4.820  1.00  0.00    -0.254 NA
ATOM     36  C   UNL     1       3.252  -1.470  -6.095  1.00  0.00     0.185 C 
ATOM     37  N   UNL     1       2.240  -1.019  -6.852  1.00  0.00    -0.370 N 
ATOM     38  N   UNL     1       4.297  -1.870  -6.841  1.00  0.00    -0.370 N 
ATOM     39  H   UNL     1       1.410  -0.709  -6.363  1.00  0.00     0.159 HD
ATOM     40  H   UNL     1       2.192  -1.145  -7.849  1.00  0.00     0.159 HD
ATOM     41  H   UNL     1       4.331  -1.688  -7.830  1.00  0.00     0.159 HD
ATOM     42  H   UNL     1       5.136  -2.218  -6.403  1.00  0.00     0.159 HD
ENDBRANCH  34  35
ENDBRANCH  33  34
ENDBRANCH  32  33
ENDBRANCH   6  32
ENDBRANCH   4   6
ENDBRANCH   1   2
BRANCH   1  43
ATOM     43  C   UNL     1       1.801  -8.946  -5.772  1.00  0.00     0.102 C 
ATOM     44  C   UNL     1       3.180  -8.268  -5.707  1.00  0.00     0.020 C 
BRANCH  43  45
ATOM     45  C   UNL     1       1.336  -9.273  -7.194  1.00  0.00     0.225 C 
ATOM     46  O   UNL     1       0.919 -10.379  -7.526  1.00  0.00    -0.275 OA
ATOM     47  N   UNL     1       1.501  -8.266  -8.117  1.00  0.00    -0.342 N 
ATOM     48  H   UNL     1       1.699  -7.326  -7.803  1.00  0.00     0.164 HD
BRANCH  47  49
ATOM     49  C   UNL     1       1.067  -8.423  -9.509  1.00  0.00     0.192 C 
BRANCH  49  50
ATOM     50  C   UNL     1       2.248  -8.162 -10.448  1.00  0.00     0.047 C 
BRANCH  50  51
ATOM     51  C   UNL     1       3.306  -7.250  -9.813  1.00  0.00     0.103 C 
BRANCH  51  52
ATOM     52  C   UNL     1       4.627  -7.981  -9.580  1.00  0.00     0.226 C 
ATOM     53  O   UNL     1       4.770  -8.677  -8.573  1.00  0.00    -0.275 OA
BRANCH  52  54
ATOM     54  N   UNL     1       5.594  -7.867 -10.596  1.00  0.00    -0.311 N 
ATOM     55  C   UNL     1       6.504  -8.979 -10.902  1.00  0.00     0.153 C 
BRANCH  54  56
ATOM     56  C   UNL     1       5.721  -6.694 -11.358  1.00  0.00     0.102 C 
ATOM     57  C   UNL     1       5.988  -5.477 -10.856  1.00  0.00     0.043 C 
BRANCH  56  58
ATOM     58  C   UNL     1       5.606  -6.731 -12.864  1.00  0.00     0.268 C 
ATOM     59  O   UNL     1       6.462  -6.279 -13.612  1.00  0.00    -0.268 OA
ATOM     60  N   UNL     1       4.478  -7.381 -13.304  1.00  0.00    -0.339 N 
ATOM     61  H   UNL     1       3.812  -7.718 -12.619  1.00  0.00     0.164 HD
BRANCH  60  62
ATOM     62  C   UNL     1       4.201  -7.586 -14.725  1.00  0.00     0.168 CG0
ATOM     63  C   UNL     1       4.070  -9.069 -15.048  1.00  0.00     0.041 C 
ATOM     64  G   UNL     1       5.319  -6.939 -15.568  1.00  0.00     0.000 G0
ENDBRANCH  60  62
ENDBRANCH  56  58
ENDBRANCH  54  56
ENDBRANCH  52  54
ENDBRANCH  51  52
ENDBRANCH  50  51
ENDBRANCH  49  50
BRANCH  49  65
ATOM     65  C   UNL     1      -0.082  -7.464  -9.857  1.00  0.00     0.326 C 
ATOM     66  O   UNL     1      -0.579  -6.646  -9.097  1.00  0.00    -0.250 OA
BRANCH  65  67
ATOM     67  O   UNL     1      -0.586  -7.617 -11.101  1.00  0.00    -0.480 OA
ATOM     68  H   UNL     1      -0.754  -6.696 -11.397  1.00  0.00     0.296 HD
ENDBRANCH  65  67
ENDBRANCH  49  65
ENDBRANCH  47  49
ENDBRANCH  43  45
ENDBRANCH   1  43
BRANCH   1  69
ATOM     69  C   UNL     1      -0.748  -8.321  -5.425  1.00  0.00    -0.001 C 
ATOM     70  C   UNL     1      -1.703  -7.375  -5.405  1.00  0.00     0.001 C 
BRANCH  70  71
ATOM     71  C   UNL     1      -3.090  -7.515  -5.853  1.00  0.00    -0.055 C 
ATOM     72  C   UNL     1      -3.730  -6.403  -6.270  1.00  0.00    -0.018 C 
ATOM     73  C   UNL     1      -3.701  -8.892  -5.824  1.00  0.00     0.044 C 
BRANCH  72  74
ATOM     74  C   UNL     1      -5.154  -6.247  -6.786  1.00  0.00     0.038 C 
ATOM     75  C   UNL     1      -5.085  -6.270  -8.317  1.00  0.00     0.015 C 
BRANCH  74  76
ATOM     76  C   UNL     1      -5.768  -4.952  -6.178  1.00  0.00     0.128 C 
BRANCH  76  77
ATOM     77  O   UNL     1      -7.069  -4.714  -6.743  1.00  0.00    -0.381 OA
ATOM     78  C   UNL     1      -7.578  -3.415  -6.476  1.00  0.00     0.195 C 
ENDBRANCH  76  77
BRANCH  76  79
ATOM     79  C   UNL     1      -5.773  -4.924  -4.629  1.00  0.00     0.068 C 
BRANCH  79  80
ATOM     80  C   UNL     1      -6.661  -5.907  -3.907  1.00  0.00    -0.045 A 
ATOM     81  C   UNL     1      -6.249  -7.228  -3.688  1.00  0.00     0.004 A 
ATOM     82  C   UNL     1      -7.935  -5.517  -3.465  1.00  0.00     0.004 A 
ATOM     83  C   UNL     1      -7.083  -8.135  -3.031  1.00  0.00     0.000 A 
ATOM     84  C   UNL     1      -8.768  -6.425  -2.809  1.00  0.00     0.000 A 
ATOM     85  C   UNL     1      -8.342  -7.733  -2.591  1.00  0.00     0.000 A 
ENDBRANCH  79  80
ENDBRANCH  76  79
ENDBRANCH  74  76
ENDBRANCH  72  74
ENDBRANCH  70  71
ENDBRANCH   1  69
TORSDOF 17
ENDMDL
MODEL 38
REMARK VINA RESULT:    -6.536      4.388     13.267
REMARK INTER + INTRA:         -26.470
REMARK INTER:                 -20.891
REMARK INTRA:                  -5.579
REMARK UNBOUND:                -6.942
REMARK SMILES C=C1C(=O)N[C@H](C)C(=O)N[C@@H](CC(C)C)C(=O)N[C@@H](C(=O)O)[C@H](C)C(=O)N[C@@H](CCCN=C(N)N)C(=O)N[C@@H](/C=C/C(C)=C/[C@H](C)[C@H](Cc2ccccc2)OC)[C@H](C)C(=O)N[C@@H](C(=O)O)CCC(=O)N1C
REMARK SMILES IDX 39 1 38 2 37 3 36 4 28 6 27 7 25 8 26 9 23 11 24 12 19 13
REMARK SMILES IDX 18 14 16 15 17 16 11 18 10 19 8 20 9 21 12 24 13 25 14 26
REMARK SMILES IDX 15 27 20 28 21 29 22 30 29 32 30 33 31 34 32 35 33 36 34 37
REMARK SMILES IDX 35 38 57 43 58 44 59 45 60 46 61 47 62 49 66 50 67 51 68 52
REMARK SMILES IDX 69 53 70 54 71 55 2 56 1 57 3 58 4 59 5 60 6 62 7 63 63 65
REMARK SMILES IDX 64 66 65 67 40 69 41 70 42 71 44 72 43 73 45 74 46 75 47 76
REMARK SMILES IDX 55 77 56 78 48 79 49 80 50 81 54 82 51 83 53 84 52 85
REMARK H PARENT 38 5 27 10 18 17 10 22 22 31 34 39 34 40 35 41 35 42 61 48
REMARK H PARENT 5 61 65 68
REMARK Flexibility Score:  369.900
ROOT
ATOM      1  C   UNL     1      -2.772  -7.719  -3.887  1.00  0.00     0.117 C 
ENDROOT
BRANCH   1   2
ATOM      2  N   UNL     1      -2.923  -8.420  -2.611  1.00  0.00    -0.347 N 
ATOM      3  O   UNL     1      -3.978  -6.741  -1.455  1.00  0.00    -0.273 OA
ATOM      4  C   UNL     1      -3.598  -7.906  -1.521  1.00  0.00     0.243 C 
ATOM      5  H   UNL     1      -2.562  -9.358  -2.516  1.00  0.00     0.164 HD
BRANCH   4   6
ATOM      6  C   UNL     1      -3.687  -8.885  -0.324  1.00  0.00     0.171 C 
BRANCH   6   7
ATOM      7  N   UNL     1      -4.812  -8.525   0.554  1.00  0.00    -0.344 N 
ATOM      8  C   UNL     1      -4.622  -8.359   1.908  1.00  0.00     0.226 C 
ATOM      9  O   UNL     1      -3.533  -8.522   2.447  1.00  0.00    -0.275 OA
ATOM     10  H   UNL     1      -5.740  -8.447   0.155  1.00  0.00     0.164 HD
BRANCH   8  11
ATOM     11  C   UNL     1      -5.867  -7.934   2.667  1.00  0.00     0.109 C 
ATOM     12  C   UNL     1      -6.956  -7.496   1.689  1.00  0.00     0.021 C 
BRANCH  11  13
ATOM     13  C   UNL     1      -6.286  -9.049   3.647  1.00  0.00     0.204 C 
BRANCH  13  14
ATOM     14  N   UNL     1      -7.533  -8.727   4.348  1.00  0.00    -0.340 N 
ATOM     15  C   UNL     1      -7.879  -9.292   5.556  1.00  0.00     0.243 C 
ATOM     16  O   UNL     1      -7.136 -10.061   6.163  1.00  0.00    -0.273 OA
ATOM     17  H   UNL     1      -8.256  -8.218   3.832  1.00  0.00     0.164 HD
BRANCH  15  18
ATOM     18  C   UNL     1      -9.326  -8.964   6.000  1.00  0.00     0.171 C 
BRANCH  18  19
ATOM     19  N   UNL     1      -9.252  -7.741   6.797  1.00  0.00    -0.343 N 
ATOM     20  C   UNL     1      -9.015  -7.771   8.158  1.00  0.00     0.242 CG0
ATOM     21  O   UNL     1      -8.989  -8.828   8.783  1.00  0.00    -0.273 OA
ATOM     22  H   UNL     1      -9.383  -6.843   6.345  1.00  0.00     0.164 HD
ATOM     23  G   UNL     1      -8.893  -6.380   8.814  1.00  0.00     0.000 G0
ENDBRANCH  18  19
BRANCH  18  24
ATOM     24  C   UNL     1     -10.239  -8.786   4.781  1.00  0.00     0.038 C 
BRANCH  24  25
ATOM     25  C   UNL     1     -11.748  -8.890   5.087  1.00  0.00    -0.015 C 
ATOM     26  C   UNL     1     -12.044  -9.813   6.268  1.00  0.00     0.007 C 
ATOM     27  C   UNL     1     -12.492  -9.388   3.844  1.00  0.00     0.007 C 
ENDBRANCH  24  25
ENDBRANCH  18  24
ENDBRANCH  15  18
ENDBRANCH  13  14
BRANCH  13  28
ATOM     28  C   UNL     1      -6.485 -10.407   2.966  1.00  0.00     0.327 C 
ATOM     29  O   UNL     1      -7.509 -10.804   2.431  1.00  0.00    -0.250 OA
BRANCH  28  30
ATOM     30  O   UNL     1      -5.424 -11.228   3.104  1.00  0.00    -0.480 OA
ATOM     31  H   UNL     1      -4.903 -10.829   3.831  1.00  0.00     0.296 HD
ENDBRANCH  28  30
ENDBRANCH  13  28
ENDBRANCH  11  13
ENDBRANCH   8  11
ENDBRANCH   6   7
BRANCH   6  32
ATOM     32  C   UNL     1      -3.843 -10.315  -0.854  1.00  0.00     0.037 C 
BRANCH  32  33
ATOM     33  C   UNL     1      -5.167 -10.955  -0.414  1.00  0.00     0.026 C 
BRANCH  33  34
ATOM     34  C   UNL     1      -6.162 -11.090  -1.568  1.00  0.00     0.146 C 
BRANCH  34  35
ATOM     35  N   UNL     1      -7.488 -10.721  -1.090  1.00  0.00    -0.254 NA
ATOM     36  C   UNL     1      -7.902  -9.525  -1.289  1.00  0.00     0.185 C 
ATOM     37  N   UNL     1      -9.123  -9.176  -0.858  1.00  0.00    -0.370 N 
ATOM     38  N   UNL     1      -7.272  -8.504  -1.896  1.00  0.00    -0.370 N 
ATOM     39  H   UNL     1      -9.666  -9.896  -0.398  1.00  0.00     0.159 HD
ATOM     40  H   UNL     1      -9.584  -8.323  -1.124  1.00  0.00     0.159 HD
ATOM     41  H   UNL     1      -7.647  -7.570  -1.867  1.00  0.00     0.159 HD
ATOM     42  H   UNL     1      -6.338  -8.619  -2.257  1.00  0.00     0.159 HD
ENDBRANCH  34  35
ENDBRANCH  33  34
ENDBRANCH  32  33
ENDBRANCH   6  32
ENDBRANCH   4   6
ENDBRANCH   1   2
BRANCH   1  43
ATOM     43  C   UNL     1      -3.727  -8.373  -4.927  1.00  0.00     0.102 C 
ATOM     44  C   UNL     1      -3.215  -8.274  -6.374  1.00  0.00     0.020 C 
BRANCH  43  45
ATOM     45  C   UNL     1      -5.164  -7.877  -4.741  1.00  0.00     0.225 C 
ATOM     46  O   UNL     1      -6.123  -8.633  -4.611  1.00  0.00    -0.275 OA
ATOM     47  N   UNL     1      -5.336  -6.514  -4.822  1.00  0.00    -0.342 N 
ATOM     48  H   UNL     1      -4.531  -5.905  -4.777  1.00  0.00     0.164 HD
BRANCH  47  49
ATOM     49  C   UNL     1      -6.650  -5.895  -4.629  1.00  0.00     0.192 C 
BRANCH  49  50
ATOM     50  C   UNL     1      -6.942  -4.935  -5.785  1.00  0.00     0.047 C 
BRANCH  50  51
ATOM     51  C   UNL     1      -6.241  -5.358  -7.083  1.00  0.00     0.103 C 
BRANCH  51  52
ATOM     52  C   UNL     1      -7.124  -5.137  -8.310  1.00  0.00     0.226 C 
ATOM     53  O   UNL     1      -8.088  -4.372  -8.238  1.00  0.00    -0.275 OA
BRANCH  52  54
ATOM     54  N   UNL     1      -6.723  -5.782  -9.495  1.00  0.00    -0.311 N 
ATOM     55  C   UNL     1      -5.328  -6.194  -9.697  1.00  0.00     0.153 C 
BRANCH  54  56
ATOM     56  C   UNL     1      -7.639  -6.061 -10.522  1.00  0.00     0.102 C 
ATOM     57  C   UNL     1      -8.242  -5.136 -11.287  1.00  0.00     0.043 C 
BRANCH  56  58
ATOM     58  C   UNL     1      -7.990  -7.486 -10.882  1.00  0.00     0.268 C 
ATOM     59  O   UNL     1      -7.627  -8.452 -10.224  1.00  0.00    -0.268 OA
ATOM     60  N   UNL     1      -8.809  -7.579 -11.982  1.00  0.00    -0.339 N 
ATOM     61  H   UNL     1      -9.056  -6.732 -12.479  1.00  0.00     0.164 HD
BRANCH  60  62
ATOM     62  C   UNL     1      -9.320  -8.861 -12.466  1.00  0.00     0.168 CG0
ATOM     63  C   UNL     1     -10.748  -9.096 -11.990  1.00  0.00     0.041 C 
ATOM     64  G   UNL     1      -8.392  -9.999 -11.993  1.00  0.00     0.000 G0
ENDBRANCH  60  62
ENDBRANCH  56  58
ENDBRANCH  54  56
ENDBRANCH  52  54
ENDBRANCH  51  52
ENDBRANCH  50  51
ENDBRANCH  49  50
BRANCH  49  65
ATOM     65  C   UNL     1      -6.725  -5.128  -3.299  1.00  0.00     0.326 C 
ATOM     66  O   UNL     1      -7.753  -4.791  -2.730  1.00  0.00    -0.250 OA
BRANCH  65  67
ATOM     67  O   UNL     1      -5.527  -4.771  -2.786  1.00  0.00    -0.480 OA
ATOM     68  H   UNL     1      -5.371  -5.434  -2.079  1.00  0.00     0.296 HD
ENDBRANCH  65  67
ENDBRANCH  49  65
ENDBRANCH  47  49
ENDBRANCH  43  45
ENDBRANCH   1  43
BRANCH   1  69
ATOM     69  C   UNL     1      -1.282  -7.686  -4.178  1.00  0.00    -0.001 C 
ATOM     70  C   UNL     1      -0.583  -6.687  -4.744  1.00  0.00     0.001 C 
BRANCH  70  71
ATOM     71  C   UNL     1       0.858  -6.657  -5.001  1.00  0.00    -0.055 C 
ATOM     72  C   UNL     1       1.687  -6.824  -3.949  1.00  0.00    -0.018 C 
ATOM     73  C   UNL     1       1.314  -6.451  -6.422  1.00  0.00     0.044 C 
BRANCH  72  74
ATOM     74  C   UNL     1       3.208  -6.843  -3.914  1.00  0.00     0.038 C 
ATOM     75  C   UNL     1       3.632  -8.206  -3.353  1.00  0.00     0.015 C 
BRANCH  74  76
ATOM     76  C   UNL     1       3.706  -5.616  -3.095  1.00  0.00     0.128 C 
BRANCH  76  77
ATOM     77  O   UNL     1       4.491  -6.060  -1.975  1.00  0.00    -0.381 OA
ATOM     78  C   UNL     1       5.807  -5.522  -1.951  1.00  0.00     0.195 C 
ENDBRANCH  76  77
BRANCH  76  79
ATOM     79  C   UNL     1       4.429  -4.542  -3.946  1.00  0.00     0.068 C 
BRANCH  79  80
ATOM     80  C   UNL     1       3.789  -3.179  -4.055  1.00  0.00    -0.045 A 
ATOM     81  C   UNL     1       4.179  -2.276  -5.054  1.00  0.00     0.004 A 
ATOM     82  C   UNL     1       2.807  -2.782  -3.135  1.00  0.00     0.004 A 
ATOM     83  C   UNL     1       3.592  -1.012  -5.140  1.00  0.00     0.000 A 
ATOM     84  C   UNL     1       2.222  -1.517  -3.221  1.00  0.00     0.000 A 
ATOM     85  C   UNL     1       2.613  -0.633  -4.224  1.00  0.00     0.000 A 
ENDBRANCH  79  80
ENDBRANCH  76  79
ENDBRANCH  74  76
ENDBRANCH  72  74
ENDBRANCH  70  71
ENDBRANCH   1  69
TORSDOF 17
ENDMDL
MODEL 39
REMARK VINA RESULT:    -6.507      5.441     11.005
REMARK INTER + INTRA:         -26.384
REMARK INTER:                 -21.055
REMARK INTRA:                  -5.329
REMARK UNBOUND:                -6.942
REMARK SMILES C=C1C(=O)N[C@H](C)C(=O)N[C@@H](CC(C)C)C(=O)N[C@@H](C(=O)O)[C@H](C)C(=O)N[C@@H](CCCN=C(N)N)C(=O)N[C@@H](/C=C/C(C)=C/[C@H](C)[C@H](Cc2ccccc2)OC)[C@H](C)C(=O)N[C@@H](C(=O)O)CCC(=O)N1C
REMARK SMILES IDX 39 1 38 2 37 3 36 4 28 6 27 7 25 8 26 9 23 11 24 12 19 13
REMARK SMILES IDX 18 14 16 15 17 16 11 18 10 19 8 20 9 21 12 24 13 25 14 26
REMARK SMILES IDX 15 27 20 28 21 29 22 30 29 32 30 33 31 34 32 35 33 36 34 37
REMARK SMILES IDX 35 38 57 43 58 44 59 45 60 46 61 47 62 49 66 50 67 51 68 52
REMARK SMILES IDX 69 53 70 54 71 55 2 56 1 57 3 58 4 59 5 60 6 62 7 63 63 65
REMARK SMILES IDX 64 66 65 67 40 69 41 70 42 71 44 72 43 73 45 74 46 75 47 76
REMARK SMILES IDX 55 77 56 78 48 79 49 80 50 81 54 82 51 83 53 84 52 85
REMARK H PARENT 38 5 27 10 18 17 10 22 22 31 34 39 34 40 35 41 35 42 61 48
REMARK H PARENT 5 61 65 68
REMARK Flexibility Score:  369.900
ROOT
ATOM      1  C   UNL     1      -2.077  -8.385  -6.501  1.00  0.00     0.117 C 
ENDROOT
BRANCH   1   2
ATOM      2  N   UNL     1      -3.278  -8.023  -7.254  1.00  0.00    -0.347 N 
ATOM      3  O   UNL     1      -2.358  -6.348  -8.526  1.00  0.00    -0.273 OA
ATOM      4  C   UNL     1      -3.300  -7.092  -8.275  1.00  0.00     0.243 C 
ATOM      5  H   UNL     1      -4.144  -8.506  -7.066  1.00  0.00     0.164 HD
BRANCH   4   6
ATOM      6  C   UNL     1      -4.680  -6.958  -8.967  1.00  0.00     0.171 C 
BRANCH   6   7
ATOM      7  N   UNL     1      -4.924  -8.106  -9.854  1.00  0.00    -0.344 N 
ATOM      8  C   UNL     1      -5.886  -8.041 -10.839  1.00  0.00     0.226 C 
ATOM      9  O   UNL     1      -6.591  -7.054 -11.010  1.00  0.00    -0.275 OA
ATOM     10  H   UNL     1      -4.409  -8.964  -9.701  1.00  0.00     0.164 HD
BRANCH   8  11
ATOM     11  C   UNL     1      -5.979  -9.285 -11.705  1.00  0.00     0.109 C 
ATOM     12  C   UNL     1      -4.600  -9.927 -11.854  1.00  0.00     0.021 C 
BRANCH  11  13
ATOM     13  C   UNL     1      -7.075 -10.221 -11.158  1.00  0.00     0.204 C 
BRANCH  13  14
ATOM     14  N   UNL     1      -8.320 -10.121 -11.925  1.00  0.00    -0.340 N 
ATOM     15  C   UNL     1      -9.552 -10.443 -11.398  1.00  0.00     0.243 C 
ATOM     16  O   UNL     1      -9.700 -10.781 -10.225  1.00  0.00    -0.273 OA
ATOM     17  H   UNL     1      -8.252  -9.995 -12.938  1.00  0.00     0.164 HD
BRANCH  15  18
ATOM     18  C   UNL     1     -10.690 -10.460 -12.448  1.00  0.00     0.171 C 
BRANCH  18  19
ATOM     19  N   UNL     1     -10.161 -11.144 -13.627  1.00  0.00    -0.343 N 
ATOM     20  C   UNL     1     -10.514 -10.766 -14.908  1.00  0.00     0.242 CG0
ATOM     21  O   UNL     1     -11.390  -9.929 -15.113  1.00  0.00    -0.273 OA
ATOM     22  H   UNL     1      -9.520 -11.920 -13.506  1.00  0.00     0.164 HD
ATOM     23  G   UNL     1      -9.795 -11.551 -16.024  1.00  0.00     0.000 G0
ENDBRANCH  18  19
BRANCH  18  24
ATOM     24  C   UNL     1     -11.928 -11.174 -11.893  1.00  0.00     0.038 C 
BRANCH  24  25
ATOM     25  C   UNL     1     -13.103 -10.240 -11.533  1.00  0.00    -0.015 C 
ATOM     26  C   UNL     1     -13.029  -8.899 -12.262  1.00  0.00     0.007 C 
ATOM     27  C   UNL     1     -13.127 -10.004 -10.021  1.00  0.00     0.007 C 
ENDBRANCH  24  25
ENDBRANCH  18  24
ENDBRANCH  15  18
ENDBRANCH  13  14
BRANCH  13  28
ATOM     28  C   UNL     1      -6.662 -11.696 -11.154  1.00  0.00     0.327 C 
ATOM     29  O   UNL     1      -6.294 -12.342 -10.184  1.00  0.00    -0.250 OA
BRANCH  28  30
ATOM     30  O   UNL     1      -6.623 -12.238 -12.389  1.00  0.00    -0.480 OA
ATOM     31  H   UNL     1      -7.391 -11.841 -12.850  1.00  0.00     0.296 HD
ENDBRANCH  28  30
ENDBRANCH  13  28
ENDBRANCH  11  13
ENDBRANCH   8  11
ENDBRANCH   6   7
BRANCH   6  32
ATOM     32  C   UNL     1      -5.772  -6.852  -7.896  1.00  0.00     0.037 C 
BRANCH  32  33
ATOM     33  C   UNL     1      -5.925  -5.420  -7.365  1.00  0.00     0.026 C 
BRANCH  33  34
ATOM     34  C   UNL     1      -7.373  -4.930  -7.412  1.00  0.00     0.146 C 
BRANCH  34  35
ATOM     35  N   UNL     1      -7.919  -5.208  -8.733  1.00  0.00    -0.254 NA
ATOM     36  C   UNL     1      -7.938  -4.266  -9.601  1.00  0.00     0.185 C 
ATOM     37  N   UNL     1      -8.435  -4.512 -10.823  1.00  0.00    -0.370 N 
ATOM     38  N   UNL     1      -7.514  -2.996  -9.478  1.00  0.00    -0.370 N 
ATOM     39  H   UNL     1      -8.766  -5.453 -10.997  1.00  0.00     0.159 HD
ATOM     40  H   UNL     1      -8.327  -3.888 -11.604  1.00  0.00     0.159 HD
ATOM     41  H   UNL     1      -7.711  -2.310 -10.189  1.00  0.00     0.159 HD
ATOM     42  H   UNL     1      -7.131  -2.665  -8.606  1.00  0.00     0.159 HD
ENDBRANCH  34  35
ENDBRANCH  33  34
ENDBRANCH  32  33
ENDBRANCH   6  32
ENDBRANCH   4   6
ENDBRANCH   1   2
BRANCH   1  43
ATOM     43  C   UNL     1      -1.835  -7.307  -5.406  1.00  0.00     0.102 C 
ATOM     44  C   UNL     1      -0.355  -7.155  -5.013  1.00  0.00     0.020 C 
BRANCH  43  45
ATOM     45  C   UNL     1      -2.776  -7.510  -4.216  1.00  0.00     0.225 C 
ATOM     46  O   UNL     1      -3.998  -7.562  -4.328  1.00  0.00    -0.275 OA
ATOM     47  N   UNL     1      -2.172  -7.539  -2.980  1.00  0.00    -0.342 N 
ATOM     48  H   UNL     1      -1.169  -7.648  -2.916  1.00  0.00     0.164 HD
BRANCH  47  49
ATOM     49  C   UNL     1      -2.944  -7.763  -1.754  1.00  0.00     0.192 C 
BRANCH  49  50
ATOM     50  C   UNL     1      -2.896  -6.507  -0.880  1.00  0.00     0.047 C 
BRANCH  50  51
ATOM     51  C   UNL     1      -1.582  -5.731  -1.047  1.00  0.00     0.103 C 
BRANCH  51  52
ATOM     52  C   UNL     1      -1.750  -4.506  -1.943  1.00  0.00     0.226 C 
ATOM     53  O   UNL     1      -2.742  -4.412  -2.669  1.00  0.00    -0.275 OA
BRANCH  52  54
ATOM     54  N   UNL     1      -0.772  -3.501  -1.822  1.00  0.00    -0.311 N 
ATOM     55  C   UNL     1      -0.925  -2.409  -0.852  1.00  0.00     0.153 C 
BRANCH  54  56
ATOM     56  C   UNL     1       0.387  -3.508  -2.617  1.00  0.00     0.102 C 
ATOM     57  C   UNL     1       1.225  -4.550  -2.745  1.00  0.00     0.043 C 
BRANCH  56  58
ATOM     58  C   UNL     1       0.761  -2.307  -3.452  1.00  0.00     0.268 C 
ATOM     59  O   UNL     1      -0.010  -1.770  -4.236  1.00  0.00    -0.268 OA
ATOM     60  N   UNL     1       2.028  -1.841  -3.192  1.00  0.00    -0.339 N 
ATOM     61  H   UNL     1       2.608  -2.349  -2.535  1.00  0.00     0.164 HD
BRANCH  60  62
ATOM     62  C   UNL     1       2.569  -0.650  -3.844  1.00  0.00     0.168 CG0
ATOM     63  C   UNL     1       3.415  -1.025  -5.055  1.00  0.00     0.041 C 
ATOM     64  G   UNL     1       3.400   0.163  -2.829  1.00  0.00     0.000 G0
ENDBRANCH  60  62
ENDBRANCH  56  58
ENDBRANCH  54  56
ENDBRANCH  52  54
ENDBRANCH  51  52
ENDBRANCH  50  51
ENDBRANCH  49  50
BRANCH  49  65
ATOM     65  C   UNL     1      -2.405  -8.960  -0.956  1.00  0.00     0.326 C 
ATOM     66  O   UNL     1      -1.284  -9.047  -0.476  1.00  0.00    -0.250 OA
BRANCH  65  67
ATOM     67  O   UNL     1      -3.262  -9.999  -0.850  1.00  0.00    -0.480 OA
ATOM     68  H   UNL     1      -2.780 -10.741  -1.276  1.00  0.00     0.296 HD
ENDBRANCH  65  67
ENDBRANCH  49  65
ENDBRANCH  47  49
ENDBRANCH  43  45
ENDBRANCH   1  43
BRANCH   1  69
ATOM     69  C   UNL     1      -0.992  -8.641  -7.531  1.00  0.00    -0.001 C 
ATOM     70  C   UNL     1      -0.523  -9.832  -7.946  1.00  0.00     0.001 C 
BRANCH  70  71
ATOM     71  C   UNL     1       0.510 -10.067  -8.957  1.00  0.00    -0.055 C 
ATOM     72  C   UNL     1       1.720  -9.502  -8.761  1.00  0.00    -0.018 C 
ATOM     73  C   UNL     1       0.152 -10.928 -10.140  1.00  0.00     0.044 C 
BRANCH  72  74
ATOM     74  C   UNL     1       2.968  -9.574  -9.628  1.00  0.00     0.038 C 
ATOM     75  C   UNL     1       4.052 -10.281  -8.805  1.00  0.00     0.015 C 
BRANCH  74  76
ATOM     76  C   UNL     1       3.338  -8.135 -10.095  1.00  0.00     0.128 C 
BRANCH  76  77
ATOM     77  O   UNL     1       3.376  -8.080 -11.531  1.00  0.00    -0.381 OA
ATOM     78  C   UNL     1       2.391  -8.888 -12.160  1.00  0.00     0.195 C 
ENDBRANCH  76  77
BRANCH  76  79
ATOM     79  C   UNL     1       2.451  -7.026  -9.476  1.00  0.00     0.068 C 
BRANCH  79  80
ATOM     80  C   UNL     1       3.064  -6.138  -8.420  1.00  0.00    -0.045 A 
ATOM     81  C   UNL     1       3.930  -6.662  -7.450  1.00  0.00     0.004 A 
ATOM     82  C   UNL     1       2.752  -4.771  -8.377  1.00  0.00     0.004 A 
ATOM     83  C   UNL     1       4.481  -5.836  -6.468  1.00  0.00     0.000 A 
ATOM     84  C   UNL     1       3.304  -3.947  -7.394  1.00  0.00     0.000 A 
ATOM     85  C   UNL     1       4.169  -4.479  -6.441  1.00  0.00     0.000 A 
ENDBRANCH  79  80
ENDBRANCH  76  79
ENDBRANCH  74  76
ENDBRANCH  72  74
ENDBRANCH  70  71
ENDBRANCH   1  69
TORSDOF 17
ENDMDL
MODEL 40
REMARK VINA RESULT:    -6.471      2.929      5.706
REMARK INTER + INTRA:         -26.275
REMARK INTER:                 -19.200
REMARK INTRA:                  -7.075
REMARK UNBOUND:                -6.942
REMARK SMILES C=C1C(=O)N[C@H](C)C(=O)N[C@@H](CC(C)C)C(=O)N[C@@H](C(=O)O)[C@H](C)C(=O)N[C@@H](CCCN=C(N)N)C(=O)N[C@@H](/C=C/C(C)=C/[C@H](C)[C@H](Cc2ccccc2)OC)[C@H](C)C(=O)N[C@@H](C(=O)O)CCC(=O)N1C
REMARK SMILES IDX 39 1 38 2 37 3 36 4 28 6 27 7 25 8 26 9 23 11 24 12 19 13
REMARK SMILES IDX 18 14 16 15 17 16 11 18 10 19 8 20 9 21 12 24 13 25 14 26
REMARK SMILES IDX 15 27 20 28 21 29 22 30 29 32 30 33 31 34 32 35 33 36 34 37
REMARK SMILES IDX 35 38 57 43 58 44 59 45 60 46 61 47 62 49 66 50 67 51 68 52
REMARK SMILES IDX 69 53 70 54 71 55 2 56 1 57 3 58 4 59 5 60 6 62 7 63 63 65
REMARK SMILES IDX 64 66 65 67 40 69 41 70 42 71 44 72 43 73 45 74 46 75 47 76
REMARK SMILES IDX 55 77 56 78 48 79 49 80 50 81 54 82 51 83 53 84 52 85
REMARK H PARENT 38 5 27 10 18 17 10 22 22 31 34 39 34 40 35 41 35 42 61 48
REMARK H PARENT 5 61 65 68
REMARK Flexibility Score:  369.900
ROOT
ATOM      1  C   UNL     1       0.398  -6.284  -5.515  1.00  0.00     0.117 C 
ENDROOT
BRANCH   1   2
ATOM      2  N   UNL     1       1.809  -6.345  -5.896  1.00  0.00    -0.347 N 
ATOM      3  O   UNL     1       1.681  -5.042  -7.782  1.00  0.00    -0.273 OA
ATOM      4  C   UNL     1       2.356  -5.641  -6.952  1.00  0.00     0.243 C 
ATOM      5  H   UNL     1       2.450  -6.889  -5.338  1.00  0.00     0.164 HD
BRANCH   4   6
ATOM      6  C   UNL     1       3.890  -5.814  -7.088  1.00  0.00     0.171 C 
BRANCH   6   7
ATOM      7  N   UNL     1       4.316  -5.557  -8.473  1.00  0.00    -0.344 N 
ATOM      8  C   UNL     1       4.683  -6.597  -9.300  1.00  0.00     0.226 C 
ATOM      9  O   UNL     1       4.697  -7.764  -8.926  1.00  0.00    -0.275 OA
ATOM     10  H   UNL     1       4.383  -4.600  -8.797  1.00  0.00     0.164 HD
BRANCH   8  11
ATOM     11  C   UNL     1       5.044  -6.175 -10.713  1.00  0.00     0.109 C 
ATOM     12  C   UNL     1       6.364  -5.404 -10.712  1.00  0.00     0.021 C 
BRANCH  11  13
ATOM     13  C   UNL     1       5.010  -7.401 -11.648  1.00  0.00     0.204 C 
BRANCH  13  14
ATOM     14  N   UNL     1       3.642  -7.865 -11.900  1.00  0.00    -0.340 N 
ATOM     15  C   UNL     1       3.333  -9.186 -12.146  1.00  0.00     0.243 C 
ATOM     16  O   UNL     1       4.178 -10.079 -12.111  1.00  0.00    -0.273 OA
ATOM     17  H   UNL     1       2.924  -7.162 -12.092  1.00  0.00     0.164 HD
BRANCH  15  18
ATOM     18  C   UNL     1       1.866  -9.405 -12.589  1.00  0.00     0.171 C 
BRANCH  18  19
ATOM     19  N   UNL     1       1.911  -9.843 -13.983  1.00  0.00    -0.343 N 
ATOM     20  C   UNL     1       2.247  -8.979 -15.007  1.00  0.00     0.242 CG0
ATOM     21  O   UNL     1       2.394  -7.775 -14.812  1.00  0.00    -0.273 OA
ATOM     22  H   UNL     1       1.683 -10.804 -14.210  1.00  0.00     0.164 HD
ATOM     23  G   UNL     1       2.318  -9.640 -16.400  1.00  0.00     0.000 G0
ENDBRANCH  18  19
BRANCH  18  24
ATOM     24  C   UNL     1       1.181 -10.446 -11.695  1.00  0.00     0.038 C 
BRANCH  24  25
ATOM     25  C   UNL     1       0.028  -9.893 -10.830  1.00  0.00    -0.015 C 
ATOM     26  C   UNL     1       0.508  -8.872  -9.799  1.00  0.00     0.007 C 
ATOM     27  C   UNL     1      -0.682 -11.049 -10.120  1.00  0.00     0.007 C 
ENDBRANCH  24  25
ENDBRANCH  18  24
ENDBRANCH  15  18
ENDBRANCH  13  14
BRANCH  13  28
ATOM     28  C   UNL     1       5.659  -7.140 -13.010  1.00  0.00     0.327 C 
ATOM     29  O   UNL     1       6.793  -7.451 -13.342  1.00  0.00    -0.250 OA
BRANCH  28  30
ATOM     30  O   UNL     1       4.887  -6.399 -13.830  1.00  0.00    -0.480 OA
ATOM     31  H   UNL     1       5.315  -5.518 -13.834  1.00  0.00     0.296 HD
ENDBRANCH  28  30
ENDBRANCH  13  28
ENDBRANCH  11  13
ENDBRANCH   8  11
ENDBRANCH   6   7
BRANCH   6  32
ATOM     32  C   UNL     1       4.592  -4.860  -6.114  1.00  0.00     0.037 C 
BRANCH  32  33
ATOM     33  C   UNL     1       5.236  -3.667  -6.835  1.00  0.00     0.026 C 
BRANCH  33  34
ATOM     34  C   UNL     1       4.781  -2.324  -6.263  1.00  0.00     0.146 C 
BRANCH  34  35
ATOM     35  N   UNL     1       3.678  -2.555  -5.340  1.00  0.00    -0.254 NA
ATOM     36  C   UNL     1       2.580  -1.922  -5.524  1.00  0.00     0.185 C 
ATOM     37  N   UNL     1       1.555  -2.131  -4.683  1.00  0.00    -0.370 N 
ATOM     38  N   UNL     1       2.270  -1.029  -6.481  1.00  0.00    -0.370 N 
ATOM     39  H   UNL     1       1.708  -2.800  -3.939  1.00  0.00     0.159 HD
ATOM     40  H   UNL     1       0.618  -1.812  -4.858  1.00  0.00     0.159 HD
ATOM     41  H   UNL     1       1.418  -0.494  -6.438  1.00  0.00     0.159 HD
ATOM     42  H   UNL     1       2.952  -0.763  -7.174  1.00  0.00     0.159 HD
ENDBRANCH  34  35
ENDBRANCH  33  34
ENDBRANCH  32  33
ENDBRANCH   6  32
ENDBRANCH   4   6
ENDBRANCH   1   2
BRANCH   1  43
ATOM     43  C   UNL     1       0.301  -6.343  -3.963  1.00  0.00     0.102 C 
ATOM     44  C   UNL     1       0.107  -7.767  -3.416  1.00  0.00     0.020 C 
BRANCH  43  45
ATOM     45  C   UNL     1      -0.720  -5.330  -3.437  1.00  0.00     0.225 C 
ATOM     46  O   UNL     1      -0.570  -4.115  -3.530  1.00  0.00    -0.275 OA
ATOM     47  N   UNL     1      -1.791  -5.867  -2.759  1.00  0.00    -0.342 N 
ATOM     48  H   UNL     1      -1.978  -6.858  -2.823  1.00  0.00     0.164 HD
BRANCH  47  49
ATOM     49  C   UNL     1      -2.865  -5.021  -2.231  1.00  0.00     0.192 C 
BRANCH  49  50
ATOM     50  C   UNL     1      -3.178  -5.427  -0.789  1.00  0.00     0.047 C 
BRANCH  50  51
ATOM     51  C   UNL     1      -2.042  -6.241  -0.154  1.00  0.00     0.103 C 
BRANCH  51  52
ATOM     52  C   UNL     1      -2.569  -7.339   0.768  1.00  0.00     0.226 C 
ATOM     53  O   UNL     1      -2.313  -8.518   0.521  1.00  0.00    -0.275 OA
BRANCH  52  54
ATOM     54  N   UNL     1      -3.270  -6.913   1.912  1.00  0.00    -0.311 N 
ATOM     55  C   UNL     1      -2.642  -6.019   2.894  1.00  0.00     0.153 C 
BRANCH  54  56
ATOM     56  C   UNL     1      -4.593  -7.320   2.154  1.00  0.00     0.102 C 
ATOM     57  C   UNL     1      -5.687  -6.646   1.765  1.00  0.00     0.043 C 
BRANCH  56  58
ATOM     58  C   UNL     1      -4.885  -8.623   2.861  1.00  0.00     0.268 C 
ATOM     59  O   UNL     1      -4.011  -9.372   3.273  1.00  0.00    -0.268 OA
ATOM     60  N   UNL     1      -6.229  -8.844   3.050  1.00  0.00    -0.339 N 
ATOM     61  H   UNL     1      -6.891  -8.180   2.668  1.00  0.00     0.164 HD
BRANCH  60  62
ATOM     62  C   UNL     1      -6.731 -10.015   3.767  1.00  0.00     0.168 CG0
ATOM     63  C   UNL     1      -7.820  -9.623   4.759  1.00  0.00     0.041 C 
ATOM     64  G   UNL     1      -5.564 -10.720   4.488  1.00  0.00     0.000 G0
ENDBRANCH  60  62
ENDBRANCH  56  58
ENDBRANCH  54  56
ENDBRANCH  52  54
ENDBRANCH  51  52
ENDBRANCH  50  51
ENDBRANCH  49  50
BRANCH  49  65
ATOM     65  C   UNL     1      -4.142  -5.131  -3.079  1.00  0.00     0.326 C 
ATOM     66  O   UNL     1      -4.184  -5.171  -4.300  1.00  0.00    -0.250 OA
BRANCH  65  67
ATOM     67  O   UNL     1      -5.292  -5.126  -2.369  1.00  0.00    -0.480 OA
ATOM     68  H   UNL     1      -5.866  -4.501  -2.863  1.00  0.00     0.296 HD
ENDBRANCH  65  67
ENDBRANCH  49  65
ENDBRANCH  47  49
ENDBRANCH  43  45
ENDBRANCH   1  43
BRANCH   1  69
ATOM     69  C   UNL     1      -0.309  -7.348  -6.335  1.00  0.00    -0.001 C 
ATOM     70  C   UNL     1      -1.604  -7.376  -6.694  1.00  0.00     0.001 C 
BRANCH  70  71
ATOM     71  C   UNL     1      -2.270  -8.398  -7.504  1.00  0.00    -0.055 C 
ATOM     72  C   UNL     1      -2.988  -7.985  -8.570  1.00  0.00    -0.018 C 
ATOM     73  C   UNL     1      -2.101  -9.838  -7.096  1.00  0.00     0.044 C 
BRANCH  72  74
ATOM     74  C   UNL     1      -3.775  -8.809  -9.579  1.00  0.00     0.038 C 
ATOM     75  C   UNL     1      -3.278  -8.410 -10.974  1.00  0.00     0.015 C 
BRANCH  74  76
ATOM     76  C   UNL     1      -5.296  -8.578  -9.338  1.00  0.00     0.128 C 
BRANCH  76  77
ATOM     77  O   UNL     1      -5.891  -9.768  -8.792  1.00  0.00    -0.381 OA
ATOM     78  C   UNL     1      -5.079 -10.926  -8.925  1.00  0.00     0.195 C 
ENDBRANCH  76  77
BRANCH  76  79
ATOM     79  C   UNL     1      -5.616  -7.311  -8.506  1.00  0.00     0.068 C 
BRANCH  79  80
ATOM     80  C   UNL     1      -6.537  -6.281  -9.114  1.00  0.00    -0.045 A 
ATOM     81  C   UNL     1      -6.927  -5.145  -8.391  1.00  0.00     0.004 A 
ATOM     82  C   UNL     1      -7.042  -6.461 -10.411  1.00  0.00     0.004 A 
ATOM     83  C   UNL     1      -7.791  -4.204  -8.956  1.00  0.00     0.000 A 
ATOM     84  C   UNL     1      -7.906  -5.519 -10.974  1.00  0.00     0.000 A 
ATOM     85  C   UNL     1      -8.279  -4.391 -10.247  1.00  0.00     0.000 A 
ENDBRANCH  79  80
ENDBRANCH  76  79
ENDBRANCH  74  76
ENDBRANCH  72  74
ENDBRANCH  70  71
ENDBRANCH   1  69
TORSDOF 17
ENDMDL
MODEL 41
REMARK VINA RESULT:    -6.457      2.961     12.599
REMARK INTER + INTRA:         -26.233
REMARK INTER:                 -20.295
REMARK INTRA:                  -5.939
REMARK UNBOUND:                -6.942
REMARK SMILES C=C1C(=O)N[C@H](C)C(=O)N[C@@H](CC(C)C)C(=O)N[C@@H](C(=O)O)[C@H](C)C(=O)N[C@@H](CCCN=C(N)N)C(=O)N[C@@H](/C=C/C(C)=C/[C@H](C)[C@H](Cc2ccccc2)OC)[C@H](C)C(=O)N[C@@H](C(=O)O)CCC(=O)N1C
REMARK SMILES IDX 39 1 38 2 37 3 36 4 28 6 27 7 25 8 26 9 23 11 24 12 19 13
REMARK SMILES IDX 18 14 16 15 17 16 11 18 10 19 8 20 9 21 12 24 13 25 14 26
REMARK SMILES IDX 15 27 20 28 21 29 22 30 29 32 30 33 31 34 32 35 33 36 34 37
REMARK SMILES IDX 35 38 57 43 58 44 59 45 60 46 61 47 62 49 66 50 67 51 68 52
REMARK SMILES IDX 69 53 70 54 71 55 2 56 1 57 3 58 4 59 5 60 6 62 7 63 63 65
REMARK SMILES IDX 64 66 65 67 40 69 41 70 42 71 44 72 43 73 45 74 46 75 47 76
REMARK SMILES IDX 55 77 56 78 48 79 49 80 50 81 54 82 51 83 53 84 52 85
REMARK H PARENT 38 5 27 10 18 17 10 22 22 31 34 39 34 40 35 41 35 42 61 48
REMARK H PARENT 5 61 65 68
REMARK Flexibility Score:  369.900
ROOT
ATOM      1  C   UNL     1      -3.036  -7.068  -2.887  1.00  0.00     0.117 C 
ENDROOT
BRANCH   1   2
ATOM      2  N   UNL     1      -3.931  -8.098  -2.359  1.00  0.00    -0.347 N 
ATOM      3  O   UNL     1      -3.056  -8.217  -0.240  1.00  0.00    -0.273 OA
ATOM      4  C   UNL     1      -3.928  -8.526  -1.045  1.00  0.00     0.243 C 
ATOM      5  H   UNL     1      -4.634  -8.498  -2.962  1.00  0.00     0.164 HD
BRANCH   4   6
ATOM      6  C   UNL     1      -5.035  -9.563  -0.725  1.00  0.00     0.171 C 
BRANCH   6   7
ATOM      7  N   UNL     1      -6.001  -9.005   0.234  1.00  0.00    -0.344 N 
ATOM      8  C   UNL     1      -5.870  -9.247   1.585  1.00  0.00     0.226 C 
ATOM      9  O   UNL     1      -4.974  -9.944   2.046  1.00  0.00    -0.275 OA
ATOM     10  H   UNL     1      -6.793  -8.480  -0.115  1.00  0.00     0.164 HD
BRANCH   8  11
ATOM     11  C   UNL     1      -6.912  -8.558   2.448  1.00  0.00     0.109 C 
ATOM     12  C   UNL     1      -7.496  -7.354   1.707  1.00  0.00     0.021 C 
BRANCH  11  13
ATOM     13  C   UNL     1      -7.952  -9.588   2.932  1.00  0.00     0.204 C 
BRANCH  13  14
ATOM     14  N   UNL     1      -8.726  -9.094   4.076  1.00  0.00    -0.340 N 
ATOM     15  C   UNL     1      -8.284  -9.195   5.378  1.00  0.00     0.243 C 
ATOM     16  O   UNL     1      -7.180  -9.653   5.667  1.00  0.00    -0.273 OA
ATOM     17  H   UNL     1      -9.706  -8.845   3.921  1.00  0.00     0.164 HD
BRANCH  15  18
ATOM     18  C   UNL     1      -9.354  -8.800   6.426  1.00  0.00     0.171 C 
BRANCH  18  19
ATOM     19  N   UNL     1      -8.864  -7.592   7.087  1.00  0.00    -0.343 N 
ATOM     20  C   UNL     1      -9.012  -7.395   8.447  1.00  0.00     0.242 CG0
ATOM     21  O   UNL     1      -9.677  -8.161   9.139  1.00  0.00    -0.273 OA
ATOM     22  H   UNL     1      -8.408  -6.873   6.537  1.00  0.00     0.164 HD
ATOM     23  G   UNL     1      -8.363  -6.100   8.977  1.00  0.00     0.000 G0
ENDBRANCH  18  19
BRANCH  18  24
ATOM     24  C   UNL     1     -10.710  -8.561   5.751  1.00  0.00     0.038 C 
BRANCH  24  25
ATOM     25  C   UNL     1     -11.772  -9.644   6.038  1.00  0.00    -0.015 C 
ATOM     26  C   UNL     1     -11.274 -10.706   7.018  1.00  0.00     0.007 C 
ATOM     27  C   UNL     1     -12.193 -10.311   4.726  1.00  0.00     0.007 C 
ENDBRANCH  24  25
ENDBRANCH  18  24
ENDBRANCH  15  18
ENDBRANCH  13  14
BRANCH  13  28
ATOM     28  C   UNL     1      -8.954  -9.991   1.846  1.00  0.00     0.327 C 
ATOM     29  O   UNL     1     -10.123  -9.644   1.777  1.00  0.00    -0.250 OA
BRANCH  28  30
ATOM     30  O   UNL     1      -8.459 -10.899   0.981  1.00  0.00    -0.480 OA
ATOM     31  H   UNL     1      -7.512 -10.661   0.897  1.00  0.00     0.296 HD
ENDBRANCH  28  30
ENDBRANCH  13  28
ENDBRANCH  11  13
ENDBRANCH   8  11
ENDBRANCH   6   7
BRANCH   6  32
ATOM     32  C   UNL     1      -5.732  -9.973  -2.027  1.00  0.00     0.037 C 
BRANCH  32  33
ATOM     33  C   UNL     1      -7.188  -9.491  -2.082  1.00  0.00     0.026 C 
BRANCH  33  34
ATOM     34  C   UNL     1      -7.378  -8.308  -3.032  1.00  0.00     0.146 C 
BRANCH  34  35
ATOM     35  N   UNL     1      -8.467  -7.478  -2.537  1.00  0.00    -0.254 NA
ATOM     36  C   UNL     1      -8.758  -6.404  -3.172  1.00  0.00     0.185 C 
ATOM     37  N   UNL     1      -9.764  -5.633  -2.727  1.00  0.00    -0.370 N 
ATOM     38  N   UNL     1      -8.186  -5.894  -4.277  1.00  0.00    -0.370 N 
ATOM     39  H   UNL     1     -10.253  -5.957  -1.902  1.00  0.00     0.159 HD
ATOM     40  H   UNL     1     -10.163  -4.879  -3.258  1.00  0.00     0.159 HD
ATOM     41  H   UNL     1      -8.414  -4.968  -4.602  1.00  0.00     0.159 HD
ATOM     42  H   UNL     1      -7.406  -6.360  -4.712  1.00  0.00     0.159 HD
ENDBRANCH  34  35
ENDBRANCH  33  34
ENDBRANCH  32  33
ENDBRANCH   6  32
ENDBRANCH   4   6
ENDBRANCH   1   2
BRANCH   1  43
ATOM     43  C   UNL     1      -3.654  -5.672  -2.585  1.00  0.00     0.102 C 
ATOM     44  C   UNL     1      -4.413  -5.068  -3.780  1.00  0.00     0.020 C 
BRANCH  43  45
ATOM     45  C   UNL     1      -2.615  -4.731  -1.970  1.00  0.00     0.225 C 
ATOM     46  O   UNL     1      -2.266  -4.793  -0.794  1.00  0.00    -0.275 OA
ATOM     47  N   UNL     1      -2.153  -3.734  -2.799  1.00  0.00    -0.342 N 
ATOM     48  H   UNL     1      -2.330  -3.788  -3.792  1.00  0.00     0.164 HD
BRANCH  47  49
ATOM     49  C   UNL     1      -1.130  -2.782  -2.356  1.00  0.00     0.192 C 
BRANCH  49  50
ATOM     50  C   UNL     1       0.044  -3.542  -1.733  1.00  0.00     0.047 C 
BRANCH  50  51
ATOM     51  C   UNL     1       1.193  -3.756  -2.728  1.00  0.00     0.103 C 
BRANCH  51  52
ATOM     52  C   UNL     1       1.242  -5.192  -3.247  1.00  0.00     0.226 C 
ATOM     53  O   UNL     1       0.368  -5.993  -2.909  1.00  0.00    -0.275 OA
BRANCH  52  54
ATOM     54  N   UNL     1       2.270  -5.493  -4.160  1.00  0.00    -0.311 N 
ATOM     55  C   UNL     1       2.180  -6.668  -5.038  1.00  0.00     0.153 C 
BRANCH  54  56
ATOM     56  C   UNL     1       3.412  -4.683  -4.271  1.00  0.00     0.102 C 
ATOM     57  C   UNL     1       4.474  -4.736  -3.451  1.00  0.00     0.043 C 
BRANCH  56  58
ATOM     58  C   UNL     1       3.548  -3.685  -5.396  1.00  0.00     0.268 C 
ATOM     59  O   UNL     1       2.611  -3.345  -6.106  1.00  0.00    -0.268 OA
ATOM     60  N   UNL     1       4.811  -3.153  -5.497  1.00  0.00    -0.339 N 
ATOM     61  H   UNL     1       5.535  -3.496  -4.877  1.00  0.00     0.164 HD
BRANCH  60  62
ATOM     62  C   UNL     1       5.146  -2.122  -6.479  1.00  0.00     0.168 CG0
ATOM     63  C   UNL     1       5.841  -0.940  -5.814  1.00  0.00     0.041 C 
ATOM     64  G   UNL     1       3.865  -1.665  -7.206  1.00  0.00     0.000 G0
ENDBRANCH  60  62
ENDBRANCH  56  58
ENDBRANCH  54  56
ENDBRANCH  52  54
ENDBRANCH  51  52
ENDBRANCH  50  51
ENDBRANCH  49  50
BRANCH  49  65
ATOM     65  C   UNL     1      -1.690  -1.783  -1.332  1.00  0.00     0.326 C 
ATOM     66  O   UNL     1      -2.848  -1.395  -1.278  1.00  0.00    -0.250 OA
BRANCH  65  67
ATOM     67  O   UNL     1      -0.774  -1.278  -0.477  1.00  0.00    -0.480 OA
ATOM     68  H   UNL     1      -1.035  -0.337  -0.387  1.00  0.00     0.296 HD
ENDBRANCH  65  67
ENDBRANCH  49  65
ENDBRANCH  47  49
ENDBRANCH  43  45
ENDBRANCH   1  43
BRANCH   1  69
ATOM     69  C   UNL     1      -2.754  -7.449  -4.328  1.00  0.00    -0.001 C 
ATOM     70  C   UNL     1      -3.480  -8.263  -5.115  1.00  0.00     0.001 C 
BRANCH  70  71
ATOM     71  C   UNL     1      -3.210  -8.607  -6.513  1.00  0.00    -0.055 C 
ATOM     72  C   UNL     1      -2.015  -8.247  -7.027  1.00  0.00    -0.018 C 
ATOM     73  C   UNL     1      -4.280  -9.344  -7.274  1.00  0.00     0.044 C 
BRANCH  72  74
ATOM     74  C   UNL     1      -1.463  -8.471  -8.428  1.00  0.00     0.038 C 
ATOM     75  C   UNL     1      -0.282  -9.441  -8.300  1.00  0.00     0.015 C 
BRANCH  74  76
ATOM     76  C   UNL     1      -1.109  -7.090  -9.054  1.00  0.00     0.128 C 
BRANCH  76  77
ATOM     77  O   UNL     1       0.262  -7.084  -9.486  1.00  0.00    -0.381 OA
ATOM     78  C   UNL     1       1.110  -6.271  -8.685  1.00  0.00     0.195 C 
ENDBRANCH  76  77
BRANCH  76  79
ATOM     79  C   UNL     1      -2.089  -6.631 -10.162  1.00  0.00     0.068 C 
BRANCH  79  80
ATOM     80  C   UNL     1      -3.569  -6.716  -9.877  1.00  0.00    -0.045 A 
ATOM     81  C   UNL     1      -4.394  -7.590 -10.598  1.00  0.00     0.004 A 
ATOM     82  C   UNL     1      -4.149  -5.895  -8.898  1.00  0.00     0.004 A 
ATOM     83  C   UNL     1      -5.765  -7.652 -10.338  1.00  0.00     0.000 A 
ATOM     84  C   UNL     1      -5.520  -5.958  -8.640  1.00  0.00     0.000 A 
ATOM     85  C   UNL     1      -6.327  -6.837  -9.358  1.00  0.00     0.000 A 
ENDBRANCH  79  80
ENDBRANCH  76  79
ENDBRANCH  74  76
ENDBRANCH  72  74
ENDBRANCH  70  71
ENDBRANCH   1  69
TORSDOF 17
ENDMDL
MODEL 42
REMARK VINA RESULT:    -6.440      2.956     13.137
REMARK INTER + INTRA:         -26.183
REMARK INTER:                 -20.168
REMARK INTRA:                  -6.015
REMARK UNBOUND:                -6.942
REMARK SMILES C=C1C(=O)N[C@H](C)C(=O)N[C@@H](CC(C)C)C(=O)N[C@@H](C(=O)O)[C@H](C)C(=O)N[C@@H](CCCN=C(N)N)C(=O)N[C@@H](/C=C/C(C)=C/[C@H](C)[C@H](Cc2ccccc2)OC)[C@H](C)C(=O)N[C@@H](C(=O)O)CCC(=O)N1C
REMARK SMILES IDX 39 1 38 2 37 3 36 4 28 6 27 7 25 8 26 9 23 11 24 12 19 13
REMARK SMILES IDX 18 14 16 15 17 16 11 18 10 19 8 20 9 21 12 24 13 25 14 26
REMARK SMILES IDX 15 27 20 28 21 29 22 30 29 32 30 33 31 34 32 35 33 36 34 37
REMARK SMILES IDX 35 38 57 43 58 44 59 45 60 46 61 47 62 49 66 50 67 51 68 52
REMARK SMILES IDX 69 53 70 54 71 55 2 56 1 57 3 58 4 59 5 60 6 62 7 63 63 65
REMARK SMILES IDX 64 66 65 67 40 69 41 70 42 71 44 72 43 73 45 74 46 75 47 76
REMARK SMILES IDX 55 77 56 78 48 79 49 80 50 81 54 82 51 83 53 84 52 85
REMARK H PARENT 38 5 27 10 18 17 10 22 22 31 34 39 34 40 35 41 35 42 61 48
REMARK H PARENT 5 61 65 68
REMARK Flexibility Score:  369.900
ROOT
ATOM      1  C   UNL     1      -2.607  -7.449  -2.018  1.00  0.00     0.117 C 
ENDROOT
BRANCH   1   2
ATOM      2  N   UNL     1      -3.650  -8.319  -1.473  1.00  0.00    -0.347 N 
ATOM      3  O   UNL     1      -3.014  -8.228   0.730  1.00  0.00    -0.273 OA
ATOM      4  C   UNL     1      -3.825  -8.566  -0.125  1.00  0.00     0.243 C 
ATOM      5  H   UNL     1      -4.324  -8.735  -2.099  1.00  0.00     0.164 HD
BRANCH   4   6
ATOM      6  C   UNL     1      -5.056  -9.453   0.191  1.00  0.00     0.171 C 
BRANCH   6   7
ATOM      7  N   UNL     1      -5.823  -8.886   1.312  1.00  0.00    -0.344 N 
ATOM      8  C   UNL     1      -5.655  -9.366   2.593  1.00  0.00     0.226 C 
ATOM      9  O   UNL     1      -4.890 -10.286   2.858  1.00  0.00    -0.275 OA
ATOM     10  H   UNL     1      -6.514  -8.171   1.122  1.00  0.00     0.164 HD
BRANCH   8  11
ATOM     11  C   UNL     1      -6.476  -8.643   3.645  1.00  0.00     0.109 C 
ATOM     12  C   UNL     1      -6.828  -7.236   3.162  1.00  0.00     0.021 C 
BRANCH  11  13
ATOM     13  C   UNL     1      -7.685  -9.510   4.050  1.00  0.00     0.204 C 
BRANCH  13  14
ATOM     14  N   UNL     1      -8.083  -9.284   5.443  1.00  0.00    -0.340 N 
ATOM     15  C   UNL     1      -8.145 -10.295   6.378  1.00  0.00     0.243 C 
ATOM     16  O   UNL     1      -7.809 -11.451   6.123  1.00  0.00    -0.273 OA
ATOM     17  H   UNL     1      -8.516  -8.387   5.680  1.00  0.00     0.164 HD
BRANCH  15  18
ATOM     18  C   UNL     1      -8.788  -9.861   7.718  1.00  0.00     0.171 C 
BRANCH  18  19
ATOM     19  N   UNL     1     -10.107 -10.488   7.771  1.00  0.00    -0.343 N 
ATOM     20  C   UNL     1     -11.187  -9.974   7.081  1.00  0.00     0.242 CG0
ATOM     21  O   UNL     1     -11.123  -8.893   6.499  1.00  0.00    -0.273 OA
ATOM     22  H   UNL     1     -10.239 -11.321   8.334  1.00  0.00     0.164 HD
ATOM     23  G   UNL     1     -12.475 -10.815   7.195  1.00  0.00     0.000 G0
ENDBRANCH  18  19
BRANCH  18  24
ATOM     24  C   UNL     1      -7.913 -10.290   8.902  1.00  0.00     0.038 C 
BRANCH  24  25
ATOM     25  C   UNL     1      -7.501  -9.142   9.848  1.00  0.00    -0.015 C 
ATOM     26  C   UNL     1      -8.636  -8.146  10.088  1.00  0.00     0.007 C 
ATOM     27  C   UNL     1      -6.287  -8.410   9.271  1.00  0.00     0.007 C 
ENDBRANCH  24  25
ENDBRANCH  18  24
ENDBRANCH  15  18
ENDBRANCH  13  14
BRANCH  13  28
ATOM     28  C   UNL     1      -8.921  -9.268   3.179  1.00  0.00     0.327 C 
ATOM     29  O   UNL     1      -8.974  -9.344   1.961  1.00  0.00    -0.250 OA
BRANCH  28  30
ATOM     30  O   UNL     1      -9.985  -8.829   3.882  1.00  0.00    -0.480 OA
ATOM     31  H   UNL     1     -10.407  -9.648   4.218  1.00  0.00     0.296 HD
ENDBRANCH  28  30
ENDBRANCH  13  28
ENDBRANCH  11  13
ENDBRANCH   8  11
ENDBRANCH   6   7
BRANCH   6  32
ATOM     32  C   UNL     1      -5.927  -9.571  -1.064  1.00  0.00     0.037 C 
BRANCH  32  33
ATOM     33  C   UNL     1      -7.162  -8.662  -1.000  1.00  0.00     0.026 C 
BRANCH  33  34
ATOM     34  C   UNL     1      -7.239  -7.695  -2.182  1.00  0.00     0.146 C 
BRANCH  34  35
ATOM     35  N   UNL     1      -8.606  -7.209  -2.303  1.00  0.00    -0.254 NA
ATOM     36  C   UNL     1      -8.811  -6.093  -2.898  1.00  0.00     0.185 C 
ATOM     37  N   UNL     1     -10.068  -5.638  -3.019  1.00  0.00    -0.370 N 
ATOM     38  N   UNL     1      -7.918  -5.255  -3.454  1.00  0.00    -0.370 N 
ATOM     39  H   UNL     1     -10.801  -6.219  -2.634  1.00  0.00     0.159 HD
ATOM     40  H   UNL     1     -10.326  -4.870  -3.616  1.00  0.00     0.159 HD
ATOM     41  H   UNL     1      -8.189  -4.339  -3.770  1.00  0.00     0.159 HD
ATOM     42  H   UNL     1      -6.932  -5.463  -3.423  1.00  0.00     0.159 HD
ENDBRANCH  34  35
ENDBRANCH  33  34
ENDBRANCH  32  33
ENDBRANCH   6  32
ENDBRANCH   4   6
ENDBRANCH   1   2
BRANCH   1  43
ATOM     43  C   UNL     1      -3.011  -5.969  -1.759  1.00  0.00     0.102 C 
ATOM     44  C   UNL     1      -4.238  -5.519  -2.570  1.00  0.00     0.020 C 
BRANCH  43  45
ATOM     45  C   UNL     1      -1.803  -5.037  -1.891  1.00  0.00     0.225 C 
ATOM     46  O   UNL     1      -0.992  -4.858  -0.987  1.00  0.00    -0.275 OA
ATOM     47  N   UNL     1      -1.728  -4.329  -3.068  1.00  0.00    -0.342 N 
ATOM     48  H   UNL     1      -2.307  -4.596  -3.851  1.00  0.00     0.164 HD
BRANCH  47  49
ATOM     49  C   UNL     1      -0.607  -3.426  -3.349  1.00  0.00     0.192 C 
BRANCH  49  50
ATOM     50  C   UNL     1       0.716  -4.159  -3.110  1.00  0.00     0.047 C 
BRANCH  50  51
ATOM     51  C   UNL     1       1.120  -5.034  -4.304  1.00  0.00     0.103 C 
BRANCH  51  52
ATOM     52  C   UNL     1       2.478  -5.701  -4.092  1.00  0.00     0.226 C 
ATOM     53  O   UNL     1       2.658  -6.416  -3.104  1.00  0.00    -0.275 OA
BRANCH  52  54
ATOM     54  N   UNL     1       3.435  -5.511  -5.105  1.00  0.00    -0.311 N 
ATOM     55  C   UNL     1       4.409  -6.561  -5.432  1.00  0.00     0.153 C 
BRANCH  54  56
ATOM     56  C   UNL     1       3.492  -4.317  -5.843  1.00  0.00     0.102 C 
ATOM     57  C   UNL     1       3.003  -4.156  -7.084  1.00  0.00     0.043 C 
BRANCH  56  58
ATOM     58  C   UNL     1       4.094  -3.066  -5.248  1.00  0.00     0.268 C 
ATOM     59  O   UNL     1       4.445  -2.982  -4.079  1.00  0.00    -0.268 OA
ATOM     60  N   UNL     1       4.268  -2.059  -6.168  1.00  0.00    -0.339 N 
ATOM     61  H   UNL     1       3.941  -2.204  -7.116  1.00  0.00     0.164 HD
BRANCH  60  62
ATOM     62  C   UNL     1       4.892  -0.784  -5.819  1.00  0.00     0.168 CG0
ATOM     63  C   UNL     1       6.259  -0.645  -6.478  1.00  0.00     0.041 C 
ATOM     64  G   UNL     1       5.011  -0.669  -4.286  1.00  0.00     0.000 G0
ENDBRANCH  60  62
ENDBRANCH  56  58
ENDBRANCH  54  56
ENDBRANCH  52  54
ENDBRANCH  51  52
ENDBRANCH  50  51
ENDBRANCH  49  50
BRANCH  49  65
ATOM     65  C   UNL     1      -0.658  -2.168  -2.468  1.00  0.00     0.326 C 
ATOM     66  O   UNL     1       0.244  -1.767  -1.748  1.00  0.00    -0.250 OA
BRANCH  65  67
ATOM     67  O   UNL     1      -1.842  -1.516  -2.484  1.00  0.00    -0.480 OA
ATOM     68  H   UNL     1      -2.502  -2.238  -2.566  1.00  0.00     0.296 HD
ENDBRANCH  65  67
ENDBRANCH  49  65
ENDBRANCH  47  49
ENDBRANCH  43  45
ENDBRANCH   1  43
BRANCH   1  69
ATOM     69  C   UNL     1      -2.377  -7.907  -3.447  1.00  0.00    -0.001 C 
ATOM     70  C   UNL     1      -1.256  -7.771  -4.177  1.00  0.00     0.001 C 
BRANCH  70  71
ATOM     71  C   UNL     1      -1.038  -8.237  -5.548  1.00  0.00    -0.055 C 
ATOM     72  C   UNL     1       0.227  -8.231  -6.020  1.00  0.00    -0.018 C 
ATOM     73  C   UNL     1      -2.239  -8.697  -6.333  1.00  0.00     0.044 C 
BRANCH  72  74
ATOM     74  C   UNL     1       0.748  -8.655  -7.385  1.00  0.00     0.038 C 
ATOM     75  C   UNL     1       1.494  -9.981  -7.193  1.00  0.00     0.015 C 
BRANCH  74  76
ATOM     76  C   UNL     1       1.610  -7.500  -7.974  1.00  0.00     0.128 C 
BRANCH  76  77
ATOM     77  O   UNL     1       2.757  -8.039  -8.651  1.00  0.00    -0.381 OA
ATOM     78  C   UNL     1       3.481  -7.076  -9.405  1.00  0.00     0.195 C 
ENDBRANCH  76  77
BRANCH  76  79
ATOM     79  C   UNL     1       0.811  -6.501  -8.849  1.00  0.00     0.068 C 
BRANCH  79  80
ATOM     80  C   UNL     1      -0.392  -7.022  -9.598  1.00  0.00    -0.045 A 
ATOM     81  C   UNL     1      -1.690  -6.645  -9.230  1.00  0.00     0.004 A 
ATOM     82  C   UNL     1      -0.227  -7.921 -10.663  1.00  0.00     0.004 A 
ATOM     83  C   UNL     1      -2.798  -7.143  -9.918  1.00  0.00     0.000 A 
ATOM     84  C   UNL     1      -1.336  -8.418 -11.350  1.00  0.00     0.000 A 
ATOM     85  C   UNL     1      -2.621  -8.028 -10.979  1.00  0.00     0.000 A 
ENDBRANCH  79  80
ENDBRANCH  76  79
ENDBRANCH  74  76
ENDBRANCH  72  74
ENDBRANCH  70  71
ENDBRANCH   1  69
TORSDOF 17
ENDMDL
MODEL 43
REMARK VINA RESULT:    -6.437      2.613     13.181
REMARK INTER + INTRA:         -26.174
REMARK INTER:                 -21.490
REMARK INTRA:                  -4.684
REMARK UNBOUND:                -6.942
REMARK SMILES C=C1C(=O)N[C@H](C)C(=O)N[C@@H](CC(C)C)C(=O)N[C@@H](C(=O)O)[C@H](C)C(=O)N[C@@H](CCCN=C(N)N)C(=O)N[C@@H](/C=C/C(C)=C/[C@H](C)[C@H](Cc2ccccc2)OC)[C@H](C)C(=O)N[C@@H](C(=O)O)CCC(=O)N1C
REMARK SMILES IDX 39 1 38 2 37 3 36 4 28 6 27 7 25 8 26 9 23 11 24 12 19 13
REMARK SMILES IDX 18 14 16 15 17 16 11 18 10 19 8 20 9 21 12 24 13 25 14 26
REMARK SMILES IDX 15 27 20 28 21 29 22 30 29 32 30 33 31 34 32 35 33 36 34 37
REMARK SMILES IDX 35 38 57 43 58 44 59 45 60 46 61 47 62 49 66 50 67 51 68 52
REMARK SMILES IDX 69 53 70 54 71 55 2 56 1 57 3 58 4 59 5 60 6 62 7 63 63 65
REMARK SMILES IDX 64 66 65 67 40 69 41 70 42 71 44 72 43 73 45 74 46 75 47 76
REMARK SMILES IDX 55 77 56 78 48 79 49 80 50 81 54 82 51 83 53 84 52 85
REMARK H PARENT 38 5 27 10 18 17 10 22 22 31 34 39 34 40 35 41 35 42 61 48
REMARK H PARENT 5 61 65 68
REMARK Flexibility Score:  369.900
ROOT
ATOM      1  C   UNL     1      -1.936  -6.728  -1.675  1.00  0.00     0.117 C 
ENDROOT
BRANCH   1   2
ATOM      2  N   UNL     1      -2.901  -7.711  -1.181  1.00  0.00    -0.347 N 
ATOM      3  O   UNL     1      -2.811  -7.149   1.043  1.00  0.00    -0.273 OA
ATOM      4  C   UNL     1      -3.331  -7.782   0.130  1.00  0.00     0.243 C 
ATOM      5  H   UNL     1      -3.328  -8.354  -1.830  1.00  0.00     0.164 HD
BRANCH   4   6
ATOM      6  C   UNL     1      -4.421  -8.857   0.371  1.00  0.00     0.171 C 
BRANCH   6   7
ATOM      7  N   UNL     1      -5.425  -8.365   1.329  1.00  0.00    -0.344 N 
ATOM      8  C   UNL     1      -5.300  -8.629   2.675  1.00  0.00     0.226 C 
ATOM      9  O   UNL     1      -4.378  -9.292   3.136  1.00  0.00    -0.275 OA
ATOM     10  H   UNL     1      -6.236  -7.872   0.978  1.00  0.00     0.164 HD
BRANCH   8  11
ATOM     11  C   UNL     1      -6.385  -8.008   3.538  1.00  0.00     0.109 C 
ATOM     12  C   UNL     1      -6.872  -6.702   2.910  1.00  0.00     0.021 C 
BRANCH  11  13
ATOM     13  C   UNL     1      -7.491  -9.047   3.813  1.00  0.00     0.204 C 
BRANCH  13  14
ATOM     14  N   UNL     1      -8.068  -8.897   5.152  1.00  0.00    -0.340 N 
ATOM     15  C   UNL     1      -7.830  -9.789   6.174  1.00  0.00     0.243 C 
ATOM     16  O   UNL     1      -7.065 -10.745   6.052  1.00  0.00    -0.273 OA
ATOM     17  H   UNL     1      -8.824  -8.218   5.276  1.00  0.00     0.164 HD
BRANCH  15  18
ATOM     18  C   UNL     1      -8.706  -9.544   7.427  1.00  0.00     0.171 C 
BRANCH  18  19
ATOM     19  N   UNL     1     -10.097  -9.653   6.993  1.00  0.00    -0.343 N 
ATOM     20  C   UNL     1     -11.101  -8.896   7.565  1.00  0.00     0.242 CG0
ATOM     21  O   UNL     1     -10.894  -8.194   8.553  1.00  0.00    -0.273 OA
ATOM     22  H   UNL     1     -10.338 -10.306   6.256  1.00  0.00     0.164 HD
ATOM     23  G   UNL     1     -12.490  -9.090   6.923  1.00  0.00     0.000 G0
ENDBRANCH  18  19
BRANCH  18  24
ATOM     24  C   UNL     1      -8.378 -10.562   8.526  1.00  0.00     0.038 C 
BRANCH  24  25
ATOM     25  C   UNL     1      -7.476 -10.023   9.656  1.00  0.00    -0.015 C 
ATOM     26  C   UNL     1      -7.643  -8.519   9.871  1.00  0.00     0.007 C 
ATOM     27  C   UNL     1      -6.012 -10.340   9.342  1.00  0.00     0.007 C 
ENDBRANCH  24  25
ENDBRANCH  18  24
ENDBRANCH  15  18
ENDBRANCH  13  14
BRANCH  13  28
ATOM     28  C   UNL     1      -8.647  -8.979   2.810  1.00  0.00     0.327 C 
ATOM     29  O   UNL     1      -8.546  -8.900   1.595  1.00  0.00    -0.250 OA
BRANCH  28  30
ATOM     30  O   UNL     1      -9.855  -8.893   3.401  1.00  0.00    -0.480 OA
ATOM     31  H   UNL     1     -10.483  -8.804   2.655  1.00  0.00     0.296 HD
ENDBRANCH  28  30
ENDBRANCH  13  28
ENDBRANCH  11  13
ENDBRANCH   8  11
ENDBRANCH   6   7
BRANCH   6  32
ATOM     32  C   UNL     1      -5.073  -9.222  -0.967  1.00  0.00     0.037 C 
BRANCH  32  33
ATOM     33  C   UNL     1      -6.438  -8.544  -1.150  1.00  0.00     0.026 C 
BRANCH  33  34
ATOM     34  C   UNL     1      -6.738  -8.219  -2.614  1.00  0.00     0.146 C 
BRANCH  34  35
ATOM     35  N   UNL     1      -6.562  -6.789  -2.823  1.00  0.00    -0.254 NA
ATOM     36  C   UNL     1      -7.501  -6.131  -3.395  1.00  0.00     0.185 C 
ATOM     37  N   UNL     1      -7.351  -4.812  -3.589  1.00  0.00    -0.370 N 
ATOM     38  N   UNL     1      -8.682  -6.576  -3.859  1.00  0.00    -0.370 N 
ATOM     39  H   UNL     1      -6.490  -4.399  -3.256  1.00  0.00     0.159 HD
ATOM     40  H   UNL     1      -8.101  -4.202  -3.867  1.00  0.00     0.159 HD
ATOM     41  H   UNL     1      -9.279  -5.986  -4.416  1.00  0.00     0.159 HD
ATOM     42  H   UNL     1      -8.924  -7.553  -3.795  1.00  0.00     0.159 HD
ENDBRANCH  34  35
ENDBRANCH  33  34
ENDBRANCH  32  33
ENDBRANCH   6  32
ENDBRANCH   4   6
ENDBRANCH   1   2
BRANCH   1  43
ATOM     43  C   UNL     1      -2.636  -5.341  -1.749  1.00  0.00     0.102 C 
ATOM     44  C   UNL     1      -3.649  -5.228  -2.901  1.00  0.00     0.020 C 
BRANCH  43  45
ATOM     45  C   UNL     1      -1.611  -4.204  -1.710  1.00  0.00     0.225 C 
ATOM     46  O   UNL     1      -1.005  -3.882  -0.692  1.00  0.00    -0.275 OA
ATOM     47  N   UNL     1      -1.472  -3.491  -2.879  1.00  0.00    -0.342 N 
ATOM     48  H   UNL     1      -1.857  -3.858  -3.738  1.00  0.00     0.164 HD
BRANCH  47  49
ATOM     49  C   UNL     1      -0.502  -2.398  -2.999  1.00  0.00     0.192 C 
BRANCH  49  50
ATOM     50  C   UNL     1       0.899  -2.915  -2.662  1.00  0.00     0.047 C 
BRANCH  50  51
ATOM     51  C   UNL     1       1.567  -3.609  -3.857  1.00  0.00     0.103 C 
BRANCH  51  52
ATOM     52  C   UNL     1       3.043  -3.235  -3.985  1.00  0.00     0.226 C 
ATOM     53  O   UNL     1       3.900  -3.944  -3.455  1.00  0.00    -0.275 OA
BRANCH  52  54
ATOM     54  N   UNL     1       3.339  -2.117  -4.786  1.00  0.00    -0.311 N 
ATOM     55  C   UNL     1       2.974  -0.760  -4.356  1.00  0.00     0.153 C 
BRANCH  54  56
ATOM     56  C   UNL     1       3.997  -2.253  -6.020  1.00  0.00     0.102 C 
ATOM     57  C   UNL     1       4.939  -1.416  -6.484  1.00  0.00     0.043 C 
BRANCH  56  58
ATOM     58  C   UNL     1       3.708  -3.426  -6.927  1.00  0.00     0.268 C 
ATOM     59  O   UNL     1       2.618  -3.616  -7.449  1.00  0.00    -0.268 OA
ATOM     60  N   UNL     1       4.809  -4.215  -7.156  1.00  0.00    -0.339 N 
ATOM     61  H   UNL     1       5.674  -3.996  -6.677  1.00  0.00     0.164 HD
BRANCH  60  62
ATOM     62  C   UNL     1       4.768  -5.368  -8.055  1.00  0.00     0.168 CG0
ATOM     63  C   UNL     1       5.228  -4.987  -9.456  1.00  0.00     0.041 C 
ATOM     64  G   UNL     1       3.338  -5.946  -8.088  1.00  0.00     0.000 G0
ENDBRANCH  60  62
ENDBRANCH  56  58
ENDBRANCH  54  56
ENDBRANCH  52  54
ENDBRANCH  51  52
ENDBRANCH  50  51
ENDBRANCH  49  50
BRANCH  49  65
ATOM     65  C   UNL     1      -0.850  -1.226  -2.069  1.00  0.00     0.326 C 
ATOM     66  O   UNL     1      -1.565  -0.278  -2.358  1.00  0.00    -0.250 OA
BRANCH  65  67
ATOM     67  O   UNL     1      -0.246  -1.267  -0.861  1.00  0.00    -0.480 OA
ATOM     68  H   UNL     1      -0.298  -2.214  -0.608  1.00  0.00     0.296 HD
ENDBRANCH  65  67
ENDBRANCH  49  65
ENDBRANCH  47  49
ENDBRANCH  43  45
ENDBRANCH   1  43
BRANCH   1  69
ATOM     69  C   UNL     1      -1.340  -7.318  -2.940  1.00  0.00    -0.001 C 
ATOM     70  C   UNL     1      -0.184  -6.974  -3.536  1.00  0.00     0.001 C 
BRANCH  70  71
ATOM     71  C   UNL     1       0.392  -7.566  -4.745  1.00  0.00    -0.055 C 
ATOM     72  C   UNL     1      -0.429  -7.767  -5.797  1.00  0.00    -0.018 C 
ATOM     73  C   UNL     1       1.860  -7.900  -4.733  1.00  0.00     0.044 C 
BRANCH  72  74
ATOM     74  C   UNL     1      -0.115  -8.353  -7.166  1.00  0.00     0.038 C 
ATOM     75  C   UNL     1       0.297  -9.814  -6.949  1.00  0.00     0.015 C 
BRANCH  74  76
ATOM     76  C   UNL     1       0.964  -7.466  -7.855  1.00  0.00     0.128 C 
BRANCH  76  77
ATOM     77  O   UNL     1       2.111  -8.264  -8.195  1.00  0.00    -0.381 OA
ATOM     78  C   UNL     1       2.600  -8.029  -9.509  1.00  0.00     0.195 C 
ENDBRANCH  76  77
BRANCH  76  79
ATOM     79  C   UNL     1       0.430  -6.642  -9.053  1.00  0.00     0.068 C 
BRANCH  79  80
ATOM     80  C   UNL     1      -0.931  -6.993  -9.603  1.00  0.00    -0.045 A 
ATOM     81  C   UNL     1      -1.080  -7.978 -10.588  1.00  0.00     0.004 A 
ATOM     82  C   UNL     1      -2.073  -6.313  -9.151  1.00  0.00     0.004 A 
ATOM     83  C   UNL     1      -2.341  -8.287 -11.101  1.00  0.00     0.000 A 
ATOM     84  C   UNL     1      -3.334  -6.623  -9.666  1.00  0.00     0.000 A 
ATOM     85  C   UNL     1      -3.468  -7.610 -10.639  1.00  0.00     0.000 A 
ENDBRANCH  79  80
ENDBRANCH  76  79
ENDBRANCH  74  76
ENDBRANCH  72  74
ENDBRANCH  70  71
ENDBRANCH   1  69
TORSDOF 17
ENDMDL
MODEL 44
REMARK VINA RESULT:    -6.424      4.078      8.329
REMARK INTER + INTRA:         -26.135
REMARK INTER:                 -20.762
REMARK INTRA:                  -5.373
REMARK UNBOUND:                -6.942
REMARK SMILES C=C1C(=O)N[C@H](C)C(=O)N[C@@H](CC(C)C)C(=O)N[C@@H](C(=O)O)[C@H](C)C(=O)N[C@@H](CCCN=C(N)N)C(=O)N[C@@H](/C=C/C(C)=C/[C@H](C)[C@H](Cc2ccccc2)OC)[C@H](C)C(=O)N[C@@H](C(=O)O)CCC(=O)N1C
REMARK SMILES IDX 39 1 38 2 37 3 36 4 28 6 27 7 25 8 26 9 23 11 24 12 19 13
REMARK SMILES IDX 18 14 16 15 17 16 11 18 10 19 8 20 9 21 12 24 13 25 14 26
REMARK SMILES IDX 15 27 20 28 21 29 22 30 29 32 30 33 31 34 32 35 33 36 34 37
REMARK SMILES IDX 35 38 57 43 58 44 59 45 60 46 61 47 62 49 66 50 67 51 68 52
REMARK SMILES IDX 69 53 70 54 71 55 2 56 1 57 3 58 4 59 5 60 6 62 7 63 63 65
REMARK SMILES IDX 64 66 65 67 40 69 41 70 42 71 44 72 43 73 45 74 46 75 47 76
REMARK SMILES IDX 55 77 56 78 48 79 49 80 50 81 54 82 51 83 53 84 52 85
REMARK H PARENT 38 5 27 10 18 17 10 22 22 31 34 39 34 40 35 41 35 42 61 48
REMARK H PARENT 5 61 65 68
REMARK Flexibility Score:  369.900
ROOT
ATOM      1  C   UNL     1      -0.405  -6.599  -2.902  1.00  0.00     0.117 C 
ENDROOT
BRANCH   1   2
ATOM      2  N   UNL     1      -0.088  -7.453  -4.048  1.00  0.00    -0.347 N 
ATOM      3  O   UNL     1       2.200  -7.331  -3.906  1.00  0.00    -0.273 OA
ATOM      4  C   UNL     1       1.194  -7.826  -4.404  1.00  0.00     0.243 C 
ATOM      5  H   UNL     1      -0.840  -7.845  -4.595  1.00  0.00     0.164 HD
BRANCH   4   6
ATOM      6  C   UNL     1       1.247  -8.805  -5.604  1.00  0.00     0.171 C 
BRANCH   6   7
ATOM      7  N   UNL     1       0.629  -8.197  -6.792  1.00  0.00    -0.344 N 
ATOM      8  C   UNL     1      -0.653  -8.535  -7.169  1.00  0.00     0.226 C 
ATOM      9  O   UNL     1      -1.324  -9.360  -6.560  1.00  0.00    -0.275 OA
ATOM     10  H   UNL     1       1.177  -7.562  -7.359  1.00  0.00     0.164 HD
BRANCH   8  11
ATOM     11  C   UNL     1      -1.168  -7.782  -8.382  1.00  0.00     0.109 C 
ATOM     12  C   UNL     1      -0.006  -7.420  -9.309  1.00  0.00     0.021 C 
BRANCH  11  13
ATOM     13  C   UNL     1      -2.304  -8.582  -9.050  1.00  0.00     0.204 C 
BRANCH  13  14
ATOM     14  N   UNL     1      -3.562  -7.829  -9.085  1.00  0.00    -0.340 N 
ATOM     15  C   UNL     1      -4.744  -8.324  -8.577  1.00  0.00     0.243 C 
ATOM     16  O   UNL     1      -4.813  -9.409  -8.002  1.00  0.00    -0.273 OA
ATOM     17  H   UNL     1      -3.607  -6.996  -9.677  1.00  0.00     0.164 HD
BRANCH  15  18
ATOM     18  C   UNL     1      -5.975  -7.447  -8.911  1.00  0.00     0.171 C 
BRANCH  18  19
ATOM     19  N   UNL     1      -6.350  -6.762  -7.675  1.00  0.00    -0.343 N 
ATOM     20  C   UNL     1      -5.556  -5.779  -7.117  1.00  0.00     0.242 CG0
ATOM     21  O   UNL     1      -4.437  -5.528  -7.559  1.00  0.00    -0.273 OA
ATOM     22  H   UNL     1      -7.213  -7.016  -7.208  1.00  0.00     0.164 HD
ATOM     23  G   UNL     1      -6.152  -5.116  -5.859  1.00  0.00     0.000 G0
ENDBRANCH  18  19
BRANCH  18  24
ATOM     24  C   UNL     1      -5.643  -6.449 -10.028  1.00  0.00     0.038 C 
BRANCH  24  25
ATOM     25  C   UNL     1      -6.860  -5.969 -10.847  1.00  0.00    -0.015 C 
ATOM     26  C   UNL     1      -7.745  -4.998 -10.065  1.00  0.00     0.007 C 
ATOM     27  C   UNL     1      -7.688  -7.177 -11.293  1.00  0.00     0.007 C 
ENDBRANCH  24  25
ENDBRANCH  18  24
ENDBRANCH  15  18
ENDBRANCH  13  14
BRANCH  13  28
ATOM     28  C   UNL     1      -1.984  -8.999 -10.488  1.00  0.00     0.327 C 
ATOM     29  O   UNL     1      -2.346  -8.425 -11.504  1.00  0.00    -0.250 OA
BRANCH  28  30
ATOM     30  O   UNL     1      -1.331 -10.176 -10.565  1.00  0.00    -0.480 OA
ATOM     31  H   UNL     1      -1.558 -10.521 -11.454  1.00  0.00     0.296 HD
ENDBRANCH  28  30
ENDBRANCH  13  28
ENDBRANCH  11  13
ENDBRANCH   8  11
ENDBRANCH   6   7
BRANCH   6  32
ATOM     32  C   UNL     1       2.707  -9.184  -5.879  1.00  0.00     0.037 C 
BRANCH  32  33
ATOM     33  C   UNL     1       3.312  -8.363  -7.026  1.00  0.00     0.026 C 
BRANCH  33  34
ATOM     34  C   UNL     1       4.830  -8.224  -6.909  1.00  0.00     0.146 C 
BRANCH  34  35
ATOM     35  N   UNL     1       5.133  -7.087  -6.050  1.00  0.00    -0.254 NA
ATOM     36  C   UNL     1       5.665  -7.307  -4.906  1.00  0.00     0.185 C 
ATOM     37  N   UNL     1       5.953  -6.266  -4.108  1.00  0.00    -0.370 N 
ATOM     38  N   UNL     1       6.002  -8.480  -4.342  1.00  0.00    -0.370 N 
ATOM     39  H   UNL     1       5.737  -5.345  -4.468  1.00  0.00     0.159 HD
ATOM     40  H   UNL     1       6.522  -6.339  -3.283  1.00  0.00     0.159 HD
ATOM     41  H   UNL     1       6.286  -8.532  -3.377  1.00  0.00     0.159 HD
ATOM     42  H   UNL     1       5.828  -9.349  -4.822  1.00  0.00     0.159 HD
ENDBRANCH  34  35
ENDBRANCH  33  34
ENDBRANCH  32  33
ENDBRANCH   6  32
ENDBRANCH   4   6
ENDBRANCH   1   2
BRANCH   1  43
ATOM     43  C   UNL     1      -1.877  -6.868  -2.477  1.00  0.00     0.102 C 
ATOM     44  C   UNL     1      -2.808  -5.664  -2.701  1.00  0.00     0.020 C 
BRANCH  43  45
ATOM     45  C   UNL     1      -1.943  -7.449  -1.061  1.00  0.00     0.225 C 
ATOM     46  O   UNL     1      -1.302  -8.435  -0.710  1.00  0.00    -0.275 OA
ATOM     47  N   UNL     1      -2.848  -6.848  -0.216  1.00  0.00    -0.342 N 
ATOM     48  H   UNL     1      -3.250  -5.956  -0.466  1.00  0.00     0.164 HD
BRANCH  47  49
ATOM     49  C   UNL     1      -2.994  -7.276   1.179  1.00  0.00     0.192 C 
BRANCH  49  50
ATOM     50  C   UNL     1      -4.233  -8.164   1.318  1.00  0.00     0.047 C 
BRANCH  50  51
ATOM     51  C   UNL     1      -4.758  -8.648  -0.041  1.00  0.00     0.103 C 
BRANCH  51  52
ATOM     52  C   UNL     1      -5.674  -7.619  -0.701  1.00  0.00     0.226 C 
ATOM     53  O   UNL     1      -6.063  -6.645  -0.055  1.00  0.00    -0.275 OA
BRANCH  52  54
ATOM     54  N   UNL     1      -5.960  -7.818  -2.065  1.00  0.00    -0.311 N 
ATOM     55  C   UNL     1      -5.220  -8.811  -2.855  1.00  0.00     0.153 C 
BRANCH  54  56
ATOM     56  C   UNL     1      -6.963  -7.083  -2.718  1.00  0.00     0.102 C 
ATOM     57  C   UNL     1      -8.278  -7.345  -2.645  1.00  0.00     0.043 C 
BRANCH  56  58
ATOM     58  C   UNL     1      -6.618  -5.867  -3.546  1.00  0.00     0.268 C 
ATOM     59  O   UNL     1      -6.368  -4.773  -3.057  1.00  0.00    -0.268 OA
ATOM     60  N   UNL     1      -6.549  -6.133  -4.893  1.00  0.00    -0.339 N 
ATOM     61  H   UNL     1      -6.781  -7.064  -5.218  1.00  0.00     0.164 HD
BRANCH  60  62
ATOM     62  C   UNL     1      -6.170  -5.113  -5.869  1.00  0.00     0.168 CG0
ATOM     63  C   UNL     1      -7.368  -4.256  -6.259  1.00  0.00     0.041 C 
ATOM     64  G   UNL     1      -5.556  -5.790  -7.112  1.00  0.00     0.000 G0
ENDBRANCH  60  62
ENDBRANCH  56  58
ENDBRANCH  54  56
ENDBRANCH  52  54
ENDBRANCH  51  52
ENDBRANCH  50  51
ENDBRANCH  49  50
BRANCH  49  65
ATOM     65  C   UNL     1      -3.120  -6.075   2.129  1.00  0.00     0.326 C 
ATOM     66  O   UNL     1      -2.498  -5.925   3.171  1.00  0.00    -0.250 OA
BRANCH  65  67
ATOM     67  O   UNL     1      -4.049  -5.163   1.766  1.00  0.00    -0.480 OA
ATOM     68  H   UNL     1      -4.873  -5.691   1.690  1.00  0.00     0.296 HD
ENDBRANCH  65  67
ENDBRANCH  49  65
ENDBRANCH  47  49
ENDBRANCH  43  45
ENDBRANCH   1  43
BRANCH   1  69
ATOM     69  C   UNL     1      -0.001  -5.191  -3.299  1.00  0.00    -0.001 C 
ATOM     70  C   UNL     1       0.792  -4.346  -2.617  1.00  0.00     0.001 C 
BRANCH  70  71
ATOM     71  C   UNL     1       1.192  -2.996  -3.020  1.00  0.00    -0.055 C 
ATOM     72  C   UNL     1       2.513  -2.735  -3.114  1.00  0.00    -0.018 C 
ATOM     73  C   UNL     1       0.102  -1.998  -3.310  1.00  0.00     0.044 C 
BRANCH  72  74
ATOM     74  C   UNL     1       3.213  -1.442  -3.507  1.00  0.00     0.038 C 
ATOM     75  C   UNL     1       2.159  -0.328  -3.474  1.00  0.00     0.015 C 
BRANCH  74  76
ATOM     76  C   UNL     1       3.904  -1.647  -4.888  1.00  0.00     0.128 C 
BRANCH  76  77
ATOM     77  O   UNL     1       4.937  -0.663  -5.070  1.00  0.00    -0.381 OA
ATOM     78  C   UNL     1       5.409  -0.573  -6.408  1.00  0.00     0.195 C 
ENDBRANCH  76  77
BRANCH  76  79
ATOM     79  C   UNL     1       4.403  -3.093  -5.133  1.00  0.00     0.068 C 
BRANCH  79  80
ATOM     80  C   UNL     1       3.947  -3.794  -6.390  1.00  0.00    -0.045 A 
ATOM     81  C   UNL     1       2.663  -4.349  -6.482  1.00  0.00     0.004 A 
ATOM     82  C   UNL     1       4.818  -3.927  -7.482  1.00  0.00     0.004 A 
ATOM     83  C   UNL     1       2.254  -5.009  -7.642  1.00  0.00     0.000 A 
ATOM     84  C   UNL     1       4.408  -4.588  -8.642  1.00  0.00     0.000 A 
ATOM     85  C   UNL     1       3.126  -5.127  -8.723  1.00  0.00     0.000 A 
ENDBRANCH  79  80
ENDBRANCH  76  79
ENDBRANCH  74  76
ENDBRANCH  72  74
ENDBRANCH  70  71
ENDBRANCH   1  69
TORSDOF 17
ENDMDL
MODEL 45
REMARK VINA RESULT:    -6.385      4.128     13.571
REMARK INTER + INTRA:         -26.019
REMARK INTER:                 -20.624
REMARK INTRA:                  -5.395
REMARK UNBOUND:                -6.942
REMARK SMILES C=C1C(=O)N[C@H](C)C(=O)N[C@@H](CC(C)C)C(=O)N[C@@H](C(=O)O)[C@H](C)C(=O)N[C@@H](CCCN=C(N)N)C(=O)N[C@@H](/C=C/C(C)=C/[C@H](C)[C@H](Cc2ccccc2)OC)[C@H](C)C(=O)N[C@@H](C(=O)O)CCC(=O)N1C
REMARK SMILES IDX 39 1 38 2 37 3 36 4 28 6 27 7 25 8 26 9 23 11 24 12 19 13
REMARK SMILES IDX 18 14 16 15 17 16 11 18 10 19 8 20 9 21 12 24 13 25 14 26
REMARK SMILES IDX 15 27 20 28 21 29 22 30 29 32 30 33 31 34 32 35 33 36 34 37
REMARK SMILES IDX 35 38 57 43 58 44 59 45 60 46 61 47 62 49 66 50 67 51 68 52
REMARK SMILES IDX 69 53 70 54 71 55 2 56 1 57 3 58 4 59 5 60 6 62 7 63 63 65
REMARK SMILES IDX 64 66 65 67 40 69 41 70 42 71 44 72 43 73 45 74 46 75 47 76
REMARK SMILES IDX 55 77 56 78 48 79 49 80 50 81 54 82 51 83 53 84 52 85
REMARK H PARENT 38 5 27 10 18 17 10 22 22 31 34 39 34 40 35 41 35 42 61 48
REMARK H PARENT 5 61 65 68
REMARK Flexibility Score:  369.900
ROOT
ATOM      1  C   UNL     1      -4.024  -6.605  -3.972  1.00  0.00     0.117 C 
ENDROOT
BRANCH   1   2
ATOM      2  N   UNL     1      -4.133  -7.535  -2.847  1.00  0.00    -0.347 N 
ATOM      3  O   UNL     1      -4.725  -6.010  -1.237  1.00  0.00    -0.273 OA
ATOM      4  C   UNL     1      -4.565  -7.175  -1.586  1.00  0.00     0.243 C 
ATOM      5  H   UNL     1      -3.931  -8.512  -2.993  1.00  0.00     0.164 HD
BRANCH   4   6
ATOM      6  C   UNL     1      -4.672  -8.366  -0.600  1.00  0.00     0.171 C 
BRANCH   6   7
ATOM      7  N   UNL     1      -5.527  -8.012   0.544  1.00  0.00    -0.344 N 
ATOM      8  C   UNL     1      -5.078  -8.183   1.836  1.00  0.00     0.226 C 
ATOM      9  O   UNL     1      -3.975  -8.650   2.095  1.00  0.00    -0.275 OA
ATOM     10  H   UNL     1      -6.469  -7.686   0.371  1.00  0.00     0.164 HD
BRANCH   8  11
ATOM     11  C   UNL     1      -6.054  -7.720   2.904  1.00  0.00     0.109 C 
ATOM     12  C   UNL     1      -7.141  -6.846   2.279  1.00  0.00     0.021 C 
BRANCH  11  13
ATOM     13  C   UNL     1      -6.575  -8.936   3.696  1.00  0.00     0.204 C 
BRANCH  13  14
ATOM     14  N   UNL     1      -7.702  -8.586   4.565  1.00  0.00    -0.340 N 
ATOM     15  C   UNL     1      -7.925  -9.193   5.782  1.00  0.00     0.243 C 
ATOM     16  O   UNL     1      -7.157 -10.030   6.253  1.00  0.00    -0.273 OA
ATOM     17  H   UNL     1      -8.454  -8.014   4.171  1.00  0.00     0.164 HD
BRANCH  15  18
ATOM     18  C   UNL     1      -9.282  -8.813   6.424  1.00  0.00     0.171 C 
BRANCH  18  19
ATOM     19  N   UNL     1      -9.036  -7.641   7.261  1.00  0.00    -0.343 N 
ATOM     20  C   UNL     1      -8.639  -7.757   8.579  1.00  0.00     0.242 CG0
ATOM     21  O   UNL     1      -8.603  -8.846   9.147  1.00  0.00    -0.273 OA
ATOM     22  H   UNL     1      -9.165  -6.714   6.870  1.00  0.00     0.164 HD
ATOM     23  G   UNL     1      -8.351  -6.412   9.278  1.00  0.00     0.000 G0
ENDBRANCH  18  19
BRANCH  18  24
ATOM     24  C   UNL     1     -10.330  -8.521   5.342  1.00  0.00     0.038 C 
BRANCH  24  25
ATOM     25  C   UNL     1     -11.428  -9.596   5.201  1.00  0.00    -0.015 C 
ATOM     26  C   UNL     1     -12.382  -9.310   4.042  1.00  0.00     0.007 C 
ATOM     27  C   UNL     1     -12.220  -9.697   6.508  1.00  0.00     0.007 C 
ENDBRANCH  24  25
ENDBRANCH  18  24
ENDBRANCH  15  18
ENDBRANCH  13  14
BRANCH  13  28
ATOM     28  C   UNL     1      -7.035 -10.089   2.798  1.00  0.00     0.327 C 
ATOM     29  O   UNL     1      -8.076 -10.138   2.161  1.00  0.00    -0.250 OA
BRANCH  28  30
ATOM     30  O   UNL     1      -6.215 -11.159   2.850  1.00  0.00    -0.480 OA
ATOM     31  H   UNL     1      -6.281 -11.556   1.957  1.00  0.00     0.296 HD
ENDBRANCH  28  30
ENDBRANCH  13  28
ENDBRANCH  11  13
ENDBRANCH   8  11
ENDBRANCH   6   7
BRANCH   6  32
ATOM     32  C   UNL     1      -5.229  -9.586  -1.343  1.00  0.00     0.037 C 
BRANCH  32  33
ATOM     33  C   UNL     1      -6.663  -9.923  -0.909  1.00  0.00     0.026 C 
BRANCH  33  34
ATOM     34  C   UNL     1      -7.682  -9.690  -2.025  1.00  0.00     0.146 C 
BRANCH  34  35
ATOM     35  N   UNL     1      -8.442  -8.485  -1.724  1.00  0.00    -0.254 NA
ATOM     36  C   UNL     1      -8.528  -7.573  -2.620  1.00  0.00     0.185 C 
ATOM     37  N   UNL     1      -9.230  -6.460  -2.354  1.00  0.00    -0.370 N 
ATOM     38  N   UNL     1      -7.998  -7.550  -3.855  1.00  0.00    -0.370 N 
ATOM     39  H   UNL     1      -9.670  -6.407  -1.445  1.00  0.00     0.159 HD
ATOM     40  H   UNL     1      -9.489  -5.786  -3.054  1.00  0.00     0.159 HD
ATOM     41  H   UNL     1      -8.020  -6.713  -4.416  1.00  0.00     0.159 HD
ATOM     42  H   UNL     1      -7.431  -8.315  -4.184  1.00  0.00     0.159 HD
ENDBRANCH  34  35
ENDBRANCH  33  34
ENDBRANCH  32  33
ENDBRANCH   6  32
ENDBRANCH   4   6
ENDBRANCH   1   2
BRANCH   1  43
ATOM     43  C   UNL     1      -4.972  -7.088  -5.107  1.00  0.00     0.102 C 
ATOM     44  C   UNL     1      -4.843  -8.589  -5.415  1.00  0.00     0.020 C 
BRANCH  43  45
ATOM     45  C   UNL     1      -4.855  -6.188  -6.342  1.00  0.00     0.225 C 
ATOM     46  O   UNL     1      -5.298  -5.044  -6.382  1.00  0.00    -0.275 OA
ATOM     47  N   UNL     1      -4.297  -6.778  -7.453  1.00  0.00    -0.342 N 
ATOM     48  H   UNL     1      -3.805  -7.655  -7.361  1.00  0.00     0.164 HD
BRANCH  47  49
ATOM     49  C   UNL     1      -4.089  -6.027  -8.695  1.00  0.00     0.192 C 
BRANCH  49  50
ATOM     50  C   UNL     1      -5.277  -6.248  -9.635  1.00  0.00     0.047 C 
BRANCH  50  51
ATOM     51  C   UNL     1      -5.034  -7.399 -10.621  1.00  0.00     0.103 C 
BRANCH  51  52
ATOM     52  C   UNL     1      -5.847  -8.641 -10.265  1.00  0.00     0.226 C 
ATOM     53  O   UNL     1      -6.180  -8.837  -9.094  1.00  0.00    -0.275 OA
BRANCH  52  54
ATOM     54  N   UNL     1      -6.236  -9.465 -11.337  1.00  0.00    -0.311 N 
ATOM     55  C   UNL     1      -5.245 -10.245 -12.090  1.00  0.00     0.153 C 
BRANCH  54  56
ATOM     56  C   UNL     1      -7.582  -9.576 -11.724  1.00  0.00     0.102 C 
ATOM     57  C   UNL     1      -8.198 -10.727 -12.040  1.00  0.00     0.043 C 
BRANCH  56  58
ATOM     58  C   UNL     1      -8.479  -8.361 -11.769  1.00  0.00     0.268 C 
ATOM     59  O   UNL     1      -8.252  -7.388 -12.475  1.00  0.00    -0.268 OA
ATOM     60  N   UNL     1      -9.603  -8.491 -10.989  1.00  0.00    -0.339 N 
ATOM     61  H   UNL     1      -9.711  -9.325 -10.425  1.00  0.00     0.164 HD
BRANCH  60  62
ATOM     62  C   UNL     1     -10.636  -7.457 -10.935  1.00  0.00     0.168 CG0
ATOM     63  C   UNL     1     -12.029  -8.075 -10.964  1.00  0.00     0.041 C 
ATOM     64  G   UNL     1     -10.450  -6.477 -12.111  1.00  0.00     0.000 G0
ENDBRANCH  60  62
ENDBRANCH  56  58
ENDBRANCH  54  56
ENDBRANCH  52  54
ENDBRANCH  51  52
ENDBRANCH  50  51
ENDBRANCH  49  50
BRANCH  49  65
ATOM     65  C   UNL     1      -2.794  -6.452  -9.404  1.00  0.00     0.326 C 
ATOM     66  O   UNL     1      -2.212  -7.515  -9.245  1.00  0.00    -0.250 OA
BRANCH  65  67
ATOM     67  O   UNL     1      -2.264  -5.514 -10.220  1.00  0.00    -0.480 OA
ATOM     68  H   UNL     1      -2.653  -5.723 -11.097  1.00  0.00     0.296 HD
ENDBRANCH  65  67
ENDBRANCH  49  65
ENDBRANCH  47  49
ENDBRANCH  43  45
ENDBRANCH   1  43
BRANCH   1  69
ATOM     69  C   UNL     1      -2.541  -6.465  -4.265  1.00  0.00    -0.001 C 
ATOM     70  C   UNL     1      -1.721  -7.393  -4.789  1.00  0.00     0.001 C 
BRANCH  70  71
ATOM     71  C   UNL     1      -0.295  -7.239  -5.087  1.00  0.00    -0.055 C 
ATOM     72  C   UNL     1       0.472  -6.608  -4.174  1.00  0.00    -0.018 C 
ATOM     73  C   UNL     1       0.215  -7.803  -6.387  1.00  0.00     0.044 C 
BRANCH  72  74
ATOM     74  C   UNL     1       1.964  -6.310  -4.210  1.00  0.00     0.038 C 
ATOM     75  C   UNL     1       2.689  -7.565  -3.709  1.00  0.00     0.015 C 
BRANCH  74  76
ATOM     76  C   UNL     1       2.238  -5.022  -3.379  1.00  0.00     0.128 C 
BRANCH  76  77
ATOM     77  O   UNL     1       3.654  -4.834  -3.218  1.00  0.00    -0.381 OA
ATOM     78  C   UNL     1       4.152  -3.667  -3.858  1.00  0.00     0.195 C 
ENDBRANCH  76  77
BRANCH  76  79
ATOM     79  C   UNL     1       1.524  -3.759  -3.923  1.00  0.00     0.068 C 
BRANCH  79  80
ATOM     80  C   UNL     1       0.510  -3.082  -3.032  1.00  0.00    -0.045 A 
ATOM     81  C   UNL     1       0.095  -1.767  -3.280  1.00  0.00     0.004 A 
ATOM     82  C   UNL     1      -0.014  -3.755  -1.918  1.00  0.00     0.004 A 
ATOM     83  C   UNL     1      -0.832  -1.143  -2.443  1.00  0.00     0.000 A 
ATOM     84  C   UNL     1      -0.941  -3.130  -1.081  1.00  0.00     0.000 A 
ATOM     85  C   UNL     1      -1.351  -1.825  -1.345  1.00  0.00     0.000 A 
ENDBRANCH  79  80
ENDBRANCH  76  79
ENDBRANCH  74  76
ENDBRANCH  72  74
ENDBRANCH  70  71
ENDBRANCH   1  69
TORSDOF 17
ENDMDL
MODEL 46
REMARK VINA RESULT:    -6.384      4.860     13.544
REMARK INTER + INTRA:         -26.016
REMARK INTER:                 -21.223
REMARK INTRA:                  -4.793
REMARK UNBOUND:                -6.942
REMARK SMILES C=C1C(=O)N[C@H](C)C(=O)N[C@@H](CC(C)C)C(=O)N[C@@H](C(=O)O)[C@H](C)C(=O)N[C@@H](CCCN=C(N)N)C(=O)N[C@@H](/C=C/C(C)=C/[C@H](C)[C@H](Cc2ccccc2)OC)[C@H](C)C(=O)N[C@@H](C(=O)O)CCC(=O)N1C
REMARK SMILES IDX 39 1 38 2 37 3 36 4 28 6 27 7 25 8 26 9 23 11 24 12 19 13
REMARK SMILES IDX 18 14 16 15 17 16 11 18 10 19 8 20 9 21 12 24 13 25 14 26
REMARK SMILES IDX 15 27 20 28 21 29 22 30 29 32 30 33 31 34 32 35 33 36 34 37
REMARK SMILES IDX 35 38 57 43 58 44 59 45 60 46 61 47 62 49 66 50 67 51 68 52
REMARK SMILES IDX 69 53 70 54 71 55 2 56 1 57 3 58 4 59 5 60 6 62 7 63 63 65
REMARK SMILES IDX 64 66 65 67 40 69 41 70 42 71 44 72 43 73 45 74 46 75 47 76
REMARK SMILES IDX 55 77 56 78 48 79 49 80 50 81 54 82 51 83 53 84 52 85
REMARK H PARENT 38 5 27 10 18 17 10 22 22 31 34 39 34 40 35 41 35 42 61 48
REMARK H PARENT 5 61 65 68
REMARK Flexibility Score:  369.900
ROOT
ATOM      1  C   UNL     1      -4.366  -8.228  -4.379  1.00  0.00     0.117 C 
ENDROOT
BRANCH   1   2
ATOM      2  N   UNL     1      -4.938  -8.999  -3.274  1.00  0.00    -0.347 N 
ATOM      3  O   UNL     1      -5.424  -7.239  -1.883  1.00  0.00    -0.273 OA
ATOM      4  C   UNL     1      -5.507  -8.433  -2.150  1.00  0.00     0.243 C 
ATOM      5  H   UNL     1      -4.974 -10.005  -3.340  1.00  0.00     0.164 HD
BRANCH   4   6
ATOM      6  C   UNL     1      -6.117  -9.469  -1.171  1.00  0.00     0.171 C 
BRANCH   6   7
ATOM      7  N   UNL     1      -6.114  -8.942   0.203  1.00  0.00    -0.344 N 
ATOM      8  C   UNL     1      -5.660  -9.714   1.250  1.00  0.00     0.226 C 
ATOM      9  O   UNL     1      -5.264 -10.864   1.100  1.00  0.00    -0.275 OA
ATOM     10  H   UNL     1      -6.497  -8.022   0.376  1.00  0.00     0.164 HD
BRANCH   8  11
ATOM     11  C   UNL     1      -5.671  -9.010   2.596  1.00  0.00     0.109 C 
ATOM     12  C   UNL     1      -4.449  -8.100   2.723  1.00  0.00     0.021 C 
BRANCH  11  13
ATOM     13  C   UNL     1      -7.027  -8.308   2.807  1.00  0.00     0.204 C 
BRANCH  13  14
ATOM     14  N   UNL     1      -7.998  -9.175   3.481  1.00  0.00    -0.340 N 
ATOM     15  C   UNL     1      -7.635 -10.124   4.412  1.00  0.00     0.243 C 
ATOM     16  O   UNL     1      -6.473 -10.268   4.789  1.00  0.00    -0.273 OA
ATOM     17  H   UNL     1      -8.950  -9.212   3.107  1.00  0.00     0.164 HD
BRANCH  15  18
ATOM     18  C   UNL     1      -8.797 -11.056   4.832  1.00  0.00     0.171 C 
BRANCH  18  19
ATOM     19  N   UNL     1      -9.615 -10.305   5.782  1.00  0.00    -0.343 N 
ATOM     20  C   UNL     1      -9.380 -10.351   7.142  1.00  0.00     0.242 CG0
ATOM     21  O   UNL     1      -8.561 -11.127   7.627  1.00  0.00    -0.273 OA
ATOM     22  H   UNL     1     -10.381  -9.736   5.438  1.00  0.00     0.164 HD
ATOM     23  G   UNL     1     -10.294  -9.431   7.978  1.00  0.00     0.000 G0
ENDBRANCH  18  19
BRANCH  18  24
ATOM     24  C   UNL     1      -9.613 -11.489   3.607  1.00  0.00     0.038 C 
BRANCH  24  25
ATOM     25  C   UNL     1     -11.110 -11.120   3.667  1.00  0.00    -0.015 C 
ATOM     26  C   UNL     1     -12.011 -12.348   3.807  1.00  0.00     0.007 C 
ATOM     27  C   UNL     1     -11.498 -10.337   2.410  1.00  0.00     0.007 C 
ENDBRANCH  24  25
ENDBRANCH  18  24
ENDBRANCH  15  18
ENDBRANCH  13  14
BRANCH  13  28
ATOM     28  C   UNL     1      -6.919  -7.021   3.631  1.00  0.00     0.327 C 
ATOM     29  O   UNL     1      -6.763  -6.948   4.840  1.00  0.00    -0.250 OA
BRANCH  28  30
ATOM     30  O   UNL     1      -7.132  -5.907   2.901  1.00  0.00    -0.480 OA
ATOM     31  H   UNL     1      -7.502  -6.239   2.057  1.00  0.00     0.296 HD
ENDBRANCH  28  30
ENDBRANCH  13  28
ENDBRANCH  11  13
ENDBRANCH   8  11
ENDBRANCH   6   7
BRANCH   6  32
ATOM     32  C   UNL     1      -7.540  -9.811  -1.624  1.00  0.00     0.037 C 
BRANCH  32  33
ATOM     33  C   UNL     1      -8.583  -8.852  -1.034  1.00  0.00     0.026 C 
BRANCH  33  34
ATOM     34  C   UNL     1      -9.182  -7.919  -2.087  1.00  0.00     0.146 C 
BRANCH  34  35
ATOM     35  N   UNL     1      -8.456  -6.656  -2.063  1.00  0.00    -0.254 NA
ATOM     36  C   UNL     1      -8.436  -5.939  -3.124  1.00  0.00     0.185 C 
ATOM     37  N   UNL     1      -7.775  -4.771  -3.112  1.00  0.00    -0.370 N 
ATOM     38  N   UNL     1      -9.005  -6.182  -4.319  1.00  0.00    -0.370 N 
ATOM     39  H   UNL     1      -7.327  -4.512  -2.243  1.00  0.00     0.159 HD
ATOM     40  H   UNL     1      -7.856  -4.079  -3.837  1.00  0.00     0.159 HD
ATOM     41  H   UNL     1      -8.801  -5.607  -5.119  1.00  0.00     0.159 HD
ATOM     42  H   UNL     1      -9.522  -7.033  -4.477  1.00  0.00     0.159 HD
ENDBRANCH  34  35
ENDBRANCH  33  34
ENDBRANCH  32  33
ENDBRANCH   6  32
ENDBRANCH   4   6
ENDBRANCH   1   2
BRANCH   1  43
ATOM     43  C   UNL     1      -4.345  -9.125  -5.650  1.00  0.00     0.102 C 
ATOM     44  C   UNL     1      -2.931  -9.566  -6.065  1.00  0.00     0.020 C 
BRANCH  43  45
ATOM     45  C   UNL     1      -5.156  -8.491  -6.784  1.00  0.00     0.225 C 
ATOM     46  O   UNL     1      -5.723  -9.148  -7.652  1.00  0.00    -0.275 OA
ATOM     47  N   UNL     1      -5.135  -7.116  -6.830  1.00  0.00    -0.342 N 
ATOM     48  H   UNL     1      -4.797  -6.594  -6.034  1.00  0.00     0.164 HD
BRANCH  47  49
ATOM     49  C   UNL     1      -5.895  -6.371  -7.839  1.00  0.00     0.192 C 
BRANCH  49  50
ATOM     50  C   UNL     1      -4.950  -5.895  -8.946  1.00  0.00     0.047 C 
BRANCH  50  51
ATOM     51  C   UNL     1      -5.113  -6.706 -10.239  1.00  0.00     0.103 C 
BRANCH  51  52
ATOM     52  C   UNL     1      -6.536  -6.631 -10.788  1.00  0.00     0.226 C 
ATOM     53  O   UNL     1      -7.047  -5.531 -11.008  1.00  0.00    -0.275 OA
BRANCH  52  54
ATOM     54  N   UNL     1      -7.159  -7.857 -11.086  1.00  0.00    -0.311 N 
ATOM     55  C   UNL     1      -6.418  -9.122 -10.999  1.00  0.00     0.153 C 
BRANCH  54  56
ATOM     56  C   UNL     1      -8.509  -7.918 -11.470  1.00  0.00     0.102 C 
ATOM     57  C   UNL     1      -9.543  -7.529 -10.706  1.00  0.00     0.043 C 
BRANCH  56  58
ATOM     58  C   UNL     1      -8.902  -8.405 -12.844  1.00  0.00     0.268 C 
ATOM     59  O   UNL     1      -8.264  -8.144 -13.855  1.00  0.00    -0.268 OA
ATOM     60  N   UNL     1     -10.008  -9.222 -12.832  1.00  0.00    -0.339 N 
ATOM     61  H   UNL     1     -10.486  -9.381 -11.954  1.00  0.00     0.164 HD
BRANCH  60  62
ATOM     62  C   UNL     1     -10.523  -9.854 -14.046  1.00  0.00     0.168 CG0
ATOM     63  C   UNL     1     -11.739 -10.718 -13.739  1.00  0.00     0.041 C 
ATOM     64  G   UNL     1      -9.409 -10.693 -14.705  1.00  0.00     0.000 G0
ENDBRANCH  60  62
ENDBRANCH  56  58
ENDBRANCH  54  56
ENDBRANCH  52  54
ENDBRANCH  51  52
ENDBRANCH  50  51
ENDBRANCH  49  50
BRANCH  49  65
ATOM     65  C   UNL     1      -6.613  -5.159  -7.227  1.00  0.00     0.326 C 
ATOM     66  O   UNL     1      -6.755  -4.946  -6.032  1.00  0.00    -0.250 OA
BRANCH  65  67
ATOM     67  O   UNL     1      -7.165  -4.316  -8.128  1.00  0.00    -0.480 OA
ATOM     68  H   UNL     1      -7.933  -3.936  -7.650  1.00  0.00     0.296 HD
ENDBRANCH  65  67
ENDBRANCH  49  65
ENDBRANCH  47  49
ENDBRANCH  43  45
ENDBRANCH   1  43
BRANCH   1  69
ATOM     69  C   UNL     1      -3.059  -7.655  -3.864  1.00  0.00    -0.001 C 
ATOM     70  C   UNL     1      -2.758  -6.360  -3.660  1.00  0.00     0.001 C 
BRANCH  70  71
ATOM     71  C   UNL     1      -1.499  -5.821  -3.142  1.00  0.00    -0.055 C 
ATOM     72  C   UNL     1      -1.529  -4.600  -2.567  1.00  0.00    -0.018 C 
ATOM     73  C   UNL     1      -0.262  -6.669  -3.280  1.00  0.00     0.044 C 
BRANCH  72  74
ATOM     74  C   UNL     1      -0.393  -3.800  -1.946  1.00  0.00     0.038 C 
ATOM     75  C   UNL     1      -0.401  -4.094  -0.441  1.00  0.00     0.015 C 
BRANCH  74  76
ATOM     76  C   UNL     1      -0.576  -2.299  -2.319  1.00  0.00     0.128 C 
BRANCH  76  77
ATOM     77  O   UNL     1      -0.387  -1.477  -1.155  1.00  0.00    -0.381 OA
ATOM     78  C   UNL     1      -1.502  -0.649  -0.854  1.00  0.00     0.195 C 
ENDBRANCH  76  77
BRANCH  76  79
ATOM     79  C   UNL     1       0.286  -1.840  -3.523  1.00  0.00     0.068 C 
BRANCH  79  80
ATOM     80  C   UNL     1       1.692  -2.378  -3.632  1.00  0.00    -0.045 A 
ATOM     81  C   UNL     1       1.946  -3.618  -4.232  1.00  0.00     0.004 A 
ATOM     82  C   UNL     1       2.770  -1.651  -3.104  1.00  0.00     0.004 A 
ATOM     83  C   UNL     1       3.249  -4.115  -4.316  1.00  0.00     0.000 A 
ATOM     84  C   UNL     1       4.072  -2.149  -3.188  1.00  0.00     0.000 A 
ATOM     85  C   UNL     1       4.311  -3.379  -3.795  1.00  0.00     0.000 A 
ENDBRANCH  79  80
ENDBRANCH  76  79
ENDBRANCH  74  76
ENDBRANCH  72  74
ENDBRANCH  70  71
ENDBRANCH   1  69
TORSDOF 17
ENDMDL
MODEL 47
REMARK VINA RESULT:    -6.340      2.529     13.373
REMARK INTER + INTRA:         -25.882
REMARK INTER:                 -20.864
REMARK INTRA:                  -5.018
REMARK UNBOUND:                -6.942
REMARK SMILES C=C1C(=O)N[C@H](C)C(=O)N[C@@H](CC(C)C)C(=O)N[C@@H](C(=O)O)[C@H](C)C(=O)N[C@@H](CCCN=C(N)N)C(=O)N[C@@H](/C=C/C(C)=C/[C@H](C)[C@H](Cc2ccccc2)OC)[C@H](C)C(=O)N[C@@H](C(=O)O)CCC(=O)N1C
REMARK SMILES IDX 39 1 38 2 37 3 36 4 28 6 27 7 25 8 26 9 23 11 24 12 19 13
REMARK SMILES IDX 18 14 16 15 17 16 11 18 10 19 8 20 9 21 12 24 13 25 14 26
REMARK SMILES IDX 15 27 20 28 21 29 22 30 29 32 30 33 31 34 32 35 33 36 34 37
REMARK SMILES IDX 35 38 57 43 58 44 59 45 60 46 61 47 62 49 66 50 67 51 68 52
REMARK SMILES IDX 69 53 70 54 71 55 2 56 1 57 3 58 4 59 5 60 6 62 7 63 63 65
REMARK SMILES IDX 64 66 65 67 40 69 41 70 42 71 44 72 43 73 45 74 46 75 47 76
REMARK SMILES IDX 55 77 56 78 48 79 49 80 50 81 54 82 51 83 53 84 52 85
REMARK H PARENT 38 5 27 10 18 17 10 22 22 31 34 39 34 40 35 41 35 42 61 48
REMARK H PARENT 5 61 65 68
REMARK Flexibility Score:  369.900
ROOT
ATOM      1  C   UNL     1      -1.984  -6.747  -1.582  1.00  0.00     0.117 C 
ENDROOT
BRANCH   1   2
ATOM      2  N   UNL     1      -2.965  -7.716  -1.091  1.00  0.00    -0.347 N 
ATOM      3  O   UNL     1      -2.666  -7.353   1.156  1.00  0.00    -0.273 OA
ATOM      4  C   UNL     1      -3.293  -7.877   0.241  1.00  0.00     0.243 C 
ATOM      5  H   UNL     1      -3.479  -8.277  -1.753  1.00  0.00     0.164 HD
BRANCH   4   6
ATOM      6  C   UNL     1      -4.423  -8.909   0.485  1.00  0.00     0.171 C 
BRANCH   6   7
ATOM      7  N   UNL     1      -5.420  -8.369   1.424  1.00  0.00    -0.344 N 
ATOM      8  C   UNL     1      -5.312  -8.608   2.777  1.00  0.00     0.226 C 
ATOM      9  O   UNL     1      -4.413  -9.287   3.258  1.00  0.00    -0.275 OA
ATOM     10  H   UNL     1      -6.214  -7.860   1.057  1.00  0.00     0.164 HD
BRANCH   8  11
ATOM     11  C   UNL     1      -6.385  -7.938   3.617  1.00  0.00     0.109 C 
ATOM     12  C   UNL     1      -6.934  -6.712   2.889  1.00  0.00     0.021 C 
BRANCH  11  13
ATOM     13  C   UNL     1      -7.447  -8.977   4.031  1.00  0.00     0.204 C 
BRANCH  13  14
ATOM     14  N   UNL     1      -8.002  -8.699   5.359  1.00  0.00    -0.340 N 
ATOM     15  C   UNL     1      -7.704  -9.460   6.469  1.00  0.00     0.243 C 
ATOM     16  O   UNL     1      -6.902 -10.392   6.435  1.00  0.00    -0.273 OA
ATOM     17  H   UNL     1      -8.784  -8.042   5.425  1.00  0.00     0.164 HD
BRANCH  15  18
ATOM     18  C   UNL     1      -8.564  -9.110   7.708  1.00  0.00     0.171 C 
BRANCH  18  19
ATOM     19  N   UNL     1      -7.794  -8.147   8.493  1.00  0.00    -0.343 N 
ATOM     20  C   UNL     1      -7.060  -8.528   9.600  1.00  0.00     0.242 CG0
ATOM     21  O   UNL     1      -7.127  -9.668  10.054  1.00  0.00    -0.273 OA
ATOM     22  H   UNL     1      -7.800  -7.169   8.225  1.00  0.00     0.164 HD
ATOM     23  G   UNL     1      -6.251  -7.388  10.251  1.00  0.00     0.000 G0
ENDBRANCH  18  19
BRANCH  18  24
ATOM     24  C   UNL     1      -9.919  -8.533   7.281  1.00  0.00     0.038 C 
BRANCH  24  25
ATOM     25  C   UNL     1     -11.103  -9.515   7.398  1.00  0.00    -0.015 C 
ATOM     26  C   UNL     1     -10.654 -10.977   7.394  1.00  0.00     0.007 C 
ATOM     27  C   UNL     1     -12.086  -9.275   6.248  1.00  0.00     0.007 C 
ENDBRANCH  24  25
ENDBRANCH  18  24
ENDBRANCH  15  18
ENDBRANCH  13  14
BRANCH  13  28
ATOM     28  C   UNL     1      -8.624  -9.057   3.055  1.00  0.00     0.327 C 
ATOM     29  O   UNL     1      -8.550  -9.169   1.840  1.00  0.00    -0.250 OA
BRANCH  28  30
ATOM     30  O   UNL     1      -9.819  -8.874   3.651  1.00  0.00    -0.480 OA
ATOM     31  H   UNL     1     -10.213  -8.114   3.175  1.00  0.00     0.296 HD
ENDBRANCH  28  30
ENDBRANCH  13  28
ENDBRANCH  11  13
ENDBRANCH   8  11
ENDBRANCH   6   7
BRANCH   6  32
ATOM     32  C   UNL     1      -5.073  -9.269  -0.856  1.00  0.00     0.037 C 
BRANCH  32  33
ATOM     33  C   UNL     1      -4.631 -10.649  -1.363  1.00  0.00     0.026 C 
BRANCH  33  34
ATOM     34  C   UNL     1      -5.027 -11.777  -0.409  1.00  0.00     0.146 C 
BRANCH  34  35
ATOM     35  N   UNL     1      -6.475 -11.931  -0.440  1.00  0.00    -0.254 NA
ATOM     36  C   UNL     1      -7.117 -11.928   0.668  1.00  0.00     0.185 C 
ATOM     37  N   UNL     1      -8.452 -12.064   0.651  1.00  0.00    -0.370 N 
ATOM     38  N   UNL     1      -6.641 -11.802   1.920  1.00  0.00    -0.370 N 
ATOM     39  H   UNL     1      -8.888 -12.154  -0.258  1.00  0.00     0.159 HD
ATOM     40  H   UNL     1      -9.039 -11.899   1.451  1.00  0.00     0.159 HD
ATOM     41  H   UNL     1      -7.233 -11.955   2.720  1.00  0.00     0.159 HD
ATOM     42  H   UNL     1      -5.651 -11.708   2.085  1.00  0.00     0.159 HD
ENDBRANCH  34  35
ENDBRANCH  33  34
ENDBRANCH  32  33
ENDBRANCH   6  32
ENDBRANCH   4   6
ENDBRANCH   1   2
BRANCH   1  43
ATOM     43  C   UNL     1      -2.650  -5.341  -1.612  1.00  0.00     0.102 C 
ATOM     44  C   UNL     1      -3.758  -5.211  -2.671  1.00  0.00     0.020 C 
BRANCH  43  45
ATOM     45  C   UNL     1      -1.594  -4.234  -1.679  1.00  0.00     0.225 C 
ATOM     46  O   UNL     1      -1.015  -3.798  -0.688  1.00  0.00    -0.275 OA
ATOM     47  N   UNL     1      -1.395  -3.680  -2.923  1.00  0.00    -0.342 N 
ATOM     48  H   UNL     1      -1.760  -4.145  -3.742  1.00  0.00     0.164 HD
BRANCH  47  49
ATOM     49  C   UNL     1      -0.390  -2.636  -3.145  1.00  0.00     0.192 C 
BRANCH  49  50
ATOM     50  C   UNL     1       0.990  -3.153  -2.731  1.00  0.00     0.047 C 
BRANCH  50  51
ATOM     51  C   UNL     1       1.722  -3.848  -3.888  1.00  0.00     0.103 C 
BRANCH  51  52
ATOM     52  C   UNL     1       3.130  -3.292  -4.091  1.00  0.00     0.226 C 
ATOM     53  O   UNL     1       4.065  -3.739  -3.424  1.00  0.00    -0.275 OA
BRANCH  52  54
ATOM     54  N   UNL     1       3.284  -2.332  -5.109  1.00  0.00    -0.311 N 
ATOM     55  C   UNL     1       2.583  -1.042  -5.043  1.00  0.00     0.153 C 
BRANCH  54  56
ATOM     56  C   UNL     1       4.114  -2.566  -6.218  1.00  0.00     0.102 C 
ATOM     57  C   UNL     1       5.278  -1.940  -6.453  1.00  0.00     0.043 C 
BRANCH  56  58
ATOM     58  C   UNL     1       3.759  -3.618  -7.242  1.00  0.00     0.268 C 
ATOM     59  O   UNL     1       2.610  -3.981  -7.459  1.00  0.00    -0.268 OA
ATOM     60  N   UNL     1       4.847  -4.073  -7.948  1.00  0.00    -0.339 N 
ATOM     61  H   UNL     1       5.767  -3.730  -7.701  1.00  0.00     0.164 HD
BRANCH  60  62
ATOM     62  C   UNL     1       4.720  -5.048  -9.031  1.00  0.00     0.168 CG0
ATOM     63  C   UNL     1       5.848  -4.890 -10.044  1.00  0.00     0.041 C 
ATOM     64  G   UNL     1       3.346  -4.886  -9.714  1.00  0.00     0.000 G0
ENDBRANCH  60  62
ENDBRANCH  56  58
ENDBRANCH  54  56
ENDBRANCH  52  54
ENDBRANCH  51  52
ENDBRANCH  50  51
ENDBRANCH  49  50
BRANCH  49  65
ATOM     65  C   UNL     1      -0.714  -1.360  -2.352  1.00  0.00     0.326 C 
ATOM     66  O   UNL     1      -0.023  -0.880  -1.465  1.00  0.00    -0.250 OA
BRANCH  65  67
ATOM     67  O   UNL     1      -1.899  -0.790  -2.662  1.00  0.00    -0.480 OA
ATOM     68  H   UNL     1      -2.441  -1.542  -2.983  1.00  0.00     0.296 HD
ENDBRANCH  65  67
ENDBRANCH  49  65
ENDBRANCH  47  49
ENDBRANCH  43  45
ENDBRANCH   1  43
BRANCH   1  69
ATOM     69  C   UNL     1      -1.428  -7.323  -2.871  1.00  0.00    -0.001 C 
ATOM     70  C   UNL     1      -0.228  -7.076  -3.425  1.00  0.00     0.001 C 
BRANCH  70  71
ATOM     71  C   UNL     1       0.307  -7.654  -4.659  1.00  0.00    -0.055 C 
ATOM     72  C   UNL     1      -0.558  -7.890  -5.669  1.00  0.00    -0.018 C 
ATOM     73  C   UNL     1       1.785  -7.938  -4.719  1.00  0.00     0.044 C 
BRANCH  72  74
ATOM     74  C   UNL     1      -0.291  -8.473  -7.049  1.00  0.00     0.038 C 
ATOM     75  C   UNL     1       0.046  -9.956  -6.856  1.00  0.00     0.015 C 
BRANCH  74  76
ATOM     76  C   UNL     1       0.823  -7.634  -7.741  1.00  0.00     0.128 C 
BRANCH  76  77
ATOM     77  O   UNL     1       1.847  -8.504  -8.251  1.00  0.00    -0.381 OA
ATOM     78  C   UNL     1       2.574  -7.953  -9.341  1.00  0.00     0.195 C 
ENDBRANCH  76  77
BRANCH  76  79
ATOM     79  C   UNL     1       0.294  -6.641  -8.806  1.00  0.00     0.068 C 
BRANCH  79  80
ATOM     80  C   UNL     1      -0.951  -7.022  -9.570  1.00  0.00    -0.045 A 
ATOM     81  C   UNL     1      -2.170  -6.373  -9.333  1.00  0.00     0.004 A 
ATOM     82  C   UNL     1      -0.912  -8.057 -10.516  1.00  0.00     0.004 A 
ATOM     83  C   UNL     1      -3.321  -6.741 -10.034  1.00  0.00     0.000 A 
ATOM     84  C   UNL     1      -2.063  -8.425 -11.216  1.00  0.00     0.000 A 
ATOM     85  C   UNL     1      -3.267  -7.765 -10.976  1.00  0.00     0.000 A 
ENDBRANCH  79  80
ENDBRANCH  76  79
ENDBRANCH  74  76
ENDBRANCH  72  74
ENDBRANCH  70  71
ENDBRANCH   1  69
TORSDOF 17
ENDMDL
MODEL 48
REMARK VINA RESULT:    -6.338      3.039      5.712
REMARK INTER + INTRA:         -25.878
REMARK INTER:                 -19.320
REMARK INTRA:                  -6.558
REMARK UNBOUND:                -6.942
REMARK SMILES C=C1C(=O)N[C@H](C)C(=O)N[C@@H](CC(C)C)C(=O)N[C@@H](C(=O)O)[C@H](C)C(=O)N[C@@H](CCCN=C(N)N)C(=O)N[C@@H](/C=C/C(C)=C/[C@H](C)[C@H](Cc2ccccc2)OC)[C@H](C)C(=O)N[C@@H](C(=O)O)CCC(=O)N1C
REMARK SMILES IDX 39 1 38 2 37 3 36 4 28 6 27 7 25 8 26 9 23 11 24 12 19 13
REMARK SMILES IDX 18 14 16 15 17 16 11 18 10 19 8 20 9 21 12 24 13 25 14 26
REMARK SMILES IDX 15 27 20 28 21 29 22 30 29 32 30 33 31 34 32 35 33 36 34 37
REMARK SMILES IDX 35 38 57 43 58 44 59 45 60 46 61 47 62 49 66 50 67 51 68 52
REMARK SMILES IDX 69 53 70 54 71 55 2 56 1 57 3 58 4 59 5 60 6 62 7 63 63 65
REMARK SMILES IDX 64 66 65 67 40 69 41 70 42 71 44 72 43 73 45 74 46 75 47 76
REMARK SMILES IDX 55 77 56 78 48 79 49 80 50 81 54 82 51 83 53 84 52 85
REMARK H PARENT 38 5 27 10 18 17 10 22 22 31 34 39 34 40 35 41 35 42 61 48
REMARK H PARENT 5 61 65 68
REMARK Flexibility Score:  369.900
ROOT
ATOM      1  C   UNL     1      -0.180  -6.639  -5.604  1.00  0.00     0.117 C 
ENDROOT
BRANCH   1   2
ATOM      2  N   UNL     1       1.224  -6.869  -5.946  1.00  0.00    -0.347 N 
ATOM      3  O   UNL     1       1.301  -5.575  -7.840  1.00  0.00    -0.273 OA
ATOM      4  C   UNL     1       1.878  -6.243  -6.989  1.00  0.00     0.243 C 
ATOM      5  H   UNL     1       1.780  -7.480  -5.368  1.00  0.00     0.164 HD
BRANCH   4   6
ATOM      6  C   UNL     1       3.385  -6.597  -7.082  1.00  0.00     0.171 C 
BRANCH   6   7
ATOM      7  N   UNL     1       3.926  -6.202  -8.392  1.00  0.00    -0.344 N 
ATOM      8  C   UNL     1       4.835  -7.004  -9.048  1.00  0.00     0.226 C 
ATOM      9  O   UNL     1       5.249  -8.055  -8.575  1.00  0.00    -0.275 OA
ATOM     10  H   UNL     1       3.659  -5.307  -8.784  1.00  0.00     0.164 HD
BRANCH   8  11
ATOM     11  C   UNL     1       5.256  -6.486 -10.412  1.00  0.00     0.109 C 
ATOM     12  C   UNL     1       6.588  -5.743 -10.304  1.00  0.00     0.021 C 
BRANCH  11  13
ATOM     13  C   UNL     1       5.238  -7.638 -11.436  1.00  0.00     0.204 C 
BRANCH  13  14
ATOM     14  N   UNL     1       3.972  -8.378 -11.411  1.00  0.00    -0.340 N 
ATOM     15  C   UNL     1       3.873  -9.705 -11.771  1.00  0.00     0.243 C 
ATOM     16  O   UNL     1       4.853 -10.380 -12.081  1.00  0.00    -0.273 OA
ATOM     17  H   UNL     1       3.105  -7.843 -11.312  1.00  0.00     0.164 HD
BRANCH  15  18
ATOM     18  C   UNL     1       2.413 -10.212 -11.867  1.00  0.00     0.171 C 
BRANCH  18  19
ATOM     19  N   UNL     1       2.262 -10.803 -13.195  1.00  0.00    -0.343 N 
ATOM     20  C   UNL     1       2.058 -10.027 -14.320  1.00  0.00     0.242 CG0
ATOM     21  O   UNL     1       1.861  -8.817 -14.239  1.00  0.00    -0.273 OA
ATOM     22  H   UNL     1       2.302 -11.811 -13.299  1.00  0.00     0.164 HD
ATOM     23  G   UNL     1       2.002 -10.822 -15.641  1.00  0.00     0.000 G0
ENDBRANCH  18  19
BRANCH  18  24
ATOM     24  C   UNL     1       2.121 -11.233 -10.761  1.00  0.00     0.038 C 
BRANCH  24  25
ATOM     25  C   UNL     1       1.069 -10.780  -9.727  1.00  0.00    -0.015 C 
ATOM     26  C   UNL     1       1.514  -9.545  -8.942  1.00  0.00     0.007 C 
ATOM     27  C   UNL     1       0.772 -11.927  -8.757  1.00  0.00     0.007 C 
ENDBRANCH  24  25
ENDBRANCH  18  24
ENDBRANCH  15  18
ENDBRANCH  13  14
BRANCH  13  28
ATOM     28  C   UNL     1       5.461  -7.169 -12.877  1.00  0.00     0.327 C 
ATOM     29  O   UNL     1       4.861  -6.270 -13.445  1.00  0.00    -0.250 OA
BRANCH  28  30
ATOM     30  O   UNL     1       6.341  -7.937 -13.552  1.00  0.00    -0.480 OA
ATOM     31  H   UNL     1       5.865  -8.185 -14.372  1.00  0.00     0.296 HD
ENDBRANCH  28  30
ENDBRANCH  13  28
ENDBRANCH  11  13
ENDBRANCH   8  11
ENDBRANCH   6   7
BRANCH   6  32
ATOM     32  C   UNL     1       4.137  -5.896  -5.945  1.00  0.00     0.037 C 
BRANCH  32  33
ATOM     33  C   UNL     1       4.667  -4.518  -6.364  1.00  0.00     0.026 C 
BRANCH  33  34
ATOM     34  C   UNL     1       3.701  -3.387  -6.012  1.00  0.00     0.146 C 
BRANCH  34  35
ATOM     35  N   UNL     1       4.430  -2.126  -6.017  1.00  0.00    -0.254 NA
ATOM     36  C   UNL     1       3.827  -1.069  -6.414  1.00  0.00     0.185 C 
ATOM     37  N   UNL     1       4.488   0.099  -6.419  1.00  0.00    -0.370 N 
ATOM     38  N   UNL     1       2.563  -0.932  -6.853  1.00  0.00    -0.370 N 
ATOM     39  H   UNL     1       5.445   0.080  -6.091  1.00  0.00     0.159 HD
ATOM     40  H   UNL     1       4.041   0.991  -6.547  1.00  0.00     0.159 HD
ATOM     41  H   UNL     1       2.246  -0.072  -7.270  1.00  0.00     0.159 HD
ATOM     42  H   UNL     1       1.953  -1.732  -6.918  1.00  0.00     0.159 HD
ENDBRANCH  34  35
ENDBRANCH  33  34
ENDBRANCH  32  33
ENDBRANCH   6  32
ENDBRANCH   4   6
ENDBRANCH   1   2
BRANCH   1  43
ATOM     43  C   UNL     1      -0.291  -6.454  -4.063  1.00  0.00     0.102 C 
ATOM     44  C   UNL     1      -0.149  -7.769  -3.278  1.00  0.00     0.020 C 
BRANCH  43  45
ATOM     45  C   UNL     1      -1.535  -5.642  -3.694  1.00  0.00     0.225 C 
ATOM     46  O   UNL     1      -1.505  -4.437  -3.461  1.00  0.00    -0.275 OA
ATOM     47  N   UNL     1      -2.694  -6.368  -3.545  1.00  0.00    -0.342 N 
ATOM     48  H   UNL     1      -2.736  -7.319  -3.885  1.00  0.00     0.164 HD
BRANCH  47  49
ATOM     49  C   UNL     1      -3.970  -5.719  -3.229  1.00  0.00     0.192 C 
BRANCH  49  50
ATOM     50  C   UNL     1      -4.872  -6.698  -2.473  1.00  0.00     0.047 C 
BRANCH  50  51
ATOM     51  C   UNL     1      -4.823  -6.481  -0.954  1.00  0.00     0.103 C 
BRANCH  51  52
ATOM     52  C   UNL     1      -3.467  -6.864  -0.364  1.00  0.00     0.226 C 
ATOM     53  O   UNL     1      -2.884  -7.869  -0.775  1.00  0.00    -0.275 OA
BRANCH  52  54
ATOM     54  N   UNL     1      -2.923  -5.977   0.584  1.00  0.00    -0.311 N 
ATOM     55  C   UNL     1      -2.254  -4.739   0.164  1.00  0.00     0.153 C 
BRANCH  54  56
ATOM     56  C   UNL     1      -3.004  -6.238   1.962  1.00  0.00     0.102 C 
ATOM     57  C   UNL     1      -2.264  -5.631   2.904  1.00  0.00     0.043 C 
BRANCH  56  58
ATOM     58  C   UNL     1      -4.006  -7.230   2.505  1.00  0.00     0.268 C 
ATOM     59  O   UNL     1      -3.764  -8.423   2.634  1.00  0.00    -0.268 OA
ATOM     60  N   UNL     1      -5.186  -6.646   2.900  1.00  0.00    -0.339 N 
ATOM     61  H   UNL     1      -5.311  -5.652   2.750  1.00  0.00     0.164 HD
BRANCH  60  62
ATOM     62  C   UNL     1      -6.269  -7.414   3.512  1.00  0.00     0.168 CG0
ATOM     63  C   UNL     1      -7.437  -7.576   2.548  1.00  0.00     0.041 C 
ATOM     64  G   UNL     1      -6.725  -6.719   4.811  1.00  0.00     0.000 G0
ENDBRANCH  60  62
ENDBRANCH  56  58
ENDBRANCH  54  56
ENDBRANCH  52  54
ENDBRANCH  51  52
ENDBRANCH  50  51
ENDBRANCH  49  50
BRANCH  49  65
ATOM     65  C   UNL     1      -4.692  -5.239  -4.498  1.00  0.00     0.326 C 
ATOM     66  O   UNL     1      -4.734  -5.840  -5.562  1.00  0.00    -0.250 OA
BRANCH  65  67
ATOM     67  O   UNL     1      -5.265  -4.020  -4.393  1.00  0.00    -0.480 OA
ATOM     68  H   UNL     1      -5.881  -3.988  -5.157  1.00  0.00     0.296 HD
ENDBRANCH  65  67
ENDBRANCH  49  65
ENDBRANCH  47  49
ENDBRANCH  43  45
ENDBRANCH   1  43
BRANCH   1  69
ATOM     69  C   UNL     1      -0.966  -7.755  -6.267  1.00  0.00    -0.001 C 
ATOM     70  C   UNL     1      -2.201  -7.682  -6.794  1.00  0.00     0.001 C 
BRANCH  70  71
ATOM     71  C   UNL     1      -2.942  -8.761  -7.451  1.00  0.00    -0.055 C 
ATOM     72  C   UNL     1      -4.257  -8.568  -7.685  1.00  0.00    -0.018 C 
ATOM     73  C   UNL     1      -2.182 -10.007  -7.828  1.00  0.00     0.044 C 
BRANCH  72  74
ATOM     74  C   UNL     1      -5.265  -9.498  -8.345  1.00  0.00     0.038 C 
ATOM     75  C   UNL     1      -4.721 -10.926  -8.206  1.00  0.00     0.015 C 
BRANCH  74  76
ATOM     76  C   UNL     1      -5.497  -9.027  -9.811  1.00  0.00     0.128 C 
BRANCH  76  77
ATOM     77  O   UNL     1      -6.906  -8.920 -10.075  1.00  0.00    -0.381 OA
ATOM     78  C   UNL     1      -7.375  -9.837 -11.054  1.00  0.00     0.195 C 
ENDBRANCH  76  77
BRANCH  76  79
ATOM     79  C   UNL     1      -4.716  -7.744 -10.190  1.00  0.00     0.068 C 
BRANCH  79  80
ATOM     80  C   UNL     1      -3.297  -7.898 -10.683  1.00  0.00    -0.045 A 
ATOM     81  C   UNL     1      -2.357  -6.875 -10.507  1.00  0.00     0.004 A 
ATOM     82  C   UNL     1      -2.905  -9.067 -11.353  1.00  0.00     0.004 A 
ATOM     83  C   UNL     1      -1.050  -7.020 -10.978  1.00  0.00     0.000 A 
ATOM     84  C   UNL     1      -1.598  -9.211 -11.824  1.00  0.00     0.000 A 
ATOM     85  C   UNL     1      -0.671  -8.189 -11.636  1.00  0.00     0.000 A 
ENDBRANCH  79  80
ENDBRANCH  76  79
ENDBRANCH  74  76
ENDBRANCH  72  74
ENDBRANCH  70  71
ENDBRANCH   1  69
TORSDOF 17
ENDMDL
MODEL 49
REMARK VINA RESULT:    -6.322      5.391     11.084
REMARK INTER + INTRA:         -25.831
REMARK INTER:                 -18.951
REMARK INTRA:                  -6.880
REMARK UNBOUND:                -6.942
REMARK SMILES C=C1C(=O)N[C@H](C)C(=O)N[C@@H](CC(C)C)C(=O)N[C@@H](C(=O)O)[C@H](C)C(=O)N[C@@H](CCCN=C(N)N)C(=O)N[C@@H](/C=C/C(C)=C/[C@H](C)[C@H](Cc2ccccc2)OC)[C@H](C)C(=O)N[C@@H](C(=O)O)CCC(=O)N1C
REMARK SMILES IDX 39 1 38 2 37 3 36 4 28 6 27 7 25 8 26 9 23 11 24 12 19 13
REMARK SMILES IDX 18 14 16 15 17 16 11 18 10 19 8 20 9 21 12 24 13 25 14 26
REMARK SMILES IDX 15 27 20 28 21 29 22 30 29 32 30 33 31 34 32 35 33 36 34 37
REMARK SMILES IDX 35 38 57 43 58 44 59 45 60 46 61 47 62 49 66 50 67 51 68 52
REMARK SMILES IDX 69 53 70 54 71 55 2 56 1 57 3 58 4 59 5 60 6 62 7 63 63 65
REMARK SMILES IDX 64 66 65 67 40 69 41 70 42 71 44 72 43 73 45 74 46 75 47 76
REMARK SMILES IDX 55 77 56 78 48 79 49 80 50 81 54 82 51 83 53 84 52 85
REMARK H PARENT 38 5 27 10 18 17 10 22 22 31 34 39 34 40 35 41 35 42 61 48
REMARK H PARENT 5 61 65 68
REMARK Flexibility Score:  369.900
ROOT
ATOM      1  C   UNL     1      -0.749  -8.874  -6.511  1.00  0.00     0.117 C 
ENDROOT
BRANCH   1   2
ATOM      2  N   UNL     1      -2.168  -9.215  -6.626  1.00  0.00    -0.347 N 
ATOM      3  O   UNL     1      -2.633  -7.982  -8.506  1.00  0.00    -0.273 OA
ATOM      4  C   UNL     1      -2.977  -8.813  -7.671  1.00  0.00     0.243 C 
ATOM      5  H   UNL     1      -2.589  -9.821  -5.938  1.00  0.00     0.164 HD
BRANCH   4   6
ATOM      6  C   UNL     1      -4.417  -9.382  -7.600  1.00  0.00     0.171 C 
BRANCH   6   7
ATOM      7  N   UNL     1      -4.973  -9.546  -8.952  1.00  0.00    -0.344 N 
ATOM      8  C   UNL     1      -5.937  -8.682  -9.425  1.00  0.00     0.226 C 
ATOM      9  O   UNL     1      -6.389  -7.764  -8.751  1.00  0.00    -0.275 OA
ATOM     10  H   UNL     1      -4.673 -10.333  -9.514  1.00  0.00     0.164 HD
BRANCH   8  11
ATOM     11  C   UNL     1      -6.369  -8.949 -10.856  1.00  0.00     0.109 C 
ATOM     12  C   UNL     1      -5.147  -9.239 -11.729  1.00  0.00     0.021 C 
BRANCH  11  13
ATOM     13  C   UNL     1      -7.455 -10.044 -10.877  1.00  0.00     0.204 C 
BRANCH  13  14
ATOM     14  N   UNL     1      -8.576  -9.691 -11.752  1.00  0.00    -0.340 N 
ATOM     15  C   UNL     1      -9.893  -9.906 -11.405  1.00  0.00     0.243 C 
ATOM     16  O   UNL     1     -10.222 -10.353 -10.308  1.00  0.00    -0.273 OA
ATOM     17  H   UNL     1      -8.370  -9.460 -12.728  1.00  0.00     0.164 HD
BRANCH  15  18
ATOM     18  C   UNL     1     -10.888  -9.651 -12.564  1.00  0.00     0.171 C 
BRANCH  18  19
ATOM     19  N   UNL     1     -10.943 -10.884 -13.347  1.00  0.00    -0.343 N 
ATOM     20  C   UNL     1     -10.888 -10.874 -14.727  1.00  0.00     0.242 CG0
ATOM     21  O   UNL     1     -10.924  -9.824 -15.365  1.00  0.00    -0.273 OA
ATOM     22  H   UNL     1     -11.031 -11.773 -12.869  1.00  0.00     0.164 HD
ATOM     23  G   UNL     1     -10.880 -12.274 -15.374  1.00  0.00     0.000 G0
ENDBRANCH  18  19
BRANCH  18  24
ATOM     24  C   UNL     1     -12.269  -9.269 -12.018  1.00  0.00     0.038 C 
BRANCH  24  25
ATOM     25  C   UNL     1     -13.329 -10.387 -12.107  1.00  0.00    -0.015 C 
ATOM     26  C   UNL     1     -14.533  -9.986 -12.959  1.00  0.00     0.007 C 
ATOM     27  C   UNL     1     -13.797 -10.765 -10.699  1.00  0.00     0.007 C 
ENDBRANCH  24  25
ENDBRANCH  18  24
ENDBRANCH  15  18
ENDBRANCH  13  14
BRANCH  13  28
ATOM     28  C   UNL     1      -6.929 -11.407 -11.338  1.00  0.00     0.327 C 
ATOM     29  O   UNL     1      -7.065 -11.895 -12.450  1.00  0.00    -0.250 OA
BRANCH  28  30
ATOM     30  O   UNL     1      -6.370 -12.123 -10.342  1.00  0.00    -0.480 OA
ATOM     31  H   UNL     1      -5.754 -12.732 -10.800  1.00  0.00     0.296 HD
ENDBRANCH  28  30
ENDBRANCH  13  28
ENDBRANCH  11  13
ENDBRANCH   8  11
ENDBRANCH   6   7
BRANCH   6  32
ATOM     32  C   UNL     1      -4.393 -10.719  -6.852  1.00  0.00     0.037 C 
BRANCH  32  33
ATOM     33  C   UNL     1      -5.702 -11.502  -7.022  1.00  0.00     0.026 C 
BRANCH  33  34
ATOM     34  C   UNL     1      -6.434 -11.713  -5.696  1.00  0.00     0.146 C 
BRANCH  34  35
ATOM     35  N   UNL     1      -7.139 -10.487  -5.348  1.00  0.00    -0.254 NA
ATOM     36  C   UNL     1      -6.888  -9.932  -4.222  1.00  0.00     0.185 C 
ATOM     37  N   UNL     1      -7.528  -8.799  -3.893  1.00  0.00    -0.370 N 
ATOM     38  N   UNL     1      -6.035 -10.324  -3.258  1.00  0.00    -0.370 N 
ATOM     39  H   UNL     1      -8.182  -8.433  -4.574  1.00  0.00     0.159 HD
ATOM     40  H   UNL     1      -7.264  -8.216  -3.118  1.00  0.00     0.159 HD
ATOM     41  H   UNL     1      -6.029  -9.879  -2.356  1.00  0.00     0.159 HD
ATOM     42  H   UNL     1      -5.497 -11.170  -3.364  1.00  0.00     0.159 HD
ENDBRANCH  34  35
ENDBRANCH  33  34
ENDBRANCH  32  33
ENDBRANCH   6  32
ENDBRANCH   4   6
ENDBRANCH   1   2
BRANCH   1  43
ATOM     43  C   UNL     1      -0.632  -7.388  -6.065  1.00  0.00     0.102 C 
ATOM     44  C   UNL     1       0.799  -6.976  -5.679  1.00  0.00     0.020 C 
BRANCH  43  45
ATOM     45  C   UNL     1      -1.684  -7.046  -5.006  1.00  0.00     0.225 C 
ATOM     46  O   UNL     1      -2.691  -6.386  -5.249  1.00  0.00    -0.275 OA
ATOM     47  N   UNL     1      -1.387  -7.449  -3.724  1.00  0.00    -0.342 N 
ATOM     48  H   UNL     1      -0.643  -8.114  -3.569  1.00  0.00     0.164 HD
BRANCH  47  49
ATOM     49  C   UNL     1      -2.318  -7.221  -2.615  1.00  0.00     0.192 C 
BRANCH  49  50
ATOM     50  C   UNL     1      -1.535  -7.079  -1.307  1.00  0.00     0.047 C 
BRANCH  50  51
ATOM     51  C   UNL     1      -1.810  -5.741  -0.607  1.00  0.00     0.103 C 
BRANCH  51  52
ATOM     52  C   UNL     1      -0.847  -4.647  -1.062  1.00  0.00     0.226 C 
ATOM     53  O   UNL     1       0.361  -4.770  -0.850  1.00  0.00    -0.275 OA
BRANCH  52  54
ATOM     54  N   UNL     1      -1.410  -3.576  -1.781  1.00  0.00    -0.311 N 
ATOM     55  C   UNL     1      -2.773  -3.662  -2.322  1.00  0.00     0.153 C 
BRANCH  54  56
ATOM     56  C   UNL     1      -0.696  -2.387  -2.002  1.00  0.00     0.102 C 
ATOM     57  C   UNL     1      -0.767  -1.292  -1.228  1.00  0.00     0.043 C 
BRANCH  56  58
ATOM     58  C   UNL     1       0.278  -2.270  -3.151  1.00  0.00     0.268 C 
ATOM     59  O   UNL     1      -0.015  -1.769  -4.229  1.00  0.00    -0.268 OA
ATOM     60  N   UNL     1       1.538  -2.721  -2.840  1.00  0.00    -0.339 N 
ATOM     61  H   UNL     1       1.697  -3.132  -1.927  1.00  0.00     0.164 HD
BRANCH  60  62
ATOM     62  C   UNL     1       2.650  -2.643  -3.786  1.00  0.00     0.168 CG0
ATOM     63  C   UNL     1       2.792  -3.941  -4.571  1.00  0.00     0.041 C 
ATOM     64  G   UNL     1       3.953  -2.318  -3.027  1.00  0.00     0.000 G0
ENDBRANCH  60  62
ENDBRANCH  56  58
ENDBRANCH  54  56
ENDBRANCH  52  54
ENDBRANCH  51  52
ENDBRANCH  50  51
ENDBRANCH  49  50
BRANCH  49  65
ATOM     65  C   UNL     1      -3.330  -8.370  -2.480  1.00  0.00     0.326 C 
ATOM     66  O   UNL     1      -4.327  -8.359  -1.773  1.00  0.00    -0.250 OA
BRANCH  65  67
ATOM     67  O   UNL     1      -3.016  -9.483  -3.179  1.00  0.00    -0.480 OA
ATOM     68  H   UNL     1      -2.829  -9.144  -4.081  1.00  0.00     0.296 HD
ENDBRANCH  65  67
ENDBRANCH  49  65
ENDBRANCH  47  49
ENDBRANCH  43  45
ENDBRANCH   1  43
BRANCH   1  69
ATOM     69  C   UNL     1      -0.103  -9.302  -7.815  1.00  0.00    -0.001 C 
ATOM     70  C   UNL     1       1.106  -9.868  -7.981  1.00  0.00     0.001 C 
BRANCH  70  71
ATOM     71  C   UNL     1       1.711 -10.296  -9.244  1.00  0.00    -0.055 C 
ATOM     72  C   UNL     1       2.650  -9.497  -9.793  1.00  0.00    -0.018 C 
ATOM     73  C   UNL     1       1.249 -11.602  -9.836  1.00  0.00     0.044 C 
BRANCH  72  74
ATOM     74  C   UNL     1       3.442  -9.685 -11.079  1.00  0.00     0.038 C 
ATOM     75  C   UNL     1       4.921  -9.795 -10.688  1.00  0.00     0.015 C 
BRANCH  74  76
ATOM     76  C   UNL     1       3.108  -8.512 -12.048  1.00  0.00     0.128 C 
BRANCH  76  77
ATOM     77  O   UNL     1       4.323  -7.911 -12.527  1.00  0.00    -0.381 OA
ATOM     78  C   UNL     1       4.511  -8.043 -13.930  1.00  0.00     0.195 C 
ENDBRANCH  76  77
BRANCH  76  79
ATOM     79  C   UNL     1       2.138  -8.899 -13.193  1.00  0.00     0.068 C 
BRANCH  79  80
ATOM     80  C   UNL     1       0.743  -9.339 -12.819  1.00  0.00    -0.045 A 
ATOM     81  C   UNL     1      -0.090  -8.520 -12.046  1.00  0.00     0.004 A 
ATOM     82  C   UNL     1       0.268 -10.597 -13.220  1.00  0.00     0.004 A 
ATOM     83  C   UNL     1      -1.373  -8.940 -11.693  1.00  0.00     0.000 A 
ATOM     84  C   UNL     1      -1.016 -11.017 -12.866  1.00  0.00     0.000 A 
ATOM     85  C   UNL     1      -1.837 -10.188 -12.104  1.00  0.00     0.000 A 
ENDBRANCH  79  80
ENDBRANCH  76  79
ENDBRANCH  74  76
ENDBRANCH  72  74
ENDBRANCH  70  71
ENDBRANCH   1  69
TORSDOF 17
ENDMDL
MODEL 50
REMARK VINA RESULT:    -6.296      4.576      9.842
REMARK INTER + INTRA:         -25.752
REMARK INTER:                 -17.674
REMARK INTRA:                  -8.078
REMARK UNBOUND:                -6.942
REMARK SMILES C=C1C(=O)N[C@H](C)C(=O)N[C@@H](CC(C)C)C(=O)N[C@@H](C(=O)O)[C@H](C)C(=O)N[C@@H](CCCN=C(N)N)C(=O)N[C@@H](/C=C/C(C)=C/[C@H](C)[C@H](Cc2ccccc2)OC)[C@H](C)C(=O)N[C@@H](C(=O)O)CCC(=O)N1C
REMARK SMILES IDX 39 1 38 2 37 3 36 4 28 6 27 7 25 8 26 9 23 11 24 12 19 13
REMARK SMILES IDX 18 14 16 15 17 16 11 18 10 19 8 20 9 21 12 24 13 25 14 26
REMARK SMILES IDX 15 27 20 28 21 29 22 30 29 32 30 33 31 34 32 35 33 36 34 37
REMARK SMILES IDX 35 38 57 43 58 44 59 45 60 46 61 47 62 49 66 50 67 51 68 52
REMARK SMILES IDX 69 53 70 54 71 55 2 56 1 57 3 58 4 59 5 60 6 62 7 63 63 65
REMARK SMILES IDX 64 66 65 67 40 69 41 70 42 71 44 72 43 73 45 74 46 75 47 76
REMARK SMILES IDX 55 77 56 78 48 79 49 80 50 81 54 82 51 83 53 84 52 85
REMARK H PARENT 38 5 27 10 18 17 10 22 22 31 34 39 34 40 35 41 35 42 61 48
REMARK H PARENT 5 61 65 68
REMARK Flexibility Score:  369.900
ROOT
ATOM      1  C   UNL     1       4.219  -8.356  -5.970  1.00  0.00     0.117 C 
ENDROOT
BRANCH   1   2
ATOM      2  N   UNL     1       4.079  -8.482  -7.421  1.00  0.00    -0.347 N 
ATOM      3  O   UNL     1       5.975  -9.716  -7.813  1.00  0.00    -0.273 OA
ATOM      4  C   UNL     1       4.923  -9.232  -8.217  1.00  0.00     0.243 C 
ATOM      5  H   UNL     1       3.297  -8.043  -7.883  1.00  0.00     0.164 HD
BRANCH   4   6
ATOM      6  C   UNL     1       4.503  -9.269  -9.709  1.00  0.00     0.171 C 
BRANCH   6   7
ATOM      7  N   UNL     1       3.143  -8.732  -9.874  1.00  0.00    -0.344 N 
ATOM      8  C   UNL     1       2.322  -9.194 -10.880  1.00  0.00     0.226 C 
ATOM      9  O   UNL     1       2.681 -10.043 -11.687  1.00  0.00    -0.275 OA
ATOM     10  H   UNL     1       2.836  -7.981  -9.268  1.00  0.00     0.164 HD
BRANCH   8  11
ATOM     11  C   UNL     1       0.933  -8.581 -10.884  1.00  0.00     0.109 C 
ATOM     12  C   UNL     1       0.224  -8.895 -12.201  1.00  0.00     0.021 C 
BRANCH  11  13
ATOM     13  C   UNL     1       0.168  -9.012  -9.617  1.00  0.00     0.204 C 
BRANCH  13  14
ATOM     14  N   UNL     1      -1.227  -8.561  -9.634  1.00  0.00    -0.340 N 
ATOM     15  C   UNL     1      -1.656  -7.433  -8.969  1.00  0.00     0.243 C 
ATOM     16  O   UNL     1      -0.886  -6.690  -8.364  1.00  0.00    -0.273 OA
ATOM     17  H   UNL     1      -1.937  -9.208  -9.987  1.00  0.00     0.164 HD
BRANCH  15  18
ATOM     18  C   UNL     1      -3.196  -7.271  -8.956  1.00  0.00     0.171 C 
BRANCH  18  19
ATOM     19  N   UNL     1      -3.519  -6.432  -7.804  1.00  0.00    -0.343 N 
ATOM     20  C   UNL     1      -4.471  -6.804  -6.875  1.00  0.00     0.242 CG0
ATOM     21  O   UNL     1      -5.183  -7.791  -7.044  1.00  0.00    -0.273 OA
ATOM     22  H   UNL     1      -3.038  -5.548  -7.682  1.00  0.00     0.164 HD
ATOM     23  G   UNL     1      -4.618  -5.830  -5.688  1.00  0.00     0.000 G0
ENDBRANCH  18  19
BRANCH  18  24
ATOM     24  C   UNL     1      -3.685  -6.640 -10.265  1.00  0.00     0.038 C 
BRANCH  24  25
ATOM     25  C   UNL     1      -5.070  -7.130 -10.739  1.00  0.00    -0.015 C 
ATOM     26  C   UNL     1      -6.216  -6.323 -10.129  1.00  0.00     0.007 C 
ATOM     27  C   UNL     1      -5.239  -8.611 -10.389  1.00  0.00     0.007 C 
ENDBRANCH  24  25
ENDBRANCH  18  24
ENDBRANCH  15  18
ENDBRANCH  13  14
BRANCH  13  28
ATOM     28  C   UNL     1       0.152 -10.530  -9.410  1.00  0.00     0.327 C 
ATOM     29  O   UNL     1      -0.398 -11.352 -10.127  1.00  0.00    -0.250 OA
BRANCH  28  30
ATOM     30  O   UNL     1       0.725 -10.911  -8.250  1.00  0.00    -0.480 OA
ATOM     31  H   UNL     1       1.506 -11.433  -8.527  1.00  0.00     0.296 HD
ENDBRANCH  28  30
ENDBRANCH  13  28
ENDBRANCH  11  13
ENDBRANCH   8  11
ENDBRANCH   6   7
BRANCH   6  32
ATOM     32  C   UNL     1       5.513  -8.467 -10.536  1.00  0.00     0.037 C 
BRANCH  32  33
ATOM     33  C   UNL     1       6.556  -9.369 -11.212  1.00  0.00     0.026 C 
BRANCH  33  34
ATOM     34  C   UNL     1       6.512  -9.273 -12.738  1.00  0.00     0.146 C 
BRANCH  34  35
ATOM     35  N   UNL     1       5.815  -8.050 -13.111  1.00  0.00    -0.254 NA
ATOM     36  C   UNL     1       4.760  -8.139 -13.832  1.00  0.00     0.185 C 
ATOM     37  N   UNL     1       4.107  -7.019 -14.178  1.00  0.00    -0.370 N 
ATOM     38  N   UNL     1       4.165  -9.240 -14.326  1.00  0.00    -0.370 N 
ATOM     39  H   UNL     1       4.488  -6.147 -13.835  1.00  0.00     0.159 HD
ATOM     40  H   UNL     1       3.189  -7.015 -14.588  1.00  0.00     0.159 HD
ATOM     41  H   UNL     1       3.418  -9.171 -14.997  1.00  0.00     0.159 HD
ATOM     42  H   UNL     1       4.557 -10.154 -14.158  1.00  0.00     0.159 HD
ENDBRANCH  34  35
ENDBRANCH  33  34
ENDBRANCH  32  33
ENDBRANCH   6  32
ENDBRANCH   4   6
ENDBRANCH   1   2
BRANCH   1  43
ATOM     43  C   UNL     1       3.015  -9.071  -5.293  1.00  0.00     0.102 C 
ATOM     44  C   UNL     1       3.101 -10.606  -5.352  1.00  0.00     0.020 C 
BRANCH  43  45
ATOM     45  C   UNL     1       1.684  -8.504  -5.796  1.00  0.00     0.225 C 
ATOM     46  O   UNL     1       1.451  -8.292  -6.983  1.00  0.00    -0.275 OA
ATOM     47  N   UNL     1       0.782  -8.151  -4.818  1.00  0.00    -0.342 N 
ATOM     48  H   UNL     1       0.924  -8.469  -3.869  1.00  0.00     0.164 HD
BRANCH  47  49
ATOM     49  C   UNL     1      -0.546  -7.629  -5.153  1.00  0.00     0.192 C 
BRANCH  49  50
ATOM     50  C   UNL     1      -1.045  -6.728  -4.020  1.00  0.00     0.047 C 
BRANCH  50  51
ATOM     51  C   UNL     1      -0.741  -7.314  -2.634  1.00  0.00     0.103 C 
BRANCH  51  52
ATOM     52  C   UNL     1      -1.833  -6.982  -1.619  1.00  0.00     0.226 C 
ATOM     53  O   UNL     1      -1.624  -6.131  -0.753  1.00  0.00    -0.275 OA
BRANCH  52  54
ATOM     54  N   UNL     1      -3.068  -7.636  -1.791  1.00  0.00    -0.311 N 
ATOM     55  C   UNL     1      -3.170  -9.098  -1.687  1.00  0.00     0.153 C 
BRANCH  54  56
ATOM     56  C   UNL     1      -4.245  -6.919  -2.061  1.00  0.00     0.102 C 
ATOM     57  C   UNL     1      -5.368  -6.981  -1.328  1.00  0.00     0.043 C 
BRANCH  56  58
ATOM     58  C   UNL     1      -4.314  -5.952  -3.220  1.00  0.00     0.268 C 
ATOM     59  O   UNL     1      -4.092  -4.754  -3.106  1.00  0.00    -0.268 OA
ATOM     60  N   UNL     1      -4.587  -6.565  -4.420  1.00  0.00    -0.339 N 
ATOM     61  H   UNL     1      -4.769  -7.561  -4.427  1.00  0.00     0.164 HD
BRANCH  60  62
ATOM     62  C   UNL     1      -4.638  -5.823  -5.679  1.00  0.00     0.168 CG0
ATOM     63  C   UNL     1      -5.941  -5.043  -5.802  1.00  0.00     0.041 C 
ATOM     64  G   UNL     1      -4.473  -6.801  -6.861  1.00  0.00     0.000 G0
ENDBRANCH  60  62
ENDBRANCH  56  58
ENDBRANCH  54  56
ENDBRANCH  52  54
ENDBRANCH  51  52
ENDBRANCH  50  51
ENDBRANCH  49  50
BRANCH  49  65
ATOM     65  C   UNL     1      -1.558  -8.761  -5.386  1.00  0.00     0.326 C 
ATOM     66  O   UNL     1      -2.693  -8.804  -4.934  1.00  0.00    -0.250 OA
BRANCH  65  67
ATOM     67  O   UNL     1      -1.087  -9.798  -6.113  1.00  0.00    -0.480 OA
ATOM     68  H   UNL     1      -0.343  -9.406  -6.620  1.00  0.00     0.296 HD
ENDBRANCH  65  67
ENDBRANCH  49  65
ENDBRANCH  47  49
ENDBRANCH  43  45
ENDBRANCH   1  43
BRANCH   1  69
ATOM     69  C   UNL     1       4.448  -6.882  -5.693  1.00  0.00    -0.001 C 
ATOM     70  C   UNL     1       4.279  -5.854  -6.544  1.00  0.00     0.001 C 
BRANCH  70  71
ATOM     71  C   UNL     1       4.482  -4.433  -6.258  1.00  0.00    -0.055 C 
ATOM     72  C   UNL     1       3.985  -3.948  -5.101  1.00  0.00    -0.018 C 
ATOM     73  C   UNL     1       5.237  -3.614  -7.272  1.00  0.00     0.044 C 
BRANCH  72  74
ATOM     74  C   UNL     1       4.046  -2.533  -4.544  1.00  0.00     0.038 C 
ATOM     75  C   UNL     1       4.742  -2.612  -3.180  1.00  0.00     0.015 C 
BRANCH  74  76
ATOM     76  C   UNL     1       2.603  -1.947  -4.508  1.00  0.00     0.128 C 
BRANCH  76  77
ATOM     77  O   UNL     1       2.232  -1.475  -5.814  1.00  0.00    -0.381 OA
ATOM     78  C   UNL     1       3.261  -0.747  -6.472  1.00  0.00     0.195 C 
ENDBRANCH  76  77
BRANCH  76  79
ATOM     79  C   UNL     1       1.550  -2.904  -3.894  1.00  0.00     0.068 C 
BRANCH  79  80
ATOM     80  C   UNL     1       0.368  -2.292  -3.182  1.00  0.00    -0.045 A 
ATOM     81  C   UNL     1       0.263  -0.904  -3.020  1.00  0.00     0.004 A 
ATOM     82  C   UNL     1      -0.635  -3.111  -2.644  1.00  0.00     0.004 A 
ATOM     83  C   UNL     1      -0.827  -0.347  -2.348  1.00  0.00     0.000 A 
ATOM     84  C   UNL     1      -1.724  -2.553  -1.972  1.00  0.00     0.000 A 
ATOM     85  C   UNL     1      -1.821  -1.171  -1.825  1.00  0.00     0.000 A 
ENDBRANCH  79  80
ENDBRANCH  76  79
ENDBRANCH  74  76
ENDBRANCH  72  74
ENDBRANCH  70  71
ENDBRANCH   1  69
TORSDOF 17
ENDMDL
