MODEL 1
REMARK VINA RESULT:    -7.054      0.000      0.000
REMARK INTER + INTRA:         -16.724
REMARK INTER:                 -14.271
REMARK INTRA:                  -2.453
REMARK UNBOUND:                -2.453
REMARK SMILES CC[C@@H](C)[C@@H](NC(=O)[C@@H](O)Cc1ccc(O)c(Cl)c1)C(=O)N1[C@H](C(=O)NCCCCN=C(N)N)C[C@H]2CC[C@H](OS(=O)(=O)O)C[C@@H]21
REMARK SMILES IDX 22 1 36 2 46 3 35 4 23 5 45 6 37 7 39 8 38 9 20 10 21 11
REMARK SMILES IDX 5 12 6 13 7 14 8 15 9 17 11 18 12 19 17 20 19 21 15 22 14 23
REMARK SMILES IDX 13 24 18 25 16 26 10 28 3 30 4 31 2 32 1 33 24 34 25 35
REMARK SMILES IDX 26 36 27 38 28 39 29 40 30 41 31 42 32 43 33 44 34 45 40 50
REMARK SMILES IDX 41 51 42 52 43 53 44 54
REMARK H PARENT 6 16 16 27 10 29 26 37 33 46 33 47 34 48 34 49 44 55
ROOT
ATOM      1  N   UNL     1       4.101   1.678  -9.818  1.00  0.00    -0.326 N 
ATOM      2  C   UNL     1       3.241   3.869  -9.848  1.00  0.00     0.014 C 
ATOM      3  C   UNL     1       3.797   2.766 -10.752  1.00  0.00     0.091 C 
ATOM      4  C   UNL     1       4.050   3.696  -8.572  1.00  0.00     0.041 C 
ATOM      5  C   UNL     1       3.995   2.165  -8.420  1.00  0.00     0.175 C 
ATOM      6  C   UNL     1       2.788   2.502 -11.868  1.00  0.00     0.059 C 
ATOM      7  C   UNL     1       3.250   5.209 -10.558  1.00  0.00     0.008 C 
ATOM      8  C   UNL     1       1.985   3.752 -12.289  1.00  0.00     0.143 C 
ATOM      9  C   UNL     1       2.758   5.057 -12.013  1.00  0.00     0.034 C 
ENDROOT
BRANCH   1  10
ATOM     10  C   UNL     1       4.647   0.429 -10.058  1.00  0.00     0.246 C 
ATOM     11  O   UNL     1       3.895  -0.545 -10.164  1.00  0.00    -0.272 OA
BRANCH  10  12
ATOM     12  C   UNL     1       6.187   0.285 -10.231  1.00  0.00     0.174 C 
BRANCH  12  13
ATOM     13  N   UNL     1       6.823   1.599 -10.146  1.00  0.00    -0.342 N 
ATOM     14  C   UNL     1       7.485   2.086  -9.041  1.00  0.00     0.249 C 
ATOM     15  O   UNL     1       7.640   1.452  -8.004  1.00  0.00    -0.272 OA
ATOM     16  H   UNL     1       6.645   2.293 -10.867  1.00  0.00     0.164 HD
BRANCH  14  17
ATOM     17  C   UNL     1       8.033   3.513  -9.256  1.00  0.00     0.207 C 
BRANCH  17  18
ATOM     18  C   UNL     1       9.564   3.494  -9.325  1.00  0.00     0.077 C 
BRANCH  18  19
ATOM     19  C   UNL     1      10.062   3.480 -10.753  1.00  0.00    -0.043 A 
ATOM     20  C   UNL     1       9.643   3.739 -13.128  1.00  0.00     0.083 A 
ATOM     21  C   UNL     1       9.194   3.800 -11.809  1.00  0.00     0.028 A 
ATOM     22  C   UNL     1      10.957   3.357 -13.401  1.00  0.00     0.134 A 
ATOM     23  C   UNL     1      11.827   3.037 -12.365  1.00  0.00     0.048 A 
ATOM     24  C   UNL     1      11.380   3.096 -11.044  1.00  0.00     0.008 A 
ATOM     25  Cl  UNL     1       8.562   4.135 -14.412  1.00  0.00    -0.080 Cl
BRANCH  22  26
ATOM     26  O   UNL     1      11.439   3.272 -14.679  1.00  0.00    -0.506 OA
ATOM     27  H   UNL     1      12.369   3.564 -14.648  1.00  0.00     0.293 HD
ENDBRANCH  22  26
ENDBRANCH  18  19
ENDBRANCH  17  18
BRANCH  17  28
ATOM     28  O   UNL     1       7.615   4.392  -8.200  1.00  0.00    -0.383 OA
ATOM     29  H   UNL     1       7.188   5.162  -8.640  1.00  0.00     0.211 HD
ENDBRANCH  17  28
ENDBRANCH  14  17
ENDBRANCH  12  13
BRANCH  12  30
ATOM     30  C   UNL     1       6.576  -0.479 -11.526  1.00  0.00     0.018 C 
ATOM     31  C   UNL     1       6.453  -1.997 -11.322  1.00  0.00     0.010 C 
BRANCH  30  32
ATOM     32  C   UNL     1       7.988  -0.126 -12.055  1.00  0.00     0.002 C 
ATOM     33  C   UNL     1       8.021   0.547 -13.421  1.00  0.00     0.004 C 
ENDBRANCH  30  32
ENDBRANCH  12  30
ENDBRANCH  10  12
ENDBRANCH   1  10
BRANCH   5  34
ATOM     34  C   UNL     1       2.662   1.701  -7.776  1.00  0.00     0.242 C 
ATOM     35  O   UNL     1       1.691   1.355  -8.449  1.00  0.00    -0.273 OA
ATOM     36  N   UNL     1       2.625   1.755  -6.401  1.00  0.00    -0.354 N 
ATOM     37  H   UNL     1       3.418   2.164  -5.904  1.00  0.00     0.163 HD
BRANCH  36  38
ATOM     38  C   UNL     1       1.551   1.163  -5.631  1.00  0.00     0.116 C 
BRANCH  38  39
ATOM     39  C   UNL     1       2.123   0.443  -4.412  1.00  0.00     0.023 C 
BRANCH  39  40
ATOM     40  C   UNL     1       1.640   1.050  -3.098  1.00  0.00     0.026 C 
BRANCH  40  41
ATOM     41  C   UNL     1       0.144   1.355  -3.160  1.00  0.00     0.146 C 
BRANCH  41  42
ATOM     42  N   UNL     1      -0.520   0.808  -1.984  1.00  0.00    -0.254 NA
ATOM     43  C   UNL     1      -1.761   1.051  -1.787  1.00  0.00     0.185 C 
ATOM     44  N   UNL     1      -2.629   1.771  -2.520  1.00  0.00    -0.370 N 
ATOM     45  N   UNL     1      -2.353   0.541  -0.694  1.00  0.00    -0.370 N 
ATOM     46  H   UNL     1      -3.501   2.081  -2.125  1.00  0.00     0.159 HD
ATOM     47  H   UNL     1      -2.351   2.218  -3.388  1.00  0.00     0.159 HD
ATOM     48  H   UNL     1      -1.770  -0.023  -0.091  1.00  0.00     0.159 HD
ATOM     49  H   UNL     1      -3.350   0.484  -0.592  1.00  0.00     0.159 HD
ENDBRANCH  41  42
ENDBRANCH  40  41
ENDBRANCH  39  40
ENDBRANCH  38  39
ENDBRANCH  36  38
ENDBRANCH   5  34
BRANCH   8  50
ATOM     50  O   UNL     1       0.746   3.800 -11.580  1.00  0.00    -0.245 OA
BRANCH  50  51
ATOM     51  S   UNL     1      -0.652   3.852 -12.409  1.00  0.00     0.397 S 
ATOM     52  O   UNL     1      -0.344   3.702 -13.814  1.00  0.00    -0.169 OA
ATOM     53  O   UNL     1      -1.465   4.947 -11.923  1.00  0.00    -0.169 OA
BRANCH  51  54
ATOM     54  O   UNL     1      -1.357   2.476 -11.967  1.00  0.00    -0.264 OA
ATOM     55  H   UNL     1      -1.983   2.220 -12.674  1.00  0.00     0.236 HD
ENDBRANCH  51  54
ENDBRANCH  50  51
ENDBRANCH   8  50
TORSDOF 19
ENDMDL
MODEL 2
REMARK VINA RESULT:    -6.797      3.784      8.101
REMARK INTER + INTRA:         -16.203
REMARK INTER:                 -11.542
REMARK INTRA:                  -4.661
REMARK UNBOUND:                -2.453
REMARK SMILES CC[C@@H](C)[C@@H](NC(=O)[C@@H](O)Cc1ccc(O)c(Cl)c1)C(=O)N1[C@H](C(=O)NCCCCN=C(N)N)C[C@H]2CC[C@H](OS(=O)(=O)O)C[C@@H]21
REMARK SMILES IDX 22 1 36 2 46 3 35 4 23 5 45 6 37 7 39 8 38 9 20 10 21 11
REMARK SMILES IDX 5 12 6 13 7 14 8 15 9 17 11 18 12 19 17 20 19 21 15 22 14 23
REMARK SMILES IDX 13 24 18 25 16 26 10 28 3 30 4 31 2 32 1 33 24 34 25 35
REMARK SMILES IDX 26 36 27 38 28 39 29 40 30 41 31 42 32 43 33 44 34 45 40 50
REMARK SMILES IDX 41 51 42 52 43 53 44 54
REMARK H PARENT 6 16 16 27 10 29 26 37 33 46 33 47 34 48 34 49 44 55
ROOT
ATOM      1  N   UNL     1       2.500   3.457  -8.914  1.00  0.00    -0.326 N 
ATOM      2  C   UNL     1       2.106   1.842  -7.247  1.00  0.00     0.014 C 
ATOM      3  C   UNL     1       1.556   3.144  -7.837  1.00  0.00     0.091 C 
ATOM      4  C   UNL     1       3.610   2.020  -7.387  1.00  0.00     0.041 C 
ATOM      5  C   UNL     1       3.687   2.571  -8.823  1.00  0.00     0.175 C 
ATOM      6  C   UNL     1       0.089   2.927  -8.201  1.00  0.00     0.059 C 
ATOM      7  C   UNL     1       1.514   1.576  -5.877  1.00  0.00     0.008 C 
ATOM      8  C   UNL     1      -0.640   1.928  -7.276  1.00  0.00     0.143 C 
ATOM      9  C   UNL     1      -0.002   1.866  -5.873  1.00  0.00     0.034 C 
ENDROOT
BRANCH   1  10
ATOM     10  C   UNL     1       2.525   4.531  -9.787  1.00  0.00     0.246 C 
ATOM     11  O   UNL     1       3.475   5.320  -9.743  1.00  0.00    -0.272 OA
BRANCH  10  12
ATOM     12  C   UNL     1       1.383   4.697 -10.831  1.00  0.00     0.174 C 
BRANCH  12  13
ATOM     13  N   UNL     1       1.737   4.007 -12.071  1.00  0.00    -0.342 N 
ATOM     14  C   UNL     1       0.852   3.321 -12.873  1.00  0.00     0.249 C 
ATOM     15  O   UNL     1      -0.348   3.236 -12.648  1.00  0.00    -0.272 OA
ATOM     16  H   UNL     1       2.715   3.858 -12.304  1.00  0.00     0.164 HD
BRANCH  14  17
ATOM     17  C   UNL     1       1.534   2.685 -14.104  1.00  0.00     0.207 C 
BRANCH  17  18
ATOM     18  C   UNL     1       0.961   3.273 -15.397  1.00  0.00     0.077 C 
BRANCH  18  19
ATOM     19  C   UNL     1       1.458   4.680 -15.643  1.00  0.00    -0.043 A 
ATOM     20  C   UNL     1       3.270   6.292 -15.692  1.00  0.00     0.083 A 
ATOM     21  C   UNL     1       2.822   4.982 -15.513  1.00  0.00     0.028 A 
ATOM     22  C   UNL     1       2.361   7.305 -15.999  1.00  0.00     0.134 A 
ATOM     23  C   UNL     1       1.007   7.019 -16.131  1.00  0.00     0.048 A 
ATOM     24  C   UNL     1       0.555   5.710 -15.950  1.00  0.00     0.008 A 
ATOM     25  Cl  UNL     1       4.950   6.644 -15.528  1.00  0.00    -0.080 Cl
BRANCH  22  26
ATOM     26  O   UNL     1       2.751   8.605 -16.173  1.00  0.00    -0.506 OA
ATOM     27  H   UNL     1       2.025   9.055 -16.644  1.00  0.00     0.293 HD
ENDBRANCH  22  26
ENDBRANCH  18  19
ENDBRANCH  17  18
BRANCH  17  28
ATOM     28  O   UNL     1       1.362   1.259 -14.111  1.00  0.00    -0.383 OA
ATOM     29  H   UNL     1       0.390   1.102 -14.117  1.00  0.00     0.211 HD
ENDBRANCH  17  28
ENDBRANCH  14  17
ENDBRANCH  12  13
BRANCH  12  30
ATOM     30  C   UNL     1       0.999   6.182 -11.069  1.00  0.00     0.018 C 
ATOM     31  C   UNL     1      -0.521   6.377 -10.963  1.00  0.00     0.010 C 
BRANCH  30  32
ATOM     32  C   UNL     1       1.516   6.750 -12.414  1.00  0.00     0.002 C 
ATOM     33  C   UNL     1       2.015   8.188 -12.365  1.00  0.00     0.004 C 
ENDBRANCH  30  32
ENDBRANCH  12  30
ENDBRANCH  10  12
ENDBRANCH   1  10
BRANCH   5  34
ATOM     34  C   UNL     1       3.606   1.434  -9.876  1.00  0.00     0.242 C 
ATOM     35  O   UNL     1       2.735   1.403 -10.746  1.00  0.00    -0.273 OA
ATOM     36  N   UNL     1       4.543   0.436  -9.734  1.00  0.00    -0.354 N 
ATOM     37  H   UNL     1       5.163   0.455  -8.923  1.00  0.00     0.163 HD
BRANCH  36  38
ATOM     38  C   UNL     1       4.751  -0.581 -10.745  1.00  0.00     0.116 C 
BRANCH  38  39
ATOM     39  C   UNL     1       6.180  -0.499 -11.277  1.00  0.00     0.023 C 
BRANCH  39  40
ATOM     40  C   UNL     1       7.155   0.057 -10.244  1.00  0.00     0.026 C 
BRANCH  40  41
ATOM     41  C   UNL     1       7.805   1.344 -10.751  1.00  0.00     0.146 C 
BRANCH  41  42
ATOM     42  N   UNL     1       6.824   2.137 -11.480  1.00  0.00    -0.254 NA
ATOM     43  C   UNL     1       6.494   3.294 -11.042  1.00  0.00     0.185 C 
ATOM     44  N   UNL     1       6.918   3.960  -9.953  1.00  0.00    -0.370 N 
ATOM     45  N   UNL     1       5.585   4.007 -11.727  1.00  0.00    -0.370 N 
ATOM     46  H   UNL     1       6.399   4.746  -9.599  1.00  0.00     0.159 HD
ATOM     47  H   UNL     1       7.617   3.571  -9.329  1.00  0.00     0.159 HD
ATOM     48  H   UNL     1       5.220   3.580 -12.567  1.00  0.00     0.159 HD
ATOM     49  H   UNL     1       5.452   4.994 -11.589  1.00  0.00     0.159 HD
ENDBRANCH  41  42
ENDBRANCH  40  41
ENDBRANCH  39  40
ENDBRANCH  38  39
ENDBRANCH  36  38
ENDBRANCH   5  34
BRANCH   8  50
ATOM     50  O   UNL     1      -0.609   0.619  -7.846  1.00  0.00    -0.245 OA
BRANCH  50  51
ATOM     51  S   UNL     1      -1.960  -0.286  -7.853  1.00  0.00     0.397 S 
ATOM     52  O   UNL     1      -2.298  -0.574  -9.229  1.00  0.00    -0.169 OA
ATOM     53  O   UNL     1      -2.927   0.278  -6.935  1.00  0.00    -0.169 OA
BRANCH  51  54
ATOM     54  O   UNL     1      -1.437  -1.674  -7.231  1.00  0.00    -0.264 OA
ATOM     55  H   UNL     1      -2.216  -2.250  -7.089  1.00  0.00     0.236 HD
ENDBRANCH  51  54
ENDBRANCH  50  51
ENDBRANCH   8  50
TORSDOF 19
ENDMDL
MODEL 3
REMARK VINA RESULT:    -6.690      2.384      2.954
REMARK INTER + INTRA:         -15.986
REMARK INTER:                 -13.098
REMARK INTRA:                  -2.888
REMARK UNBOUND:                -2.453
REMARK SMILES CC[C@@H](C)[C@@H](NC(=O)[C@@H](O)Cc1ccc(O)c(Cl)c1)C(=O)N1[C@H](C(=O)NCCCCN=C(N)N)C[C@H]2CC[C@H](OS(=O)(=O)O)C[C@@H]21
REMARK SMILES IDX 22 1 36 2 46 3 35 4 23 5 45 6 37 7 39 8 38 9 20 10 21 11
REMARK SMILES IDX 5 12 6 13 7 14 8 15 9 17 11 18 12 19 17 20 19 21 15 22 14 23
REMARK SMILES IDX 13 24 18 25 16 26 10 28 3 30 4 31 2 32 1 33 24 34 25 35
REMARK SMILES IDX 26 36 27 38 28 39 29 40 30 41 31 42 32 43 33 44 34 45 40 50
REMARK SMILES IDX 41 51 42 52 43 53 44 54
REMARK H PARENT 6 16 16 27 10 29 26 37 33 46 33 47 34 48 34 49 44 55
ROOT
ATOM      1  N   UNL     1       3.668   1.901 -10.219  1.00  0.00    -0.326 N 
ATOM      2  C   UNL     1       2.511   3.878 -10.760  1.00  0.00     0.014 C 
ATOM      3  C   UNL     1       3.209   2.665 -11.382  1.00  0.00     0.091 C 
ATOM      4  C   UNL     1       3.345   4.144  -9.517  1.00  0.00     0.041 C 
ATOM      5  C   UNL     1       3.505   2.708  -8.984  1.00  0.00     0.175 C 
ATOM      6  C   UNL     1       2.238   1.994 -12.353  1.00  0.00     0.059 C 
ATOM      7  C   UNL     1       2.329   4.982 -11.783  1.00  0.00     0.008 C 
ATOM      8  C   UNL     1       1.266   2.978 -13.039  1.00  0.00     0.143 C 
ATOM      9  C   UNL     1       1.852   4.402 -13.132  1.00  0.00     0.034 C 
ENDROOT
BRANCH   1  10
ATOM     10  C   UNL     1       4.380   0.715 -10.161  1.00  0.00     0.246 C 
ATOM     11  O   UNL     1       3.765  -0.351 -10.052  1.00  0.00    -0.272 OA
BRANCH  10  12
ATOM     12  C   UNL     1       5.932   0.746 -10.276  1.00  0.00     0.174 C 
BRANCH  12  13
ATOM     13  N   UNL     1       6.399   2.130 -10.346  1.00  0.00    -0.342 N 
ATOM     14  C   UNL     1       7.152   2.761  -9.381  1.00  0.00     0.249 C 
ATOM     15  O   UNL     1       7.541   2.215  -8.355  1.00  0.00    -0.272 OA
ATOM     16  H   UNL     1       6.026   2.753 -11.059  1.00  0.00     0.164 HD
BRANCH  14  17
ATOM     17  C   UNL     1       7.472   4.228  -9.738  1.00  0.00     0.207 C 
BRANCH  17  18
ATOM     18  C   UNL     1       8.363   4.293 -10.983  1.00  0.00     0.077 C 
BRANCH  18  19
ATOM     19  C   UNL     1       7.589   4.732 -12.205  1.00  0.00    -0.043 A 
ATOM     20  C   UNL     1       7.474   5.101 -14.600  1.00  0.00     0.083 A 
ATOM     21  C   UNL     1       8.172   4.649 -13.480  1.00  0.00     0.028 A 
ATOM     22  C   UNL     1       6.194   5.639 -14.456  1.00  0.00     0.134 A 
ATOM     23  C   UNL     1       5.606   5.727 -13.200  1.00  0.00     0.048 A 
ATOM     24  C   UNL     1       6.303   5.277 -12.076  1.00  0.00     0.008 A 
ATOM     25  Cl  UNL     1       8.206   4.990 -16.158  1.00  0.00    -0.080 Cl
BRANCH  22  26
ATOM     26  O   UNL     1       5.475   6.105 -15.523  1.00  0.00    -0.506 OA
ATOM     27  H   UNL     1       5.065   6.943 -15.241  1.00  0.00     0.293 HD
ENDBRANCH  22  26
ENDBRANCH  18  19
ENDBRANCH  17  18
BRANCH  17  28
ATOM     28  O   UNL     1       8.127   4.895  -8.647  1.00  0.00    -0.383 OA
ATOM     29  H   UNL     1       8.693   5.590  -9.054  1.00  0.00     0.211 HD
ENDBRANCH  17  28
ENDBRANCH  14  17
ENDBRANCH  12  13
BRANCH  12  30
ATOM     30  C   UNL     1       6.464  -0.119 -11.450  1.00  0.00     0.018 C 
ATOM     31  C   UNL     1       6.390  -1.614 -11.104  1.00  0.00     0.010 C 
BRANCH  30  32
ATOM     32  C   UNL     1       7.898   0.254 -11.897  1.00  0.00     0.002 C 
ATOM     33  C   UNL     1       8.016   0.814 -13.309  1.00  0.00     0.004 C 
ENDBRANCH  30  32
ENDBRANCH  12  30
ENDBRANCH  10  12
ENDBRANCH   1  10
BRANCH   5  34
ATOM     34  C   UNL     1       2.254   2.251  -8.189  1.00  0.00     0.242 C 
ATOM     35  O   UNL     1       1.202   1.932  -8.743  1.00  0.00    -0.273 OA
ATOM     36  N   UNL     1       2.388   2.278  -6.819  1.00  0.00    -0.354 N 
ATOM     37  H   UNL     1       3.243   2.666  -6.417  1.00  0.00     0.163 HD
BRANCH  36  38
ATOM     38  C   UNL     1       1.408   1.686  -5.933  1.00  0.00     0.116 C 
BRANCH  38  39
ATOM     39  C   UNL     1       1.555   0.166  -5.938  1.00  0.00     0.023 C 
BRANCH  39  40
ATOM     40  C   UNL     1       0.218  -0.550  -5.783  1.00  0.00     0.026 C 
BRANCH  40  41
ATOM     41  C   UNL     1      -0.726  -0.190  -6.931  1.00  0.00     0.146 C 
BRANCH  41  42
ATOM     42  N   UNL     1      -2.073  -0.651  -6.623  1.00  0.00    -0.254 NA
ATOM     43  C   UNL     1      -2.893  -0.893  -7.576  1.00  0.00     0.185 C 
ATOM     44  N   UNL     1      -2.725  -0.795  -8.908  1.00  0.00    -0.370 N 
ATOM     45  N   UNL     1      -4.132  -1.313  -7.271  1.00  0.00    -0.370 N 
ATOM     46  H   UNL     1      -3.519  -0.781  -9.525  1.00  0.00     0.159 HD
ATOM     47  H   UNL     1      -1.841  -0.504  -9.313  1.00  0.00     0.159 HD
ATOM     48  H   UNL     1      -4.338  -1.422  -6.287  1.00  0.00     0.159 HD
ATOM     49  H   UNL     1      -4.741  -1.744  -7.943  1.00  0.00     0.159 HD
ENDBRANCH  41  42
ENDBRANCH  40  41
ENDBRANCH  39  40
ENDBRANCH  38  39
ENDBRANCH  36  38
ENDBRANCH   5  34
BRANCH   8  50
ATOM     50  O   UNL     1       0.038   3.040 -12.313  1.00  0.00    -0.245 OA
BRANCH  50  51
ATOM     51  S   UNL     1      -1.227   3.845 -12.943  1.00  0.00     0.397 S 
ATOM     52  O   UNL     1      -1.049   3.906 -14.376  1.00  0.00    -0.169 OA
ATOM     53  O   UNL     1      -1.487   5.034 -12.158  1.00  0.00    -0.169 OA
BRANCH  51  54
ATOM     54  O   UNL     1      -2.437   2.814 -12.696  1.00  0.00    -0.264 OA
ATOM     55  H   UNL     1      -2.057   1.913 -12.655  1.00  0.00     0.236 HD
ENDBRANCH  51  54
ENDBRANCH  50  51
ENDBRANCH   8  50
TORSDOF 19
ENDMDL
MODEL 4
REMARK VINA RESULT:    -6.593      3.895      9.723
REMARK INTER + INTRA:         -15.790
REMARK INTER:                 -12.898
REMARK INTRA:                  -2.892
REMARK UNBOUND:                -2.453
REMARK SMILES CC[C@@H](C)[C@@H](NC(=O)[C@@H](O)Cc1ccc(O)c(Cl)c1)C(=O)N1[C@H](C(=O)NCCCCN=C(N)N)C[C@H]2CC[C@H](OS(=O)(=O)O)C[C@@H]21
REMARK SMILES IDX 22 1 36 2 46 3 35 4 23 5 45 6 37 7 39 8 38 9 20 10 21 11
REMARK SMILES IDX 5 12 6 13 7 14 8 15 9 17 11 18 12 19 17 20 19 21 15 22 14 23
REMARK SMILES IDX 13 24 18 25 16 26 10 28 3 30 4 31 2 32 1 33 24 34 25 35
REMARK SMILES IDX 26 36 27 38 28 39 29 40 30 41 31 42 32 43 33 44 34 45 40 50
REMARK SMILES IDX 41 51 42 52 43 53 44 54
REMARK H PARENT 6 16 16 27 10 29 26 37 33 46 33 47 34 48 34 49 44 55
ROOT
ATOM      1  N   UNL     1       3.390   2.841  -8.654  1.00  0.00    -0.326 N 
ATOM      2  C   UNL     1       2.945   2.503 -10.941  1.00  0.00     0.014 C 
ATOM      3  C   UNL     1       2.362   3.113  -9.663  1.00  0.00     0.091 C 
ATOM      4  C   UNL     1       3.694   1.287 -10.420  1.00  0.00     0.041 C 
ATOM      5  C   UNL     1       4.403   1.905  -9.201  1.00  0.00     0.175 C 
ATOM      6  C   UNL     1       1.992   4.567  -9.947  1.00  0.00     0.059 C 
ATOM      7  C   UNL     1       1.869   2.319 -11.994  1.00  0.00     0.008 C 
ATOM      8  C   UNL     1       1.546   4.823 -11.403  1.00  0.00     0.143 C 
ATOM      9  C   UNL     1       0.952   3.559 -12.057  1.00  0.00     0.034 C 
ENDROOT
BRANCH   1  10
ATOM     10  C   UNL     1       3.409   3.142  -7.303  1.00  0.00     0.246 C 
ATOM     11  O   UNL     1       3.543   4.319  -6.951  1.00  0.00    -0.272 OA
BRANCH  10  12
ATOM     12  C   UNL     1       3.219   2.002  -6.260  1.00  0.00     0.174 C 
BRANCH  12  13
ATOM     13  N   UNL     1       1.834   1.535  -6.279  1.00  0.00    -0.342 N 
ATOM     14  C   UNL     1       1.385   0.420  -6.951  1.00  0.00     0.249 C 
ATOM     15  O   UNL     1       2.112  -0.329  -7.592  1.00  0.00    -0.272 OA
ATOM     16  H   UNL     1       1.094   2.136  -5.924  1.00  0.00     0.164 HD
BRANCH  14  17
ATOM     17  C   UNL     1      -0.134   0.200  -6.791  1.00  0.00     0.207 C 
BRANCH  17  18
ATOM     18  C   UNL     1      -0.520   0.181  -5.309  1.00  0.00     0.077 C 
BRANCH  18  19
ATOM     19  C   UNL     1      -1.662   1.127  -5.013  1.00  0.00    -0.043 A 
ATOM     20  C   UNL     1      -2.963   2.423  -3.428  1.00  0.00     0.083 A 
ATOM     21  C   UNL     1      -1.879   1.589  -3.706  1.00  0.00     0.028 A 
ATOM     22  C   UNL     1      -3.836   2.798  -4.450  1.00  0.00     0.134 A 
ATOM     23  C   UNL     1      -3.633   2.347  -5.749  1.00  0.00     0.048 A 
ATOM     24  C   UNL     1      -2.550   1.511  -6.030  1.00  0.00     0.008 A 
ATOM     25  Cl  UNL     1      -3.212   2.980  -1.815  1.00  0.00    -0.080 Cl
BRANCH  22  26
ATOM     26  O   UNL     1      -4.918   3.604  -4.223  1.00  0.00    -0.506 OA
ATOM     27  H   UNL     1      -5.580   3.382  -4.903  1.00  0.00     0.293 HD
ENDBRANCH  22  26
ENDBRANCH  18  19
ENDBRANCH  17  18
BRANCH  17  28
ATOM     28  O   UNL     1      -0.546  -1.031  -7.407  1.00  0.00    -0.383 OA
ATOM     29  H   UNL     1      -1.079  -1.508  -6.731  1.00  0.00     0.211 HD
ENDBRANCH  17  28
ENDBRANCH  14  17
ENDBRANCH  12  13
BRANCH  12  30
ATOM     30  C   UNL     1       3.689   2.407  -4.837  1.00  0.00     0.018 C 
ATOM     31  C   UNL     1       5.161   2.024  -4.617  1.00  0.00     0.010 C 
BRANCH  30  32
ATOM     32  C   UNL     1       2.812   1.822  -3.703  1.00  0.00     0.002 C 
ATOM     33  C   UNL     1       3.375   0.583  -3.019  1.00  0.00     0.004 C 
ENDBRANCH  30  32
ENDBRANCH  12  30
ENDBRANCH  10  12
ENDBRANCH   1  10
BRANCH   5  34
ATOM     34  C   UNL     1       5.691   2.667  -9.613  1.00  0.00     0.242 C 
ATOM     35  O   UNL     1       6.148   3.594  -8.945  1.00  0.00    -0.273 OA
ATOM     36  N   UNL     1       6.252   2.267 -10.805  1.00  0.00    -0.354 N 
ATOM     37  H   UNL     1       5.760   1.575 -11.372  1.00  0.00     0.163 HD
BRANCH  36  38
ATOM     38  C   UNL     1       7.561   2.715 -11.232  1.00  0.00     0.116 C 
BRANCH  38  39
ATOM     39  C   UNL     1       8.442   1.510 -11.554  1.00  0.00     0.023 C 
BRANCH  39  40
ATOM     40  C   UNL     1       7.912   0.698 -12.731  1.00  0.00     0.026 C 
BRANCH  40  41
ATOM     41  C   UNL     1       7.780  -0.778 -12.357  1.00  0.00     0.146 C 
BRANCH  41  42
ATOM     42  N   UNL     1       6.456  -1.029 -11.801  1.00  0.00    -0.254 NA
ATOM     43  C   UNL     1       6.024  -2.230 -11.712  1.00  0.00     0.185 C 
ATOM     44  N   UNL     1       6.611  -3.389 -12.063  1.00  0.00    -0.370 N 
ATOM     45  N   UNL     1       4.800  -2.440 -11.202  1.00  0.00    -0.370 N 
ATOM     46  H   UNL     1       6.068  -4.229 -12.165  1.00  0.00     0.159 HD
ATOM     47  H   UNL     1       7.548  -3.415 -12.454  1.00  0.00     0.159 HD
ATOM     48  H   UNL     1       4.291  -1.618 -10.904  1.00  0.00     0.159 HD
ATOM     49  H   UNL     1       4.490  -3.341 -10.883  1.00  0.00     0.159 HD
ENDBRANCH  41  42
ENDBRANCH  40  41
ENDBRANCH  39  40
ENDBRANCH  38  39
ENDBRANCH  36  38
ENDBRANCH   5  34
BRANCH   8  50
ATOM     50  O   UNL     1       2.657   5.259 -12.186  1.00  0.00    -0.245 OA
BRANCH  50  51
ATOM     51  S   UNL     1       2.902   6.851 -12.416  1.00  0.00     0.397 S 
ATOM     52  O   UNL     1       1.619   7.513 -12.356  1.00  0.00    -0.169 OA
ATOM     53  O   UNL     1       3.807   7.047 -13.529  1.00  0.00    -0.169 OA
BRANCH  51  54
ATOM     54  O   UNL     1       3.674   7.269 -11.069  1.00  0.00    -0.264 OA
ATOM     55  H   UNL     1       3.936   8.208 -11.155  1.00  0.00     0.236 HD
ENDBRANCH  51  54
ENDBRANCH  50  51
ENDBRANCH   8  50
TORSDOF 19
ENDMDL
MODEL 5
REMARK VINA RESULT:    -6.540      4.161      6.901
REMARK INTER + INTRA:         -15.684
REMARK INTER:                 -10.911
REMARK INTRA:                  -4.773
REMARK UNBOUND:                -2.453
REMARK SMILES CC[C@@H](C)[C@@H](NC(=O)[C@@H](O)Cc1ccc(O)c(Cl)c1)C(=O)N1[C@H](C(=O)NCCCCN=C(N)N)C[C@H]2CC[C@H](OS(=O)(=O)O)C[C@@H]21
REMARK SMILES IDX 22 1 36 2 46 3 35 4 23 5 45 6 37 7 39 8 38 9 20 10 21 11
REMARK SMILES IDX 5 12 6 13 7 14 8 15 9 17 11 18 12 19 17 20 19 21 15 22 14 23
REMARK SMILES IDX 13 24 18 25 16 26 10 28 3 30 4 31 2 32 1 33 24 34 25 35
REMARK SMILES IDX 26 36 27 38 28 39 29 40 30 41 31 42 32 43 33 44 34 45 40 50
REMARK SMILES IDX 41 51 42 52 43 53 44 54
REMARK H PARENT 6 16 16 27 10 29 26 37 33 46 33 47 34 48 34 49 44 55
ROOT
ATOM      1  N   UNL     1       5.118   5.489  -9.661  1.00  0.00    -0.326 N 
ATOM      2  C   UNL     1       4.197   3.545 -10.616  1.00  0.00     0.014 C 
ATOM      3  C   UNL     1       4.794   4.101  -9.321  1.00  0.00     0.091 C 
ATOM      4  C   UNL     1       4.996   4.266 -11.691  1.00  0.00     0.041 C 
ATOM      5  C   UNL     1       4.983   5.698 -11.124  1.00  0.00     0.175 C 
ATOM      6  C   UNL     1       3.805   3.846  -8.185  1.00  0.00     0.059 C 
ATOM      7  C   UNL     1       4.176   2.029 -10.597  1.00  0.00     0.008 C 
ATOM      8  C   UNL     1       2.972   2.559  -8.363  1.00  0.00     0.143 C 
ATOM      9  C   UNL     1       3.705   1.509  -9.223  1.00  0.00     0.034 C 
ENDROOT
BRANCH   1  10
ATOM     10  C   UNL     1       5.702   6.480  -8.890  1.00  0.00     0.246 C 
ATOM     11  O   UNL     1       5.010   7.083  -8.062  1.00  0.00    -0.272 OA
BRANCH  10  12
ATOM     12  C   UNL     1       7.220   6.782  -9.049  1.00  0.00     0.174 C 
BRANCH  12  13
ATOM     13  N   UNL     1       7.974   5.530  -9.110  1.00  0.00    -0.342 N 
ATOM     14  C   UNL     1       8.660   5.074 -10.213  1.00  0.00     0.249 C 
ATOM     15  O   UNL     1       8.738   5.688 -11.270  1.00  0.00    -0.272 OA
ATOM     16  H   UNL     1       7.872   4.844  -8.367  1.00  0.00     0.164 HD
BRANCH  14  17
ATOM     17  C   UNL     1       9.341   3.710  -9.969  1.00  0.00     0.207 C 
BRANCH  17  18
ATOM     18  C   UNL     1       8.385   2.756  -9.246  1.00  0.00     0.077 C 
BRANCH  18  19
ATOM     19  C   UNL     1       7.995   1.584 -10.117  1.00  0.00    -0.043 A 
ATOM     20  C   UNL     1       7.922   0.514 -12.293  1.00  0.00     0.083 A 
ATOM     21  C   UNL     1       8.326   1.574 -11.481  1.00  0.00     0.028 A 
ATOM     22  C   UNL     1       7.184  -0.539 -11.750  1.00  0.00     0.134 A 
ATOM     23  C   UNL     1       6.849  -0.542 -10.401  1.00  0.00     0.048 A 
ATOM     24  C   UNL     1       7.251   0.519  -9.587  1.00  0.00     0.008 A 
ATOM     25  Cl  UNL     1       8.338   0.520 -13.966  1.00  0.00    -0.080 Cl
BRANCH  22  26
ATOM     26  O   UNL     1       6.756  -1.595 -12.509  1.00  0.00    -0.506 OA
ATOM     27  H   UNL     1       6.361  -1.217 -13.317  1.00  0.00     0.293 HD
ENDBRANCH  22  26
ENDBRANCH  18  19
ENDBRANCH  17  18
BRANCH  17  28
ATOM     28  O   UNL     1      10.540   3.863  -9.193  1.00  0.00    -0.383 OA
ATOM     29  H   UNL     1      10.278   3.718  -8.256  1.00  0.00     0.211 HD
ENDBRANCH  17  28
ENDBRANCH  14  17
ENDBRANCH  12  13
BRANCH  12  30
ATOM     30  C   UNL     1       7.758   7.745  -7.956  1.00  0.00     0.018 C 
ATOM     31  C   UNL     1       8.814   8.697  -8.539  1.00  0.00     0.010 C 
BRANCH  30  32
ATOM     32  C   UNL     1       8.326   7.018  -6.713  1.00  0.00     0.002 C 
ATOM     33  C   UNL     1       7.590   7.290  -5.407  1.00  0.00     0.004 C 
ENDBRANCH  30  32
ENDBRANCH  12  30
ENDBRANCH  10  12
ENDBRANCH   1  10
BRANCH   5  34
ATOM     34  C   UNL     1       3.656   6.432 -11.455  1.00  0.00     0.242 C 
ATOM     35  O   UNL     1       2.778   6.615 -10.612  1.00  0.00    -0.273 OA
ATOM     36  N   UNL     1       3.510   6.815 -12.769  1.00  0.00    -0.354 N 
ATOM     37  H   UNL     1       4.219   6.529 -13.446  1.00  0.00     0.163 HD
BRANCH  36  38
ATOM     38  C   UNL     1       2.444   7.692 -13.206  1.00  0.00     0.116 C 
BRANCH  38  39
ATOM     39  C   UNL     1       1.542   6.958 -14.196  1.00  0.00     0.023 C 
BRANCH  39  40
ATOM     40  C   UNL     1       0.514   6.072 -13.502  1.00  0.00     0.026 C 
BRANCH  40  41
ATOM     41  C   UNL     1       0.500   4.673 -14.119  1.00  0.00     0.146 C 
BRANCH  41  42
ATOM     42  N   UNL     1      -0.573   3.884 -13.526  1.00  0.00    -0.254 NA
ATOM     43  C   UNL     1      -0.313   3.095 -12.552  1.00  0.00     0.185 C 
ATOM     44  N   UNL     1       0.852   2.842 -11.929  1.00  0.00    -0.370 N 
ATOM     45  N   UNL     1      -1.315   2.373 -12.023  1.00  0.00    -0.370 N 
ATOM     46  H   UNL     1       0.958   2.027 -11.350  1.00  0.00     0.159 HD
ATOM     47  H   UNL     1       1.711   3.313 -12.195  1.00  0.00     0.159 HD
ATOM     48  H   UNL     1      -2.230   2.510 -12.429  1.00  0.00     0.159 HD
ATOM     49  H   UNL     1      -1.247   1.924 -11.127  1.00  0.00     0.159 HD
ENDBRANCH  41  42
ENDBRANCH  40  41
ENDBRANCH  39  40
ENDBRANCH  38  39
ENDBRANCH  36  38
ENDBRANCH   5  34
BRANCH   8  50
ATOM     50  O   UNL     1       1.724   2.865  -8.987  1.00  0.00    -0.245 OA
BRANCH  50  51
ATOM     51  S   UNL     1       0.336   2.407  -8.274  1.00  0.00     0.397 S 
ATOM     52  O   UNL     1       0.670   1.589  -7.130  1.00  0.00    -0.169 OA
ATOM     53  O   UNL     1      -0.603   1.958  -9.281  1.00  0.00    -0.169 OA
BRANCH  51  54
ATOM     54  O   UNL     1      -0.207   3.797  -7.675  1.00  0.00    -0.264 OA
ATOM     55  H   UNL     1      -0.222   4.450  -8.404  1.00  0.00     0.236 HD
ENDBRANCH  51  54
ENDBRANCH  50  51
ENDBRANCH   8  50
TORSDOF 19
ENDMDL
MODEL 6
REMARK VINA RESULT:    -6.516      4.165      7.648
REMARK INTER + INTRA:         -15.636
REMARK INTER:                 -11.170
REMARK INTRA:                  -4.466
REMARK UNBOUND:                -2.453
REMARK SMILES CC[C@@H](C)[C@@H](NC(=O)[C@@H](O)Cc1ccc(O)c(Cl)c1)C(=O)N1[C@H](C(=O)NCCCCN=C(N)N)C[C@H]2CC[C@H](OS(=O)(=O)O)C[C@@H]21
REMARK SMILES IDX 22 1 36 2 46 3 35 4 23 5 45 6 37 7 39 8 38 9 20 10 21 11
REMARK SMILES IDX 5 12 6 13 7 14 8 15 9 17 11 18 12 19 17 20 19 21 15 22 14 23
REMARK SMILES IDX 13 24 18 25 16 26 10 28 3 30 4 31 2 32 1 33 24 34 25 35
REMARK SMILES IDX 26 36 27 38 28 39 29 40 30 41 31 42 32 43 33 44 34 45 40 50
REMARK SMILES IDX 41 51 42 52 43 53 44 54
REMARK H PARENT 6 16 16 27 10 29 26 37 33 46 33 47 34 48 34 49 44 55
ROOT
ATOM      1  N   UNL     1       2.097   5.574  -4.152  1.00  0.00    -0.326 N 
ATOM      2  C   UNL     1       1.559   4.758  -2.010  1.00  0.00     0.014 C 
ATOM      3  C   UNL     1       0.974   5.503  -3.213  1.00  0.00     0.091 C 
ATOM      4  C   UNL     1       2.999   5.247  -1.982  1.00  0.00     0.041 C 
ATOM      5  C   UNL     1       3.349   5.148  -3.479  1.00  0.00     0.175 C 
ATOM      6  C   UNL     1      -0.297   4.780  -3.656  1.00  0.00     0.059 C 
ATOM      7  C   UNL     1       0.689   4.942  -0.782  1.00  0.00     0.008 C 
ATOM      8  C   UNL     1      -1.064   4.105  -2.499  1.00  0.00     0.143 C 
ATOM      9  C   UNL     1      -0.804   4.801  -1.148  1.00  0.00     0.034 C 
ENDROOT
BRANCH   1  10
ATOM     10  C   UNL     1       2.169   6.152  -5.408  1.00  0.00     0.246 C 
ATOM     11  O   UNL     1       2.965   7.077  -5.599  1.00  0.00    -0.272 OA
BRANCH  10  12
ATOM     12  C   UNL     1       1.280   5.598  -6.559  1.00  0.00     0.174 C 
BRANCH  12  13
ATOM     13  N   UNL     1       1.861   4.365  -7.089  1.00  0.00    -0.342 N 
ATOM     14  C   UNL     1       1.142   3.260  -7.486  1.00  0.00     0.249 C 
ATOM     15  O   UNL     1      -0.081   3.198  -7.464  1.00  0.00    -0.272 OA
ATOM     16  H   UNL     1       2.863   4.210  -7.019  1.00  0.00     0.164 HD
BRANCH  14  17
ATOM     17  C   UNL     1       2.043   2.110  -7.982  1.00  0.00     0.207 C 
BRANCH  17  18
ATOM     18  C   UNL     1       2.506   2.375  -9.419  1.00  0.00     0.077 C 
BRANCH  18  19
ATOM     19  C   UNL     1       3.851   1.744  -9.701  1.00  0.00    -0.043 A 
ATOM     20  C   UNL     1       5.172  -0.061 -10.640  1.00  0.00     0.083 A 
ATOM     21  C   UNL     1       3.933   0.544 -10.424  1.00  0.00     0.028 A 
ATOM     22  C   UNL     1       6.333   0.526 -10.135  1.00  0.00     0.134 A 
ATOM     23  C   UNL     1       6.266   1.714  -9.418  1.00  0.00     0.048 A 
ATOM     24  C   UNL     1       5.028   2.321  -9.198  1.00  0.00     0.008 A 
ATOM     25  Cl  UNL     1       5.252  -1.535 -11.531  1.00  0.00    -0.080 Cl
BRANCH  22  26
ATOM     26  O   UNL     1       7.569  -0.036 -10.313  1.00  0.00    -0.506 OA
ATOM     27  H   UNL     1       7.984   0.432 -11.060  1.00  0.00     0.293 HD
ENDBRANCH  22  26
ENDBRANCH  18  19
ENDBRANCH  17  18
BRANCH  17  28
ATOM     28  O   UNL     1       1.353   0.851  -7.928  1.00  0.00    -0.383 OA
ATOM     29  H   UNL     1       1.156   0.690  -6.978  1.00  0.00     0.211 HD
ENDBRANCH  17  28
ENDBRANCH  14  17
ENDBRANCH  12  13
BRANCH  12  30
ATOM     30  C   UNL     1       1.011   6.651  -7.668  1.00  0.00     0.018 C 
ATOM     31  C   UNL     1      -0.481   6.691  -8.033  1.00  0.00     0.010 C 
BRANCH  30  32
ATOM     32  C   UNL     1       1.864   6.442  -8.943  1.00  0.00     0.002 C 
ATOM     33  C   UNL     1       1.090   6.014 -10.182  1.00  0.00     0.004 C 
ENDBRANCH  30  32
ENDBRANCH  12  30
ENDBRANCH  10  12
ENDBRANCH   1  10
BRANCH   5  34
ATOM     34  C   UNL     1       3.726   3.698  -3.884  1.00  0.00     0.242 C 
ATOM     35  O   UNL     1       3.693   3.312  -5.052  1.00  0.00    -0.273 OA
ATOM     36  N   UNL     1       4.046   2.862  -2.838  1.00  0.00    -0.354 N 
ATOM     37  H   UNL     1       3.939   3.207  -1.883  1.00  0.00     0.163 HD
BRANCH  36  38
ATOM     38  C   UNL     1       4.626   1.551  -3.045  1.00  0.00     0.116 C 
BRANCH  38  39
ATOM     39  C   UNL     1       3.740   0.486  -2.404  1.00  0.00     0.023 C 
BRANCH  39  40
ATOM     40  C   UNL     1       2.267   0.661  -2.760  1.00  0.00     0.026 C 
BRANCH  40  41
ATOM     41  C   UNL     1       2.022   0.333  -4.233  1.00  0.00     0.146 C 
BRANCH  41  42
ATOM     42  N   UNL     1       0.795   0.977  -4.683  1.00  0.00    -0.254 NA
ATOM     43  C   UNL     1      -0.022   0.331  -5.427  1.00  0.00     0.185 C 
ATOM     44  N   UNL     1       0.048  -0.926  -5.902  1.00  0.00    -0.370 N 
ATOM     45  N   UNL     1      -1.146   0.943  -5.835  1.00  0.00    -0.370 N 
ATOM     46  H   UNL     1      -0.536  -1.219  -6.667  1.00  0.00     0.159 HD
ATOM     47  H   UNL     1       0.827  -1.538  -5.679  1.00  0.00     0.159 HD
ATOM     48  H   UNL     1      -1.281   1.892  -5.514  1.00  0.00     0.159 HD
ATOM     49  H   UNL     1      -1.932   0.444  -6.210  1.00  0.00     0.159 HD
ENDBRANCH  41  42
ENDBRANCH  40  41
ENDBRANCH  39  40
ENDBRANCH  38  39
ENDBRANCH  36  38
ENDBRANCH   5  34
BRANCH   8  50
ATOM     50  O   UNL     1      -0.676   2.736  -2.386  1.00  0.00    -0.245 OA
BRANCH  50  51
ATOM     51  S   UNL     1      -1.763   1.631  -1.892  1.00  0.00     0.397 S 
ATOM     52  O   UNL     1      -2.751   2.307  -1.083  1.00  0.00    -0.169 OA
ATOM     53  O   UNL     1      -1.073   0.448  -1.419  1.00  0.00    -0.169 OA
BRANCH  51  54
ATOM     54  O   UNL     1      -2.506   1.254  -3.268  1.00  0.00    -0.264 OA
ATOM     55  H   UNL     1      -1.817   1.095  -3.945  1.00  0.00     0.236 HD
ENDBRANCH  51  54
ENDBRANCH  50  51
ENDBRANCH   8  50
TORSDOF 19
ENDMDL
MODEL 7
REMARK VINA RESULT:    -6.472      3.431      5.569
REMARK INTER + INTRA:         -15.545
REMARK INTER:                 -12.111
REMARK INTRA:                  -3.435
REMARK UNBOUND:                -2.453
REMARK SMILES CC[C@@H](C)[C@@H](NC(=O)[C@@H](O)Cc1ccc(O)c(Cl)c1)C(=O)N1[C@H](C(=O)NCCCCN=C(N)N)C[C@H]2CC[C@H](OS(=O)(=O)O)C[C@@H]21
REMARK SMILES IDX 22 1 36 2 46 3 35 4 23 5 45 6 37 7 39 8 38 9 20 10 21 11
REMARK SMILES IDX 5 12 6 13 7 14 8 15 9 17 11 18 12 19 17 20 19 21 15 22 14 23
REMARK SMILES IDX 13 24 18 25 16 26 10 28 3 30 4 31 2 32 1 33 24 34 25 35
REMARK SMILES IDX 26 36 27 38 28 39 29 40 30 41 31 42 32 43 33 44 34 45 40 50
REMARK SMILES IDX 41 51 42 52 43 53 44 54
REMARK H PARENT 6 16 16 27 10 29 26 37 33 46 33 47 34 48 34 49 44 55
ROOT
ATOM      1  N   UNL     1       2.413   2.452  -8.912  1.00  0.00    -0.326 N 
ATOM      2  C   UNL     1       1.247   4.360  -9.648  1.00  0.00     0.014 C 
ATOM      3  C   UNL     1       2.208   3.264 -10.116  1.00  0.00     0.091 C 
ATOM      4  C   UNL     1       1.683   4.597  -8.210  1.00  0.00     0.041 C 
ATOM      5  C   UNL     1       1.841   3.143  -7.730  1.00  0.00     0.175 C 
ATOM      6  C   UNL     1       1.610   2.591 -11.350  1.00  0.00     0.059 C 
ATOM      7  C   UNL     1       1.235   5.522 -10.622  1.00  0.00     0.008 C 
ATOM      8  C   UNL     1       0.763   3.540 -12.225  1.00  0.00     0.143 C 
ATOM      9  C   UNL     1       1.202   5.011 -12.078  1.00  0.00     0.034 C 
ENDROOT
BRANCH   1  10
ATOM     10  C   UNL     1       3.202   1.330  -8.722  1.00  0.00     0.246 C 
ATOM     11  O   UNL     1       2.666   0.269  -8.385  1.00  0.00    -0.272 OA
BRANCH  10  12
ATOM     12  C   UNL     1       4.734   1.418  -8.977  1.00  0.00     0.174 C 
BRANCH  12  13
ATOM     13  N   UNL     1       5.248   2.699  -8.495  1.00  0.00    -0.342 N 
ATOM     14  C   UNL     1       5.582   2.975  -7.188  1.00  0.00     0.249 C 
ATOM     15  O   UNL     1       5.510   2.157  -6.278  1.00  0.00    -0.272 OA
ATOM     16  H   UNL     1       5.213   3.516  -9.099  1.00  0.00     0.164 HD
BRANCH  14  17
ATOM     17  C   UNL     1       6.078   4.423  -6.993  1.00  0.00     0.207 C 
BRANCH  17  18
ATOM     18  C   UNL     1       4.909   5.345  -6.630  1.00  0.00     0.077 C 
BRANCH  18  19
ATOM     19  C   UNL     1       4.676   5.396  -5.137  1.00  0.00    -0.043 A 
ATOM     20  C   UNL     1       3.306   4.875  -3.204  1.00  0.00     0.083 A 
ATOM     21  C   UNL     1       3.545   4.784  -4.575  1.00  0.00     0.028 A 
ATOM     22  C   UNL     1       4.193   5.577  -2.386  1.00  0.00     0.134 A 
ATOM     23  C   UNL     1       5.317   6.188  -2.929  1.00  0.00     0.048 A 
ATOM     24  C   UNL     1       5.557   6.101  -4.302  1.00  0.00     0.008 A 
ATOM     25  Cl  UNL     1       1.911   4.116  -2.532  1.00  0.00    -0.080 Cl
BRANCH  22  26
ATOM     26  O   UNL     1       3.996   5.703  -1.038  1.00  0.00    -0.506 OA
ATOM     27  H   UNL     1       3.357   6.430  -0.914  1.00  0.00     0.293 HD
ENDBRANCH  22  26
ENDBRANCH  18  19
ENDBRANCH  17  18
BRANCH  17  28
ATOM     28  O   UNL     1       6.721   4.914  -8.180  1.00  0.00    -0.383 OA
ATOM     29  H   UNL     1       7.625   4.524  -8.180  1.00  0.00     0.211 HD
ENDBRANCH  17  28
ENDBRANCH  14  17
ENDBRANCH  12  13
BRANCH  12  30
ATOM     30  C   UNL     1       5.112   1.148 -10.459  1.00  0.00     0.018 C 
ATOM     31  C   UNL     1       4.946  -0.340 -10.803  1.00  0.00     0.010 C 
BRANCH  30  32
ATOM     32  C   UNL     1       6.536   1.625 -10.833  1.00  0.00     0.002 C 
ATOM     33  C   UNL     1       7.618   0.554 -10.776  1.00  0.00     0.004 C 
ENDBRANCH  30  32
ENDBRANCH  12  30
ENDBRANCH  10  12
ENDBRANCH   1  10
BRANCH   5  34
ATOM     34  C   UNL     1       0.475   2.520  -7.336  1.00  0.00     0.242 C 
ATOM     35  O   UNL     1      -0.171   1.811  -8.107  1.00  0.00    -0.273 OA
ATOM     36  N   UNL     1       0.016   2.860  -6.084  1.00  0.00    -0.354 N 
ATOM     37  H   UNL     1       0.539   3.547  -5.538  1.00  0.00     0.163 HD
BRANCH  36  38
ATOM     38  C   UNL     1      -1.123   2.206  -5.473  1.00  0.00     0.116 C 
BRANCH  38  39
ATOM     39  C   UNL     1      -1.092   2.416  -3.961  1.00  0.00     0.023 C 
BRANCH  39  40
ATOM     40  C   UNL     1      -0.548   1.203  -3.215  1.00  0.00     0.026 C 
BRANCH  40  41
ATOM     41  C   UNL     1       0.771   0.734  -3.831  1.00  0.00     0.146 C 
BRANCH  41  42
ATOM     42  N   UNL     1       1.666   0.266  -2.781  1.00  0.00    -0.254 NA
ATOM     43  C   UNL     1       2.914   0.543  -2.844  1.00  0.00     0.185 C 
ATOM     44  N   UNL     1       3.601   1.237  -3.769  1.00  0.00    -0.370 N 
ATOM     45  N   UNL     1       3.724   0.099  -1.868  1.00  0.00    -0.370 N 
ATOM     46  H   UNL     1       4.603   1.168  -3.823  1.00  0.00     0.159 HD
ATOM     47  H   UNL     1       3.141   1.657  -4.571  1.00  0.00     0.159 HD
ATOM     48  H   UNL     1       3.284  -0.427  -1.125  1.00  0.00     0.159 HD
ATOM     49  H   UNL     1       4.648   0.464  -1.720  1.00  0.00     0.159 HD
ENDBRANCH  41  42
ENDBRANCH  40  41
ENDBRANCH  39  40
ENDBRANCH  38  39
ENDBRANCH  36  38
ENDBRANCH   5  34
BRANCH   8  50
ATOM     50  O   UNL     1      -0.615   3.440 -11.864  1.00  0.00    -0.245 OA
BRANCH  50  51
ATOM     51  S   UNL     1      -1.757   3.938 -12.910  1.00  0.00     0.397 S 
ATOM     52  O   UNL     1      -1.202   3.869 -14.243  1.00  0.00    -0.169 OA
ATOM     53  O   UNL     1      -2.382   5.145 -12.409  1.00  0.00    -0.169 OA
BRANCH  51  54
ATOM     54  O   UNL     1      -2.835   2.748 -12.822  1.00  0.00    -0.264 OA
ATOM     55  H   UNL     1      -3.690   3.140 -12.553  1.00  0.00     0.236 HD
ENDBRANCH  51  54
ENDBRANCH  50  51
ENDBRANCH   8  50
TORSDOF 19
ENDMDL
MODEL 8
REMARK VINA RESULT:    -6.347     11.555     17.959
REMARK INTER + INTRA:         -15.293
REMARK INTER:                 -12.712
REMARK INTRA:                  -2.582
REMARK UNBOUND:                -2.453
REMARK SMILES CC[C@@H](C)[C@@H](NC(=O)[C@@H](O)Cc1ccc(O)c(Cl)c1)C(=O)N1[C@H](C(=O)NCCCCN=C(N)N)C[C@H]2CC[C@H](OS(=O)(=O)O)C[C@@H]21
REMARK SMILES IDX 22 1 36 2 46 3 35 4 23 5 45 6 37 7 39 8 38 9 20 10 21 11
REMARK SMILES IDX 5 12 6 13 7 14 8 15 9 17 11 18 12 19 17 20 19 21 15 22 14 23
REMARK SMILES IDX 13 24 18 25 16 26 10 28 3 30 4 31 2 32 1 33 24 34 25 35
REMARK SMILES IDX 26 36 27 38 28 39 29 40 30 41 31 42 32 43 33 44 34 45 40 50
REMARK SMILES IDX 41 51 42 52 43 53 44 54
REMARK H PARENT 6 16 16 27 10 29 26 37 33 46 33 47 34 48 34 49 44 55
ROOT
ATOM      1  N   UNL     1     -10.398   6.649  -6.676  1.00  0.00    -0.326 N 
ATOM      2  C   UNL     1      -9.596   4.908  -8.043  1.00  0.00     0.014 C 
ATOM      3  C   UNL     1     -10.107   6.351  -8.081  1.00  0.00     0.091 C 
ATOM      4  C   UNL     1     -10.422   4.290  -6.925  1.00  0.00     0.041 C 
ATOM      5  C   UNL     1     -10.329   5.406  -5.869  1.00  0.00     0.175 C 
ATOM      6  C   UNL     1      -9.072   7.211  -8.805  1.00  0.00     0.059 C 
ATOM      7  C   UNL     1      -9.628   4.284  -9.424  1.00  0.00     0.008 C 
ATOM      8  C   UNL     1      -8.295   6.455  -9.904  1.00  0.00     0.143 C 
ATOM      9  C   UNL     1      -9.107   5.279 -10.483  1.00  0.00     0.034 C 
ENDROOT
BRANCH   1  10
ATOM     10  C   UNL     1     -10.906   7.801  -6.100  1.00  0.00     0.246 C 
ATOM     11  O   UNL     1     -10.128   8.708  -5.784  1.00  0.00    -0.272 OA
BRANCH  10  12
ATOM     12  C   UNL     1     -12.442   7.946  -5.902  1.00  0.00     0.174 C 
BRANCH  12  13
ATOM     13  N   UNL     1     -12.747   8.131  -4.483  1.00  0.00    -0.342 N 
ATOM     14  C   UNL     1     -13.106   9.327  -3.902  1.00  0.00     0.249 C 
ATOM     15  O   UNL     1     -13.239  10.374  -4.522  1.00  0.00    -0.272 OA
ATOM     16  H   UNL     1     -12.529   7.392  -3.820  1.00  0.00     0.164 HD
BRANCH  14  17
ATOM     17  C   UNL     1     -13.346   9.201  -2.382  1.00  0.00     0.207 C 
BRANCH  17  18
ATOM     18  C   UNL     1     -14.378   8.107  -2.091  1.00  0.00     0.077 C 
BRANCH  18  19
ATOM     19  C   UNL     1     -13.796   6.997  -1.244  1.00  0.00    -0.043 A 
ATOM     20  C   UNL     1     -13.962   4.773  -0.289  1.00  0.00     0.083 A 
ATOM     21  C   UNL     1     -14.477   5.777  -1.110  1.00  0.00     0.028 A 
ATOM     22  C   UNL     1     -12.768   4.981   0.403  1.00  0.00     0.134 A 
ATOM     23  C   UNL     1     -12.083   6.184   0.279  1.00  0.00     0.048 A 
ATOM     24  C   UNL     1     -12.597   7.192  -0.541  1.00  0.00     0.008 A 
ATOM     25  Cl  UNL     1     -14.813   3.281  -0.137  1.00  0.00    -0.080 Cl
BRANCH  22  26
ATOM     26  O   UNL     1     -12.229   4.031   1.228  1.00  0.00    -0.506 OA
ATOM     27  H   UNL     1     -12.958   3.435   1.482  1.00  0.00     0.293 HD
ENDBRANCH  22  26
ENDBRANCH  18  19
ENDBRANCH  17  18
BRANCH  17  28
ATOM     28  O   UNL     1     -13.801  10.445  -1.826  1.00  0.00    -0.383 OA
ATOM     29  H   UNL     1     -14.680  10.258  -1.423  1.00  0.00     0.211 HD
ENDBRANCH  17  28
ENDBRANCH  14  17
ENDBRANCH  12  13
BRANCH  12  30
ATOM     30  C   UNL     1     -13.242   6.774  -6.531  1.00  0.00     0.018 C 
ATOM     31  C   UNL     1     -13.954   7.226  -7.815  1.00  0.00     0.010 C 
BRANCH  30  32
ATOM     32  C   UNL     1     -14.257   6.122  -5.561  1.00  0.00     0.002 C 
ATOM     33  C   UNL     1     -13.893   4.723  -5.081  1.00  0.00     0.004 C 
ENDBRANCH  30  32
ENDBRANCH  12  30
ENDBRANCH  10  12
ENDBRANCH   1  10
BRANCH   5  34
ATOM     34  C   UNL     1      -8.995   5.336  -5.079  1.00  0.00     0.242 C 
ATOM     35  O   UNL     1      -8.577   6.280  -4.408  1.00  0.00    -0.273 OA
ATOM     36  N   UNL     1      -8.287   4.165  -5.226  1.00  0.00    -0.354 N 
ATOM     37  H   UNL     1      -8.625   3.467  -5.890  1.00  0.00     0.163 HD
BRANCH  36  38
ATOM     38  C   UNL     1      -7.141   3.844  -4.401  1.00  0.00     0.116 C 
BRANCH  38  39
ATOM     39  C   UNL     1      -6.351   2.701  -5.033  1.00  0.00     0.023 C 
BRANCH  39  40
ATOM     40  C   UNL     1      -4.974   3.142  -5.518  1.00  0.00     0.026 C 
BRANCH  40  41
ATOM     41  C   UNL     1      -3.880   2.631  -4.582  1.00  0.00     0.146 C 
BRANCH  41  42
ATOM     42  N   UNL     1      -2.607   2.586  -5.289  1.00  0.00    -0.254 NA
ATOM     43  C   UNL     1      -2.138   1.461  -5.679  1.00  0.00     0.185 C 
ATOM     44  N   UNL     1      -2.643   0.220  -5.546  1.00  0.00    -0.370 N 
ATOM     45  N   UNL     1      -0.961   1.441  -6.326  1.00  0.00    -0.370 N 
ATOM     46  H   UNL     1      -2.059  -0.588  -5.680  1.00  0.00     0.159 HD
ATOM     47  H   UNL     1      -3.536   0.054  -5.092  1.00  0.00     0.159 HD
ATOM     48  H   UNL     1      -0.517   2.336  -6.476  1.00  0.00     0.159 HD
ATOM     49  H   UNL     1      -0.648   0.651  -6.862  1.00  0.00     0.159 HD
ENDBRANCH  41  42
ENDBRANCH  40  41
ENDBRANCH  39  40
ENDBRANCH  38  39
ENDBRANCH  36  38
ENDBRANCH   5  34
BRANCH   8  50
ATOM     50  O   UNL     1      -7.070   5.944  -9.377  1.00  0.00    -0.245 OA
BRANCH  50  51
ATOM     51  S   UNL     1      -5.658   6.385 -10.053  1.00  0.00     0.397 S 
ATOM     52  O   UNL     1      -5.485   5.616 -11.265  1.00  0.00    -0.169 OA
ATOM     53  O   UNL     1      -4.629   6.442  -9.036  1.00  0.00    -0.169 OA
BRANCH  51  54
ATOM     54  O   UNL     1      -5.970   7.889 -10.529  1.00  0.00    -0.264 OA
ATOM     55  H   UNL     1      -5.950   7.902 -11.508  1.00  0.00     0.236 HD
ENDBRANCH  51  54
ENDBRANCH  50  51
ENDBRANCH   8  50
TORSDOF 19
ENDMDL
MODEL 9
REMARK VINA RESULT:    -6.285      3.440      5.903
REMARK INTER + INTRA:         -15.168
REMARK INTER:                 -11.841
REMARK INTRA:                  -3.327
REMARK UNBOUND:                -2.453
REMARK SMILES CC[C@@H](C)[C@@H](NC(=O)[C@@H](O)Cc1ccc(O)c(Cl)c1)C(=O)N1[C@H](C(=O)NCCCCN=C(N)N)C[C@H]2CC[C@H](OS(=O)(=O)O)C[C@@H]21
REMARK SMILES IDX 22 1 36 2 46 3 35 4 23 5 45 6 37 7 39 8 38 9 20 10 21 11
REMARK SMILES IDX 5 12 6 13 7 14 8 15 9 17 11 18 12 19 17 20 19 21 15 22 14 23
REMARK SMILES IDX 13 24 18 25 16 26 10 28 3 30 4 31 2 32 1 33 24 34 25 35
REMARK SMILES IDX 26 36 27 38 28 39 29 40 30 41 31 42 32 43 33 44 34 45 40 50
REMARK SMILES IDX 41 51 42 52 43 53 44 54
REMARK H PARENT 6 16 16 27 10 29 26 37 33 46 33 47 34 48 34 49 44 55
ROOT
ATOM      1  N   UNL     1       3.766   2.161  -8.124  1.00  0.00    -0.326 N 
ATOM      2  C   UNL     1       3.140   1.958  -5.863  1.00  0.00     0.014 C 
ATOM      3  C   UNL     1       4.343   2.208  -6.778  1.00  0.00     0.091 C 
ATOM      4  C   UNL     1       2.298   0.987  -6.676  1.00  0.00     0.041 C 
ATOM      5  C   UNL     1       2.372   1.655  -8.061  1.00  0.00     0.175 C 
ATOM      6  C   UNL     1       5.031   3.496  -6.329  1.00  0.00     0.059 C 
ATOM      7  C   UNL     1       3.591   1.565  -4.470  1.00  0.00     0.008 C 
ATOM      8  C   UNL     1       4.928   3.759  -4.811  1.00  0.00     0.143 C 
ATOM      9  C   UNL     1       4.764   2.454  -4.007  1.00  0.00     0.034 C 
ENDROOT
BRANCH   1  10
ATOM     10  C   UNL     1       4.378   2.300  -9.358  1.00  0.00     0.246 C 
ATOM     11  O   UNL     1       3.842   3.006 -10.218  1.00  0.00    -0.272 OA
BRANCH  10  12
ATOM     12  C   UNL     1       5.744   1.603  -9.619  1.00  0.00     0.174 C 
BRANCH  12  13
ATOM     13  N   UNL     1       6.781   2.608  -9.850  1.00  0.00    -0.342 N 
ATOM     14  C   UNL     1       7.919   2.758  -9.089  1.00  0.00     0.249 C 
ATOM     15  O   UNL     1       8.205   2.039  -8.140  1.00  0.00    -0.272 OA
ATOM     16  H   UNL     1       6.608   3.370 -10.500  1.00  0.00     0.164 HD
BRANCH  14  17
ATOM     17  C   UNL     1       8.811   3.921  -9.574  1.00  0.00     0.207 C 
BRANCH  17  18
ATOM     18  C   UNL     1      10.253   3.444  -9.772  1.00  0.00     0.077 C 
BRANCH  18  19
ATOM     19  C   UNL     1      10.520   3.037 -11.203  1.00  0.00    -0.043 A 
ATOM     20  C   UNL     1       9.833   1.886 -13.225  1.00  0.00     0.083 A 
ATOM     21  C   UNL     1       9.563   2.302 -11.921  1.00  0.00     0.028 A 
ATOM     22  C   UNL     1      11.056   2.198 -13.819  1.00  0.00     0.134 A 
ATOM     23  C   UNL     1      12.012   2.926 -13.120  1.00  0.00     0.048 A 
ATOM     24  C   UNL     1      11.746   3.342 -11.814  1.00  0.00     0.008 A 
ATOM     25  Cl  UNL     1       8.645   0.983 -14.090  1.00  0.00    -0.080 Cl
BRANCH  22  26
ATOM     26  O   UNL     1      11.369   1.803 -15.091  1.00  0.00    -0.506 OA
ATOM     27  H   UNL     1      10.533   1.784 -15.593  1.00  0.00     0.293 HD
ENDBRANCH  22  26
ENDBRANCH  18  19
ENDBRANCH  17  18
BRANCH  17  28
ATOM     28  O   UNL     1       8.793   5.011  -8.639  1.00  0.00    -0.383 OA
ATOM     29  H   UNL     1       8.139   5.659  -8.989  1.00  0.00     0.211 HD
ENDBRANCH  17  28
ENDBRANCH  14  17
ENDBRANCH  12  13
BRANCH  12  30
ATOM     30  C   UNL     1       5.673   0.553 -10.761  1.00  0.00     0.018 C 
ATOM     31  C   UNL     1       4.482  -0.396 -10.556  1.00  0.00     0.010 C 
BRANCH  30  32
ATOM     32  C   UNL     1       6.978  -0.262 -10.938  1.00  0.00     0.002 C 
ATOM     33  C   UNL     1       6.845  -1.531 -11.769  1.00  0.00     0.004 C 
ENDBRANCH  30  32
ENDBRANCH  12  30
ENDBRANCH  10  12
ENDBRANCH   1  10
BRANCH   5  34
ATOM     34  C   UNL     1       1.357   2.823  -8.187  1.00  0.00     0.242 C 
ATOM     35  O   UNL     1       0.146   2.633  -8.301  1.00  0.00    -0.273 OA
ATOM     36  N   UNL     1       1.914   4.082  -8.218  1.00  0.00    -0.354 N 
ATOM     37  H   UNL     1       2.931   4.169  -8.242  1.00  0.00     0.163 HD
BRANCH  36  38
ATOM     38  C   UNL     1       1.113   5.284  -8.115  1.00  0.00     0.116 C 
BRANCH  38  39
ATOM     39  C   UNL     1       1.488   6.254  -9.234  1.00  0.00     0.023 C 
BRANCH  39  40
ATOM     40  C   UNL     1       0.298   6.610 -10.119  1.00  0.00     0.026 C 
BRANCH  40  41
ATOM     41  C   UNL     1       0.376   5.872 -11.455  1.00  0.00     0.146 C 
BRANCH  41  42
ATOM     42  N   UNL     1      -0.430   4.660 -11.396  1.00  0.00    -0.254 NA
ATOM     43  C   UNL     1       0.120   3.523 -11.602  1.00  0.00     0.185 C 
ATOM     44  N   UNL     1       1.400   3.219 -11.883  1.00  0.00    -0.370 N 
ATOM     45  N   UNL     1      -0.642   2.418 -11.547  1.00  0.00    -0.370 N 
ATOM     46  H   UNL     1       1.642   2.318 -12.260  1.00  0.00     0.159 HD
ATOM     47  H   UNL     1       2.116   3.936 -11.949  1.00  0.00     0.159 HD
ATOM     48  H   UNL     1      -1.620   2.558 -11.332  1.00  0.00     0.159 HD
ATOM     49  H   UNL     1      -0.256   1.494 -11.461  1.00  0.00     0.159 HD
ENDBRANCH  41  42
ENDBRANCH  40  41
ENDBRANCH  39  40
ENDBRANCH  38  39
ENDBRANCH  36  38
ENDBRANCH   5  34
BRANCH   8  50
ATOM     50  O   UNL     1       3.812   4.606  -4.535  1.00  0.00    -0.245 OA
BRANCH  50  51
ATOM     51  S   UNL     1       3.951   5.779  -3.417  1.00  0.00     0.397 S 
ATOM     52  O   UNL     1       3.638   5.206  -2.127  1.00  0.00    -0.169 OA
ATOM     53  O   UNL     1       3.300   6.983  -3.892  1.00  0.00    -0.169 OA
BRANCH  51  54
ATOM     54  O   UNL     1       5.537   6.045  -3.405  1.00  0.00    -0.264 OA
ATOM     55  H   UNL     1       5.908   5.600  -2.616  1.00  0.00     0.236 HD
ENDBRANCH  51  54
ENDBRANCH  50  51
ENDBRANCH   8  50
TORSDOF 19
ENDMDL
MODEL 10
REMARK VINA RESULT:    -6.264      7.013      9.639
REMARK INTER + INTRA:         -15.126
REMARK INTER:                 -11.469
REMARK INTRA:                  -3.657
REMARK UNBOUND:                -2.453
REMARK SMILES CC[C@@H](C)[C@@H](NC(=O)[C@@H](O)Cc1ccc(O)c(Cl)c1)C(=O)N1[C@H](C(=O)NCCCCN=C(N)N)C[C@H]2CC[C@H](OS(=O)(=O)O)C[C@@H]21
REMARK SMILES IDX 22 1 36 2 46 3 35 4 23 5 45 6 37 7 39 8 38 9 20 10 21 11
REMARK SMILES IDX 5 12 6 13 7 14 8 15 9 17 11 18 12 19 17 20 19 21 15 22 14 23
REMARK SMILES IDX 13 24 18 25 16 26 10 28 3 30 4 31 2 32 1 33 24 34 25 35
REMARK SMILES IDX 26 36 27 38 28 39 29 40 30 41 31 42 32 43 33 44 34 45 40 50
REMARK SMILES IDX 41 51 42 52 43 53 44 54
REMARK H PARENT 6 16 16 27 10 29 26 37 33 46 33 47 34 48 34 49 44 55
ROOT
ATOM      1  N   UNL     1      -0.607   2.547  -3.142  1.00  0.00    -0.326 N 
ATOM      2  C   UNL     1      -1.987   4.260  -3.982  1.00  0.00     0.014 C 
ATOM      3  C   UNL     1      -1.707   2.758  -4.087  1.00  0.00     0.091 C 
ATOM      4  C   UNL     1      -0.603   4.842  -3.742  1.00  0.00     0.041 C 
ATOM      5  C   UNL     1      -0.070   3.854  -2.688  1.00  0.00     0.175 C 
ATOM      6  C   UNL     1      -3.016   2.005  -3.855  1.00  0.00     0.059 C 
ATOM      7  C   UNL     1      -2.803   4.744  -5.164  1.00  0.00     0.008 C 
ATOM      8  C   UNL     1      -4.267   2.769  -4.341  1.00  0.00     0.143 C 
ATOM      9  C   UNL     1      -3.939   3.749  -5.486  1.00  0.00     0.034 C 
ENDROOT
BRANCH   1  10
ATOM     10  C   UNL     1       0.079   1.388  -2.823  1.00  0.00     0.246 C 
ATOM     11  O   UNL     1      -0.226   0.772  -1.796  1.00  0.00    -0.272 OA
BRANCH  10  12
ATOM     12  C   UNL     1       1.188   0.865  -3.782  1.00  0.00     0.174 C 
BRANCH  12  13
ATOM     13  N   UNL     1       2.388   1.690  -3.653  1.00  0.00    -0.342 N 
ATOM     14  C   UNL     1       3.529   1.325  -2.974  1.00  0.00     0.249 C 
ATOM     15  O   UNL     1       3.675   0.243  -2.417  1.00  0.00    -0.272 OA
ATOM     16  H   UNL     1       2.359   2.669  -3.927  1.00  0.00     0.164 HD
BRANCH  14  17
ATOM     17  C   UNL     1       4.617   2.419  -3.004  1.00  0.00     0.207 C 
BRANCH  17  18
ATOM     18  C   UNL     1       4.059   3.711  -3.611  1.00  0.00     0.077 C 
BRANCH  18  19
ATOM     19  C   UNL     1       4.415   4.922  -2.778  1.00  0.00    -0.043 A 
ATOM     20  C   UNL     1       6.054   6.537  -2.009  1.00  0.00     0.083 A 
ATOM     21  C   UNL     1       5.715   5.451  -2.816  1.00  0.00     0.028 A 
ATOM     22  C   UNL     1       5.100   7.101  -1.160  1.00  0.00     0.134 A 
ATOM     23  C   UNL     1       3.810   6.587  -1.112  1.00  0.00     0.048 A 
ATOM     24  C   UNL     1       3.468   5.498  -1.917  1.00  0.00     0.008 A 
ATOM     25  Cl  UNL     1       7.656   7.173  -2.070  1.00  0.00    -0.080 Cl
BRANCH  22  26
ATOM     26  O   UNL     1       5.389   8.160  -0.343  1.00  0.00    -0.506 OA
ATOM     27  H   UNL     1       6.146   8.625  -0.744  1.00  0.00     0.293 HD
ENDBRANCH  22  26
ENDBRANCH  18  19
ENDBRANCH  17  18
BRANCH  17  28
ATOM     28  O   UNL     1       5.760   1.992  -3.763  1.00  0.00    -0.383 OA
ATOM     29  H   UNL     1       6.255   1.371  -3.181  1.00  0.00     0.211 HD
ENDBRANCH  17  28
ENDBRANCH  14  17
ENDBRANCH  12  13
BRANCH  12  30
ATOM     30  C   UNL     1       0.703   0.749  -5.252  1.00  0.00     0.018 C 
ATOM     31  C   UNL     1       1.076  -0.620  -5.844  1.00  0.00     0.010 C 
BRANCH  30  32
ATOM     32  C   UNL     1       1.221   1.884  -6.169  1.00  0.00     0.002 C 
ATOM     33  C   UNL     1       2.203   1.451  -7.250  1.00  0.00     0.004 C 
ENDBRANCH  30  32
ENDBRANCH  12  30
ENDBRANCH  10  12
ENDBRANCH   1  10
BRANCH   5  34
ATOM     34  C   UNL     1      -0.589   4.199  -1.267  1.00  0.00     0.242 C 
ATOM     35  O   UNL     1      -1.334   3.447  -0.638  1.00  0.00    -0.273 OA
ATOM     36  N   UNL     1      -0.200   5.428  -0.784  1.00  0.00    -0.354 N 
ATOM     37  H   UNL     1       0.318   6.057  -1.399  1.00  0.00     0.163 HD
BRANCH  36  38
ATOM     38  C   UNL     1      -0.409   5.819   0.595  1.00  0.00     0.116 C 
BRANCH  38  39
ATOM     39  C   UNL     1       0.930   6.154   1.248  1.00  0.00     0.023 C 
BRANCH  39  40
ATOM     40  C   UNL     1       1.227   7.650   1.232  1.00  0.00     0.026 C 
BRANCH  40  41
ATOM     41  C   UNL     1       1.995   8.063   2.488  1.00  0.00     0.146 C 
BRANCH  41  42
ATOM     42  N   UNL     1       3.424   8.081   2.207  1.00  0.00    -0.254 NA
ATOM     43  C   UNL     1       4.181   7.183   2.717  1.00  0.00     0.185 C 
ATOM     44  N   UNL     1       3.875   6.149   3.522  1.00  0.00    -0.370 N 
ATOM     45  N   UNL     1       5.497   7.219   2.450  1.00  0.00    -0.370 N 
ATOM     46  H   UNL     1       4.593   5.673   4.041  1.00  0.00     0.159 HD
ATOM     47  H   UNL     1       2.920   5.965   3.813  1.00  0.00     0.159 HD
ATOM     48  H   UNL     1       5.810   7.964   1.842  1.00  0.00     0.159 HD
ATOM     49  H   UNL     1       6.106   6.437   2.608  1.00  0.00     0.159 HD
ENDBRANCH  41  42
ENDBRANCH  40  41
ENDBRANCH  39  40
ENDBRANCH  38  39
ENDBRANCH  36  38
ENDBRANCH   5  34
BRANCH   8  50
ATOM     50  O   UNL     1      -4.841   3.507  -3.263  1.00  0.00    -0.245 OA
BRANCH  50  51
ATOM     51  S   UNL     1      -6.458   3.545  -3.086  1.00  0.00     0.397 S 
ATOM     52  O   UNL     1      -6.981   2.259  -3.490  1.00  0.00    -0.169 OA
ATOM     53  O   UNL     1      -6.978   4.782  -3.630  1.00  0.00    -0.169 OA
BRANCH  51  54
ATOM     54  O   UNL     1      -6.619   3.600  -1.487  1.00  0.00    -0.264 OA
ATOM     55  H   UNL     1      -6.163   4.406  -1.169  1.00  0.00     0.236 HD
ENDBRANCH  51  54
ENDBRANCH  50  51
ENDBRANCH   8  50
TORSDOF 19
ENDMDL
