MODEL 1
REMARK VINA RESULT:    -7.496      0.000      0.000
REMARK INTER + INTRA:         -19.247
REMARK INTER:                 -15.164
REMARK INTRA:                  -4.083
REMARK UNBOUND:                -4.083
REMARK SMILES CC[C@@H](C)[C@@H](NC(=O)[C@@H](O)Cc1ccc(O)c(Cl)c1)C(=O)N1[C@H](C(=O)NCCCCN=C(N)N)C[C@H]2CC[C@H](OS(=O)(=O)O)C[C@@H]21
REMARK SMILES IDX 22 1 36 2 46 3 35 4 23 5 45 6 37 7 39 8 38 9 20 10 21 11
REMARK SMILES IDX 5 12 6 13 7 14 8 15 9 17 11 18 12 19 17 20 19 21 15 22 14 23
REMARK SMILES IDX 13 24 18 25 16 26 10 28 3 30 4 31 2 32 1 33 24 34 25 35
REMARK SMILES IDX 26 36 27 38 28 39 29 40 30 41 31 42 32 43 33 44 34 45 40 50
REMARK SMILES IDX 41 51 42 52 43 53 44 54
REMARK H PARENT 6 16 16 27 10 29 26 37 33 46 33 47 34 48 34 49 44 55
ROOT
ATOM      1  N   UNL     1      -5.749   1.497  -5.990  1.00  0.00    -0.326 N 
ATOM      2  C   UNL     1      -5.455   1.270  -8.315  1.00  0.00     0.014 C 
ATOM      3  C   UNL     1      -4.835   1.899  -7.063  1.00  0.00     0.091 C 
ATOM      4  C   UNL     1      -6.946   1.364  -8.033  1.00  0.00     0.041 C 
ATOM      5  C   UNL     1      -6.977   0.897  -6.567  1.00  0.00     0.175 C 
ATOM      6  C   UNL     1      -3.375   1.460  -6.974  1.00  0.00     0.059 C 
ATOM      7  C   UNL     1      -4.894   1.903  -9.573  1.00  0.00     0.008 C 
ATOM      8  C   UNL     1      -2.707   1.240  -8.349  1.00  0.00     0.143 C 
ATOM      9  C   UNL     1      -3.367   2.087  -9.456  1.00  0.00     0.034 C 
ENDROOT
BRANCH   1  10
ATOM     10  C   UNL     1      -5.711   1.788  -4.637  1.00  0.00     0.246 C 
ATOM     11  O   UNL     1      -5.663   0.859  -3.823  1.00  0.00    -0.272 OA
BRANCH  10  12
ATOM     12  C   UNL     1      -5.686   3.273  -4.172  1.00  0.00     0.174 C 
BRANCH  12  13
ATOM     13  N   UNL     1      -4.352   3.620  -3.683  1.00  0.00    -0.342 N 
ATOM     14  C   UNL     1      -3.518   4.553  -4.257  1.00  0.00     0.249 C 
ATOM     15  O   UNL     1      -3.816   5.222  -5.238  1.00  0.00    -0.272 OA
ATOM     16  H   UNL     1      -3.909   3.040  -2.975  1.00  0.00     0.164 HD
BRANCH  14  17
ATOM     17  C   UNL     1      -2.168   4.680  -3.518  1.00  0.00     0.207 C 
BRANCH  17  18
ATOM     18  C   UNL     1      -1.156   5.443  -4.378  1.00  0.00     0.077 C 
BRANCH  18  19
ATOM     19  C   UNL     1      -0.659   4.606  -5.536  1.00  0.00    -0.043 A 
ATOM     20  C   UNL     1      -0.412   4.255  -7.923  1.00  0.00     0.083 A 
ATOM     21  C   UNL     1      -0.827   5.052  -6.856  1.00  0.00     0.028 A 
ATOM     22  C   UNL     1       0.171   3.011  -7.680  1.00  0.00     0.134 A 
ATOM     23  C   UNL     1       0.344   2.557  -6.378  1.00  0.00     0.048 A 
ATOM     24  C   UNL     1      -0.073   3.351  -5.307  1.00  0.00     0.008 A 
ATOM     25  Cl  UNL     1      -0.627   4.821  -9.538  1.00  0.00    -0.080 Cl
BRANCH  22  26
ATOM     26  O   UNL     1       0.584   2.190  -8.694  1.00  0.00    -0.506 OA
ATOM     27  H   UNL     1       1.219   1.561  -8.305  1.00  0.00     0.293 HD
ENDBRANCH  22  26
ENDBRANCH  18  19
ENDBRANCH  17  18
BRANCH  17  28
ATOM     28  O   UNL     1      -1.635   3.387  -3.188  1.00  0.00    -0.383 OA
ATOM     29  H   UNL     1      -1.089   3.113  -3.960  1.00  0.00     0.211 HD
ENDBRANCH  17  28
ENDBRANCH  14  17
ENDBRANCH  12  13
BRANCH  12  30
ATOM     30  C   UNL     1      -6.799   3.597  -3.139  1.00  0.00     0.018 C 
ATOM     31  C   UNL     1      -8.128   2.941  -3.544  1.00  0.00     0.010 C 
BRANCH  30  32
ATOM     32  C   UNL     1      -7.004   5.113  -2.902  1.00  0.00     0.002 C 
ATOM     33  C   UNL     1      -7.106   5.962  -4.163  1.00  0.00     0.004 C 
ENDBRANCH  30  32
ENDBRANCH  12  30
ENDBRANCH  10  12
ENDBRANCH   1  10
BRANCH   5  34
ATOM     34  C   UNL     1      -6.936  -0.651  -6.459  1.00  0.00     0.242 C 
ATOM     35  O   UNL     1      -6.156  -1.237  -5.709  1.00  0.00    -0.273 OA
ATOM     36  N   UNL     1      -7.796  -1.320  -7.300  1.00  0.00    -0.354 N 
ATOM     37  H   UNL     1      -8.332  -0.783  -7.984  1.00  0.00     0.163 HD
BRANCH  36  38
ATOM     38  C   UNL     1      -8.044  -2.742  -7.182  1.00  0.00     0.116 C 
BRANCH  38  39
ATOM     39  C   UNL     1      -7.309  -3.490  -8.291  1.00  0.00     0.023 C 
BRANCH  39  40
ATOM     40  C   UNL     1      -6.564  -4.716  -7.773  1.00  0.00     0.026 C 
BRANCH  40  41
ATOM     41  C   UNL     1      -5.851  -4.400  -6.458  1.00  0.00     0.146 C 
BRANCH  41  42
ATOM     42  N   UNL     1      -4.419  -4.624  -6.609  1.00  0.00    -0.254 NA
ATOM     43  C   UNL     1      -3.666  -3.663  -6.994  1.00  0.00     0.185 C 
ATOM     44  N   UNL     1      -3.976  -2.392  -7.307  1.00  0.00    -0.370 N 
ATOM     45  N   UNL     1      -2.349  -3.891  -7.131  1.00  0.00    -0.370 N 
ATOM     46  H   UNL     1      -3.331  -1.820  -7.825  1.00  0.00     0.159 HD
ATOM     47  H   UNL     1      -4.928  -2.045  -7.246  1.00  0.00     0.159 HD
ATOM     48  H   UNL     1      -2.029  -4.824  -6.906  1.00  0.00     0.159 HD
ATOM     49  H   UNL     1      -1.673  -3.151  -7.194  1.00  0.00     0.159 HD
ENDBRANCH  41  42
ENDBRANCH  40  41
ENDBRANCH  39  40
ENDBRANCH  38  39
ENDBRANCH  36  38
ENDBRANCH   5  34
BRANCH   8  50
ATOM     50  O   UNL     1      -2.793  -0.136  -8.720  1.00  0.00    -0.245 OA
BRANCH  50  51
ATOM     51  S   UNL     1      -1.437  -0.953  -9.096  1.00  0.00     0.397 S 
ATOM     52  O   UNL     1      -0.846  -1.426  -7.864  1.00  0.00    -0.169 OA
ATOM     53  O   UNL     1      -0.671  -0.201 -10.067  1.00  0.00    -0.169 OA
BRANCH  51  54
ATOM     54  O   UNL     1      -2.024  -2.258  -9.829  1.00  0.00    -0.264 OA
ATOM     55  H   UNL     1      -1.345  -2.577 -10.459  1.00  0.00     0.236 HD
ENDBRANCH  51  54
ENDBRANCH  50  51
ENDBRANCH   8  50
TORSDOF 19
ENDMDL
MODEL 2
REMARK VINA RESULT:    -7.210      1.282      1.788
REMARK INTER + INTRA:         -18.670
REMARK INTER:                 -14.550
REMARK INTRA:                  -4.121
REMARK UNBOUND:                -4.083
REMARK SMILES CC[C@@H](C)[C@@H](NC(=O)[C@@H](O)Cc1ccc(O)c(Cl)c1)C(=O)N1[C@H](C(=O)NCCCCN=C(N)N)C[C@H]2CC[C@H](OS(=O)(=O)O)C[C@@H]21
REMARK SMILES IDX 22 1 36 2 46 3 35 4 23 5 45 6 37 7 39 8 38 9 20 10 21 11
REMARK SMILES IDX 5 12 6 13 7 14 8 15 9 17 11 18 12 19 17 20 19 21 15 22 14 23
REMARK SMILES IDX 13 24 18 25 16 26 10 28 3 30 4 31 2 32 1 33 24 34 25 35
REMARK SMILES IDX 26 36 27 38 28 39 29 40 30 41 31 42 32 43 33 44 34 45 40 50
REMARK SMILES IDX 41 51 42 52 43 53 44 54
REMARK H PARENT 6 16 16 27 10 29 26 37 33 46 33 47 34 48 34 49 44 55
ROOT
ATOM      1  N   UNL     1      -5.446   1.608  -5.982  1.00  0.00    -0.326 N 
ATOM      2  C   UNL     1      -5.373   1.159  -8.292  1.00  0.00     0.014 C 
ATOM      3  C   UNL     1      -4.658   1.926  -7.176  1.00  0.00     0.091 C 
ATOM      4  C   UNL     1      -6.833   1.239  -7.871  1.00  0.00     0.041 C 
ATOM      5  C   UNL     1      -6.701   0.920  -6.370  1.00  0.00     0.175 C 
ATOM      6  C   UNL     1      -3.180   1.539  -7.194  1.00  0.00     0.059 C 
ATOM      7  C   UNL     1      -4.963   1.677  -9.656  1.00  0.00     0.008 C 
ATOM      8  C   UNL     1      -2.643   1.201  -8.602  1.00  0.00     0.143 C 
ATOM      9  C   UNL     1      -3.439   1.915  -9.712  1.00  0.00     0.034 C 
ENDROOT
BRANCH   1  10
ATOM     10  C   UNL     1      -5.286   2.033  -4.674  1.00  0.00     0.246 C 
ATOM     11  O   UNL     1      -4.948   1.215  -3.813  1.00  0.00    -0.272 OA
BRANCH  10  12
ATOM     12  C   UNL     1      -5.493   3.536  -4.325  1.00  0.00     0.174 C 
BRANCH  12  13
ATOM     13  N   UNL     1      -4.210   4.150  -3.985  1.00  0.00    -0.342 N 
ATOM     14  C   UNL     1      -3.567   5.106  -4.739  1.00  0.00     0.249 C 
ATOM     15  O   UNL     1      -4.018   5.573  -5.777  1.00  0.00    -0.272 OA
ATOM     16  H   UNL     1      -3.644   3.753  -3.240  1.00  0.00     0.164 HD
BRANCH  14  17
ATOM     17  C   UNL     1      -2.221   5.544  -4.123  1.00  0.00     0.207 C 
BRANCH  17  18
ATOM     18  C   UNL     1      -1.277   4.344  -3.992  1.00  0.00     0.077 C 
BRANCH  18  19
ATOM     19  C   UNL     1      -0.695   3.939  -5.328  1.00  0.00    -0.043 A 
ATOM     20  C   UNL     1      -0.444   4.310  -7.712  1.00  0.00     0.083 A 
ATOM     21  C   UNL     1      -0.941   4.714  -6.472  1.00  0.00     0.028 A 
ATOM     22  C   UNL     1       0.298   3.133  -7.817  1.00  0.00     0.134 A 
ATOM     23  C   UNL     1       0.550   2.357  -6.692  1.00  0.00     0.048 A 
ATOM     24  C   UNL     1       0.052   2.757  -5.450  1.00  0.00     0.008 A 
ATOM     25  Cl  UNL     1      -0.758   5.275  -9.107  1.00  0.00    -0.080 Cl
BRANCH  22  26
ATOM     26  O   UNL     1       0.797   2.692  -9.013  1.00  0.00    -0.506 OA
ATOM     27  H   UNL     1       1.160   1.801  -8.853  1.00  0.00     0.293 HD
ENDBRANCH  22  26
ENDBRANCH  18  19
ENDBRANCH  17  18
BRANCH  17  28
ATOM     28  O   UNL     1      -2.413   6.142  -2.831  1.00  0.00    -0.383 OA
ATOM     29  H   UNL     1      -1.535   6.495  -2.562  1.00  0.00     0.211 HD
ENDBRANCH  17  28
ENDBRANCH  14  17
ENDBRANCH  12  13
BRANCH  12  30
ATOM     30  C   UNL     1      -6.565   3.754  -3.224  1.00  0.00     0.018 C 
ATOM     31  C   UNL     1      -5.913   3.833  -1.835  1.00  0.00     0.010 C 
BRANCH  30  32
ATOM     32  C   UNL     1      -7.685   2.685  -3.226  1.00  0.00     0.002 C 
ATOM     33  C   UNL     1      -8.870   2.985  -4.134  1.00  0.00     0.004 C 
ENDBRANCH  30  32
ENDBRANCH  12  30
ENDBRANCH  10  12
ENDBRANCH   1  10
BRANCH   5  34
ATOM     34  C   UNL     1      -6.592  -0.608  -6.118  1.00  0.00     0.242 C 
ATOM     35  O   UNL     1      -5.512  -1.199  -6.116  1.00  0.00    -0.273 OA
ATOM     36  N   UNL     1      -7.792  -1.262  -5.952  1.00  0.00    -0.354 N 
ATOM     37  H   UNL     1      -8.659  -0.739  -6.084  1.00  0.00     0.163 HD
BRANCH  36  38
ATOM     38  C   UNL     1      -7.869  -2.635  -5.498  1.00  0.00     0.116 C 
BRANCH  38  39
ATOM     39  C   UNL     1      -8.271  -3.543  -6.657  1.00  0.00     0.023 C 
BRANCH  39  40
ATOM     40  C   UNL     1      -7.339  -4.741  -6.809  1.00  0.00     0.026 C 
BRANCH  40  41
ATOM     41  C   UNL     1      -6.482  -4.605  -8.067  1.00  0.00     0.146 C 
BRANCH  41  42
ATOM     42  N   UNL     1      -7.058  -3.599  -8.950  1.00  0.00    -0.254 NA
ATOM     43  C   UNL     1      -6.361  -2.582  -9.291  1.00  0.00     0.185 C 
ATOM     44  N   UNL     1      -5.100  -2.246  -8.961  1.00  0.00    -0.370 N 
ATOM     45  N   UNL     1      -6.912  -1.664 -10.102  1.00  0.00    -0.370 N 
ATOM     46  H   UNL     1      -4.766  -1.308  -9.099  1.00  0.00     0.159 HD
ATOM     47  H   UNL     1      -4.531  -2.838  -8.363  1.00  0.00     0.159 HD
ATOM     48  H   UNL     1      -7.859  -1.845 -10.406  1.00  0.00     0.159 HD
ATOM     49  H   UNL     1      -6.369  -0.979 -10.597  1.00  0.00     0.159 HD
ENDBRANCH  41  42
ENDBRANCH  40  41
ENDBRANCH  39  40
ENDBRANCH  38  39
ENDBRANCH  36  38
ENDBRANCH   5  34
BRANCH   8  50
ATOM     50  O   UNL     1      -2.714  -0.208  -8.828  1.00  0.00    -0.245 OA
BRANCH  50  51
ATOM     51  S   UNL     1      -1.521  -0.949  -9.648  1.00  0.00     0.397 S 
ATOM     52  O   UNL     1      -2.056  -1.382 -10.920  1.00  0.00    -0.169 OA
ATOM     53  O   UNL     1      -0.821  -1.862  -8.768  1.00  0.00    -0.169 OA
BRANCH  51  54
ATOM     54  O   UNL     1      -0.532   0.274  -9.982  1.00  0.00    -0.264 OA
ATOM     55  H   UNL     1      -0.259   0.189 -10.918  1.00  0.00     0.236 HD
ENDBRANCH  51  54
ENDBRANCH  50  51
ENDBRANCH   8  50
TORSDOF 19
ENDMDL
MODEL 3
REMARK VINA RESULT:    -7.048      2.203      2.770
REMARK INTER + INTRA:         -18.342
REMARK INTER:                 -15.010
REMARK INTRA:                  -3.332
REMARK UNBOUND:                -4.083
REMARK SMILES CC[C@@H](C)[C@@H](NC(=O)[C@@H](O)Cc1ccc(O)c(Cl)c1)C(=O)N1[C@H](C(=O)NCCCCN=C(N)N)C[C@H]2CC[C@H](OS(=O)(=O)O)C[C@@H]21
REMARK SMILES IDX 22 1 36 2 46 3 35 4 23 5 45 6 37 7 39 8 38 9 20 10 21 11
REMARK SMILES IDX 5 12 6 13 7 14 8 15 9 17 11 18 12 19 17 20 19 21 15 22 14 23
REMARK SMILES IDX 13 24 18 25 16 26 10 28 3 30 4 31 2 32 1 33 24 34 25 35
REMARK SMILES IDX 26 36 27 38 28 39 29 40 30 41 31 42 32 43 33 44 34 45 40 50
REMARK SMILES IDX 41 51 42 52 43 53 44 54
REMARK H PARENT 6 16 16 27 10 29 26 37 33 46 33 47 34 48 34 49 44 55
ROOT
ATOM      1  N   UNL     1      -5.781   1.585  -5.252  1.00  0.00    -0.326 N 
ATOM      2  C   UNL     1      -5.339   1.158  -7.525  1.00  0.00     0.014 C 
ATOM      3  C   UNL     1      -4.708   1.708  -6.243  1.00  0.00     0.091 C 
ATOM      4  C   UNL     1      -6.790   1.598  -7.399  1.00  0.00     0.041 C 
ATOM      5  C   UNL     1      -7.057   1.239  -5.926  1.00  0.00     0.175 C 
ATOM      6  C   UNL     1      -3.399   0.961  -5.990  1.00  0.00     0.059 C 
ATOM      7  C   UNL     1      -4.540   1.572  -8.744  1.00  0.00     0.008 C 
ATOM      8  C   UNL     1      -2.679   0.515  -7.281  1.00  0.00     0.143 C 
ATOM      9  C   UNL     1      -3.027   1.419  -8.480  1.00  0.00     0.034 C 
ENDROOT
BRANCH   1  10
ATOM     10  C   UNL     1      -5.799   1.942  -3.914  1.00  0.00     0.246 C 
ATOM     11  O   UNL     1      -5.760   1.055  -3.055  1.00  0.00    -0.272 OA
BRANCH  10  12
ATOM     12  C   UNL     1      -5.826   3.447  -3.522  1.00  0.00     0.174 C 
BRANCH  12  13
ATOM     13  N   UNL     1      -4.472   3.998  -3.568  1.00  0.00    -0.342 N 
ATOM     14  C   UNL     1      -4.041   4.965  -4.449  1.00  0.00     0.249 C 
ATOM     15  O   UNL     1      -4.762   5.496  -5.284  1.00  0.00    -0.272 OA
ATOM     16  H   UNL     1      -3.726   3.547  -3.044  1.00  0.00     0.164 HD
BRANCH  14  17
ATOM     17  C   UNL     1      -2.552   5.324  -4.257  1.00  0.00     0.207 C 
BRANCH  17  18
ATOM     18  C   UNL     1      -1.694   4.056  -4.233  1.00  0.00     0.077 C 
BRANCH  18  19
ATOM     19  C   UNL     1      -0.984   3.832  -5.550  1.00  0.00    -0.043 A 
ATOM     20  C   UNL     1      -0.667   4.390  -7.889  1.00  0.00     0.083 A 
ATOM     21  C   UNL     1      -1.288   4.632  -6.663  1.00  0.00     0.028 A 
ATOM     22  C   UNL     1       0.256   3.352  -8.012  1.00  0.00     0.134 A 
ATOM     23  C   UNL     1       0.567   2.552  -6.918  1.00  0.00     0.048 A 
ATOM     24  C   UNL     1      -0.054   2.790  -5.689  1.00  0.00     0.008 A 
ATOM     25  Cl  UNL     1      -1.054   5.383  -9.245  1.00  0.00    -0.080 Cl
BRANCH  22  26
ATOM     26  O   UNL     1       0.882   3.070  -9.196  1.00  0.00    -0.506 OA
ATOM     27  H   UNL     1       0.215   2.656  -9.774  1.00  0.00     0.293 HD
ENDBRANCH  22  26
ENDBRANCH  18  19
ENDBRANCH  17  18
BRANCH  17  28
ATOM     28  O   UNL     1      -2.350   6.060  -3.040  1.00  0.00    -0.383 OA
ATOM     29  H   UNL     1      -1.953   5.425  -2.401  1.00  0.00     0.211 HD
ENDBRANCH  17  28
ENDBRANCH  14  17
ENDBRANCH  12  13
BRANCH  12  30
ATOM     30  C   UNL     1      -6.523   3.700  -2.158  1.00  0.00     0.018 C 
ATOM     31  C   UNL     1      -8.027   3.948  -2.351  1.00  0.00     0.010 C 
BRANCH  30  32
ATOM     32  C   UNL     1      -5.893   4.856  -1.344  1.00  0.00     0.002 C 
ATOM     33  C   UNL     1      -5.146   4.434  -0.085  1.00  0.00     0.004 C 
ENDBRANCH  30  32
ENDBRANCH  12  30
ENDBRANCH  10  12
ENDBRANCH   1  10
BRANCH   5  34
ATOM     34  C   UNL     1      -7.378  -0.270  -5.754  1.00  0.00     0.242 C 
ATOM     35  O   UNL     1      -6.545  -1.077  -5.343  1.00  0.00    -0.273 OA
ATOM     36  N   UNL     1      -8.643  -0.647  -6.145  1.00  0.00    -0.354 N 
ATOM     37  H   UNL     1      -9.248   0.045  -6.590  1.00  0.00     0.163 HD
BRANCH  36  38
ATOM     38  C   UNL     1      -9.183  -1.960  -5.856  1.00  0.00     0.116 C 
BRANCH  38  39
ATOM     39  C   UNL     1      -9.116  -2.834  -7.106  1.00  0.00     0.023 C 
BRANCH  39  40
ATOM     40  C   UNL     1      -9.011  -4.319  -6.775  1.00  0.00     0.026 C 
BRANCH  40  41
ATOM     41  C   UNL     1      -9.319  -4.567  -5.298  1.00  0.00     0.146 C 
BRANCH  41  42
ATOM     42  N   UNL     1      -9.206  -5.990  -5.004  1.00  0.00    -0.254 NA
ATOM     43  C   UNL     1     -10.019  -6.532  -4.177  1.00  0.00     0.185 C 
ATOM     44  N   UNL     1     -11.034  -5.990  -3.479  1.00  0.00    -0.370 N 
ATOM     45  N   UNL     1      -9.896  -7.844  -3.917  1.00  0.00    -0.370 N 
ATOM     46  H   UNL     1     -11.429  -6.472  -2.690  1.00  0.00     0.159 HD
ATOM     47  H   UNL     1     -11.276  -5.008  -3.567  1.00  0.00     0.159 HD
ATOM     48  H   UNL     1      -9.159  -8.331  -4.409  1.00  0.00     0.159 HD
ATOM     49  H   UNL     1     -10.621  -8.382  -3.478  1.00  0.00     0.159 HD
ENDBRANCH  41  42
ENDBRANCH  40  41
ENDBRANCH  39  40
ENDBRANCH  38  39
ENDBRANCH  36  38
ENDBRANCH   5  34
BRANCH   8  50
ATOM     50  O   UNL     1      -3.042  -0.828  -7.605  1.00  0.00    -0.245 OA
BRANCH  50  51
ATOM     51  S   UNL     1      -1.878  -1.945  -7.815  1.00  0.00     0.397 S 
ATOM     52  O   UNL     1      -2.368  -3.202  -7.296  1.00  0.00    -0.169 OA
ATOM     53  O   UNL     1      -0.601  -1.400  -7.405  1.00  0.00    -0.169 OA
BRANCH  51  54
ATOM     54  O   UNL     1      -1.857  -2.110  -9.414  1.00  0.00    -0.264 OA
ATOM     55  H   UNL     1      -2.614  -1.607  -9.777  1.00  0.00     0.236 HD
ENDBRANCH  51  54
ENDBRANCH  50  51
ENDBRANCH   8  50
TORSDOF 19
ENDMDL
MODEL 4
REMARK VINA RESULT:    -6.930      2.225      3.083
REMARK INTER + INTRA:         -18.104
REMARK INTER:                 -15.532
REMARK INTRA:                  -2.572
REMARK UNBOUND:                -4.083
REMARK SMILES CC[C@@H](C)[C@@H](NC(=O)[C@@H](O)Cc1ccc(O)c(Cl)c1)C(=O)N1[C@H](C(=O)NCCCCN=C(N)N)C[C@H]2CC[C@H](OS(=O)(=O)O)C[C@@H]21
REMARK SMILES IDX 22 1 36 2 46 3 35 4 23 5 45 6 37 7 39 8 38 9 20 10 21 11
REMARK SMILES IDX 5 12 6 13 7 14 8 15 9 17 11 18 12 19 17 20 19 21 15 22 14 23
REMARK SMILES IDX 13 24 18 25 16 26 10 28 3 30 4 31 2 32 1 33 24 34 25 35
REMARK SMILES IDX 26 36 27 38 28 39 29 40 30 41 31 42 32 43 33 44 34 45 40 50
REMARK SMILES IDX 41 51 42 52 43 53 44 54
REMARK H PARENT 6 16 16 27 10 29 26 37 33 46 33 47 34 48 34 49 44 55
ROOT
ATOM      1  N   UNL     1      -5.267   1.383  -6.589  1.00  0.00    -0.326 N 
ATOM      2  C   UNL     1      -5.315   1.007  -8.912  1.00  0.00     0.014 C 
ATOM      3  C   UNL     1      -4.567   1.772  -7.817  1.00  0.00     0.091 C 
ATOM      4  C   UNL     1      -6.748   1.009  -8.404  1.00  0.00     0.041 C 
ATOM      5  C   UNL     1      -6.513   0.650  -6.925  1.00  0.00     0.175 C 
ATOM      6  C   UNL     1      -3.078   1.452  -7.934  1.00  0.00     0.059 C 
ATOM      7  C   UNL     1      -5.011   1.585 -10.281  1.00  0.00     0.008 C 
ATOM      8  C   UNL     1      -2.613   1.181  -9.382  1.00  0.00     0.143 C 
ATOM      9  C   UNL     1      -3.505   1.893 -10.419  1.00  0.00     0.034 C 
ENDROOT
BRANCH   1  10
ATOM     10  C   UNL     1      -5.047   1.775  -5.279  1.00  0.00     0.246 C 
ATOM     11  O   UNL     1      -4.540   0.972  -4.488  1.00  0.00    -0.272 OA
BRANCH  10  12
ATOM     12  C   UNL     1      -5.402   3.226  -4.844  1.00  0.00     0.174 C 
BRANCH  12  13
ATOM     13  N   UNL     1      -4.290   3.807  -4.091  1.00  0.00    -0.342 N 
ATOM     14  C   UNL     1      -3.609   4.950  -4.443  1.00  0.00     0.249 C 
ATOM     15  O   UNL     1      -3.881   5.631  -5.423  1.00  0.00    -0.272 OA
ATOM     16  H   UNL     1      -3.853   3.271  -3.345  1.00  0.00     0.164 HD
BRANCH  14  17
ATOM     17  C   UNL     1      -2.475   5.296  -3.454  1.00  0.00     0.207 C 
BRANCH  17  18
ATOM     18  C   UNL     1      -1.262   5.854  -4.205  1.00  0.00     0.077 C 
BRANCH  18  19
ATOM     19  C   UNL     1      -0.767   4.895  -5.264  1.00  0.00    -0.043 A 
ATOM     20  C   UNL     1      -0.393   4.351  -7.598  1.00  0.00     0.083 A 
ATOM     21  C   UNL     1      -0.805   5.256  -6.620  1.00  0.00     0.028 A 
ATOM     22  C   UNL     1       0.056   3.082  -7.230  1.00  0.00     0.134 A 
ATOM     23  C   UNL     1       0.100   2.712  -5.891  1.00  0.00     0.048 A 
ATOM     24  C   UNL     1      -0.313   3.615  -4.910  1.00  0.00     0.008 A 
ATOM     25  Cl  UNL     1      -0.448   4.812  -9.259  1.00  0.00    -0.080 Cl
BRANCH  22  26
ATOM     26  O   UNL     1       0.460   2.157  -8.154  1.00  0.00    -0.506 OA
ATOM     27  H   UNL     1       0.760   1.374  -7.655  1.00  0.00     0.293 HD
ENDBRANCH  22  26
ENDBRANCH  18  19
ENDBRANCH  17  18
BRANCH  17  28
ATOM     28  O   UNL     1      -2.078   4.141  -2.698  1.00  0.00    -0.383 OA
ATOM     29  H   UNL     1      -1.249   4.393  -2.231  1.00  0.00     0.211 HD
ENDBRANCH  17  28
ENDBRANCH  14  17
ENDBRANCH  12  13
BRANCH  12  30
ATOM     30  C   UNL     1      -6.747   3.309  -4.073  1.00  0.00     0.018 C 
ATOM     31  C   UNL     1      -7.577   4.511  -4.551  1.00  0.00     0.010 C 
BRANCH  30  32
ATOM     32  C   UNL     1      -6.580   3.356  -2.535  1.00  0.00     0.002 C 
ATOM     33  C   UNL     1      -6.689   2.013  -1.826  1.00  0.00     0.004 C 
ENDBRANCH  30  32
ENDBRANCH  12  30
ENDBRANCH  10  12
ENDBRANCH   1  10
BRANCH   5  34
ATOM     34  C   UNL     1      -6.322  -0.878  -6.730  1.00  0.00     0.242 C 
ATOM     35  O   UNL     1      -5.227  -1.425  -6.852  1.00  0.00    -0.273 OA
ATOM     36  N   UNL     1      -7.475  -1.582  -6.465  1.00  0.00    -0.354 N 
ATOM     37  H   UNL     1      -8.370  -1.091  -6.495  1.00  0.00     0.163 HD
BRANCH  36  38
ATOM     38  C   UNL     1      -7.455  -2.968  -6.046  1.00  0.00     0.116 C 
BRANCH  38  39
ATOM     39  C   UNL     1      -7.198  -3.052  -4.543  1.00  0.00     0.023 C 
BRANCH  39  40
ATOM     40  C   UNL     1      -8.180  -3.978  -3.834  1.00  0.00     0.026 C 
BRANCH  40  41
ATOM     41  C   UNL     1      -9.509  -4.037  -4.587  1.00  0.00     0.146 C 
BRANCH  41  42
ATOM     42  N   UNL     1     -10.611  -4.120  -3.637  1.00  0.00    -0.254 NA
ATOM     43  C   UNL     1     -11.088  -5.264  -3.318  1.00  0.00     0.185 C 
ATOM     44  N   UNL     1     -10.732  -6.495  -3.729  1.00  0.00    -0.370 N 
ATOM     45  N   UNL     1     -12.106  -5.318  -2.444  1.00  0.00    -0.370 N 
ATOM     46  H   UNL     1     -11.345  -7.280  -3.589  1.00  0.00     0.159 HD
ATOM     47  H   UNL     1      -9.968  -6.639  -4.383  1.00  0.00     0.159 HD
ATOM     48  H   UNL     1     -12.430  -4.433  -2.078  1.00  0.00     0.159 HD
ATOM     49  H   UNL     1     -12.372  -6.163  -1.970  1.00  0.00     0.159 HD
ENDBRANCH  41  42
ENDBRANCH  40  41
ENDBRANCH  39  40
ENDBRANCH  38  39
ENDBRANCH  36  38
ENDBRANCH   5  34
BRANCH   8  50
ATOM     50  O   UNL     1      -2.636  -0.221  -9.650  1.00  0.00    -0.245 OA
BRANCH  50  51
ATOM     51  S   UNL     1      -1.245  -1.000  -9.970  1.00  0.00     0.397 S 
ATOM     52  O   UNL     1      -1.421  -1.742 -11.198  1.00  0.00    -0.169 OA
ATOM     53  O   UNL     1      -0.753  -1.633  -8.763  1.00  0.00    -0.169 OA
BRANCH  51  54
ATOM     54  O   UNL     1      -0.255   0.215 -10.330  1.00  0.00    -0.264 OA
ATOM     55  H   UNL     1       0.244   0.444  -9.520  1.00  0.00     0.236 HD
ENDBRANCH  51  54
ENDBRANCH  50  51
ENDBRANCH   8  50
TORSDOF 19
ENDMDL
MODEL 5
REMARK VINA RESULT:    -6.893      8.409     12.339
REMARK INTER + INTRA:         -18.029
REMARK INTER:                 -14.670
REMARK INTRA:                  -3.359
REMARK UNBOUND:                -4.083
REMARK SMILES CC[C@@H](C)[C@@H](NC(=O)[C@@H](O)Cc1ccc(O)c(Cl)c1)C(=O)N1[C@H](C(=O)NCCCCN=C(N)N)C[C@H]2CC[C@H](OS(=O)(=O)O)C[C@@H]21
REMARK SMILES IDX 22 1 36 2 46 3 35 4 23 5 45 6 37 7 39 8 38 9 20 10 21 11
REMARK SMILES IDX 5 12 6 13 7 14 8 15 9 17 11 18 12 19 17 20 19 21 15 22 14 23
REMARK SMILES IDX 13 24 18 25 16 26 10 28 3 30 4 31 2 32 1 33 24 34 25 35
REMARK SMILES IDX 26 36 27 38 28 39 29 40 30 41 31 42 32 43 33 44 34 45 40 50
REMARK SMILES IDX 41 51 42 52 43 53 44 54
REMARK H PARENT 6 16 16 27 10 29 26 37 33 46 33 47 34 48 34 49 44 55
ROOT
ATOM      1  N   UNL     1     -10.734  -3.120   0.715  1.00  0.00    -0.326 N 
ATOM      2  C   UNL     1     -10.784  -1.351  -0.838  1.00  0.00     0.014 C 
ATOM      3  C   UNL     1     -10.423  -2.831  -0.688  1.00  0.00     0.091 C 
ATOM      4  C   UNL     1     -10.413  -0.777   0.521  1.00  0.00     0.041 C 
ATOM      5  C   UNL     1     -11.008  -1.857   1.444  1.00  0.00     0.175 C 
ATOM      6  C   UNL     1     -11.160  -3.619  -1.770  1.00  0.00     0.059 C 
ATOM      7  C   UNL     1     -10.158  -0.764  -2.088  1.00  0.00     0.008 C 
ATOM      8  C   UNL     1     -11.376  -2.828  -3.078  1.00  0.00     0.143 C 
ATOM      9  C   UNL     1     -10.305  -1.736  -3.277  1.00  0.00     0.034 C 
ENDROOT
BRANCH   1  10
ATOM     10  C   UNL     1     -10.593  -4.296   1.432  1.00  0.00     0.246 C 
ATOM     11  O   UNL     1     -11.601  -4.847   1.887  1.00  0.00    -0.272 OA
BRANCH  10  12
ATOM     12  C   UNL     1      -9.179  -4.919   1.612  1.00  0.00     0.174 C 
BRANCH  12  13
ATOM     13  N   UNL     1      -8.776  -5.606   0.386  1.00  0.00    -0.342 N 
ATOM     14  C   UNL     1      -9.507  -6.587  -0.247  1.00  0.00     0.249 C 
ATOM     15  O   UNL     1     -10.602  -6.977   0.138  1.00  0.00    -0.272 OA
ATOM     16  H   UNL     1      -7.826  -5.502   0.038  1.00  0.00     0.164 HD
BRANCH  14  17
ATOM     17  C   UNL     1      -8.807  -7.130  -1.511  1.00  0.00     0.207 C 
BRANCH  17  18
ATOM     18  C   UNL     1      -9.725  -6.999  -2.730  1.00  0.00     0.077 C 
BRANCH  18  19
ATOM     19  C   UNL     1      -9.277  -5.890  -3.656  1.00  0.00    -0.043 A 
ATOM     20  C   UNL     1      -9.499  -4.676  -5.744  1.00  0.00     0.083 A 
ATOM     21  C   UNL     1      -9.945  -5.668  -4.870  1.00  0.00     0.028 A 
ATOM     22  C   UNL     1      -8.384  -3.904  -5.413  1.00  0.00     0.134 A 
ATOM     23  C   UNL     1      -7.713  -4.114  -4.214  1.00  0.00     0.048 A 
ATOM     24  C   UNL     1      -8.157  -5.107  -3.338  1.00  0.00     0.008 A 
ATOM     25  Cl  UNL     1     -10.333  -4.417  -7.231  1.00  0.00    -0.080 Cl
BRANCH  22  26
ATOM     26  O   UNL     1      -7.903  -2.927  -6.242  1.00  0.00    -0.506 OA
ATOM     27  H   UNL     1      -6.934  -3.035  -6.269  1.00  0.00     0.293 HD
ENDBRANCH  22  26
ENDBRANCH  18  19
ENDBRANCH  17  18
BRANCH  17  28
ATOM     28  O   UNL     1      -8.430  -8.506  -1.343  1.00  0.00    -0.383 OA
ATOM     29  H   UNL     1      -8.936  -9.011  -2.019  1.00  0.00     0.211 HD
ENDBRANCH  17  28
ENDBRANCH  14  17
ENDBRANCH  12  13
BRANCH  12  30
ATOM     30  C   UNL     1      -9.081  -5.834   2.863  1.00  0.00     0.018 C 
ATOM     31  C   UNL     1      -9.035  -4.997   4.150  1.00  0.00     0.010 C 
BRANCH  30  32
ATOM     32  C   UNL     1      -7.885  -6.816   2.823  1.00  0.00     0.002 C 
ATOM     33  C   UNL     1      -6.541  -6.221   3.224  1.00  0.00     0.004 C 
ENDBRANCH  30  32
ENDBRANCH  12  30
ENDBRANCH  10  12
ENDBRANCH   1  10
BRANCH   5  34
ATOM     34  C   UNL     1     -12.534  -1.659   1.647  1.00  0.00     0.242 C 
ATOM     35  O   UNL     1     -13.354  -2.532   1.365  1.00  0.00    -0.273 OA
ATOM     36  N   UNL     1     -12.906  -0.418   2.114  1.00  0.00    -0.354 N 
ATOM     37  H   UNL     1     -12.192   0.304   2.215  1.00  0.00     0.163 HD
BRANCH  36  38
ATOM     38  C   UNL     1     -14.254  -0.133   2.561  1.00  0.00     0.116 C 
BRANCH  38  39
ATOM     39  C   UNL     1     -15.019   0.605   1.465  1.00  0.00     0.023 C 
BRANCH  39  40
ATOM     40  C   UNL     1     -16.389  -0.008   1.197  1.00  0.00     0.026 C 
BRANCH  40  41
ATOM     41  C   UNL     1     -16.253  -1.326   0.434  1.00  0.00     0.146 C 
BRANCH  41  42
ATOM     42  N   UNL     1     -17.526  -1.669  -0.187  1.00  0.00    -0.254 NA
ATOM     43  C   UNL     1     -17.639  -1.631  -1.462  1.00  0.00     0.185 C 
ATOM     44  N   UNL     1     -16.731  -1.310  -2.402  1.00  0.00    -0.370 N 
ATOM     45  N   UNL     1     -18.821  -1.947  -2.015  1.00  0.00    -0.370 N 
ATOM     46  H   UNL     1     -17.021  -1.086  -3.339  1.00  0.00     0.159 HD
ATOM     47  H   UNL     1     -15.778  -1.058  -2.159  1.00  0.00     0.159 HD
ATOM     48  H   UNL     1     -19.559  -2.210  -1.375  1.00  0.00     0.159 HD
ATOM     49  H   UNL     1     -18.924  -2.169  -2.989  1.00  0.00     0.159 HD
ENDBRANCH  41  42
ENDBRANCH  40  41
ENDBRANCH  39  40
ENDBRANCH  38  39
ENDBRANCH  36  38
ENDBRANCH   5  34
BRANCH   8  50
ATOM     50  O   UNL     1     -12.661  -2.205  -3.068  1.00  0.00    -0.245 OA
BRANCH  50  51
ATOM     51  S   UNL     1     -13.699  -2.487  -4.288  1.00  0.00     0.397 S 
ATOM     52  O   UNL     1     -13.018  -3.295  -5.275  1.00  0.00    -0.169 OA
ATOM     53  O   UNL     1     -14.372  -1.256  -4.648  1.00  0.00    -0.169 OA
BRANCH  51  54
ATOM     54  O   UNL     1     -14.777  -3.457  -3.595  1.00  0.00    -0.264 OA
ATOM     55  H   UNL     1     -14.286  -4.112  -3.057  1.00  0.00     0.236 HD
ENDBRANCH  51  54
ENDBRANCH  50  51
ENDBRANCH   8  50
TORSDOF 19
ENDMDL
MODEL 6
REMARK VINA RESULT:    -6.879      2.805      5.980
REMARK INTER + INTRA:         -18.000
REMARK INTER:                 -14.186
REMARK INTRA:                  -3.814
REMARK UNBOUND:                -4.083
REMARK SMILES CC[C@@H](C)[C@@H](NC(=O)[C@@H](O)Cc1ccc(O)c(Cl)c1)C(=O)N1[C@H](C(=O)NCCCCN=C(N)N)C[C@H]2CC[C@H](OS(=O)(=O)O)C[C@@H]21
REMARK SMILES IDX 22 1 36 2 46 3 35 4 23 5 45 6 37 7 39 8 38 9 20 10 21 11
REMARK SMILES IDX 5 12 6 13 7 14 8 15 9 17 11 18 12 19 17 20 19 21 15 22 14 23
REMARK SMILES IDX 13 24 18 25 16 26 10 28 3 30 4 31 2 32 1 33 24 34 25 35
REMARK SMILES IDX 26 36 27 38 28 39 29 40 30 41 31 42 32 43 33 44 34 45 40 50
REMARK SMILES IDX 41 51 42 52 43 53 44 54
REMARK H PARENT 6 16 16 27 10 29 26 37 33 46 33 47 34 48 34 49 44 55
ROOT
ATOM      1  N   UNL     1      -5.226   0.564  -6.728  1.00  0.00    -0.326 N 
ATOM      2  C   UNL     1      -6.734  -0.377  -8.272  1.00  0.00     0.014 C 
ATOM      3  C   UNL     1      -5.504  -0.699  -7.419  1.00  0.00     0.091 C 
ATOM      4  C   UNL     1      -6.500   1.074  -8.664  1.00  0.00     0.041 C 
ATOM      5  C   UNL     1      -6.051   1.652  -7.310  1.00  0.00     0.175 C 
ATOM      6  C   UNL     1      -5.811  -1.934  -6.574  1.00  0.00     0.059 C 
ATOM      7  C   UNL     1      -6.928  -1.418  -9.357  1.00  0.00     0.008 C 
ATOM      8  C   UNL     1      -6.773  -2.930  -7.258  1.00  0.00     0.143 C 
ATOM      9  C   UNL     1      -6.706  -2.838  -8.795  1.00  0.00     0.034 C 
ENDROOT
BRANCH   1  10
ATOM     10  C   UNL     1      -4.218   0.884  -5.836  1.00  0.00     0.246 C 
ATOM     11  O   UNL     1      -4.477   0.938  -4.629  1.00  0.00    -0.272 OA
BRANCH  10  12
ATOM     12  C   UNL     1      -2.774   1.128  -6.364  1.00  0.00     0.174 C 
BRANCH  12  13
ATOM     13  N   UNL     1      -2.553   2.558  -6.571  1.00  0.00    -0.342 N 
ATOM     14  C   UNL     1      -1.814   3.371  -5.741  1.00  0.00     0.249 C 
ATOM     15  O   UNL     1      -1.230   2.974  -4.740  1.00  0.00    -0.272 OA
ATOM     16  H   UNL     1      -3.100   3.057  -7.268  1.00  0.00     0.164 HD
BRANCH  14  17
ATOM     17  C   UNL     1      -1.782   4.839  -6.219  1.00  0.00     0.207 C 
BRANCH  17  18
ATOM     18  C   UNL     1      -0.383   5.208  -6.723  1.00  0.00     0.077 C 
BRANCH  18  19
ATOM     19  C   UNL     1      -0.093   4.592  -8.074  1.00  0.00    -0.043 A 
ATOM     20  C   UNL     1      -0.636   4.324 -10.423  1.00  0.00     0.083 A 
ATOM     21  C   UNL     1      -0.875   4.930  -9.189  1.00  0.00     0.028 A 
ATOM     22  C   UNL     1       0.382   3.377 -10.550  1.00  0.00     0.134 A 
ATOM     23  C   UNL     1       1.164   3.033  -9.453  1.00  0.00     0.048 A 
ATOM     24  C   UNL     1       0.926   3.638  -8.217  1.00  0.00     0.008 A 
ATOM     25  Cl  UNL     1      -1.608   4.752 -11.781  1.00  0.00    -0.080 Cl
BRANCH  22  26
ATOM     26  O   UNL     1       0.647   2.748 -11.736  1.00  0.00    -0.506 OA
ATOM     27  H   UNL     1       1.568   2.966 -11.969  1.00  0.00     0.293 HD
ENDBRANCH  22  26
ENDBRANCH  18  19
ENDBRANCH  17  18
BRANCH  17  28
ATOM     28  O   UNL     1      -2.159   5.736  -5.161  1.00  0.00    -0.383 OA
ATOM     29  H   UNL     1      -1.436   5.691  -4.496  1.00  0.00     0.211 HD
ENDBRANCH  17  28
ENDBRANCH  14  17
ENDBRANCH  12  13
BRANCH  12  30
ATOM     30  C   UNL     1      -2.450   0.290  -7.630  1.00  0.00     0.018 C 
ATOM     31  C   UNL     1      -1.450  -0.830  -7.303  1.00  0.00     0.010 C 
BRANCH  30  32
ATOM     32  C   UNL     1      -1.931   1.135  -8.819  1.00  0.00     0.002 C 
ATOM     33  C   UNL     1      -2.954   1.418  -9.912  1.00  0.00     0.004 C 
ENDBRANCH  30  32
ENDBRANCH  12  30
ENDBRANCH  10  12
ENDBRANCH   1  10
BRANCH   5  34
ATOM     34  C   UNL     1      -7.262   1.973  -6.394  1.00  0.00     0.242 C 
ATOM     35  O   UNL     1      -7.516   1.317  -5.385  1.00  0.00    -0.273 OA
ATOM     36  N   UNL     1      -8.062   3.009  -6.823  1.00  0.00    -0.354 N 
ATOM     37  H   UNL     1      -7.869   3.436  -7.730  1.00  0.00     0.163 HD
BRANCH  36  38
ATOM     38  C   UNL     1      -9.100   3.580  -5.991  1.00  0.00     0.116 C 
BRANCH  38  39
ATOM     39  C   UNL     1      -8.720   5.004  -5.591  1.00  0.00     0.023 C 
BRANCH  39  40
ATOM     40  C   UNL     1      -8.571   5.165  -4.082  1.00  0.00     0.026 C 
BRANCH  40  41
ATOM     41  C   UNL     1      -7.109   5.397  -3.703  1.00  0.00     0.146 C 
BRANCH  41  42
ATOM     42  N   UNL     1      -6.857   4.869  -2.368  1.00  0.00    -0.254 NA
ATOM     43  C   UNL     1      -5.957   3.974  -2.201  1.00  0.00     0.185 C 
ATOM     44  N   UNL     1      -5.140   3.390  -3.097  1.00  0.00    -0.370 N 
ATOM     45  N   UNL     1      -5.742   3.497  -0.964  1.00  0.00    -0.370 N 
ATOM     46  H   UNL     1      -4.658   2.536  -2.871  1.00  0.00     0.159 HD
ATOM     47  H   UNL     1      -5.159   3.643  -4.080  1.00  0.00     0.159 HD
ATOM     48  H   UNL     1      -6.311   3.892  -0.227  1.00  0.00     0.159 HD
ATOM     49  H   UNL     1      -4.915   2.985  -0.714  1.00  0.00     0.159 HD
ENDBRANCH  41  42
ENDBRANCH  40  41
ENDBRANCH  39  40
ENDBRANCH  38  39
ENDBRANCH  36  38
ENDBRANCH   5  34
BRANCH   8  50
ATOM     50  O   UNL     1      -8.116  -2.676  -6.846  1.00  0.00    -0.245 OA
BRANCH  50  51
ATOM     51  S   UNL     1      -9.155  -3.916  -6.683  1.00  0.00     0.397 S 
ATOM     52  O   UNL     1      -8.434  -5.031  -6.111  1.00  0.00    -0.169 OA
ATOM     53  O   UNL     1      -9.936  -4.059  -7.894  1.00  0.00    -0.169 OA
BRANCH  51  54
ATOM     54  O   UNL     1     -10.133  -3.385  -5.522  1.00  0.00    -0.264 OA
ATOM     55  H   UNL     1     -10.327  -4.138  -4.928  1.00  0.00     0.236 HD
ENDBRANCH  51  54
ENDBRANCH  50  51
ENDBRANCH   8  50
TORSDOF 19
ENDMDL
MODEL 7
REMARK VINA RESULT:    -6.810      4.505      9.669
REMARK INTER + INTRA:         -17.861
REMARK INTER:                 -14.284
REMARK INTRA:                  -3.577
REMARK UNBOUND:                -4.083
REMARK SMILES CC[C@@H](C)[C@@H](NC(=O)[C@@H](O)Cc1ccc(O)c(Cl)c1)C(=O)N1[C@H](C(=O)NCCCCN=C(N)N)C[C@H]2CC[C@H](OS(=O)(=O)O)C[C@@H]21
REMARK SMILES IDX 22 1 36 2 46 3 35 4 23 5 45 6 37 7 39 8 38 9 20 10 21 11
REMARK SMILES IDX 5 12 6 13 7 14 8 15 9 17 11 18 12 19 17 20 19 21 15 22 14 23
REMARK SMILES IDX 13 24 18 25 16 26 10 28 3 30 4 31 2 32 1 33 24 34 25 35
REMARK SMILES IDX 26 36 27 38 28 39 29 40 30 41 31 42 32 43 33 44 34 45 40 50
REMARK SMILES IDX 41 51 42 52 43 53 44 54
REMARK H PARENT 6 16 16 27 10 29 26 37 33 46 33 47 34 48 34 49 44 55
ROOT
ATOM      1  N   UNL     1      -6.845   0.555  -5.416  1.00  0.00    -0.326 N 
ATOM      2  C   UNL     1      -6.608   2.895  -5.518  1.00  0.00     0.014 C 
ATOM      3  C   UNL     1      -7.407   1.780  -4.838  1.00  0.00     0.091 C 
ATOM      4  C   UNL     1      -6.368   2.334  -6.911  1.00  0.00     0.041 C 
ATOM      5  C   UNL     1      -5.959   0.893  -6.557  1.00  0.00     0.175 C 
ATOM      6  C   UNL     1      -7.318   1.974  -3.326  1.00  0.00     0.059 C 
ATOM      7  C   UNL     1      -7.306   4.232  -5.365  1.00  0.00     0.008 C 
ATOM      8  C   UNL     1      -7.208   3.453  -2.895  1.00  0.00     0.143 C 
ATOM      9  C   UNL     1      -7.841   4.406  -3.928  1.00  0.00     0.034 C 
ENDROOT
BRANCH   1  10
ATOM     10  C   UNL     1      -7.185  -0.768  -5.194  1.00  0.00     0.246 C 
ATOM     11  O   UNL     1      -7.032  -1.248  -4.066  1.00  0.00    -0.272 OA
BRANCH  10  12
ATOM     12  C   UNL     1      -7.792  -1.609  -6.355  1.00  0.00     0.174 C 
BRANCH  12  13
ATOM     13  N   UNL     1      -8.798  -2.532  -5.829  1.00  0.00    -0.342 N 
ATOM     14  C   UNL     1     -10.078  -2.667  -6.317  1.00  0.00     0.249 C 
ATOM     15  O   UNL     1     -10.513  -2.040  -7.275  1.00  0.00    -0.272 OA
ATOM     16  H   UNL     1      -8.635  -3.002  -4.942  1.00  0.00     0.164 HD
BRANCH  14  17
ATOM     17  C   UNL     1     -10.905  -3.712  -5.538  1.00  0.00     0.207 C 
BRANCH  17  18
ATOM     18  C   UNL     1     -10.102  -5.005  -5.359  1.00  0.00     0.077 C 
BRANCH  18  19
ATOM     19  C   UNL     1     -10.101  -5.472  -3.921  1.00  0.00    -0.043 A 
ATOM     20  C   UNL     1      -9.299  -6.983  -2.201  1.00  0.00     0.083 A 
ATOM     21  C   UNL     1      -9.261  -6.522  -3.517  1.00  0.00     0.028 A 
ATOM     22  C   UNL     1     -10.173  -6.402  -1.282  1.00  0.00     0.134 A 
ATOM     23  C   UNL     1     -11.011  -5.361  -1.668  1.00  0.00     0.048 A 
ATOM     24  C   UNL     1     -10.977  -4.899  -2.986  1.00  0.00     0.008 A 
ATOM     25  Cl  UNL     1      -8.259  -8.274  -1.724  1.00  0.00    -0.080 Cl
BRANCH  22  26
ATOM     26  O   UNL     1     -10.253  -6.827   0.016  1.00  0.00    -0.506 OA
ATOM     27  H   UNL     1     -10.735  -6.136   0.508  1.00  0.00     0.293 HD
ENDBRANCH  22  26
ENDBRANCH  18  19
ENDBRANCH  17  18
BRANCH  17  28
ATOM     28  O   UNL     1     -12.137  -4.006  -6.215  1.00  0.00    -0.383 OA
ATOM     29  H   UNL     1     -11.885  -4.406  -7.078  1.00  0.00     0.211 HD
ENDBRANCH  17  28
ENDBRANCH  14  17
ENDBRANCH  12  13
BRANCH  12  30
ATOM     30  C   UNL     1      -6.710  -2.331  -7.202  1.00  0.00     0.018 C 
ATOM     31  C   UNL     1      -6.874  -2.001  -8.694  1.00  0.00     0.010 C 
BRANCH  30  32
ATOM     32  C   UNL     1      -6.682  -3.865  -6.997  1.00  0.00     0.002 C 
ATOM     33  C   UNL     1      -5.627  -4.372  -6.021  1.00  0.00     0.004 C 
ENDBRANCH  30  32
ENDBRANCH  12  30
ENDBRANCH  10  12
ENDBRANCH   1  10
BRANCH   5  34
ATOM     34  C   UNL     1      -4.467   0.808  -6.138  1.00  0.00     0.242 C 
ATOM     35  O   UNL     1      -4.114   0.790  -4.959  1.00  0.00    -0.273 OA
ATOM     36  N   UNL     1      -3.565   0.808  -7.179  1.00  0.00    -0.354 N 
ATOM     37  H   UNL     1      -3.912   0.946  -8.129  1.00  0.00     0.163 HD
BRANCH  36  38
ATOM     38  C   UNL     1      -2.159   0.519  -6.985  1.00  0.00     0.116 C 
BRANCH  38  39
ATOM     39  C   UNL     1      -1.311   1.569  -7.699  1.00  0.00     0.023 C 
BRANCH  39  40
ATOM     40  C   UNL     1      -2.121   2.795  -8.105  1.00  0.00     0.026 C 
BRANCH  40  41
ATOM     41  C   UNL     1      -1.872   3.954  -7.139  1.00  0.00     0.146 C 
BRANCH  41  42
ATOM     42  N   UNL     1      -2.692   3.785  -5.946  1.00  0.00    -0.254 NA
ATOM     43  C   UNL     1      -2.129   3.629  -4.808  1.00  0.00     0.185 C 
ATOM     44  N   UNL     1      -0.823   3.590  -4.486  1.00  0.00    -0.370 N 
ATOM     45  N   UNL     1      -2.902   3.471  -3.721  1.00  0.00    -0.370 N 
ATOM     46  H   UNL     1      -0.523   3.219  -3.601  1.00  0.00     0.159 HD
ATOM     47  H   UNL     1      -0.098   3.707  -5.188  1.00  0.00     0.159 HD
ATOM     48  H   UNL     1      -3.901   3.496  -3.874  1.00  0.00     0.159 HD
ATOM     49  H   UNL     1      -2.554   3.580  -2.785  1.00  0.00     0.159 HD
ENDBRANCH  41  42
ENDBRANCH  40  41
ENDBRANCH  39  40
ENDBRANCH  38  39
ENDBRANCH  36  38
ENDBRANCH   5  34
BRANCH   8  50
ATOM     50  O   UNL     1      -5.836   3.813  -2.727  1.00  0.00    -0.245 OA
BRANCH  50  51
ATOM     51  S   UNL     1      -5.380   4.641  -1.403  1.00  0.00     0.397 S 
ATOM     52  O   UNL     1      -6.366   5.668  -1.157  1.00  0.00    -0.169 OA
ATOM     53  O   UNL     1      -3.967   4.948  -1.485  1.00  0.00    -0.169 OA
BRANCH  51  54
ATOM     54  O   UNL     1      -5.583   3.551  -0.239  1.00  0.00    -0.264 OA
ATOM     55  H   UNL     1      -6.536   3.528  -0.014  1.00  0.00     0.236 HD
ENDBRANCH  51  54
ENDBRANCH  50  51
ENDBRANCH   8  50
TORSDOF 19
ENDMDL
MODEL 8
REMARK VINA RESULT:    -6.801      4.029      8.693
REMARK INTER + INTRA:         -17.841
REMARK INTER:                 -15.265
REMARK INTRA:                  -2.576
REMARK UNBOUND:                -4.083
REMARK SMILES CC[C@@H](C)[C@@H](NC(=O)[C@@H](O)Cc1ccc(O)c(Cl)c1)C(=O)N1[C@H](C(=O)NCCCCN=C(N)N)C[C@H]2CC[C@H](OS(=O)(=O)O)C[C@@H]21
REMARK SMILES IDX 22 1 36 2 46 3 35 4 23 5 45 6 37 7 39 8 38 9 20 10 21 11
REMARK SMILES IDX 5 12 6 13 7 14 8 15 9 17 11 18 12 19 17 20 19 21 15 22 14 23
REMARK SMILES IDX 13 24 18 25 16 26 10 28 3 30 4 31 2 32 1 33 24 34 25 35
REMARK SMILES IDX 26 36 27 38 28 39 29 40 30 41 31 42 32 43 33 44 34 45 40 50
REMARK SMILES IDX 41 51 42 52 43 53 44 54
REMARK H PARENT 6 16 16 27 10 29 26 37 33 46 33 47 34 48 34 49 44 55
ROOT
ATOM      1  N   UNL     1      -6.856   1.092  -5.515  1.00  0.00    -0.326 N 
ATOM      2  C   UNL     1      -6.617   3.431  -5.627  1.00  0.00     0.014 C 
ATOM      3  C   UNL     1      -6.740   2.264  -4.643  1.00  0.00     0.091 C 
ATOM      4  C   UNL     1      -7.503   2.990  -6.781  1.00  0.00     0.041 C 
ATOM      5  C   UNL     1      -7.060   1.522  -6.920  1.00  0.00     0.175 C 
ATOM      6  C   UNL     1      -5.565   2.328  -3.668  1.00  0.00     0.059 C 
ATOM      7  C   UNL     1      -6.896   4.753  -4.938  1.00  0.00     0.008 C 
ATOM      8  C   UNL     1      -5.080   3.764  -3.374  1.00  0.00     0.143 C 
ATOM      9  C   UNL     1      -6.203   4.805  -3.560  1.00  0.00     0.034 C 
ENDROOT
BRANCH   1  10
ATOM     10  C   UNL     1      -7.012  -0.245  -5.189  1.00  0.00     0.246 C 
ATOM     11  O   UNL     1      -6.920  -0.590  -4.006  1.00  0.00    -0.272 OA
BRANCH  10  12
ATOM     12  C   UNL     1      -7.343  -1.274  -6.309  1.00  0.00     0.174 C 
BRANCH  12  13
ATOM     13  N   UNL     1      -8.518  -2.060  -5.933  1.00  0.00    -0.342 N 
ATOM     14  C   UNL     1      -9.822  -1.705  -6.194  1.00  0.00     0.249 C 
ATOM     15  O   UNL     1     -10.145  -0.692  -6.802  1.00  0.00    -0.272 OA
ATOM     16  H   UNL     1      -8.416  -2.841  -5.290  1.00  0.00     0.164 HD
BRANCH  14  17
ATOM     17  C   UNL     1     -10.838  -2.735  -5.655  1.00  0.00     0.207 C 
BRANCH  17  18
ATOM     18  C   UNL     1     -10.434  -4.153  -6.069  1.00  0.00     0.077 C 
BRANCH  18  19
ATOM     19  C   UNL     1     -10.212  -5.047  -4.869  1.00  0.00    -0.043 A 
ATOM     20  C   UNL     1     -10.144  -5.361  -2.465  1.00  0.00     0.083 A 
ATOM     21  C   UNL     1     -10.397  -4.548  -3.570  1.00  0.00     0.028 A 
ATOM     22  C   UNL     1      -9.702  -6.672  -2.649  1.00  0.00     0.134 A 
ATOM     23  C   UNL     1      -9.515  -7.178  -3.929  1.00  0.00     0.048 A 
ATOM     24  C   UNL     1      -9.766  -6.367  -5.038  1.00  0.00     0.008 A 
ATOM     25  Cl  UNL     1     -10.377  -4.730  -0.877  1.00  0.00    -0.080 Cl
BRANCH  22  26
ATOM     26  O   UNL     1      -9.430  -7.503  -1.595  1.00  0.00    -0.506 OA
ATOM     27  H   UNL     1      -8.504  -7.337  -1.340  1.00  0.00     0.293 HD
ENDBRANCH  22  26
ENDBRANCH  18  19
ENDBRANCH  17  18
BRANCH  17  28
ATOM     28  O   UNL     1     -12.162  -2.456  -6.137  1.00  0.00    -0.383 OA
ATOM     29  H   UNL     1     -12.138  -1.534  -6.480  1.00  0.00     0.211 HD
ENDBRANCH  17  28
ENDBRANCH  14  17
ENDBRANCH  12  13
BRANCH  12  30
ATOM     30  C   UNL     1      -6.128  -2.165  -6.682  1.00  0.00     0.018 C 
ATOM     31  C   UNL     1      -5.995  -2.297  -8.207  1.00  0.00     0.010 C 
BRANCH  30  32
ATOM     32  C   UNL     1      -6.163  -3.568  -6.028  1.00  0.00     0.002 C 
ATOM     33  C   UNL     1      -6.312  -4.734  -6.997  1.00  0.00     0.004 C 
ENDBRANCH  30  32
ENDBRANCH  12  30
ENDBRANCH  10  12
ENDBRANCH   1  10
BRANCH   5  34
ATOM     34  C   UNL     1      -5.743   1.397  -7.731  1.00  0.00     0.242 C 
ATOM     35  O   UNL     1      -5.723   1.421  -8.961  1.00  0.00    -0.273 OA
ATOM     36  N   UNL     1      -4.607   1.201  -6.977  1.00  0.00    -0.354 N 
ATOM     37  H   UNL     1      -4.703   1.069  -5.969  1.00  0.00     0.163 HD
BRANCH  36  38
ATOM     38  C   UNL     1      -3.278   1.279  -7.547  1.00  0.00     0.116 C 
BRANCH  38  39
ATOM     39  C   UNL     1      -2.383   0.212  -6.920  1.00  0.00     0.023 C 
BRANCH  39  40
ATOM     40  C   UNL     1      -2.517  -1.140  -7.612  1.00  0.00     0.026 C 
BRANCH  40  41
ATOM     41  C   UNL     1      -1.251  -1.975  -7.419  1.00  0.00     0.146 C 
BRANCH  41  42
ATOM     42  N   UNL     1      -0.635  -2.242  -8.712  1.00  0.00    -0.254 NA
ATOM     43  C   UNL     1      -0.413  -3.451  -9.071  1.00  0.00     0.185 C 
ATOM     44  N   UNL     1      -0.664  -4.605  -8.426  1.00  0.00    -0.370 N 
ATOM     45  N   UNL     1       0.159  -3.675 -10.265  1.00  0.00    -0.370 N 
ATOM     46  H   UNL     1      -0.220  -5.460  -8.713  1.00  0.00     0.159 HD
ATOM     47  H   UNL     1      -1.108  -4.619  -7.513  1.00  0.00     0.159 HD
ATOM     48  H   UNL     1       0.373  -2.858 -10.820  1.00  0.00     0.159 HD
ATOM     49  H   UNL     1       0.148  -4.574 -10.713  1.00  0.00     0.159 HD
ENDBRANCH  41  42
ENDBRANCH  40  41
ENDBRANCH  39  40
ENDBRANCH  38  39
ENDBRANCH  36  38
ENDBRANCH   5  34
BRANCH   8  50
ATOM     50  O   UNL     1      -3.998   4.104  -4.242  1.00  0.00    -0.245 OA
BRANCH  50  51
ATOM     51  S   UNL     1      -2.639   4.745  -3.619  1.00  0.00     0.397 S 
ATOM     52  O   UNL     1      -2.970   5.337  -2.343  1.00  0.00    -0.169 OA
ATOM     53  O   UNL     1      -1.940   5.492  -4.645  1.00  0.00    -0.169 OA
BRANCH  51  54
ATOM     54  O   UNL     1      -1.773   3.433  -3.283  1.00  0.00    -0.264 OA
ATOM     55  H   UNL     1      -2.109   3.061  -2.442  1.00  0.00     0.236 HD
ENDBRANCH  51  54
ENDBRANCH  50  51
ENDBRANCH   8  50
TORSDOF 19
ENDMDL
MODEL 9
REMARK VINA RESULT:    -6.795      7.697     11.845
REMARK INTER + INTRA:         -17.829
REMARK INTER:                 -13.391
REMARK INTRA:                  -4.438
REMARK UNBOUND:                -4.083
REMARK SMILES CC[C@@H](C)[C@@H](NC(=O)[C@@H](O)Cc1ccc(O)c(Cl)c1)C(=O)N1[C@H](C(=O)NCCCCN=C(N)N)C[C@H]2CC[C@H](OS(=O)(=O)O)C[C@@H]21
REMARK SMILES IDX 22 1 36 2 46 3 35 4 23 5 45 6 37 7 39 8 38 9 20 10 21 11
REMARK SMILES IDX 5 12 6 13 7 14 8 15 9 17 11 18 12 19 17 20 19 21 15 22 14 23
REMARK SMILES IDX 13 24 18 25 16 26 10 28 3 30 4 31 2 32 1 33 24 34 25 35
REMARK SMILES IDX 26 36 27 38 28 39 29 40 30 41 31 42 32 43 33 44 34 45 40 50
REMARK SMILES IDX 41 51 42 52 43 53 44 54
REMARK H PARENT 6 16 16 27 10 29 26 37 33 46 33 47 34 48 34 49 44 55
ROOT
ATOM      1  N   UNL     1      -9.495  -1.300  -3.444  1.00  0.00    -0.326 N 
ATOM      2  C   UNL     1     -11.303   0.081  -2.842  1.00  0.00     0.014 C 
ATOM      3  C   UNL     1     -10.581  -0.524  -4.049  1.00  0.00     0.091 C 
ATOM      4  C   UNL     1     -10.166   0.338  -1.865  1.00  0.00     0.041 C 
ATOM      5  C   UNL     1      -9.389  -0.985  -1.998  1.00  0.00     0.175 C 
ATOM      6  C   UNL     1     -11.607  -1.261  -4.907  1.00  0.00     0.059 C 
ATOM      7  C   UNL     1     -12.194   1.233  -3.265  1.00  0.00     0.008 C 
ATOM      8  C   UNL     1     -13.016  -0.630  -4.869  1.00  0.00     0.143 C 
ATOM      9  C   UNL     1     -12.967   0.878  -4.552  1.00  0.00     0.034 C 
ENDROOT
BRANCH   1  10
ATOM     10  C   UNL     1      -8.499  -2.052  -4.045  1.00  0.00     0.246 C 
ATOM     11  O   UNL     1      -7.317  -1.759  -3.838  1.00  0.00    -0.272 OA
BRANCH  10  12
ATOM     12  C   UNL     1      -8.888  -3.272  -4.930  1.00  0.00     0.174 C 
BRANCH  12  13
ATOM     13  N   UNL     1      -8.914  -4.489  -4.119  1.00  0.00    -0.342 N 
ATOM     14  C   UNL     1      -9.985  -5.347  -4.016  1.00  0.00     0.249 C 
ATOM     15  O   UNL     1     -11.039  -5.199  -4.623  1.00  0.00    -0.272 OA
ATOM     16  H   UNL     1      -8.174  -4.658  -3.442  1.00  0.00     0.164 HD
BRANCH  14  17
ATOM     17  C   UNL     1      -9.709  -6.533  -3.068  1.00  0.00     0.207 C 
BRANCH  17  18
ATOM     18  C   UNL     1      -8.451  -6.271  -2.234  1.00  0.00     0.077 C 
BRANCH  18  19
ATOM     19  C   UNL     1      -8.633  -6.692  -0.793  1.00  0.00    -0.043 A 
ATOM     20  C   UNL     1      -9.973  -6.743   1.228  1.00  0.00     0.083 A 
ATOM     21  C   UNL     1      -9.827  -6.397  -0.115  1.00  0.00     0.028 A 
ATOM     22  C   UNL     1      -8.931  -7.382   1.902  1.00  0.00     0.134 A 
ATOM     23  C   UNL     1      -7.744  -7.679   1.243  1.00  0.00     0.048 A 
ATOM     24  C   UNL     1      -7.594  -7.333  -0.102  1.00  0.00     0.008 A 
ATOM     25  Cl  UNL     1     -11.446  -6.373   2.044  1.00  0.00    -0.080 Cl
BRANCH  22  26
ATOM     26  O   UNL     1      -9.024  -7.731   3.223  1.00  0.00    -0.506 OA
ATOM     27  H   UNL     1      -8.343  -7.218   3.697  1.00  0.00     0.293 HD
ENDBRANCH  22  26
ENDBRANCH  18  19
ENDBRANCH  17  18
BRANCH  17  28
ATOM     28  O   UNL     1      -9.546  -7.757  -3.803  1.00  0.00    -0.383 OA
ATOM     29  H   UNL     1      -8.613  -7.764  -4.117  1.00  0.00     0.211 HD
ENDBRANCH  17  28
ENDBRANCH  14  17
ENDBRANCH  12  13
BRANCH  12  30
ATOM     30  C   UNL     1      -7.985  -3.415  -6.184  1.00  0.00     0.018 C 
ATOM     31  C   UNL     1      -8.831  -3.675  -7.440  1.00  0.00     0.010 C 
BRANCH  30  32
ATOM     32  C   UNL     1      -6.893  -4.504  -6.043  1.00  0.00     0.002 C 
ATOM     33  C   UNL     1      -6.502  -5.205  -7.338  1.00  0.00     0.004 C 
ENDBRANCH  30  32
ENDBRANCH  12  30
ENDBRANCH  10  12
ENDBRANCH   1  10
BRANCH   5  34
ATOM     34  C   UNL     1     -10.027  -2.111  -1.141  1.00  0.00     0.242 C 
ATOM     35  O   UNL     1     -10.582  -3.088  -1.645  1.00  0.00    -0.273 OA
ATOM     36  N   UNL     1      -9.975  -1.913   0.220  1.00  0.00    -0.354 N 
ATOM     37  H   UNL     1      -9.609  -1.028   0.574  1.00  0.00     0.163 HD
BRANCH  36  38
ATOM     38  C   UNL     1     -10.323  -2.951   1.168  1.00  0.00     0.116 C 
BRANCH  38  39
ATOM     39  C   UNL     1     -10.576  -2.336   2.542  1.00  0.00     0.023 C 
BRANCH  39  40
ATOM     40  C   UNL     1     -11.481  -1.111   2.474  1.00  0.00     0.026 C 
BRANCH  40  41
ATOM     41  C   UNL     1     -12.949  -1.526   2.366  1.00  0.00     0.146 C 
BRANCH  41  42
ATOM     42  N   UNL     1     -13.248  -1.925   0.997  1.00  0.00    -0.254 NA
ATOM     43  C   UNL     1     -13.790  -1.086   0.197  1.00  0.00     0.185 C 
ATOM     44  N   UNL     1     -14.161   0.191   0.403  1.00  0.00    -0.370 N 
ATOM     45  N   UNL     1     -14.062  -1.475  -1.060  1.00  0.00    -0.370 N 
ATOM     46  H   UNL     1     -14.792   0.650  -0.231  1.00  0.00     0.159 HD
ATOM     47  H   UNL     1     -14.015   0.650   1.296  1.00  0.00     0.159 HD
ATOM     48  H   UNL     1     -13.805  -2.423  -1.301  1.00  0.00     0.159 HD
ATOM     49  H   UNL     1     -14.259  -0.825  -1.800  1.00  0.00     0.159 HD
ENDBRANCH  41  42
ENDBRANCH  40  41
ENDBRANCH  39  40
ENDBRANCH  38  39
ENDBRANCH  36  38
ENDBRANCH   5  34
BRANCH   8  50
ATOM     50  O   UNL     1     -13.816  -1.276  -3.878  1.00  0.00    -0.245 OA
BRANCH  50  51
ATOM     51  S   UNL     1     -14.238  -2.834  -4.077  1.00  0.00     0.397 S 
ATOM     52  O   UNL     1     -14.025  -3.180  -5.464  1.00  0.00    -0.169 OA
ATOM     53  O   UNL     1     -15.503  -3.083  -3.417  1.00  0.00    -0.169 OA
BRANCH  51  54
ATOM     54  O   UNL     1     -13.090  -3.601  -3.253  1.00  0.00    -0.264 OA
ATOM     55  H   UNL     1     -12.249  -3.121  -3.397  1.00  0.00     0.236 HD
ENDBRANCH  51  54
ENDBRANCH  50  51
ENDBRANCH   8  50
TORSDOF 19
ENDMDL
MODEL 10
REMARK VINA RESULT:    -6.793      2.943      6.314
REMARK INTER + INTRA:         -17.825
REMARK INTER:                 -14.330
REMARK INTRA:                  -3.495
REMARK UNBOUND:                -4.083
REMARK SMILES CC[C@@H](C)[C@@H](NC(=O)[C@@H](O)Cc1ccc(O)c(Cl)c1)C(=O)N1[C@H](C(=O)NCCCCN=C(N)N)C[C@H]2CC[C@H](OS(=O)(=O)O)C[C@@H]21
REMARK SMILES IDX 22 1 36 2 46 3 35 4 23 5 45 6 37 7 39 8 38 9 20 10 21 11
REMARK SMILES IDX 5 12 6 13 7 14 8 15 9 17 11 18 12 19 17 20 19 21 15 22 14 23
REMARK SMILES IDX 13 24 18 25 16 26 10 28 3 30 4 31 2 32 1 33 24 34 25 35
REMARK SMILES IDX 26 36 27 38 28 39 29 40 30 41 31 42 32 43 33 44 34 45 40 50
REMARK SMILES IDX 41 51 42 52 43 53 44 54
REMARK H PARENT 6 16 16 27 10 29 26 37 33 46 33 47 34 48 34 49 44 55
ROOT
ATOM      1  N   UNL     1      -4.683  -0.015  -7.639  1.00  0.00    -0.326 N 
ATOM      2  C   UNL     1      -6.236  -1.127  -9.016  1.00  0.00     0.014 C 
ATOM      3  C   UNL     1      -5.219  -1.355  -7.894  1.00  0.00     0.091 C 
ATOM      4  C   UNL     1      -5.592  -0.016  -9.831  1.00  0.00     0.041 C 
ATOM      5  C   UNL     1      -5.134   0.922  -8.698  1.00  0.00     0.175 C 
ATOM      6  C   UNL     1      -5.918  -2.085  -6.749  1.00  0.00     0.059 C 
ATOM      7  C   UNL     1      -6.596  -2.433  -9.695  1.00  0.00     0.008 C 
ATOM      8  C   UNL     1      -7.041  -3.038  -7.214  1.00  0.00     0.143 C 
ATOM      9  C   UNL     1      -6.810  -3.549  -8.650  1.00  0.00     0.034 C 
ENDROOT
BRANCH   1  10
ATOM     10  C   UNL     1      -3.713   0.398  -6.742  1.00  0.00     0.246 C 
ATOM     11  O   UNL     1      -4.061   0.853  -5.647  1.00  0.00    -0.272 OA
BRANCH  10  12
ATOM     12  C   UNL     1      -2.210   0.240  -7.112  1.00  0.00     0.174 C 
BRANCH  12  13
ATOM     13  N   UNL     1      -1.720   1.466  -7.742  1.00  0.00    -0.342 N 
ATOM     14  C   UNL     1      -0.586   2.150  -7.365  1.00  0.00     0.249 C 
ATOM     15  O   UNL     1       0.162   1.787  -6.466  1.00  0.00    -0.272 OA
ATOM     16  H   UNL     1      -2.316   1.970  -8.394  1.00  0.00     0.164 HD
BRANCH  14  17
ATOM     17  C   UNL     1      -0.345   3.417  -8.213  1.00  0.00     0.207 C 
BRANCH  17  18
ATOM     18  C   UNL     1      -1.523   4.387  -8.073  1.00  0.00     0.077 C 
BRANCH  18  19
ATOM     19  C   UNL     1      -1.763   4.776  -6.632  1.00  0.00    -0.043 A 
ATOM     20  C   UNL     1      -3.277   5.093  -4.763  1.00  0.00     0.083 A 
ATOM     21  C   UNL     1      -3.050   4.686  -6.078  1.00  0.00     0.028 A 
ATOM     22  C   UNL     1      -2.224   5.593  -3.995  1.00  0.00     0.134 A 
ATOM     23  C   UNL     1      -0.945   5.687  -4.531  1.00  0.00     0.048 A 
ATOM     24  C   UNL     1      -0.715   5.282  -5.847  1.00  0.00     0.008 A 
ATOM     25  Cl  UNL     1      -4.865   4.975  -4.101  1.00  0.00    -0.080 Cl
BRANCH  22  26
ATOM     26  O   UNL     1      -2.401   6.014  -2.705  1.00  0.00    -0.506 OA
ATOM     27  H   UNL     1      -1.657   5.652  -2.188  1.00  0.00     0.293 HD
ENDBRANCH  22  26
ENDBRANCH  18  19
ENDBRANCH  17  18
BRANCH  17  28
ATOM     28  O   UNL     1      -0.163   3.085  -9.598  1.00  0.00    -0.383 OA
ATOM     29  H   UNL     1       0.647   2.527  -9.640  1.00  0.00     0.211 HD
ENDBRANCH  17  28
ENDBRANCH  14  17
ENDBRANCH  12  13
BRANCH  12  30
ATOM     30  C   UNL     1      -1.933  -1.021  -7.974  1.00  0.00     0.018 C 
ATOM     31  C   UNL     1      -0.956  -1.968  -7.259  1.00  0.00     0.010 C 
BRANCH  30  32
ATOM     32  C   UNL     1      -1.416  -0.699  -9.397  1.00  0.00     0.002 C 
ATOM     33  C   UNL     1      -2.289  -1.207 -10.537  1.00  0.00     0.004 C 
ENDBRANCH  30  32
ENDBRANCH  12  30
ENDBRANCH  10  12
ENDBRANCH   1  10
BRANCH   5  34
ATOM     34  C   UNL     1      -6.297   1.813  -8.187  1.00  0.00     0.242 C 
ATOM     35  O   UNL     1      -7.160   2.265  -8.940  1.00  0.00    -0.273 OA
ATOM     36  N   UNL     1      -6.264   2.104  -6.841  1.00  0.00    -0.354 N 
ATOM     37  H   UNL     1      -5.459   1.800  -6.293  1.00  0.00     0.163 HD
BRANCH  36  38
ATOM     38  C   UNL     1      -7.375   2.734  -6.159  1.00  0.00     0.116 C 
BRANCH  38  39
ATOM     39  C   UNL     1      -8.410   1.681  -5.770  1.00  0.00     0.023 C 
BRANCH  39  40
ATOM     40  C   UNL     1      -8.773   1.740  -4.290  1.00  0.00     0.026 C 
BRANCH  40  41
ATOM     41  C   UNL     1      -8.105   2.939  -3.615  1.00  0.00     0.146 C 
BRANCH  41  42
ATOM     42  N   UNL     1      -7.684   2.574  -2.269  1.00  0.00    -0.254 NA
ATOM     43  C   UNL     1      -6.543   2.024  -2.090  1.00  0.00     0.185 C 
ATOM     44  N   UNL     1      -5.590   1.697  -2.982  1.00  0.00    -0.370 N 
ATOM     45  N   UNL     1      -6.175   1.691  -0.842  1.00  0.00    -0.370 N 
ATOM     46  H   UNL     1      -4.857   1.053  -2.737  1.00  0.00     0.159 HD
ATOM     47  H   UNL     1      -5.699   1.891  -3.973  1.00  0.00     0.159 HD
ATOM     48  H   UNL     1      -6.833   1.911  -0.107  1.00  0.00     0.159 HD
ATOM     49  H   UNL     1      -5.225   1.482  -0.592  1.00  0.00     0.159 HD
ENDBRANCH  41  42
ENDBRANCH  40  41
ENDBRANCH  39  40
ENDBRANCH  38  39
ENDBRANCH  36  38
ENDBRANCH   5  34
BRANCH   8  50
ATOM     50  O   UNL     1      -8.302  -2.369  -7.167  1.00  0.00    -0.245 OA
BRANCH  50  51
ATOM     51  S   UNL     1      -9.666  -3.238  -6.993  1.00  0.00     0.397 S 
ATOM     52  O   UNL     1     -10.718  -2.338  -6.580  1.00  0.00    -0.169 OA
ATOM     53  O   UNL     1      -9.377  -4.455  -6.262  1.00  0.00    -0.169 OA
BRANCH  51  54
ATOM     54  O   UNL     1     -10.004  -3.640  -8.512  1.00  0.00    -0.264 OA
ATOM     55  H   UNL     1      -9.288  -3.291  -9.080  1.00  0.00     0.236 HD
ENDBRANCH  51  54
ENDBRANCH  50  51
ENDBRANCH   8  50
TORSDOF 19
ENDMDL
MODEL 11
REMARK VINA RESULT:    -6.741      4.118      7.704
REMARK INTER + INTRA:         -17.720
REMARK INTER:                 -14.544
REMARK INTRA:                  -3.176
REMARK UNBOUND:                -4.083
REMARK SMILES CC[C@@H](C)[C@@H](NC(=O)[C@@H](O)Cc1ccc(O)c(Cl)c1)C(=O)N1[C@H](C(=O)NCCCCN=C(N)N)C[C@H]2CC[C@H](OS(=O)(=O)O)C[C@@H]21
REMARK SMILES IDX 22 1 36 2 46 3 35 4 23 5 45 6 37 7 39 8 38 9 20 10 21 11
REMARK SMILES IDX 5 12 6 13 7 14 8 15 9 17 11 18 12 19 17 20 19 21 15 22 14 23
REMARK SMILES IDX 13 24 18 25 16 26 10 28 3 30 4 31 2 32 1 33 24 34 25 35
REMARK SMILES IDX 26 36 27 38 28 39 29 40 30 41 31 42 32 43 33 44 34 45 40 50
REMARK SMILES IDX 41 51 42 52 43 53 44 54
REMARK H PARENT 6 16 16 27 10 29 26 37 33 46 33 47 34 48 34 49 44 55
ROOT
ATOM      1  N   UNL     1      -8.352  -2.980  -5.248  1.00  0.00    -0.326 N 
ATOM      2  C   UNL     1      -9.759  -4.865  -5.352  1.00  0.00     0.014 C 
ATOM      3  C   UNL     1      -8.435  -4.363  -4.768  1.00  0.00     0.091 C 
ATOM      4  C   UNL     1      -9.827  -4.150  -6.692  1.00  0.00     0.041 C 
ATOM      5  C   UNL     1      -9.403  -2.732  -6.266  1.00  0.00     0.175 C 
ATOM      6  C   UNL     1      -8.449  -4.607  -3.260  1.00  0.00     0.059 C 
ATOM      7  C   UNL     1      -9.829  -6.379  -5.313  1.00  0.00     0.008 C 
ATOM      8  C   UNL     1      -9.252  -5.857  -2.840  1.00  0.00     0.143 C 
ATOM      9  C   UNL     1      -9.308  -6.913  -3.962  1.00  0.00     0.034 C 
ENDROOT
BRANCH   1  10
ATOM     10  C   UNL     1      -7.363  -2.031  -5.054  1.00  0.00     0.246 C 
ATOM     11  O   UNL     1      -7.398  -1.325  -4.041  1.00  0.00    -0.272 OA
BRANCH  10  12
ATOM     12  C   UNL     1      -6.209  -1.904  -6.089  1.00  0.00     0.174 C 
BRANCH  12  13
ATOM     13  N   UNL     1      -6.189  -0.553  -6.650  1.00  0.00    -0.342 N 
ATOM     14  C   UNL     1      -5.489   0.510  -6.125  1.00  0.00     0.249 C 
ATOM     15  O   UNL     1      -4.776   0.434  -5.133  1.00  0.00    -0.272 OA
ATOM     16  H   UNL     1      -6.853  -0.300  -7.378  1.00  0.00     0.164 HD
BRANCH  14  17
ATOM     17  C   UNL     1      -5.685   1.809  -6.936  1.00  0.00     0.207 C 
BRANCH  17  18
ATOM     18  C   UNL     1      -4.692   1.868  -8.101  1.00  0.00     0.077 C 
BRANCH  18  19
ATOM     19  C   UNL     1      -3.266   2.009  -7.618  1.00  0.00    -0.043 A 
ATOM     20  C   UNL     1      -1.434   3.401  -6.848  1.00  0.00     0.083 A 
ATOM     21  C   UNL     1      -2.765   3.266  -7.246  1.00  0.00     0.028 A 
ATOM     22  C   UNL     1      -0.598   2.285  -6.820  1.00  0.00     0.134 A 
ATOM     23  C   UNL     1      -1.081   1.034  -7.186  1.00  0.00     0.048 A 
ATOM     24  C   UNL     1      -2.411   0.896  -7.586  1.00  0.00     0.008 A 
ATOM     25  Cl  UNL     1      -0.837   4.954  -6.395  1.00  0.00    -0.080 Cl
BRANCH  22  26
ATOM     26  O   UNL     1       0.717   2.369  -6.447  1.00  0.00    -0.506 OA
ATOM     27  H   UNL     1       1.230   2.517  -7.263  1.00  0.00     0.293 HD
ENDBRANCH  22  26
ENDBRANCH  18  19
ENDBRANCH  17  18
BRANCH  17  28
ATOM     28  O   UNL     1      -5.512   2.968  -6.104  1.00  0.00    -0.383 OA
ATOM     29  H   UNL     1      -5.896   2.735  -5.229  1.00  0.00     0.211 HD
ENDBRANCH  17  28
ENDBRANCH  14  17
ENDBRANCH  12  13
BRANCH  12  30
ATOM     30  C   UNL     1      -6.264  -3.000  -7.187  1.00  0.00     0.018 C 
ATOM     31  C   UNL     1      -5.301  -4.152  -6.857  1.00  0.00     0.010 C 
BRANCH  30  32
ATOM     32  C   UNL     1      -5.986  -2.466  -8.613  1.00  0.00     0.002 C 
ATOM     33  C   UNL     1      -6.954  -2.944  -9.688  1.00  0.00     0.004 C 
ENDBRANCH  30  32
ENDBRANCH  12  30
ENDBRANCH  10  12
ENDBRANCH   1  10
BRANCH   5  34
ATOM     34  C   UNL     1     -10.588  -1.941  -5.652  1.00  0.00     0.242 C 
ATOM     35  O   UNL     1     -11.740  -2.048  -6.073  1.00  0.00    -0.273 OA
ATOM     36  N   UNL     1     -10.250  -1.071  -4.640  1.00  0.00    -0.354 N 
ATOM     37  H   UNL     1      -9.263  -0.937  -4.416  1.00  0.00     0.163 HD
BRANCH  36  38
ATOM     38  C   UNL     1     -11.246  -0.419  -3.815  1.00  0.00     0.116 C 
BRANCH  38  39
ATOM     39  C   UNL     1     -10.993   1.087  -3.789  1.00  0.00     0.023 C 
BRANCH  39  40
ATOM     40  C   UNL     1      -9.573   1.446  -4.213  1.00  0.00     0.026 C 
BRANCH  40  41
ATOM     41  C   UNL     1      -8.734   1.860  -3.004  1.00  0.00     0.146 C 
BRANCH  41  42
ATOM     42  N   UNL     1      -7.447   2.376  -3.450  1.00  0.00    -0.254 NA
ATOM     43  C   UNL     1      -6.402   2.174  -2.738  1.00  0.00     0.185 C 
ATOM     44  N   UNL     1      -6.265   1.526  -1.567  1.00  0.00    -0.370 N 
ATOM     45  N   UNL     1      -5.226   2.662  -3.165  1.00  0.00    -0.370 N 
ATOM     46  H   UNL     1      -5.443   1.654  -1.003  1.00  0.00     0.159 HD
ATOM     47  H   UNL     1      -7.055   1.083  -1.108  1.00  0.00     0.159 HD
ATOM     48  H   UNL     1      -5.239   3.158  -4.046  1.00  0.00     0.159 HD
ATOM     49  H   UNL     1      -4.343   2.351  -2.799  1.00  0.00     0.159 HD
ENDBRANCH  41  42
ENDBRANCH  40  41
ENDBRANCH  39  40
ENDBRANCH  38  39
ENDBRANCH  36  38
ENDBRANCH   5  34
BRANCH   8  50
ATOM     50  O   UNL     1     -10.588  -5.489  -2.497  1.00  0.00    -0.245 OA
BRANCH  50  51
ATOM     51  S   UNL     1     -11.207  -5.953  -1.066  1.00  0.00     0.397 S 
ATOM     52  O   UNL     1     -11.684  -4.773  -0.382  1.00  0.00    -0.169 OA
ATOM     53  O   UNL     1     -10.305  -6.889  -0.427  1.00  0.00    -0.169 OA
BRANCH  51  54
ATOM     54  O   UNL     1     -12.522  -6.761  -1.516  1.00  0.00    -0.264 OA
ATOM     55  H   UNL     1     -12.399  -7.038  -2.446  1.00  0.00     0.236 HD
ENDBRANCH  51  54
ENDBRANCH  50  51
ENDBRANCH   8  50
TORSDOF 19
ENDMDL
MODEL 12
REMARK VINA RESULT:    -6.660     12.556     15.758
REMARK INTER + INTRA:         -17.557
REMARK INTER:                 -14.231
REMARK INTRA:                  -3.327
REMARK UNBOUND:                -4.083
REMARK SMILES CC[C@@H](C)[C@@H](NC(=O)[C@@H](O)Cc1ccc(O)c(Cl)c1)C(=O)N1[C@H](C(=O)NCCCCN=C(N)N)C[C@H]2CC[C@H](OS(=O)(=O)O)C[C@@H]21
REMARK SMILES IDX 22 1 36 2 46 3 35 4 23 5 45 6 37 7 39 8 38 9 20 10 21 11
REMARK SMILES IDX 5 12 6 13 7 14 8 15 9 17 11 18 12 19 17 20 19 21 15 22 14 23
REMARK SMILES IDX 13 24 18 25 16 26 10 28 3 30 4 31 2 32 1 33 24 34 25 35
REMARK SMILES IDX 26 36 27 38 28 39 29 40 30 41 31 42 32 43 33 44 34 45 40 50
REMARK SMILES IDX 41 51 42 52 43 53 44 54
REMARK H PARENT 6 16 16 27 10 29 26 37 33 46 33 47 34 48 34 49 44 55
ROOT
ATOM      1  N   UNL     1     -10.099  -6.128   4.715  1.00  0.00    -0.326 N 
ATOM      2  C   UNL     1      -8.354  -5.541   3.248  1.00  0.00     0.014 C 
ATOM      3  C   UNL     1      -8.839  -6.653   4.183  1.00  0.00     0.091 C 
ATOM      4  C   UNL     1      -8.819  -4.280   3.960  1.00  0.00     0.041 C 
ATOM      5  C   UNL     1     -10.248  -4.698   4.350  1.00  0.00     0.175 C 
ATOM      6  C   UNL     1      -8.874  -7.963   3.397  1.00  0.00     0.059 C 
ATOM      7  C   UNL     1      -6.884  -5.711   2.919  1.00  0.00     0.008 C 
ATOM      8  C   UNL     1      -7.794  -8.057   2.298  1.00  0.00     0.143 C 
ATOM      9  C   UNL     1      -6.560  -7.190   2.621  1.00  0.00     0.034 C 
ENDROOT
BRANCH   1  10
ATOM     10  C   UNL     1     -10.979  -6.688   5.626  1.00  0.00     0.246 C 
ATOM     11  O   UNL     1     -11.833  -7.486   5.225  1.00  0.00    -0.272 OA
BRANCH  10  12
ATOM     12  C   UNL     1     -10.848  -6.334   7.136  1.00  0.00     0.174 C 
BRANCH  12  13
ATOM     13  N   UNL     1     -11.977  -5.505   7.554  1.00  0.00    -0.342 N 
ATOM     14  C   UNL     1     -13.087  -5.963   8.228  1.00  0.00     0.249 C 
ATOM     15  O   UNL     1     -13.240  -7.126   8.580  1.00  0.00    -0.272 OA
ATOM     16  H   UNL     1     -12.065  -4.556   7.197  1.00  0.00     0.164 HD
BRANCH  14  17
ATOM     17  C   UNL     1     -14.114  -4.846   8.512  1.00  0.00     0.207 C 
BRANCH  17  18
ATOM     18  C   UNL     1     -13.777  -3.590   7.702  1.00  0.00     0.077 C 
BRANCH  18  19
ATOM     19  C   UNL     1     -14.898  -3.212   6.760  1.00  0.00    -0.043 A 
ATOM     20  C   UNL     1     -17.235  -3.325   6.119  1.00  0.00     0.083 A 
ATOM     21  C   UNL     1     -16.212  -3.633   7.016  1.00  0.00     0.028 A 
ATOM     22  C   UNL     1     -16.953  -2.597   4.962  1.00  0.00     0.134 A 
ATOM     23  C   UNL     1     -15.656  -2.174   4.696  1.00  0.00     0.048 A 
ATOM     24  C   UNL     1     -14.630  -2.482   5.591  1.00  0.00     0.008 A 
ATOM     25  Cl  UNL     1     -18.843  -3.852   6.451  1.00  0.00    -0.080 Cl
BRANCH  22  26
ATOM     26  O   UNL     1     -17.921  -2.280   4.047  1.00  0.00    -0.506 OA
ATOM     27  H   UNL     1     -18.409  -3.103   3.860  1.00  0.00     0.293 HD
ENDBRANCH  22  26
ENDBRANCH  18  19
ENDBRANCH  17  18
BRANCH  17  28
ATOM     28  O   UNL     1     -14.147  -4.517   9.910  1.00  0.00    -0.383 OA
ATOM     29  H   UNL     1     -14.422  -3.573   9.961  1.00  0.00     0.211 HD
ENDBRANCH  17  28
ENDBRANCH  14  17
ENDBRANCH  12  13
BRANCH  12  30
ATOM     30  C   UNL     1      -9.479  -5.690   7.484  1.00  0.00     0.018 C 
ATOM     31  C   UNL     1      -8.498  -6.746   8.018  1.00  0.00     0.010 C 
BRANCH  30  32
ATOM     32  C   UNL     1      -9.583  -4.509   8.480  1.00  0.00     0.002 C 
ATOM     33  C   UNL     1      -8.390  -3.562   8.494  1.00  0.00     0.004 C 
ENDBRANCH  30  32
ENDBRANCH  12  30
ENDBRANCH  10  12
ENDBRANCH   1  10
BRANCH   5  34
ATOM     34  C   UNL     1     -11.237  -4.533   3.165  1.00  0.00     0.242 C 
ATOM     35  O   UNL     1     -12.020  -5.423   2.832  1.00  0.00    -0.273 OA
ATOM     36  N   UNL     1     -11.136  -3.343   2.480  1.00  0.00    -0.354 N 
ATOM     37  H   UNL     1     -10.387  -2.695   2.728  1.00  0.00     0.163 HD
BRANCH  36  38
ATOM     38  C   UNL     1     -12.114  -2.933   1.494  1.00  0.00     0.116 C 
BRANCH  38  39
ATOM     39  C   UNL     1     -11.576  -3.197   0.089  1.00  0.00     0.023 C 
BRANCH  39  40
ATOM     40  C   UNL     1     -10.165  -3.774   0.105  1.00  0.00     0.026 C 
BRANCH  40  41
ATOM     41  C   UNL     1     -10.102  -5.076  -0.694  1.00  0.00     0.146 C 
BRANCH  41  42
ATOM     42  N   UNL     1     -11.443  -5.628  -0.841  1.00  0.00    -0.254 NA
ATOM     43  C   UNL     1     -11.744  -6.284  -1.898  1.00  0.00     0.185 C 
ATOM     44  N   UNL     1     -10.995  -6.581  -2.976  1.00  0.00    -0.370 N 
ATOM     45  N   UNL     1     -12.986  -6.781  -2.017  1.00  0.00    -0.370 N 
ATOM     46  H   UNL     1     -11.426  -6.888  -3.831  1.00  0.00     0.159 HD
ATOM     47  H   UNL     1     -10.024  -6.293  -3.045  1.00  0.00     0.159 HD
ATOM     48  H   UNL     1     -13.614  -6.610  -1.243  1.00  0.00     0.159 HD
ATOM     49  H   UNL     1     -13.226  -7.493  -2.684  1.00  0.00     0.159 HD
ENDBRANCH  41  42
ENDBRANCH  40  41
ENDBRANCH  39  40
ENDBRANCH  38  39
ENDBRANCH  36  38
ENDBRANCH   5  34
BRANCH   8  50
ATOM     50  O   UNL     1      -8.331  -7.632   1.045  1.00  0.00    -0.245 OA
BRANCH  50  51
ATOM     51  S   UNL     1      -7.542  -7.993  -0.331  1.00  0.00     0.397 S 
ATOM     52  O   UNL     1      -6.870  -9.259  -0.142  1.00  0.00    -0.169 OA
ATOM     53  O   UNL     1      -6.836  -6.822  -0.808  1.00  0.00    -0.169 OA
BRANCH  51  54
ATOM     54  O   UNL     1      -8.754  -8.289  -1.345  1.00  0.00    -0.264 OA
ATOM     55  H   UNL     1      -8.659  -7.683  -2.108  1.00  0.00     0.236 HD
ENDBRANCH  51  54
ENDBRANCH  50  51
ENDBRANCH   8  50
TORSDOF 19
ENDMDL
MODEL 13
REMARK VINA RESULT:    -6.658      5.043      8.996
REMARK INTER + INTRA:         -17.553
REMARK INTER:                 -13.444
REMARK INTRA:                  -4.110
REMARK UNBOUND:                -4.083
REMARK SMILES CC[C@@H](C)[C@@H](NC(=O)[C@@H](O)Cc1ccc(O)c(Cl)c1)C(=O)N1[C@H](C(=O)NCCCCN=C(N)N)C[C@H]2CC[C@H](OS(=O)(=O)O)C[C@@H]21
REMARK SMILES IDX 22 1 36 2 46 3 35 4 23 5 45 6 37 7 39 8 38 9 20 10 21 11
REMARK SMILES IDX 5 12 6 13 7 14 8 15 9 17 11 18 12 19 17 20 19 21 15 22 14 23
REMARK SMILES IDX 13 24 18 25 16 26 10 28 3 30 4 31 2 32 1 33 24 34 25 35
REMARK SMILES IDX 26 36 27 38 28 39 29 40 30 41 31 42 32 43 33 44 34 45 40 50
REMARK SMILES IDX 41 51 42 52 43 53 44 54
REMARK H PARENT 6 16 16 27 10 29 26 37 33 46 33 47 34 48 34 49 44 55
ROOT
ATOM      1  N   UNL     1      -8.531  -3.206  -4.975  1.00  0.00    -0.326 N 
ATOM      2  C   UNL     1      -9.860  -5.149  -4.965  1.00  0.00     0.014 C 
ATOM      3  C   UNL     1      -8.560  -4.559  -4.413  1.00  0.00     0.091 C 
ATOM      4  C   UNL     1      -9.953  -4.519  -6.346  1.00  0.00     0.041 C 
ATOM      5  C   UNL     1      -9.588  -3.062  -6.007  1.00  0.00     0.175 C 
ATOM      6  C   UNL     1      -8.567  -4.711  -2.893  1.00  0.00     0.059 C 
ATOM      7  C   UNL     1      -9.869  -6.659  -4.835  1.00  0.00     0.008 C 
ATOM      8  C   UNL     1      -9.320  -5.965  -2.398  1.00  0.00     0.143 C 
ATOM      9  C   UNL     1      -9.330  -7.089  -3.454  1.00  0.00     0.034 C 
ENDROOT
BRANCH   1  10
ATOM     10  C   UNL     1      -7.582  -2.207  -4.839  1.00  0.00     0.246 C 
ATOM     11  O   UNL     1      -7.620  -1.473  -3.846  1.00  0.00    -0.272 OA
BRANCH  10  12
ATOM     12  C   UNL     1      -6.465  -2.059  -5.913  1.00  0.00     0.174 C 
BRANCH  12  13
ATOM     13  N   UNL     1      -6.601  -0.775  -6.600  1.00  0.00    -0.342 N 
ATOM     14  C   UNL     1      -5.935   0.380  -6.256  1.00  0.00     0.249 C 
ATOM     15  O   UNL     1      -5.123   0.452  -5.342  1.00  0.00    -0.272 OA
ATOM     16  H   UNL     1      -7.351  -0.641  -7.274  1.00  0.00     0.164 HD
BRANCH  14  17
ATOM     17  C   UNL     1      -6.305   1.574  -7.161  1.00  0.00     0.207 C 
BRANCH  17  18
ATOM     18  C   UNL     1      -7.772   1.966  -6.958  1.00  0.00     0.077 C 
BRANCH  18  19
ATOM     19  C   UNL     1      -8.015   2.538  -5.579  1.00  0.00    -0.043 A 
ATOM     20  C   UNL     1      -7.519   4.186  -3.869  1.00  0.00     0.083 A 
ATOM     21  C   UNL     1      -7.330   3.689  -5.159  1.00  0.00     0.028 A 
ATOM     22  C   UNL     1      -8.389   3.537  -2.992  1.00  0.00     0.134 A 
ATOM     23  C   UNL     1      -9.073   2.396  -3.394  1.00  0.00     0.048 A 
ATOM     24  C   UNL     1      -8.885   1.896  -4.685  1.00  0.00     0.008 A 
ATOM     25  Cl  UNL     1      -6.668   5.601  -3.372  1.00  0.00    -0.080 Cl
BRANCH  22  26
ATOM     26  O   UNL     1      -8.598   3.981  -1.714  1.00  0.00    -0.506 OA
ATOM     27  H   UNL     1      -8.649   4.954  -1.760  1.00  0.00     0.293 HD
ENDBRANCH  22  26
ENDBRANCH  18  19
ENDBRANCH  17  18
BRANCH  17  28
ATOM     28  O   UNL     1      -6.083   1.261  -8.546  1.00  0.00    -0.383 OA
ATOM     29  H   UNL     1      -5.196   0.839  -8.590  1.00  0.00     0.211 HD
ENDBRANCH  17  28
ENDBRANCH  14  17
ENDBRANCH  12  13
BRANCH  12  30
ATOM     30  C   UNL     1      -6.419  -3.256  -6.900  1.00  0.00     0.018 C 
ATOM     31  C   UNL     1      -5.368  -4.287  -6.459  1.00  0.00     0.010 C 
BRANCH  30  32
ATOM     32  C   UNL     1      -6.172  -2.840  -8.370  1.00  0.00     0.002 C 
ATOM     33  C   UNL     1      -7.333  -3.097  -9.323  1.00  0.00     0.004 C 
ENDBRANCH  30  32
ENDBRANCH  12  30
ENDBRANCH  10  12
ENDBRANCH   1  10
BRANCH   5  34
ATOM     34  C   UNL     1     -10.806  -2.284  -5.442  1.00  0.00     0.242 C 
ATOM     35  O   UNL     1     -11.798  -2.028  -6.125  1.00  0.00    -0.273 OA
ATOM     36  N   UNL     1     -10.675  -1.854  -4.141  1.00  0.00    -0.354 N 
ATOM     37  H   UNL     1      -9.782  -1.993  -3.665  1.00  0.00     0.163 HD
BRANCH  36  38
ATOM     38  C   UNL     1     -11.786  -1.308  -3.390  1.00  0.00     0.116 C 
BRANCH  38  39
ATOM     39  C   UNL     1     -11.713  -1.777  -1.939  1.00  0.00     0.023 C 
BRANCH  39  40
ATOM     40  C   UNL     1     -10.282  -2.042  -1.484  1.00  0.00     0.026 C 
BRANCH  40  41
ATOM     41  C   UNL     1     -10.020  -1.403  -0.121  1.00  0.00     0.146 C 
BRANCH  41  42
ATOM     42  N   UNL     1     -10.600  -0.067  -0.084  1.00  0.00    -0.254 NA
ATOM     43  C   UNL     1      -9.832   0.958  -0.098  1.00  0.00     0.185 C 
ATOM     44  N   UNL     1      -8.489   1.032  -0.146  1.00  0.00    -0.370 N 
ATOM     45  N   UNL     1     -10.386   2.180  -0.059  1.00  0.00    -0.370 N 
ATOM     46  H   UNL     1      -8.014   1.885   0.094  1.00  0.00     0.159 HD
ATOM     47  H   UNL     1      -7.911   0.199  -0.194  1.00  0.00     0.159 HD
ATOM     48  H   UNL     1     -11.396   2.214  -0.030  1.00  0.00     0.159 HD
ATOM     49  H   UNL     1      -9.882   3.014  -0.303  1.00  0.00     0.159 HD
ENDBRANCH  41  42
ENDBRANCH  40  41
ENDBRANCH  39  40
ENDBRANCH  38  39
ENDBRANCH  36  38
ENDBRANCH   5  34
BRANCH   8  50
ATOM     50  O   UNL     1     -10.671  -5.631  -2.078  1.00  0.00    -0.245 OA
BRANCH  50  51
ATOM     51  S   UNL     1     -11.270  -6.021  -0.617  1.00  0.00     0.397 S 
ATOM     52  O   UNL     1     -11.668  -4.798   0.044  1.00  0.00    -0.169 OA
ATOM     53  O   UNL     1     -10.398  -6.982   0.026  1.00  0.00    -0.169 OA
BRANCH  51  54
ATOM     54  O   UNL     1     -12.637  -6.774  -1.004  1.00  0.00    -0.264 OA
ATOM     55  H   UNL     1     -13.205  -6.790  -0.207  1.00  0.00     0.236 HD
ENDBRANCH  51  54
ENDBRANCH  50  51
ENDBRANCH   8  50
TORSDOF 19
ENDMDL
MODEL 14
REMARK VINA RESULT:    -6.629      2.057      3.400
REMARK INTER + INTRA:         -17.493
REMARK INTER:                 -14.066
REMARK INTRA:                  -3.427
REMARK UNBOUND:                -4.083
REMARK SMILES CC[C@@H](C)[C@@H](NC(=O)[C@@H](O)Cc1ccc(O)c(Cl)c1)C(=O)N1[C@H](C(=O)NCCCCN=C(N)N)C[C@H]2CC[C@H](OS(=O)(=O)O)C[C@@H]21
REMARK SMILES IDX 22 1 36 2 46 3 35 4 23 5 45 6 37 7 39 8 38 9 20 10 21 11
REMARK SMILES IDX 5 12 6 13 7 14 8 15 9 17 11 18 12 19 17 20 19 21 15 22 14 23
REMARK SMILES IDX 13 24 18 25 16 26 10 28 3 30 4 31 2 32 1 33 24 34 25 35
REMARK SMILES IDX 26 36 27 38 28 39 29 40 30 41 31 42 32 43 33 44 34 45 40 50
REMARK SMILES IDX 41 51 42 52 43 53 44 54
REMARK H PARENT 6 16 16 27 10 29 26 37 33 46 33 47 34 48 34 49 44 55
ROOT
ATOM      1  N   UNL     1      -6.305   0.766  -7.099  1.00  0.00    -0.326 N 
ATOM      2  C   UNL     1      -5.526   0.894  -9.317  1.00  0.00     0.014 C 
ATOM      3  C   UNL     1      -5.201   1.325  -7.884  1.00  0.00     0.091 C 
ATOM      4  C   UNL     1      -7.046   0.946  -9.345  1.00  0.00     0.041 C 
ATOM      5  C   UNL     1      -7.367   0.262  -8.004  1.00  0.00     0.175 C 
ATOM      6  C   UNL     1      -3.778   0.875  -7.555  1.00  0.00     0.059 C 
ATOM      7  C   UNL     1      -4.735   1.708 -10.321  1.00  0.00     0.008 C 
ATOM      8  C   UNL     1      -2.833   0.864  -8.776  1.00  0.00     0.143 C 
ATOM      9  C   UNL     1      -3.272   1.871  -9.858  1.00  0.00     0.034 C 
ENDROOT
BRANCH   1  10
ATOM     10  C   UNL     1      -6.559   0.849  -5.740  1.00  0.00     0.246 C 
ATOM     11  O   UNL     1      -5.954   0.097  -4.969  1.00  0.00    -0.272 OA
BRANCH  10  12
ATOM     12  C   UNL     1      -7.566   1.911  -5.211  1.00  0.00     0.174 C 
BRANCH  12  13
ATOM     13  N   UNL     1      -6.840   3.046  -4.642  1.00  0.00    -0.342 N 
ATOM     14  C   UNL     1      -7.054   4.366  -4.969  1.00  0.00     0.249 C 
ATOM     15  O   UNL     1      -7.907   4.742  -5.763  1.00  0.00    -0.272 OA
ATOM     16  H   UNL     1      -6.001   2.882  -4.090  1.00  0.00     0.164 HD
BRANCH  14  17
ATOM     17  C   UNL     1      -6.116   5.328  -4.210  1.00  0.00     0.207 C 
BRANCH  17  18
ATOM     18  C   UNL     1      -4.975   4.550  -3.545  1.00  0.00     0.077 C 
BRANCH  18  19
ATOM     19  C   UNL     1      -3.633   4.893  -4.152  1.00  0.00    -0.043 A 
ATOM     20  C   UNL     1      -2.052   4.737  -5.985  1.00  0.00     0.083 A 
ATOM     21  C   UNL     1      -3.310   4.461  -5.448  1.00  0.00     0.028 A 
ATOM     22  C   UNL     1      -1.112   5.443  -5.235  1.00  0.00     0.134 A 
ATOM     23  C   UNL     1      -1.418   5.877  -3.950  1.00  0.00     0.048 A 
ATOM     24  C   UNL     1      -2.676   5.601  -3.409  1.00  0.00     0.008 A 
ATOM     25  Cl  UNL     1      -1.674   4.196  -7.579  1.00  0.00    -0.080 Cl
BRANCH  22  26
ATOM     26  O   UNL     1       0.138   5.728  -5.715  1.00  0.00    -0.506 OA
ATOM     27  H   UNL     1       0.750   5.663  -4.959  1.00  0.00     0.293 HD
ENDBRANCH  22  26
ENDBRANCH  18  19
ENDBRANCH  17  18
BRANCH  17  28
ATOM     28  O   UNL     1      -6.833   6.069  -3.210  1.00  0.00    -0.383 OA
ATOM     29  H   UNL     1      -7.211   5.400  -2.595  1.00  0.00     0.211 HD
ENDBRANCH  17  28
ENDBRANCH  14  17
ENDBRANCH  12  13
BRANCH  12  30
ATOM     30  C   UNL     1      -8.603   1.315  -4.222  1.00  0.00     0.018 C 
ATOM     31  C   UNL     1     -10.036   1.633  -4.675  1.00  0.00     0.010 C 
BRANCH  30  32
ATOM     32  C   UNL     1      -8.395   1.768  -2.756  1.00  0.00     0.002 C 
ATOM     33  C   UNL     1      -9.489   2.666  -2.191  1.00  0.00     0.004 C 
ENDBRANCH  30  32
ENDBRANCH  12  30
ENDBRANCH  10  12
ENDBRANCH   1  10
BRANCH   5  34
ATOM     34  C   UNL     1      -7.303  -1.284  -8.120  1.00  0.00     0.242 C 
ATOM     35  O   UNL     1      -7.993  -1.913  -8.923  1.00  0.00    -0.273 OA
ATOM     36  N   UNL     1      -6.460  -1.904  -7.226  1.00  0.00    -0.354 N 
ATOM     37  H   UNL     1      -6.006  -1.340  -6.506  1.00  0.00     0.163 HD
BRANCH  36  38
ATOM     38  C   UNL     1      -6.115  -3.307  -7.333  1.00  0.00     0.116 C 
BRANCH  38  39
ATOM     39  C   UNL     1      -6.012  -3.923  -5.940  1.00  0.00     0.023 C 
BRANCH  39  40
ATOM     40  C   UNL     1      -7.379  -4.215  -5.329  1.00  0.00     0.026 C 
BRANCH  40  41
ATOM     41  C   UNL     1      -8.298  -4.881  -6.353  1.00  0.00     0.146 C 
BRANCH  41  42
ATOM     42  N   UNL     1      -9.681  -4.798  -5.901  1.00  0.00    -0.254 NA
ATOM     43  C   UNL     1     -10.515  -4.072  -6.546  1.00  0.00     0.185 C 
ATOM     44  N   UNL     1     -10.336  -3.318  -7.646  1.00  0.00    -0.370 N 
ATOM     45  N   UNL     1     -11.784  -4.004  -6.111  1.00  0.00    -0.370 N 
ATOM     46  H   UNL     1     -11.008  -2.614  -7.900  1.00  0.00     0.159 HD
ATOM     47  H   UNL     1      -9.437  -3.265  -8.116  1.00  0.00     0.159 HD
ATOM     48  H   UNL     1     -12.006  -4.551  -5.290  1.00  0.00     0.159 HD
ATOM     49  H   UNL     1     -12.537  -3.660  -6.680  1.00  0.00     0.159 HD
ENDBRANCH  41  42
ENDBRANCH  40  41
ENDBRANCH  39  40
ENDBRANCH  38  39
ENDBRANCH  36  38
ENDBRANCH   5  34
BRANCH   8  50
ATOM     50  O   UNL     1      -2.797  -0.440  -9.357  1.00  0.00    -0.245 OA
BRANCH  50  51
ATOM     51  S   UNL     1      -1.364  -1.164  -9.619  1.00  0.00     0.397 S 
ATOM     52  O   UNL     1      -0.949  -1.790  -8.384  1.00  0.00    -0.169 OA
ATOM     53  O   UNL     1      -0.492  -0.265 -10.346  1.00  0.00    -0.169 OA
BRANCH  51  54
ATOM     54  O   UNL     1      -1.771  -2.367 -10.605  1.00  0.00    -0.264 OA
ATOM     55  H   UNL     1      -0.971  -2.908 -10.760  1.00  0.00     0.236 HD
ENDBRANCH  51  54
ENDBRANCH  50  51
ENDBRANCH   8  50
TORSDOF 19
ENDMDL
MODEL 15
REMARK VINA RESULT:    -6.597      2.826      3.950
REMARK INTER + INTRA:         -17.428
REMARK INTER:                 -14.686
REMARK INTRA:                  -2.743
REMARK UNBOUND:                -4.083
REMARK SMILES CC[C@@H](C)[C@@H](NC(=O)[C@@H](O)Cc1ccc(O)c(Cl)c1)C(=O)N1[C@H](C(=O)NCCCCN=C(N)N)C[C@H]2CC[C@H](OS(=O)(=O)O)C[C@@H]21
REMARK SMILES IDX 22 1 36 2 46 3 35 4 23 5 45 6 37 7 39 8 38 9 20 10 21 11
REMARK SMILES IDX 5 12 6 13 7 14 8 15 9 17 11 18 12 19 17 20 19 21 15 22 14 23
REMARK SMILES IDX 13 24 18 25 16 26 10 28 3 30 4 31 2 32 1 33 24 34 25 35
REMARK SMILES IDX 26 36 27 38 28 39 29 40 30 41 31 42 32 43 33 44 34 45 40 50
REMARK SMILES IDX 41 51 42 52 43 53 44 54
REMARK H PARENT 6 16 16 27 10 29 26 37 33 46 33 47 34 48 34 49 44 55
ROOT
ATOM      1  N   UNL     1      -6.139   0.583  -7.126  1.00  0.00    -0.326 N 
ATOM      2  C   UNL     1      -5.625   0.491  -9.422  1.00  0.00     0.014 C 
ATOM      3  C   UNL     1      -5.235   1.182  -8.112  1.00  0.00     0.091 C 
ATOM      4  C   UNL     1      -7.126   0.300  -9.265  1.00  0.00     0.041 C 
ATOM      5  C   UNL     1      -7.185  -0.214  -7.815  1.00  0.00     0.175 C 
ATOM      6  C   UNL     1      -3.730   1.017  -7.909  1.00  0.00     0.059 C 
ATOM      7  C   UNL     1      -5.094   1.257 -10.618  1.00  0.00     0.008 C 
ATOM      8  C   UNL     1      -2.926   0.968  -9.226  1.00  0.00     0.143 C 
ATOM      9  C   UNL     1      -3.642   1.716 -10.369  1.00  0.00     0.034 C 
ENDROOT
BRANCH   1  10
ATOM     10  C   UNL     1      -6.264   0.831  -5.770  1.00  0.00     0.246 C 
ATOM     11  O   UNL     1      -5.487   0.279  -4.984  1.00  0.00    -0.272 OA
BRANCH  10  12
ATOM     12  C   UNL     1      -7.348   1.829  -5.269  1.00  0.00     0.174 C 
BRANCH  12  13
ATOM     13  N   UNL     1      -6.709   2.997  -4.662  1.00  0.00    -0.342 N 
ATOM     14  C   UNL     1      -6.995   4.306  -4.975  1.00  0.00     0.249 C 
ATOM     15  O   UNL     1      -7.848   4.643  -5.787  1.00  0.00    -0.272 OA
ATOM     16  H   UNL     1      -5.877   2.875  -4.090  1.00  0.00     0.164 HD
BRANCH  14  17
ATOM     17  C   UNL     1      -6.139   5.311  -4.176  1.00  0.00     0.207 C 
BRANCH  17  18
ATOM     18  C   UNL     1      -4.992   4.588  -3.462  1.00  0.00     0.077 C 
BRANCH  18  19
ATOM     19  C   UNL     1      -3.651   4.915  -4.080  1.00  0.00    -0.043 A 
ATOM     20  C   UNL     1      -2.089   4.743  -5.928  1.00  0.00     0.083 A 
ATOM     21  C   UNL     1      -3.345   4.482  -5.380  1.00  0.00     0.028 A 
ATOM     22  C   UNL     1      -1.132   5.434  -5.184  1.00  0.00     0.134 A 
ATOM     23  C   UNL     1      -1.422   5.869  -3.895  1.00  0.00     0.048 A 
ATOM     24  C   UNL     1      -2.678   5.608  -3.343  1.00  0.00     0.008 A 
ATOM     25  Cl  UNL     1      -1.732   4.203  -7.526  1.00  0.00    -0.080 Cl
BRANCH  22  26
ATOM     26  O   UNL     1       0.117   5.704  -5.675  1.00  0.00    -0.506 OA
ATOM     27  H   UNL     1       0.188   5.241  -6.530  1.00  0.00     0.293 HD
ENDBRANCH  22  26
ENDBRANCH  18  19
ENDBRANCH  17  18
BRANCH  17  28
ATOM     28  O   UNL     1      -6.935   6.014  -3.208  1.00  0.00    -0.383 OA
ATOM     29  H   UNL     1      -7.795   5.538  -3.167  1.00  0.00     0.211 HD
ENDBRANCH  17  28
ENDBRANCH  14  17
ENDBRANCH  12  13
BRANCH  12  30
ATOM     30  C   UNL     1      -8.385   1.164  -4.325  1.00  0.00     0.018 C 
ATOM     31  C   UNL     1      -7.973   1.334  -2.854  1.00  0.00     0.010 C 
BRANCH  30  32
ATOM     32  C   UNL     1      -8.640  -0.330  -4.636  1.00  0.00     0.002 C 
ATOM     33  C   UNL     1     -10.011  -0.649  -5.220  1.00  0.00     0.004 C 
ENDBRANCH  30  32
ENDBRANCH  12  30
ENDBRANCH  10  12
ENDBRANCH   1  10
BRANCH   5  34
ATOM     34  C   UNL     1      -6.865  -1.730  -7.731  1.00  0.00     0.242 C 
ATOM     35  O   UNL     1      -5.713  -2.162  -7.763  1.00  0.00    -0.273 OA
ATOM     36  N   UNL     1      -7.964  -2.558  -7.673  1.00  0.00    -0.354 N 
ATOM     37  H   UNL     1      -8.893  -2.148  -7.771  1.00  0.00     0.163 HD
BRANCH  36  38
ATOM     38  C   UNL     1      -7.852  -3.971  -7.376  1.00  0.00     0.116 C 
BRANCH  38  39
ATOM     39  C   UNL     1      -7.792  -4.180  -5.865  1.00  0.00     0.023 C 
BRANCH  39  40
ATOM     40  C   UNL     1      -9.167  -4.440  -5.258  1.00  0.00     0.026 C 
BRANCH  40  41
ATOM     41  C   UNL     1      -9.345  -5.924  -4.936  1.00  0.00     0.146 C 
BRANCH  41  42
ATOM     42  N   UNL     1     -10.562  -6.117  -4.158  1.00  0.00    -0.254 NA
ATOM     43  C   UNL     1     -10.748  -7.220  -3.536  1.00  0.00     0.185 C 
ATOM     44  N   UNL     1      -9.968  -8.314  -3.462  1.00  0.00    -0.370 N 
ATOM     45  N   UNL     1     -11.878  -7.379  -2.827  1.00  0.00    -0.370 N 
ATOM     46  H   UNL     1     -10.344  -9.191  -3.144  1.00  0.00     0.159 HD
ATOM     47  H   UNL     1      -9.068  -8.359  -3.930  1.00  0.00     0.159 HD
ATOM     48  H   UNL     1     -12.518  -6.596  -2.822  1.00  0.00     0.159 HD
ATOM     49  H   UNL     1     -11.988  -8.098  -2.134  1.00  0.00     0.159 HD
ENDBRANCH  41  42
ENDBRANCH  40  41
ENDBRANCH  39  40
ENDBRANCH  38  39
ENDBRANCH  36  38
ENDBRANCH   5  34
BRANCH   8  50
ATOM     50  O   UNL     1      -2.724  -0.387  -9.628  1.00  0.00    -0.245 OA
BRANCH  50  51
ATOM     51  S   UNL     1      -1.216  -0.923  -9.917  1.00  0.00     0.397 S 
ATOM     52  O   UNL     1      -0.850  -1.824  -8.848  1.00  0.00    -0.169 OA
ATOM     53  O   UNL     1      -0.370   0.189 -10.297  1.00  0.00    -0.169 OA
BRANCH  51  54
ATOM     54  O   UNL     1      -1.432  -1.848 -11.215  1.00  0.00    -0.264 OA
ATOM     55  H   UNL     1      -1.127  -1.342 -11.996  1.00  0.00     0.236 HD
ENDBRANCH  51  54
ENDBRANCH  50  51
ENDBRANCH   8  50
TORSDOF 19
ENDMDL
MODEL 16
REMARK VINA RESULT:    -6.549      8.101     11.888
REMARK INTER + INTRA:         -17.332
REMARK INTER:                 -14.665
REMARK INTRA:                  -2.667
REMARK UNBOUND:                -4.083
REMARK SMILES CC[C@@H](C)[C@@H](NC(=O)[C@@H](O)Cc1ccc(O)c(Cl)c1)C(=O)N1[C@H](C(=O)NCCCCN=C(N)N)C[C@H]2CC[C@H](OS(=O)(=O)O)C[C@@H]21
REMARK SMILES IDX 22 1 36 2 46 3 35 4 23 5 45 6 37 7 39 8 38 9 20 10 21 11
REMARK SMILES IDX 5 12 6 13 7 14 8 15 9 17 11 18 12 19 17 20 19 21 15 22 14 23
REMARK SMILES IDX 13 24 18 25 16 26 10 28 3 30 4 31 2 32 1 33 24 34 25 35
REMARK SMILES IDX 26 36 27 38 28 39 29 40 30 41 31 42 32 43 33 44 34 45 40 50
REMARK SMILES IDX 41 51 42 52 43 53 44 54
REMARK H PARENT 6 16 16 27 10 29 26 37 33 46 33 47 34 48 34 49 44 55
ROOT
ATOM      1  N   UNL     1     -10.437  -4.594  -2.299  1.00  0.00    -0.326 N 
ATOM      2  C   UNL     1      -9.134  -3.018  -3.467  1.00  0.00     0.014 C 
ATOM      3  C   UNL     1      -9.197  -4.497  -3.075  1.00  0.00     0.091 C 
ATOM      4  C   UNL     1      -9.743  -2.325  -2.258  1.00  0.00     0.041 C 
ATOM      5  C   UNL     1     -10.959  -3.236  -2.005  1.00  0.00     0.175 C 
ATOM      6  C   UNL     1      -9.069  -5.339  -4.343  1.00  0.00     0.059 C 
ATOM      7  C   UNL     1      -7.738  -2.636  -3.918  1.00  0.00     0.008 C 
ATOM      8  C   UNL     1      -8.192  -4.688  -5.435  1.00  0.00     0.143 C 
ATOM      9  C   UNL     1      -7.147  -3.723  -4.840  1.00  0.00     0.034 C 
ENDROOT
BRANCH   1  10
ATOM     10  C   UNL     1     -11.007  -5.687  -1.669  1.00  0.00     0.246 C 
ATOM     11  O   UNL     1     -11.782  -6.409  -2.303  1.00  0.00    -0.272 OA
BRANCH  10  12
ATOM     12  C   UNL     1     -10.627  -6.006  -0.194  1.00  0.00     0.174 C 
BRANCH  12  13
ATOM     13  N   UNL     1     -11.067  -4.920   0.681  1.00  0.00    -0.342 N 
ATOM     14  C   UNL     1     -12.110  -4.999   1.576  1.00  0.00     0.249 C 
ATOM     15  O   UNL     1     -12.775  -6.011   1.761  1.00  0.00    -0.272 OA
ATOM     16  H   UNL     1     -10.716  -3.977   0.530  1.00  0.00     0.164 HD
BRANCH  14  17
ATOM     17  C   UNL     1     -12.341  -3.679   2.342  1.00  0.00     0.207 C 
BRANCH  17  18
ATOM     18  C   UNL     1     -11.006  -2.974   2.607  1.00  0.00     0.077 C 
BRANCH  18  19
ATOM     19  C   UNL     1     -11.066  -1.506   2.251  1.00  0.00    -0.043 A 
ATOM     20  C   UNL     1     -12.229   0.367   1.239  1.00  0.00     0.083 A 
ATOM     21  C   UNL     1     -12.198  -0.977   1.611  1.00  0.00     0.028 A 
ATOM     22  C   UNL     1     -11.133   1.190   1.502  1.00  0.00     0.134 A 
ATOM     23  C   UNL     1     -10.006   0.680   2.135  1.00  0.00     0.048 A 
ATOM     24  C   UNL     1      -9.971  -0.666   2.507  1.00  0.00     0.008 A 
ATOM     25  Cl  UNL     1     -13.629   0.998   0.454  1.00  0.00    -0.080 Cl
BRANCH  22  26
ATOM     26  O   UNL     1     -11.113   2.512   1.147  1.00  0.00    -0.506 OA
ATOM     27  H   UNL     1     -10.816   3.008   1.932  1.00  0.00     0.293 HD
ENDBRANCH  22  26
ENDBRANCH  18  19
ENDBRANCH  17  18
BRANCH  17  28
ATOM     28  O   UNL     1     -13.012  -3.914   3.590  1.00  0.00    -0.383 OA
ATOM     29  H   UNL     1     -13.613  -3.147   3.724  1.00  0.00     0.211 HD
ENDBRANCH  17  28
ENDBRANCH  14  17
ENDBRANCH  12  13
BRANCH  12  30
ATOM     30  C   UNL     1      -9.119  -6.332  -0.019  1.00  0.00     0.018 C 
ATOM     31  C   UNL     1      -8.687  -7.449  -0.983  1.00  0.00     0.010 C 
BRANCH  30  32
ATOM     32  C   UNL     1      -8.727  -6.701   1.432  1.00  0.00     0.002 C 
ATOM     33  C   UNL     1      -7.471  -7.551   1.571  1.00  0.00     0.004 C 
ENDBRANCH  30  32
ENDBRANCH  12  30
ENDBRANCH  10  12
ENDBRANCH   1  10
BRANCH   5  34
ATOM     34  C   UNL     1     -12.141  -2.886  -2.948  1.00  0.00     0.242 C 
ATOM     35  O   UNL     1     -12.804  -3.750  -3.520  1.00  0.00    -0.273 OA
ATOM     36  N   UNL     1     -12.359  -1.540  -3.139  1.00  0.00    -0.354 N 
ATOM     37  H   UNL     1     -11.701  -0.873  -2.733  1.00  0.00     0.163 HD
BRANCH  36  38
ATOM     38  C   UNL     1     -13.541  -1.035  -3.807  1.00  0.00     0.116 C 
BRANCH  38  39
ATOM     39  C   UNL     1     -14.490  -0.417  -2.783  1.00  0.00     0.023 C 
BRANCH  39  40
ATOM     40  C   UNL     1     -15.598  -1.376  -2.363  1.00  0.00     0.026 C 
BRANCH  40  41
ATOM     41  C   UNL     1     -16.928  -0.636  -2.215  1.00  0.00     0.146 C 
BRANCH  41  42
ATOM     42  N   UNL     1     -18.029  -1.535  -2.536  1.00  0.00    -0.254 NA
ATOM     43  C   UNL     1     -19.163  -1.377  -1.962  1.00  0.00     0.185 C 
ATOM     44  N   UNL     1     -19.553  -0.466  -1.051  1.00  0.00    -0.370 N 
ATOM     45  N   UNL     1     -20.164  -2.218  -2.268  1.00  0.00    -0.370 N 
ATOM     46  H   UNL     1     -20.388  -0.608  -0.509  1.00  0.00     0.159 HD
ATOM     47  H   UNL     1     -18.922   0.256  -0.717  1.00  0.00     0.159 HD
ATOM     48  H   UNL     1     -19.957  -2.931  -2.955  1.00  0.00     0.159 HD
ATOM     49  H   UNL     1     -21.125  -2.022  -2.051  1.00  0.00     0.159 HD
ENDBRANCH  41  42
ENDBRANCH  40  41
ENDBRANCH  39  40
ENDBRANCH  38  39
ENDBRANCH  36  38
ENDBRANCH   5  34
BRANCH   8  50
ATOM     50  O   UNL     1      -9.010  -3.961  -6.352  1.00  0.00    -0.245 OA
BRANCH  50  51
ATOM     51  S   UNL     1      -8.435  -3.600  -7.829  1.00  0.00     0.397 S 
ATOM     52  O   UNL     1      -9.562  -3.437  -8.720  1.00  0.00    -0.169 OA
ATOM     53  O   UNL     1      -7.333  -4.483  -8.152  1.00  0.00    -0.169 OA
BRANCH  51  54
ATOM     54  O   UNL     1      -7.837  -2.124  -7.605  1.00  0.00    -0.264 OA
ATOM     55  H   UNL     1      -7.917  -1.911  -6.653  1.00  0.00     0.236 HD
ENDBRANCH  51  54
ENDBRANCH  50  51
ENDBRANCH   8  50
TORSDOF 19
ENDMDL
MODEL 17
REMARK VINA RESULT:    -6.542      4.672      8.157
REMARK INTER + INTRA:         -17.319
REMARK INTER:                 -13.391
REMARK INTRA:                  -3.928
REMARK UNBOUND:                -4.083
REMARK SMILES CC[C@@H](C)[C@@H](NC(=O)[C@@H](O)Cc1ccc(O)c(Cl)c1)C(=O)N1[C@H](C(=O)NCCCCN=C(N)N)C[C@H]2CC[C@H](OS(=O)(=O)O)C[C@@H]21
REMARK SMILES IDX 22 1 36 2 46 3 35 4 23 5 45 6 37 7 39 8 38 9 20 10 21 11
REMARK SMILES IDX 5 12 6 13 7 14 8 15 9 17 11 18 12 19 17 20 19 21 15 22 14 23
REMARK SMILES IDX 13 24 18 25 16 26 10 28 3 30 4 31 2 32 1 33 24 34 25 35
REMARK SMILES IDX 26 36 27 38 28 39 29 40 30 41 31 42 32 43 33 44 34 45 40 50
REMARK SMILES IDX 41 51 42 52 43 53 44 54
REMARK H PARENT 6 16 16 27 10 29 26 37 33 46 33 47 34 48 34 49 44 55
ROOT
ATOM      1  N   UNL     1      -8.223  -2.690  -5.492  1.00  0.00    -0.326 N 
ATOM      2  C   UNL     1      -9.641  -4.563  -5.653  1.00  0.00     0.014 C 
ATOM      3  C   UNL     1      -8.354  -4.062  -4.992  1.00  0.00     0.091 C 
ATOM      4  C   UNL     1      -9.610  -3.874  -7.009  1.00  0.00     0.041 C 
ATOM      5  C   UNL     1      -9.200  -2.452  -6.583  1.00  0.00     0.175 C 
ATOM      6  C   UNL     1      -8.471  -4.274  -3.484  1.00  0.00     0.059 C 
ATOM      7  C   UNL     1      -9.730  -6.075  -5.589  1.00  0.00     0.008 C 
ATOM      8  C   UNL     1      -9.314  -5.508  -3.094  1.00  0.00     0.143 C 
ATOM      9  C   UNL     1      -9.307  -6.586  -4.196  1.00  0.00     0.034 C 
ENDROOT
BRANCH   1  10
ATOM     10  C   UNL     1      -7.239  -1.747  -5.251  1.00  0.00     0.246 C 
ATOM     11  O   UNL     1      -7.379  -0.958  -4.310  1.00  0.00    -0.272 OA
BRANCH  10  12
ATOM     12  C   UNL     1      -5.961  -1.728  -6.138  1.00  0.00     0.174 C 
BRANCH  12  13
ATOM     13  N   UNL     1      -5.817  -0.421  -6.779  1.00  0.00    -0.342 N 
ATOM     14  C   UNL     1      -5.133   0.649  -6.247  1.00  0.00     0.249 C 
ATOM     15  O   UNL     1      -4.537   0.613  -5.178  1.00  0.00    -0.272 OA
ATOM     16  H   UNL     1      -6.385  -0.193  -7.591  1.00  0.00     0.164 HD
BRANCH  14  17
ATOM     17  C   UNL     1      -5.178   1.896  -7.155  1.00  0.00     0.207 C 
BRANCH  17  18
ATOM     18  C   UNL     1      -3.816   2.126  -7.818  1.00  0.00     0.077 C 
BRANCH  18  19
ATOM     19  C   UNL     1      -3.458   1.007  -8.769  1.00  0.00    -0.043 A 
ATOM     20  C   UNL     1      -2.142  -0.960  -9.302  1.00  0.00     0.083 A 
ATOM     21  C   UNL     1      -2.506   0.042  -8.403  1.00  0.00     0.028 A 
ATOM     22  C   UNL     1      -2.722  -1.005 -10.570  1.00  0.00     0.134 A 
ATOM     23  C   UNL     1      -3.666  -0.057 -10.946  1.00  0.00     0.048 A 
ATOM     24  C   UNL     1      -4.031   0.949 -10.049  1.00  0.00     0.008 A 
ATOM     25  Cl  UNL     1      -0.970  -2.136  -8.834  1.00  0.00    -0.080 Cl
BRANCH  22  26
ATOM     26  O   UNL     1      -2.389  -1.963 -11.490  1.00  0.00    -0.506 OA
ATOM     27  H   UNL     1      -1.511  -1.723 -11.839  1.00  0.00     0.293 HD
ENDBRANCH  22  26
ENDBRANCH  18  19
ENDBRANCH  17  18
BRANCH  17  28
ATOM     28  O   UNL     1      -5.549   3.066  -6.409  1.00  0.00    -0.383 OA
ATOM     29  H   UNL     1      -6.202   2.765  -5.738  1.00  0.00     0.211 HD
ENDBRANCH  17  28
ENDBRANCH  14  17
ENDBRANCH  12  13
BRANCH  12  30
ATOM     30  C   UNL     1      -5.923  -2.896  -7.161  1.00  0.00     0.018 C 
ATOM     31  C   UNL     1      -4.934  -3.983  -6.712  1.00  0.00     0.010 C 
BRANCH  30  32
ATOM     32  C   UNL     1      -5.599  -2.446  -8.606  1.00  0.00     0.002 C 
ATOM     33  C   UNL     1      -6.722  -2.643  -9.617  1.00  0.00     0.004 C 
ENDBRANCH  30  32
ENDBRANCH  12  30
ENDBRANCH  10  12
ENDBRANCH   1  10
BRANCH   5  34
ATOM     34  C   UNL     1     -10.415  -1.637  -6.066  1.00  0.00     0.242 C 
ATOM     35  O   UNL     1     -11.576  -1.941  -6.340  1.00  0.00    -0.273 OA
ATOM     36  N   UNL     1     -10.098  -0.521  -5.325  1.00  0.00    -0.354 N 
ATOM     37  H   UNL     1      -9.117  -0.254  -5.232  1.00  0.00     0.163 HD
BRANCH  36  38
ATOM     38  C   UNL     1     -11.096   0.228  -4.589  1.00  0.00     0.116 C 
BRANCH  38  39
ATOM     39  C   UNL     1     -10.636   0.426  -3.147  1.00  0.00     0.023 C 
BRANCH  39  40
ATOM     40  C   UNL     1     -11.515  -0.318  -2.147  1.00  0.00     0.026 C 
BRANCH  40  41
ATOM     41  C   UNL     1     -11.626  -1.797  -2.518  1.00  0.00     0.146 C 
BRANCH  41  42
ATOM     42  N   UNL     1     -13.029  -2.183  -2.590  1.00  0.00    -0.254 NA
ATOM     43  C   UNL     1     -13.411  -3.018  -3.482  1.00  0.00     0.185 C 
ATOM     44  N   UNL     1     -12.703  -3.651  -4.434  1.00  0.00    -0.370 N 
ATOM     45  N   UNL     1     -14.710  -3.357  -3.534  1.00  0.00    -0.370 N 
ATOM     46  H   UNL     1     -13.166  -4.085  -5.215  1.00  0.00     0.159 HD
ATOM     47  H   UNL     1     -11.701  -3.520  -4.529  1.00  0.00     0.159 HD
ATOM     48  H   UNL     1     -15.313  -2.930  -2.844  1.00  0.00     0.159 HD
ATOM     49  H   UNL     1     -15.041  -4.164  -4.032  1.00  0.00     0.159 HD
ENDBRANCH  41  42
ENDBRANCH  40  41
ENDBRANCH  39  40
ENDBRANCH  38  39
ENDBRANCH  36  38
ENDBRANCH   5  34
BRANCH   8  50
ATOM     50  O   UNL     1     -10.666  -5.120  -2.849  1.00  0.00    -0.245 OA
BRANCH  50  51
ATOM     51  S   UNL     1     -11.474  -5.769  -1.595  1.00  0.00     0.397 S 
ATOM     52  O   UNL     1     -12.608  -6.495  -2.122  1.00  0.00    -0.169 OA
ATOM     53  O   UNL     1     -11.624  -4.780  -0.548  1.00  0.00    -0.169 OA
BRANCH  51  54
ATOM     54  O   UNL     1     -10.442  -6.888  -1.075  1.00  0.00    -0.264 OA
ATOM     55  H   UNL     1      -9.921  -6.497  -0.344  1.00  0.00     0.236 HD
ENDBRANCH  51  54
ENDBRANCH  50  51
ENDBRANCH   8  50
TORSDOF 19
ENDMDL
MODEL 18
REMARK VINA RESULT:    -6.517      4.965      7.760
REMARK INTER + INTRA:         -17.268
REMARK INTER:                 -14.505
REMARK INTRA:                  -2.762
REMARK UNBOUND:                -4.083
REMARK SMILES CC[C@@H](C)[C@@H](NC(=O)[C@@H](O)Cc1ccc(O)c(Cl)c1)C(=O)N1[C@H](C(=O)NCCCCN=C(N)N)C[C@H]2CC[C@H](OS(=O)(=O)O)C[C@@H]21
REMARK SMILES IDX 22 1 36 2 46 3 35 4 23 5 45 6 37 7 39 8 38 9 20 10 21 11
REMARK SMILES IDX 5 12 6 13 7 14 8 15 9 17 11 18 12 19 17 20 19 21 15 22 14 23
REMARK SMILES IDX 13 24 18 25 16 26 10 28 3 30 4 31 2 32 1 33 24 34 25 35
REMARK SMILES IDX 26 36 27 38 28 39 29 40 30 41 31 42 32 43 33 44 34 45 40 50
REMARK SMILES IDX 41 51 42 52 43 53 44 54
REMARK H PARENT 6 16 16 27 10 29 26 37 33 46 33 47 34 48 34 49 44 55
ROOT
ATOM      1  N   UNL     1      -9.490  -1.712  -4.829  1.00  0.00    -0.326 N 
ATOM      2  C   UNL     1     -10.294  -3.759  -5.669  1.00  0.00     0.014 C 
ATOM      3  C   UNL     1      -9.172  -3.143  -4.829  1.00  0.00     0.091 C 
ATOM      4  C   UNL     1     -10.563  -2.683  -6.709  1.00  0.00     0.041 C 
ATOM      5  C   UNL     1     -10.566  -1.432  -5.812  1.00  0.00     0.175 C 
ATOM      6  C   UNL     1      -9.117  -3.872  -3.487  1.00  0.00     0.059 C 
ATOM      7  C   UNL     1      -9.924  -5.157  -6.125  1.00  0.00     0.008 C 
ATOM      8  C   UNL     1      -9.526  -5.359  -3.571  1.00  0.00     0.143 C 
ATOM      9  C   UNL     1      -9.274  -5.951  -4.972  1.00  0.00     0.034 C 
ENDROOT
BRANCH   1  10
ATOM     10  C   UNL     1      -8.817  -0.653  -4.245  1.00  0.00     0.246 C 
ATOM     11  O   UNL     1      -9.319  -0.086  -3.269  1.00  0.00    -0.272 OA
BRANCH  10  12
ATOM     12  C   UNL     1      -7.427  -0.227  -4.802  1.00  0.00     0.174 C 
BRANCH  12  13
ATOM     13  N   UNL     1      -7.221   1.205  -4.586  1.00  0.00    -0.342 N 
ATOM     14  C   UNL     1      -6.419   1.749  -3.608  1.00  0.00     0.249 C 
ATOM     15  O   UNL     1      -5.760   1.084  -2.818  1.00  0.00    -0.272 OA
ATOM     16  H   UNL     1      -7.819   1.877  -5.059  1.00  0.00     0.164 HD
BRANCH  14  17
ATOM     17  C   UNL     1      -6.422   3.292  -3.625  1.00  0.00     0.207 C 
BRANCH  17  18
ATOM     18  C   UNL     1      -5.721   3.815  -4.884  1.00  0.00     0.077 C 
BRANCH  18  19
ATOM     19  C   UNL     1      -4.219   3.847  -4.718  1.00  0.00    -0.043 A 
ATOM     20  C   UNL     1      -2.185   5.067  -4.206  1.00  0.00     0.083 A 
ATOM     21  C   UNL     1      -3.576   5.027  -4.311  1.00  0.00     0.028 A 
ATOM     22  C   UNL     1      -1.429   3.934  -4.509  1.00  0.00     0.134 A 
ATOM     23  C   UNL     1      -2.053   2.759  -4.913  1.00  0.00     0.048 A 
ATOM     24  C   UNL     1      -3.445   2.716  -5.020  1.00  0.00     0.008 A 
ATOM     25  Cl  UNL     1      -1.414   6.526  -3.705  1.00  0.00    -0.080 Cl
BRANCH  22  26
ATOM     26  O   UNL     1      -0.063   3.929  -4.431  1.00  0.00    -0.506 OA
ATOM     27  H   UNL     1       0.211   2.994  -4.382  1.00  0.00     0.293 HD
ENDBRANCH  22  26
ENDBRANCH  18  19
ENDBRANCH  17  18
BRANCH  17  28
ATOM     28  O   UNL     1      -5.770   3.824  -2.461  1.00  0.00    -0.383 OA
ATOM     29  H   UNL     1      -5.210   3.096  -2.106  1.00  0.00     0.211 HD
ENDBRANCH  17  28
ENDBRANCH  14  17
ENDBRANCH  12  13
BRANCH  12  30
ATOM     30  C   UNL     1      -7.223  -0.638  -6.285  1.00  0.00     0.018 C 
ATOM     31  C   UNL     1      -5.979  -1.527  -6.440  1.00  0.00     0.010 C 
BRANCH  30  32
ATOM     32  C   UNL     1      -7.142   0.564  -7.257  1.00  0.00     0.002 C 
ATOM     33  C   UNL     1      -5.733   1.020  -7.614  1.00  0.00     0.004 C 
ENDBRANCH  30  32
ENDBRANCH  12  30
ENDBRANCH  10  12
ENDBRANCH   1  10
BRANCH   5  34
ATOM     34  C   UNL     1     -11.930  -1.245  -5.096  1.00  0.00     0.242 C 
ATOM     35  O   UNL     1     -12.979  -1.066  -5.714  1.00  0.00    -0.273 OA
ATOM     36  N   UNL     1     -11.873  -1.239  -3.720  1.00  0.00    -0.354 N 
ATOM     37  H   UNL     1     -10.960  -1.271  -3.266  1.00  0.00     0.163 HD
BRANCH  36  38
ATOM     38  C   UNL     1     -13.064  -1.292  -2.897  1.00  0.00     0.116 C 
BRANCH  38  39
ATOM     39  C   UNL     1     -12.891  -0.391  -1.676  1.00  0.00     0.023 C 
BRANCH  39  40
ATOM     40  C   UNL     1     -12.483  -1.169  -0.430  1.00  0.00     0.026 C 
BRANCH  40  41
ATOM     41  C   UNL     1     -10.961  -1.265  -0.325  1.00  0.00     0.146 C 
BRANCH  41  42
ATOM     42  N   UNL     1     -10.504  -0.565   0.868  1.00  0.00    -0.254 NA
ATOM     43  C   UNL     1      -9.538   0.271   0.781  1.00  0.00     0.185 C 
ATOM     44  N   UNL     1      -8.816   0.650  -0.288  1.00  0.00    -0.370 N 
ATOM     45  N   UNL     1      -9.129   0.902   1.894  1.00  0.00    -0.370 N 
ATOM     46  H   UNL     1      -7.936   1.124  -0.171  1.00  0.00     0.159 HD
ATOM     47  H   UNL     1      -9.001   0.279  -1.215  1.00  0.00     0.159 HD
ATOM     48  H   UNL     1      -9.628   0.680   2.745  1.00  0.00     0.159 HD
ATOM     49  H   UNL     1      -8.556   1.727   1.872  1.00  0.00     0.159 HD
ENDBRANCH  41  42
ENDBRANCH  40  41
ENDBRANCH  39  40
ENDBRANCH  38  39
ENDBRANCH  36  38
ENDBRANCH   5  34
BRANCH   8  50
ATOM     50  O   UNL     1     -10.912  -5.504  -3.260  1.00  0.00    -0.245 OA
BRANCH  50  51
ATOM     51  S   UNL     1     -11.416  -6.806  -2.427  1.00  0.00     0.397 S 
ATOM     52  O   UNL     1     -10.713  -6.827  -1.164  1.00  0.00    -0.169 OA
ATOM     53  O   UNL     1     -11.445  -7.961  -3.300  1.00  0.00    -0.169 OA
BRANCH  51  54
ATOM     54  O   UNL     1     -12.935  -6.413  -2.076  1.00  0.00    -0.264 OA
ATOM     55  H   UNL     1     -13.282  -7.085  -1.455  1.00  0.00     0.236 HD
ENDBRANCH  51  54
ENDBRANCH  50  51
ENDBRANCH   8  50
TORSDOF 19
ENDMDL
MODEL 19
REMARK VINA RESULT:    -6.464      1.833      2.364
REMARK INTER + INTRA:         -17.160
REMARK INTER:                 -13.249
REMARK INTRA:                  -3.911
REMARK UNBOUND:                -4.083
REMARK SMILES CC[C@@H](C)[C@@H](NC(=O)[C@@H](O)Cc1ccc(O)c(Cl)c1)C(=O)N1[C@H](C(=O)NCCCCN=C(N)N)C[C@H]2CC[C@H](OS(=O)(=O)O)C[C@@H]21
REMARK SMILES IDX 22 1 36 2 46 3 35 4 23 5 45 6 37 7 39 8 38 9 20 10 21 11
REMARK SMILES IDX 5 12 6 13 7 14 8 15 9 17 11 18 12 19 17 20 19 21 15 22 14 23
REMARK SMILES IDX 13 24 18 25 16 26 10 28 3 30 4 31 2 32 1 33 24 34 25 35
REMARK SMILES IDX 26 36 27 38 28 39 29 40 30 41 31 42 32 43 33 44 34 45 40 50
REMARK SMILES IDX 41 51 42 52 43 53 44 54
REMARK H PARENT 6 16 16 27 10 29 26 37 33 46 33 47 34 48 34 49 44 55
ROOT
ATOM      1  N   UNL     1      -6.281   1.582  -5.406  1.00  0.00    -0.326 N 
ATOM      2  C   UNL     1      -7.413   1.224  -7.439  1.00  0.00     0.014 C 
ATOM      3  C   UNL     1      -6.239   1.984  -6.815  1.00  0.00     0.091 C 
ATOM      4  C   UNL     1      -8.441   1.216  -6.318  1.00  0.00     0.041 C 
ATOM      5  C   UNL     1      -7.539   0.846  -5.125  1.00  0.00     0.175 C 
ATOM      6  C   UNL     1      -4.979   1.671  -7.620  1.00  0.00     0.059 C 
ATOM      7  C   UNL     1      -7.787   1.814  -8.785  1.00  0.00     0.008 C 
ATOM      8  C   UNL     1      -5.247   1.414  -9.119  1.00  0.00     0.143 C 
ATOM      9  C   UNL     1      -6.522   2.130  -9.611  1.00  0.00     0.034 C 
ENDROOT
BRANCH   1  10
ATOM     10  C   UNL     1      -5.473   1.964  -4.349  1.00  0.00     0.246 C 
ATOM     11  O   UNL     1      -4.577   1.202  -3.971  1.00  0.00    -0.272 OA
BRANCH  10  12
ATOM     12  C   UNL     1      -5.682   3.358  -3.690  1.00  0.00     0.174 C 
BRANCH  12  13
ATOM     13  N   UNL     1      -4.393   4.031  -3.529  1.00  0.00    -0.342 N 
ATOM     14  C   UNL     1      -3.866   4.951  -4.408  1.00  0.00     0.249 C 
ATOM     15  O   UNL     1      -4.440   5.332  -5.421  1.00  0.00    -0.272 OA
ATOM     16  H   UNL     1      -3.739   3.704  -2.823  1.00  0.00     0.164 HD
BRANCH  14  17
ATOM     17  C   UNL     1      -2.480   5.469  -3.968  1.00  0.00     0.207 C 
BRANCH  17  18
ATOM     18  C   UNL     1      -1.428   4.364  -4.105  1.00  0.00     0.077 C 
BRANCH  18  19
ATOM     19  C   UNL     1      -1.144   4.035  -5.553  1.00  0.00    -0.043 A 
ATOM     20  C   UNL     1      -1.104   2.437  -7.377  1.00  0.00     0.083 A 
ATOM     21  C   UNL     1      -1.414   2.752  -6.054  1.00  0.00     0.028 A 
ATOM     22  C   UNL     1      -0.524   3.398  -8.207  1.00  0.00     0.134 A 
ATOM     23  C   UNL     1      -0.252   4.672  -7.724  1.00  0.00     0.048 A 
ATOM     24  C   UNL     1      -0.558   4.990  -6.399  1.00  0.00     0.008 A 
ATOM     25  Cl  UNL     1      -1.443   0.855  -7.974  1.00  0.00    -0.080 Cl
BRANCH  22  26
ATOM     26  O   UNL     1      -0.194   3.132  -9.508  1.00  0.00    -0.506 OA
ATOM     27  H   UNL     1      -0.843   2.482  -9.835  1.00  0.00     0.293 HD
ENDBRANCH  22  26
ENDBRANCH  18  19
ENDBRANCH  17  18
BRANCH  17  28
ATOM     28  O   UNL     1      -2.509   5.934  -2.609  1.00  0.00    -0.383 OA
ATOM     29  H   UNL     1      -2.551   6.916  -2.659  1.00  0.00     0.211 HD
ENDBRANCH  17  28
ENDBRANCH  14  17
ENDBRANCH  12  13
BRANCH  12  30
ATOM     30  C   UNL     1      -6.480   3.280  -2.361  1.00  0.00     0.018 C 
ATOM     31  C   UNL     1      -6.694   1.818  -1.938  1.00  0.00     0.010 C 
BRANCH  30  32
ATOM     32  C   UNL     1      -7.836   4.026  -2.405  1.00  0.00     0.002 C 
ATOM     33  C   UNL     1      -8.447   4.184  -3.791  1.00  0.00     0.004 C 
ENDBRANCH  30  32
ENDBRANCH  12  30
ENDBRANCH  10  12
ENDBRANCH   1  10
BRANCH   5  34
ATOM     34  C   UNL     1      -7.279  -0.682  -5.057  1.00  0.00     0.242 C 
ATOM     35  O   UNL     1      -6.223  -1.188  -5.435  1.00  0.00    -0.273 OA
ATOM     36  N   UNL     1      -8.335  -1.435  -4.594  1.00  0.00    -0.354 N 
ATOM     37  H   UNL     1      -9.226  -0.972  -4.410  1.00  0.00     0.163 HD
BRANCH  36  38
ATOM     38  C   UNL     1      -8.197  -2.839  -4.263  1.00  0.00     0.116 C 
BRANCH  38  39
ATOM     39  C   UNL     1      -9.391  -3.619  -4.808  1.00  0.00     0.023 C 
BRANCH  39  40
ATOM     40  C   UNL     1      -8.972  -4.735  -5.760  1.00  0.00     0.026 C 
BRANCH  40  41
ATOM     41  C   UNL     1      -8.174  -4.172  -6.936  1.00  0.00     0.146 C 
BRANCH  41  42
ATOM     42  N   UNL     1      -6.813  -4.691  -6.901  1.00  0.00    -0.254 NA
ATOM     43  C   UNL     1      -5.850  -3.972  -7.341  1.00  0.00     0.185 C 
ATOM     44  N   UNL     1      -5.864  -2.733  -7.866  1.00  0.00    -0.370 N 
ATOM     45  N   UNL     1      -4.603  -4.470  -7.304  1.00  0.00    -0.370 N 
ATOM     46  H   UNL     1      -5.078  -2.389  -8.390  1.00  0.00     0.159 HD
ATOM     47  H   UNL     1      -6.725  -2.202  -7.956  1.00  0.00     0.159 HD
ATOM     48  H   UNL     1      -4.502  -5.397  -6.913  1.00  0.00     0.159 HD
ATOM     49  H   UNL     1      -3.785  -3.896  -7.402  1.00  0.00     0.159 HD
ENDBRANCH  41  42
ENDBRANCH  40  41
ENDBRANCH  39  40
ENDBRANCH  38  39
ENDBRANCH  36  38
ENDBRANCH   5  34
BRANCH   8  50
ATOM     50  O   UNL     1      -5.393   0.014  -9.358  1.00  0.00    -0.245 OA
BRANCH  50  51
ATOM     51  S   UNL     1      -4.630  -0.669 -10.622  1.00  0.00     0.397 S 
ATOM     52  O   UNL     1      -3.707   0.303 -11.164  1.00  0.00    -0.169 OA
ATOM     53  O   UNL     1      -5.593  -1.352 -11.460  1.00  0.00    -0.169 OA
BRANCH  51  54
ATOM     54  O   UNL     1      -3.720  -1.783  -9.902  1.00  0.00    -0.264 OA
ATOM     55  H   UNL     1      -3.857  -2.629 -10.374  1.00  0.00     0.236 HD
ENDBRANCH  51  54
ENDBRANCH  50  51
ENDBRANCH   8  50
TORSDOF 19
ENDMDL
MODEL 20
REMARK VINA RESULT:    -6.444      1.959      2.936
REMARK INTER + INTRA:         -17.120
REMARK INTER:                 -13.548
REMARK INTRA:                  -3.572
REMARK UNBOUND:                -4.083
REMARK SMILES CC[C@@H](C)[C@@H](NC(=O)[C@@H](O)Cc1ccc(O)c(Cl)c1)C(=O)N1[C@H](C(=O)NCCCCN=C(N)N)C[C@H]2CC[C@H](OS(=O)(=O)O)C[C@@H]21
REMARK SMILES IDX 22 1 36 2 46 3 35 4 23 5 45 6 37 7 39 8 38 9 20 10 21 11
REMARK SMILES IDX 5 12 6 13 7 14 8 15 9 17 11 18 12 19 17 20 19 21 15 22 14 23
REMARK SMILES IDX 13 24 18 25 16 26 10 28 3 30 4 31 2 32 1 33 24 34 25 35
REMARK SMILES IDX 26 36 27 38 28 39 29 40 30 41 31 42 32 43 33 44 34 45 40 50
REMARK SMILES IDX 41 51 42 52 43 53 44 54
REMARK H PARENT 6 16 16 27 10 29 26 37 33 46 33 47 34 48 34 49 44 55
ROOT
ATOM      1  N   UNL     1      -6.640   1.071  -5.836  1.00  0.00    -0.326 N 
ATOM      2  C   UNL     1      -6.161   0.575  -8.087  1.00  0.00     0.014 C 
ATOM      3  C   UNL     1      -5.724   1.457  -6.913  1.00  0.00     0.091 C 
ATOM      4  C   UNL     1      -7.666   0.478  -7.891  1.00  0.00     0.041 C 
ATOM      5  C   UNL     1      -7.727   0.217  -6.374  1.00  0.00     0.175 C 
ATOM      6  C   UNL     1      -4.225   1.262  -6.695  1.00  0.00     0.059 C 
ATOM      7  C   UNL     1      -5.615   1.107  -9.397  1.00  0.00     0.008 C 
ATOM      8  C   UNL     1      -3.442   0.960  -7.991  1.00  0.00     0.143 C 
ATOM      9  C   UNL     1      -4.141   1.537  -9.238  1.00  0.00     0.034 C 
ENDROOT
BRANCH   1  10
ATOM     10  C   UNL     1      -6.735   1.547  -4.539  1.00  0.00     0.246 C 
ATOM     11  O   UNL     1      -6.199   0.912  -3.625  1.00  0.00    -0.272 OA
BRANCH  10  12
ATOM     12  C   UNL     1      -7.476   2.888  -4.267  1.00  0.00     0.174 C 
BRANCH  12  13
ATOM     13  N   UNL     1      -6.647   3.754  -3.429  1.00  0.00    -0.342 N 
ATOM     14  C   UNL     1      -6.476   5.107  -3.617  1.00  0.00     0.249 C 
ATOM     15  O   UNL     1      -7.029   5.748  -4.502  1.00  0.00    -0.272 OA
ATOM     16  H   UNL     1      -6.008   3.340  -2.755  1.00  0.00     0.164 HD
BRANCH  14  17
ATOM     17  C   UNL     1      -5.527   5.738  -2.576  1.00  0.00     0.207 C 
BRANCH  17  18
ATOM     18  C   UNL     1      -4.371   4.783  -2.257  1.00  0.00     0.077 C 
BRANCH  18  19
ATOM     19  C   UNL     1      -3.204   4.980  -3.198  1.00  0.00    -0.043 A 
ATOM     20  C   UNL     1      -1.702   4.115  -4.894  1.00  0.00     0.083 A 
ATOM     21  C   UNL     1      -2.810   3.947  -4.063  1.00  0.00     0.028 A 
ATOM     22  C   UNL     1      -0.982   5.310  -4.867  1.00  0.00     0.134 A 
ATOM     23  C   UNL     1      -1.362   6.341  -4.016  1.00  0.00     0.048 A 
ATOM     24  C   UNL     1      -2.469   6.176  -3.181  1.00  0.00     0.008 A 
ATOM     25  Cl  UNL     1      -1.232   2.834  -5.950  1.00  0.00    -0.080 Cl
BRANCH  22  26
ATOM     26  O   UNL     1       0.117   5.516  -5.656  1.00  0.00    -0.506 OA
ATOM     27  H   UNL     1       0.898   5.350  -5.097  1.00  0.00     0.293 HD
ENDBRANCH  22  26
ENDBRANCH  18  19
ENDBRANCH  17  18
BRANCH  17  28
ATOM     28  O   UNL     1      -6.228   6.059  -1.363  1.00  0.00    -0.383 OA
ATOM     29  H   UNL     1      -7.181   6.104  -1.604  1.00  0.00     0.211 HD
ENDBRANCH  17  28
ENDBRANCH  14  17
ENDBRANCH  12  13
BRANCH  12  30
ATOM     30  C   UNL     1      -8.898   2.680  -3.680  1.00  0.00     0.018 C 
ATOM     31  C   UNL     1      -8.827   1.996  -2.306  1.00  0.00     0.010 C 
BRANCH  30  32
ATOM     32  C   UNL     1      -9.848   1.895  -4.617  1.00  0.00     0.002 C 
ATOM     33  C   UNL     1     -10.417   2.692  -5.783  1.00  0.00     0.004 C 
ENDBRANCH  30  32
ENDBRANCH  12  30
ENDBRANCH  10  12
ENDBRANCH   1  10
BRANCH   5  34
ATOM     34  C   UNL     1      -7.470  -1.277  -6.041  1.00  0.00     0.242 C 
ATOM     35  O   UNL     1      -6.335  -1.745  -5.948  1.00  0.00    -0.273 OA
ATOM     36  N   UNL     1      -8.601  -2.051  -5.909  1.00  0.00    -0.354 N 
ATOM     37  H   UNL     1      -9.509  -1.633  -6.116  1.00  0.00     0.163 HD
BRANCH  36  38
ATOM     38  C   UNL     1      -8.557  -3.403  -5.392  1.00  0.00     0.116 C 
BRANCH  38  39
ATOM     39  C   UNL     1      -8.711  -4.402  -6.536  1.00  0.00     0.023 C 
BRANCH  39  40
ATOM     40  C   UNL     1      -7.537  -5.370  -6.627  1.00  0.00     0.026 C 
BRANCH  40  41
ATOM     41  C   UNL     1      -6.494  -4.866  -7.625  1.00  0.00     0.146 C 
BRANCH  41  42
ATOM     42  N   UNL     1      -7.151  -4.116  -8.687  1.00  0.00    -0.254 NA
ATOM     43  C   UNL     1      -6.573  -3.090  -9.188  1.00  0.00     0.185 C 
ATOM     44  N   UNL     1      -5.383  -2.536  -8.893  1.00  0.00    -0.370 N 
ATOM     45  N   UNL     1      -7.198  -2.410 -10.164  1.00  0.00    -0.370 N 
ATOM     46  H   UNL     1      -5.165  -1.600  -9.188  1.00  0.00     0.159 HD
ATOM     47  H   UNL     1      -4.772  -2.933  -8.185  1.00  0.00     0.159 HD
ATOM     48  H   UNL     1      -8.098  -2.766 -10.453  1.00  0.00     0.159 HD
ATOM     49  H   UNL     1      -6.723  -1.755 -10.760  1.00  0.00     0.159 HD
ENDBRANCH  41  42
ENDBRANCH  40  41
ENDBRANCH  39  40
ENDBRANCH  38  39
ENDBRANCH  36  38
ENDBRANCH   5  34
BRANCH   8  50
ATOM     50  O   UNL     1      -3.303  -0.451  -8.161  1.00  0.00    -0.245 OA
BRANCH  50  51
ATOM     51  S   UNL     1      -1.817  -1.109  -8.226  1.00  0.00     0.397 S 
ATOM     52  O   UNL     1      -1.287  -0.886  -9.552  1.00  0.00    -0.169 OA
ATOM     53  O   UNL     1      -1.843  -2.429  -7.630  1.00  0.00    -0.169 OA
BRANCH  51  54
ATOM     54  O   UNL     1      -0.979  -0.142  -7.251  1.00  0.00    -0.264 OA
ATOM     55  H   UNL     1      -1.521   0.656  -7.084  1.00  0.00     0.236 HD
ENDBRANCH  51  54
ENDBRANCH  50  51
ENDBRANCH   8  50
TORSDOF 19
ENDMDL
MODEL 21
REMARK VINA RESULT:    -6.426      6.957     10.186
REMARK INTER + INTRA:         -17.084
REMARK INTER:                 -13.873
REMARK INTRA:                  -3.211
REMARK UNBOUND:                -4.083
REMARK SMILES CC[C@@H](C)[C@@H](NC(=O)[C@@H](O)Cc1ccc(O)c(Cl)c1)C(=O)N1[C@H](C(=O)NCCCCN=C(N)N)C[C@H]2CC[C@H](OS(=O)(=O)O)C[C@@H]21
REMARK SMILES IDX 22 1 36 2 46 3 35 4 23 5 45 6 37 7 39 8 38 9 20 10 21 11
REMARK SMILES IDX 5 12 6 13 7 14 8 15 9 17 11 18 12 19 17 20 19 21 15 22 14 23
REMARK SMILES IDX 13 24 18 25 16 26 10 28 3 30 4 31 2 32 1 33 24 34 25 35
REMARK SMILES IDX 26 36 27 38 28 39 29 40 30 41 31 42 32 43 33 44 34 45 40 50
REMARK SMILES IDX 41 51 42 52 43 53 44 54
REMARK H PARENT 6 16 16 27 10 29 26 37 33 46 33 47 34 48 34 49 44 55
ROOT
ATOM      1  N   UNL     1     -10.995  -1.246  -3.417  1.00  0.00    -0.326 N 
ATOM      2  C   UNL     1     -11.878  -2.804  -4.945  1.00  0.00     0.014 C 
ATOM      3  C   UNL     1     -10.572  -2.343  -4.292  1.00  0.00     0.091 C 
ATOM      4  C   UNL     1     -12.656  -1.505  -5.090  1.00  0.00     0.041 C 
ATOM      5  C   UNL     1     -12.403  -0.880  -3.706  1.00  0.00     0.175 C 
ATOM      6  C   UNL     1      -9.895  -3.557  -3.657  1.00  0.00     0.059 C 
ATOM      7  C   UNL     1     -11.602  -3.647  -6.174  1.00  0.00     0.008 C 
ATOM      8  C   UNL     1     -10.160  -4.880  -4.408  1.00  0.00     0.143 C 
ATOM      9  C   UNL     1     -10.459  -4.647  -5.903  1.00  0.00     0.034 C 
ENDROOT
BRANCH   1  10
ATOM     10  C   UNL     1     -10.243  -0.432  -2.587  1.00  0.00     0.246 C 
ATOM     11  O   UNL     1      -9.948  -0.834  -1.456  1.00  0.00    -0.272 OA
BRANCH  10  12
ATOM     12  C   UNL     1      -9.749   0.948  -3.110  1.00  0.00     0.174 C 
BRANCH  12  13
ATOM     13  N   UNL     1      -8.762   0.756  -4.171  1.00  0.00    -0.342 N 
ATOM     14  C   UNL     1      -9.038   0.772  -5.520  1.00  0.00     0.249 C 
ATOM     15  O   UNL     1     -10.152   0.980  -5.985  1.00  0.00    -0.272 OA
ATOM     16  H   UNL     1      -7.831   0.419  -3.939  1.00  0.00     0.164 HD
BRANCH  14  17
ATOM     17  C   UNL     1      -7.787   0.520  -6.388  1.00  0.00     0.207 C 
BRANCH  17  18
ATOM     18  C   UNL     1      -6.825  -0.436  -5.676  1.00  0.00     0.077 C 
BRANCH  18  19
ATOM     19  C   UNL     1      -6.778  -1.790  -6.347  1.00  0.00    -0.043 A 
ATOM     20  C   UNL     1      -6.853  -3.142  -8.359  1.00  0.00     0.083 A 
ATOM     21  C   UNL     1      -6.846  -1.889  -7.746  1.00  0.00     0.028 A 
ATOM     22  C   UNL     1      -6.794  -4.300  -7.583  1.00  0.00     0.134 A 
ATOM     23  C   UNL     1      -6.727  -4.216  -6.198  1.00  0.00     0.048 A 
ATOM     24  C   UNL     1      -6.721  -2.964  -5.580  1.00  0.00     0.008 A 
ATOM     25  Cl  UNL     1      -6.936  -3.244 -10.079  1.00  0.00    -0.080 Cl
BRANCH  22  26
ATOM     26  O   UNL     1      -6.808  -5.551  -8.139  1.00  0.00    -0.506 OA
ATOM     27  H   UNL     1      -6.898  -5.428  -9.103  1.00  0.00     0.293 HD
ENDBRANCH  22  26
ENDBRANCH  18  19
ENDBRANCH  17  18
BRANCH  17  28
ATOM     28  O   UNL     1      -7.106   1.751  -6.682  1.00  0.00    -0.383 OA
ATOM     29  H   UNL     1      -6.718   2.057  -5.831  1.00  0.00     0.211 HD
ENDBRANCH  17  28
ENDBRANCH  14  17
ENDBRANCH  12  13
BRANCH  12  30
ATOM     30  C   UNL     1      -9.225   1.867  -1.973  1.00  0.00     0.018 C 
ATOM     31  C   UNL     1     -10.288   2.904  -1.575  1.00  0.00     0.010 C 
BRANCH  30  32
ATOM     32  C   UNL     1      -7.892   2.577  -2.313  1.00  0.00     0.002 C 
ATOM     33  C   UNL     1      -6.655   1.995  -1.640  1.00  0.00     0.004 C 
ENDBRANCH  30  32
ENDBRANCH  12  30
ENDBRANCH  10  12
ENDBRANCH   1  10
BRANCH   5  34
ATOM     34  C   UNL     1     -13.356  -1.466  -2.630  1.00  0.00     0.242 C 
ATOM     35  O   UNL     1     -12.962  -2.226  -1.746  1.00  0.00    -0.273 OA
ATOM     36  N   UNL     1     -14.682  -1.120  -2.770  1.00  0.00    -0.354 N 
ATOM     37  H   UNL     1     -14.966  -0.585  -3.592  1.00  0.00     0.163 HD
BRANCH  36  38
ATOM     38  C   UNL     1     -15.666  -1.396  -1.744  1.00  0.00     0.116 C 
BRANCH  38  39
ATOM     39  C   UNL     1     -17.066  -1.384  -2.353  1.00  0.00     0.023 C 
BRANCH  39  40
ATOM     40  C   UNL     1     -17.766  -0.041  -2.179  1.00  0.00     0.026 C 
BRANCH  40  41
ATOM     41  C   UNL     1     -19.182  -0.233  -1.636  1.00  0.00     0.146 C 
BRANCH  41  42
ATOM     42  N   UNL     1     -19.661  -1.568  -1.971  1.00  0.00    -0.254 NA
ATOM     43  C   UNL     1     -20.788  -1.706  -2.561  1.00  0.00     0.185 C 
ATOM     44  N   UNL     1     -21.677  -0.777  -2.959  1.00  0.00    -0.370 N 
ATOM     45  N   UNL     1     -21.214  -2.945  -2.858  1.00  0.00    -0.370 N 
ATOM     46  H   UNL     1     -22.622  -1.036  -3.185  1.00  0.00     0.159 HD
ATOM     47  H   UNL     1     -21.507   0.215  -2.825  1.00  0.00     0.159 HD
ATOM     48  H   UNL     1     -20.598  -3.705  -2.599  1.00  0.00     0.159 HD
ATOM     49  H   UNL     1     -21.951  -3.124  -3.515  1.00  0.00     0.159 HD
ENDBRANCH  41  42
ENDBRANCH  40  41
ENDBRANCH  39  40
ENDBRANCH  38  39
ENDBRANCH  36  38
ENDBRANCH   5  34
BRANCH   8  50
ATOM     50  O   UNL     1     -11.270  -5.561  -3.824  1.00  0.00    -0.245 OA
BRANCH  50  51
ATOM     51  S   UNL     1     -11.093  -6.300  -2.386  1.00  0.00     0.397 S 
ATOM     52  O   UNL     1     -11.573  -5.403  -1.360  1.00  0.00    -0.169 OA
ATOM     53  O   UNL     1      -9.780  -6.907  -2.310  1.00  0.00    -0.169 OA
BRANCH  51  54
ATOM     54  O   UNL     1     -12.180  -7.481  -2.479  1.00  0.00    -0.264 OA
ATOM     55  H   UNL     1     -11.716  -8.292  -2.771  1.00  0.00     0.236 HD
ENDBRANCH  51  54
ENDBRANCH  50  51
ENDBRANCH   8  50
TORSDOF 19
ENDMDL
MODEL 22
REMARK VINA RESULT:    -6.388      4.920      9.851
REMARK INTER + INTRA:         -17.007
REMARK INTER:                 -14.471
REMARK INTRA:                  -2.536
REMARK UNBOUND:                -4.083
REMARK SMILES CC[C@@H](C)[C@@H](NC(=O)[C@@H](O)Cc1ccc(O)c(Cl)c1)C(=O)N1[C@H](C(=O)NCCCCN=C(N)N)C[C@H]2CC[C@H](OS(=O)(=O)O)C[C@@H]21
REMARK SMILES IDX 22 1 36 2 46 3 35 4 23 5 45 6 37 7 39 8 38 9 20 10 21 11
REMARK SMILES IDX 5 12 6 13 7 14 8 15 9 17 11 18 12 19 17 20 19 21 15 22 14 23
REMARK SMILES IDX 13 24 18 25 16 26 10 28 3 30 4 31 2 32 1 33 24 34 25 35
REMARK SMILES IDX 26 36 27 38 28 39 29 40 30 41 31 42 32 43 33 44 34 45 40 50
REMARK SMILES IDX 41 51 42 52 43 53 44 54
REMARK H PARENT 6 16 16 27 10 29 26 37 33 46 33 47 34 48 34 49 44 55
ROOT
ATOM      1  N   UNL     1      -7.595   0.282  -4.978  1.00  0.00    -0.326 N 
ATOM      2  C   UNL     1      -7.483   2.599  -5.378  1.00  0.00     0.014 C 
ATOM      3  C   UNL     1      -8.125   1.549  -4.467  1.00  0.00     0.091 C 
ATOM      4  C   UNL     1      -7.419   1.883  -6.719  1.00  0.00     0.041 C 
ATOM      5  C   UNL     1      -6.897   0.507  -6.268  1.00  0.00     0.175 C 
ATOM      6  C   UNL     1      -7.829   1.924  -3.016  1.00  0.00     0.059 C 
ATOM      7  C   UNL     1      -8.213   3.924  -5.277  1.00  0.00     0.008 C 
ATOM      8  C   UNL     1      -7.726   3.446  -2.776  1.00  0.00     0.143 C 
ATOM      9  C   UNL     1      -8.544   4.251  -3.806  1.00  0.00     0.034 C 
ENDROOT
BRANCH   1  10
ATOM     10  C   UNL     1      -7.839  -1.016  -4.560  1.00  0.00     0.246 C 
ATOM     11  O   UNL     1      -7.324  -1.416  -3.511  1.00  0.00    -0.272 OA
BRANCH  10  12
ATOM     12  C   UNL     1      -8.787  -1.925  -5.395  1.00  0.00     0.174 C 
BRANCH  12  13
ATOM     13  N   UNL     1      -9.489  -2.856  -4.512  1.00  0.00    -0.342 N 
ATOM     14  C   UNL     1     -10.765  -2.674  -4.026  1.00  0.00     0.249 C 
ATOM     15  O   UNL     1     -11.471  -1.713  -4.307  1.00  0.00    -0.272 OA
ATOM     16  H   UNL     1      -8.977  -3.616  -4.071  1.00  0.00     0.164 HD
BRANCH  14  17
ATOM     17  C   UNL     1     -11.221  -3.825  -3.104  1.00  0.00     0.207 C 
BRANCH  17  18
ATOM     18  C   UNL     1     -10.484  -5.120  -3.461  1.00  0.00     0.077 C 
BRANCH  18  19
ATOM     19  C   UNL     1      -9.915  -5.799  -2.235  1.00  0.00    -0.043 A 
ATOM     20  C   UNL     1      -8.497  -7.496  -1.238  1.00  0.00     0.083 A 
ATOM     21  C   UNL     1      -8.983  -6.839  -2.370  1.00  0.00     0.028 A 
ATOM     22  C   UNL     1      -8.939  -7.120   0.031  1.00  0.00     0.134 A 
ATOM     23  C   UNL     1      -9.861  -6.091   0.179  1.00  0.00     0.048 A 
ATOM     24  C   UNL     1     -10.351  -5.433  -0.952  1.00  0.00     0.008 A 
ATOM     25  Cl  UNL     1      -7.353  -8.773  -1.424  1.00  0.00    -0.080 Cl
BRANCH  22  26
ATOM     26  O   UNL     1      -8.499  -7.741   1.168  1.00  0.00    -0.506 OA
ATOM     27  H   UNL     1      -8.918  -8.622   1.186  1.00  0.00     0.293 HD
ENDBRANCH  22  26
ENDBRANCH  18  19
ENDBRANCH  17  18
BRANCH  17  28
ATOM     28  O   UNL     1     -12.638  -4.039  -3.206  1.00  0.00    -0.383 OA
ATOM     29  H   UNL     1     -12.880  -3.819  -4.134  1.00  0.00     0.211 HD
ENDBRANCH  17  28
ENDBRANCH  14  17
ENDBRANCH  12  13
BRANCH  12  30
ATOM     30  C   UNL     1      -8.055  -2.649  -6.556  1.00  0.00     0.018 C 
ATOM     31  C   UNL     1      -9.053  -3.103  -7.633  1.00  0.00     0.010 C 
BRANCH  30  32
ATOM     32  C   UNL     1      -7.188  -3.846  -6.095  1.00  0.00     0.002 C 
ATOM     33  C   UNL     1      -6.947  -4.919  -7.149  1.00  0.00     0.004 C 
ENDBRANCH  30  32
ENDBRANCH  12  30
ENDBRANCH  10  12
ENDBRANCH   1  10
BRANCH   5  34
ATOM     34  C   UNL     1      -5.359   0.515  -6.067  1.00  0.00     0.242 C 
ATOM     35  O   UNL     1      -4.841   0.643  -4.958  1.00  0.00    -0.273 OA
ATOM     36  N   UNL     1      -4.616   0.424  -7.224  1.00  0.00    -0.354 N 
ATOM     37  H   UNL     1      -5.102   0.442  -8.122  1.00  0.00     0.163 HD
BRANCH  36  38
ATOM     38  C   UNL     1      -3.185   0.202  -7.209  1.00  0.00     0.116 C 
BRANCH  38  39
ATOM     39  C   UNL     1      -2.465   1.426  -7.770  1.00  0.00     0.023 C 
BRANCH  39  40
ATOM     40  C   UNL     1      -1.384   1.948  -6.830  1.00  0.00     0.026 C 
BRANCH  40  41
ATOM     41  C   UNL     1      -1.593   3.434  -6.536  1.00  0.00     0.146 C 
BRANCH  41  42
ATOM     42  N   UNL     1      -2.214   3.594  -5.228  1.00  0.00    -0.254 NA
ATOM     43  C   UNL     1      -1.516   4.021  -4.244  1.00  0.00     0.185 C 
ATOM     44  N   UNL     1      -0.219   4.376  -4.192  1.00  0.00    -0.370 N 
ATOM     45  N   UNL     1      -2.107   4.158  -3.045  1.00  0.00    -0.370 N 
ATOM     46  H   UNL     1       0.255   4.457  -3.309  1.00  0.00     0.159 HD
ATOM     47  H   UNL     1       0.375   4.346  -5.015  1.00  0.00     0.159 HD
ATOM     48  H   UNL     1      -3.088   3.920  -2.999  1.00  0.00     0.159 HD
ATOM     49  H   UNL     1      -1.706   4.699  -2.300  1.00  0.00     0.159 HD
ENDBRANCH  41  42
ENDBRANCH  40  41
ENDBRANCH  39  40
ENDBRANCH  38  39
ENDBRANCH  36  38
ENDBRANCH   5  34
BRANCH   8  50
ATOM     50  O   UNL     1      -6.362   3.863  -2.854  1.00  0.00    -0.245 OA
BRANCH  50  51
ATOM     51  S   UNL     1      -5.747   4.817  -1.689  1.00  0.00     0.397 S 
ATOM     52  O   UNL     1      -4.839   5.753  -2.313  1.00  0.00    -0.169 OA
ATOM     53  O   UNL     1      -5.344   4.006  -0.559  1.00  0.00    -0.169 OA
BRANCH  51  54
ATOM     54  O   UNL     1      -7.030   5.680  -1.249  1.00  0.00    -0.264 OA
ATOM     55  H   UNL     1      -6.724   6.377  -0.633  1.00  0.00     0.236 HD
ENDBRANCH  51  54
ENDBRANCH  50  51
ENDBRANCH   8  50
TORSDOF 19
ENDMDL
MODEL 23
REMARK VINA RESULT:    -6.347      4.278      8.071
REMARK INTER + INTRA:         -16.924
REMARK INTER:                 -12.921
REMARK INTRA:                  -4.003
REMARK UNBOUND:                -4.083
REMARK SMILES CC[C@@H](C)[C@@H](NC(=O)[C@@H](O)Cc1ccc(O)c(Cl)c1)C(=O)N1[C@H](C(=O)NCCCCN=C(N)N)C[C@H]2CC[C@H](OS(=O)(=O)O)C[C@@H]21
REMARK SMILES IDX 22 1 36 2 46 3 35 4 23 5 45 6 37 7 39 8 38 9 20 10 21 11
REMARK SMILES IDX 5 12 6 13 7 14 8 15 9 17 11 18 12 19 17 20 19 21 15 22 14 23
REMARK SMILES IDX 13 24 18 25 16 26 10 28 3 30 4 31 2 32 1 33 24 34 25 35
REMARK SMILES IDX 26 36 27 38 28 39 29 40 30 41 31 42 32 43 33 44 34 45 40 50
REMARK SMILES IDX 41 51 42 52 43 53 44 54
REMARK H PARENT 6 16 16 27 10 29 26 37 33 46 33 47 34 48 34 49 44 55
ROOT
ATOM      1  N   UNL     1      -7.707   1.965  -4.147  1.00  0.00    -0.326 N 
ATOM      2  C   UNL     1      -7.002   4.115  -4.796  1.00  0.00     0.014 C 
ATOM      3  C   UNL     1      -7.194   3.213  -3.574  1.00  0.00     0.091 C 
ATOM      4  C   UNL     1      -8.151   3.700  -5.703  1.00  0.00     0.041 C 
ATOM      5  C   UNL     1      -8.059   2.169  -5.574  1.00  0.00     0.175 C 
ATOM      6  C   UNL     1      -5.879   3.166  -2.797  1.00  0.00     0.059 C 
ATOM      7  C   UNL     1      -6.869   5.568  -4.382  1.00  0.00     0.008 C 
ATOM      8  C   UNL     1      -5.057   4.470  -2.888  1.00  0.00     0.143 C 
ATOM      9  C   UNL     1      -5.950   5.701  -3.150  1.00  0.00     0.034 C 
ENDROOT
BRANCH   1  10
ATOM     10  C   UNL     1      -8.082   0.789  -3.520  1.00  0.00     0.246 C 
ATOM     11  O   UNL     1      -7.289  -0.157  -3.492  1.00  0.00    -0.272 OA
BRANCH  10  12
ATOM     12  C   UNL     1      -9.474   0.699  -2.830  1.00  0.00     0.174 C 
BRANCH  12  13
ATOM     13  N   UNL     1      -9.898   2.026  -2.387  1.00  0.00    -0.342 N 
ATOM     14  C   UNL     1     -10.955   2.735  -2.914  1.00  0.00     0.249 C 
ATOM     15  O   UNL     1     -11.682   2.313  -3.805  1.00  0.00    -0.272 OA
ATOM     16  H   UNL     1      -9.299   2.566  -1.768  1.00  0.00     0.164 HD
BRANCH  14  17
ATOM     17  C   UNL     1     -11.139   4.114  -2.246  1.00  0.00     0.207 C 
BRANCH  17  18
ATOM     18  C   UNL     1     -10.296   5.173  -2.963  1.00  0.00     0.077 C 
BRANCH  18  19
ATOM     19  C   UNL     1     -11.140   6.049  -3.863  1.00  0.00    -0.043 A 
ATOM     20  C   UNL     1     -11.322   7.591  -5.726  1.00  0.00     0.083 A 
ATOM     21  C   UNL     1     -10.550   6.746  -4.929  1.00  0.00     0.028 A 
ATOM     22  C   UNL     1     -12.683   7.747  -5.464  1.00  0.00     0.134 A 
ATOM     23  C   UNL     1     -13.280   7.063  -4.412  1.00  0.00     0.048 A 
ATOM     24  C   UNL     1     -12.510   6.218  -3.610  1.00  0.00     0.008 A 
ATOM     25  Cl  UNL     1     -10.579   8.439  -7.031  1.00  0.00    -0.080 Cl
BRANCH  22  26
ATOM     26  O   UNL     1     -13.478   8.573  -6.212  1.00  0.00    -0.506 OA
ATOM     27  H   UNL     1     -13.524   9.424  -5.737  1.00  0.00     0.293 HD
ENDBRANCH  22  26
ENDBRANCH  18  19
ENDBRANCH  17  18
BRANCH  17  28
ATOM     28  O   UNL     1     -10.770   4.070  -0.859  1.00  0.00    -0.383 OA
ATOM     29  H   UNL     1     -11.530   3.658  -0.388  1.00  0.00     0.211 HD
ENDBRANCH  17  28
ENDBRANCH  14  17
ENDBRANCH  12  13
BRANCH  12  30
ATOM     30  C   UNL     1      -9.508  -0.347  -1.682  1.00  0.00     0.018 C 
ATOM     31  C   UNL     1     -10.200  -1.640  -2.142  1.00  0.00     0.010 C 
BRANCH  30  32
ATOM     32  C   UNL     1     -10.167   0.177  -0.383  1.00  0.00     0.002 C 
ATOM     33  C   UNL     1      -9.229   0.330   0.807  1.00  0.00     0.004 C 
ENDBRANCH  30  32
ENDBRANCH  12  30
ENDBRANCH  10  12
ENDBRANCH   1  10
BRANCH   5  34
ATOM     34  C   UNL     1      -6.962   1.581  -6.501  1.00  0.00     0.242 C 
ATOM     35  O   UNL     1      -6.980   1.736  -7.722  1.00  0.00    -0.273 OA
ATOM     36  N   UNL     1      -5.999   0.830  -5.865  1.00  0.00    -0.354 N 
ATOM     37  H   UNL     1      -6.104   0.638  -4.868  1.00  0.00     0.163 HD
BRANCH  36  38
ATOM     38  C   UNL     1      -4.792   0.391  -6.536  1.00  0.00     0.116 C 
BRANCH  38  39
ATOM     39  C   UNL     1      -3.589   1.156  -5.991  1.00  0.00     0.023 C 
BRANCH  39  40
ATOM     40  C   UNL     1      -3.374   2.488  -6.701  1.00  0.00     0.026 C 
BRANCH  40  41
ATOM     41  C   UNL     1      -2.111   2.447  -7.561  1.00  0.00     0.146 C 
BRANCH  41  42
ATOM     42  N   UNL     1      -1.474   3.758  -7.563  1.00  0.00    -0.254 NA
ATOM     43  C   UNL     1      -0.479   3.980  -6.788  1.00  0.00     0.185 C 
ATOM     44  N   UNL     1       0.132   3.165  -5.909  1.00  0.00    -0.370 N 
ATOM     45  N   UNL     1       0.091   5.196  -6.802  1.00  0.00    -0.370 N 
ATOM     46  H   UNL     1       0.736   3.539  -5.197  1.00  0.00     0.159 HD
ATOM     47  H   UNL     1      -0.164   2.202  -5.781  1.00  0.00     0.159 HD
ATOM     48  H   UNL     1      -0.304   5.869  -7.445  1.00  0.00     0.159 HD
ATOM     49  H   UNL     1       1.000   5.375  -6.414  1.00  0.00     0.159 HD
ENDBRANCH  41  42
ENDBRANCH  40  41
ENDBRANCH  39  40
ENDBRANCH  38  39
ENDBRANCH  36  38
ENDBRANCH   5  34
BRANCH   8  50
ATOM     50  O   UNL     1      -4.099   4.373  -3.942  1.00  0.00    -0.245 OA
BRANCH  50  51
ATOM     51  S   UNL     1      -2.587   4.924  -3.705  1.00  0.00     0.397 S 
ATOM     52  O   UNL     1      -2.315   5.927  -4.709  1.00  0.00    -0.169 OA
ATOM     53  O   UNL     1      -1.691   3.808  -3.484  1.00  0.00    -0.169 OA
BRANCH  51  54
ATOM     54  O   UNL     1      -2.734   5.723  -2.317  1.00  0.00    -0.264 OA
ATOM     55  H   UNL     1      -1.858   6.100  -2.095  1.00  0.00     0.236 HD
ENDBRANCH  51  54
ENDBRANCH  50  51
ENDBRANCH   8  50
TORSDOF 19
ENDMDL
MODEL 24
REMARK VINA RESULT:    -6.300      3.126      6.727
REMARK INTER + INTRA:         -16.829
REMARK INTER:                 -13.795
REMARK INTRA:                  -3.033
REMARK UNBOUND:                -4.083
REMARK SMILES CC[C@@H](C)[C@@H](NC(=O)[C@@H](O)Cc1ccc(O)c(Cl)c1)C(=O)N1[C@H](C(=O)NCCCCN=C(N)N)C[C@H]2CC[C@H](OS(=O)(=O)O)C[C@@H]21
REMARK SMILES IDX 22 1 36 2 46 3 35 4 23 5 45 6 37 7 39 8 38 9 20 10 21 11
REMARK SMILES IDX 5 12 6 13 7 14 8 15 9 17 11 18 12 19 17 20 19 21 15 22 14 23
REMARK SMILES IDX 13 24 18 25 16 26 10 28 3 30 4 31 2 32 1 33 24 34 25 35
REMARK SMILES IDX 26 36 27 38 28 39 29 40 30 41 31 42 32 43 33 44 34 45 40 50
REMARK SMILES IDX 41 51 42 52 43 53 44 54
REMARK H PARENT 6 16 16 27 10 29 26 37 33 46 33 47 34 48 34 49 44 55
ROOT
ATOM      1  N   UNL     1      -6.471  -0.677  -6.758  1.00  0.00    -0.326 N 
ATOM      2  C   UNL     1      -8.309  -2.080  -7.202  1.00  0.00     0.014 C 
ATOM      3  C   UNL     1      -6.841  -2.095  -6.766  1.00  0.00     0.091 C 
ATOM      4  C   UNL     1      -8.355  -0.915  -8.179  1.00  0.00     0.041 C 
ATOM      5  C   UNL     1      -7.540   0.130  -7.396  1.00  0.00     0.175 C 
ATOM      6  C   UNL     1      -6.734  -2.879  -5.459  1.00  0.00     0.059 C 
ATOM      7  C   UNL     1      -8.752  -3.455  -7.662  1.00  0.00     0.008 C 
ATOM      8  C   UNL     1      -7.769  -4.018  -5.331  1.00  0.00     0.143 C 
ATOM      9  C   UNL     1      -8.224  -4.545  -6.707  1.00  0.00     0.034 C 
ENDROOT
BRANCH   1  10
ATOM     10  C   UNL     1      -5.259  -0.077  -6.461  1.00  0.00     0.246 C 
ATOM     11  O   UNL     1      -5.105   0.452  -5.355  1.00  0.00    -0.272 OA
BRANCH  10  12
ATOM     12  C   UNL     1      -4.106  -0.120  -7.505  1.00  0.00     0.174 C 
BRANCH  12  13
ATOM     13  N   UNL     1      -3.117   0.913  -7.198  1.00  0.00    -0.342 N 
ATOM     14  C   UNL     1      -1.753   0.725  -7.195  1.00  0.00     0.249 C 
ATOM     15  O   UNL     1      -1.210  -0.336  -7.479  1.00  0.00    -0.272 OA
ATOM     16  H   UNL     1      -3.420   1.796  -6.794  1.00  0.00     0.164 HD
BRANCH  14  17
ATOM     17  C   UNL     1      -0.977   2.003  -6.813  1.00  0.00     0.207 C 
BRANCH  17  18
ATOM     18  C   UNL     1      -1.842   3.245  -7.047  1.00  0.00     0.077 C 
BRANCH  18  19
ATOM     19  C   UNL     1      -1.805   4.186  -5.863  1.00  0.00    -0.043 A 
ATOM     20  C   UNL     1      -2.899   5.210  -3.956  1.00  0.00     0.083 A 
ATOM     21  C   UNL     1      -2.919   4.305  -5.017  1.00  0.00     0.028 A 
ATOM     22  C   UNL     1      -1.772   6.002  -3.734  1.00  0.00     0.134 A 
ATOM     23  C   UNL     1      -0.662   5.895  -4.564  1.00  0.00     0.048 A 
ATOM     24  C   UNL     1      -0.679   4.991  -5.629  1.00  0.00     0.008 A 
ATOM     25  Cl  UNL     1      -4.277   5.341  -2.927  1.00  0.00    -0.080 Cl
BRANCH  22  26
ATOM     26  O   UNL     1      -1.710   6.911  -2.713  1.00  0.00    -0.506 OA
ATOM     27  H   UNL     1      -0.776   6.960  -2.437  1.00  0.00     0.293 HD
ENDBRANCH  22  26
ENDBRANCH  18  19
ENDBRANCH  17  18
BRANCH  17  28
ATOM     28  O   UNL     1       0.236   2.118  -7.574  1.00  0.00    -0.383 OA
ATOM     29  H   UNL     1       0.209   1.394  -8.241  1.00  0.00     0.211 HD
ENDBRANCH  17  28
ENDBRANCH  14  17
ENDBRANCH  12  13
BRANCH  12  30
ATOM     30  C   UNL     1      -4.618  -0.034  -8.968  1.00  0.00     0.018 C 
ATOM     31  C   UNL     1      -3.825  -0.981  -9.881  1.00  0.00     0.010 C 
BRANCH  30  32
ATOM     32  C   UNL     1      -4.603   1.402  -9.548  1.00  0.00     0.002 C 
ATOM     33  C   UNL     1      -3.496   1.686 -10.554  1.00  0.00     0.004 C 
ENDBRANCH  30  32
ENDBRANCH  12  30
ENDBRANCH  10  12
ENDBRANCH   1  10
BRANCH   5  34
ATOM     34  C   UNL     1      -8.406   0.844  -6.323  1.00  0.00     0.242 C 
ATOM     35  O   UNL     1      -8.413   0.493  -5.144  1.00  0.00    -0.273 OA
ATOM     36  N   UNL     1      -9.203   1.862  -6.797  1.00  0.00    -0.354 N 
ATOM     37  H   UNL     1      -9.243   2.027  -7.803  1.00  0.00     0.163 HD
BRANCH  36  38
ATOM     38  C   UNL     1      -9.906   2.769  -5.913  1.00  0.00     0.116 C 
BRANCH  38  39
ATOM     39  C   UNL     1      -8.947   3.841  -5.402  1.00  0.00     0.023 C 
BRANCH  39  40
ATOM     40  C   UNL     1      -8.916   3.918  -3.879  1.00  0.00     0.026 C 
BRANCH  40  41
ATOM     41  C   UNL     1      -7.476   3.974  -3.368  1.00  0.00     0.146 C 
BRANCH  41  42
ATOM     42  N   UNL     1      -7.050   2.645  -2.950  1.00  0.00    -0.254 NA
ATOM     43  C   UNL     1      -6.409   2.503  -1.851  1.00  0.00     0.185 C 
ATOM     44  N   UNL     1      -6.030   3.422  -0.945  1.00  0.00    -0.370 N 
ATOM     45  N   UNL     1      -6.021   1.270  -1.485  1.00  0.00    -0.370 N 
ATOM     46  H   UNL     1      -5.327   3.207  -0.259  1.00  0.00     0.159 HD
ATOM     47  H   UNL     1      -6.254   4.406  -1.058  1.00  0.00     0.159 HD
ATOM     48  H   UNL     1      -6.275   0.516  -2.110  1.00  0.00     0.159 HD
ATOM     49  H   UNL     1      -5.734   1.045  -0.549  1.00  0.00     0.159 HD
ENDBRANCH  41  42
ENDBRANCH  40  41
ENDBRANCH  39  40
ENDBRANCH  38  39
ENDBRANCH  36  38
ENDBRANCH   5  34
BRANCH   8  50
ATOM     50  O   UNL     1      -8.918  -3.558  -4.619  1.00  0.00    -0.245 OA
BRANCH  50  51
ATOM     51  S   UNL     1      -9.876  -4.631  -3.860  1.00  0.00     0.397 S 
ATOM     52  O   UNL     1      -9.043  -5.709  -3.377  1.00  0.00    -0.169 OA
ATOM     53  O   UNL     1     -11.054  -4.884  -4.663  1.00  0.00    -0.169 OA
BRANCH  51  54
ATOM     54  O   UNL     1     -10.332  -3.811  -2.555  1.00  0.00    -0.264 OA
ATOM     55  H   UNL     1      -9.983  -2.900  -2.638  1.00  0.00     0.236 HD
ENDBRANCH  51  54
ENDBRANCH  50  51
ENDBRANCH   8  50
TORSDOF 19
ENDMDL
MODEL 25
REMARK VINA RESULT:    -6.297      3.199      5.160
REMARK INTER + INTRA:         -16.823
REMARK INTER:                 -13.554
REMARK INTRA:                  -3.270
REMARK UNBOUND:                -4.083
REMARK SMILES CC[C@@H](C)[C@@H](NC(=O)[C@@H](O)Cc1ccc(O)c(Cl)c1)C(=O)N1[C@H](C(=O)NCCCCN=C(N)N)C[C@H]2CC[C@H](OS(=O)(=O)O)C[C@@H]21
REMARK SMILES IDX 22 1 36 2 46 3 35 4 23 5 45 6 37 7 39 8 38 9 20 10 21 11
REMARK SMILES IDX 5 12 6 13 7 14 8 15 9 17 11 18 12 19 17 20 19 21 15 22 14 23
REMARK SMILES IDX 13 24 18 25 16 26 10 28 3 30 4 31 2 32 1 33 24 34 25 35
REMARK SMILES IDX 26 36 27 38 28 39 29 40 30 41 31 42 32 43 33 44 34 45 40 50
REMARK SMILES IDX 41 51 42 52 43 53 44 54
REMARK H PARENT 6 16 16 27 10 29 26 37 33 46 33 47 34 48 34 49 44 55
ROOT
ATOM      1  N   UNL     1      -7.675   2.223  -6.242  1.00  0.00    -0.326 N 
ATOM      2  C   UNL     1      -7.204   0.106  -5.326  1.00  0.00     0.014 C 
ATOM      3  C   UNL     1      -8.351   1.071  -5.638  1.00  0.00     0.091 C 
ATOM      4  C   UNL     1      -6.068   1.046  -4.954  1.00  0.00     0.041 C 
ATOM      5  C   UNL     1      -6.207   2.097  -6.071  1.00  0.00     0.175 C 
ATOM      6  C   UNL     1      -9.395   0.327  -6.469  1.00  0.00     0.059 C 
ATOM      7  C   UNL     1      -7.643  -0.957  -4.339  1.00  0.00     0.008 C 
ATOM      8  C   UNL     1      -9.491  -1.179  -6.143  1.00  0.00     0.143 C 
ATOM      9  C   UNL     1      -9.046  -1.489  -4.699  1.00  0.00     0.034 C 
ENDROOT
BRANCH   1  10
ATOM     10  C   UNL     1      -8.200   3.416  -6.708  1.00  0.00     0.246 C 
ATOM     11  O   UNL     1      -8.296   3.596  -7.926  1.00  0.00    -0.272 OA
BRANCH  10  12
ATOM     12  C   UNL     1      -8.697   4.485  -5.691  1.00  0.00     0.174 C 
BRANCH  12  13
ATOM     13  N   UNL     1      -7.768   4.570  -4.564  1.00  0.00    -0.342 N 
ATOM     14  C   UNL     1      -7.161   5.726  -4.127  1.00  0.00     0.249 C 
ATOM     15  O   UNL     1      -7.356   6.829  -4.623  1.00  0.00    -0.272 OA
ATOM     16  H   UNL     1      -7.391   3.718  -4.156  1.00  0.00     0.164 HD
BRANCH  14  17
ATOM     17  C   UNL     1      -6.220   5.487  -2.926  1.00  0.00     0.207 C 
BRANCH  17  18
ATOM     18  C   UNL     1      -5.282   4.309  -3.207  1.00  0.00     0.077 C 
BRANCH  18  19
ATOM     19  C   UNL     1      -3.965   4.766  -3.793  1.00  0.00    -0.043 A 
ATOM     20  C   UNL     1      -2.429   4.896  -5.666  1.00  0.00     0.083 A 
ATOM     21  C   UNL     1      -3.665   4.516  -5.141  1.00  0.00     0.028 A 
ATOM     22  C   UNL     1      -1.488   5.524  -4.850  1.00  0.00     0.134 A 
ATOM     23  C   UNL     1      -1.772   5.779  -3.514  1.00  0.00     0.048 A 
ATOM     24  C   UNL     1      -3.008   5.398  -2.985  1.00  0.00     0.008 A 
ATOM     25  Cl  UNL     1      -2.078   4.579  -7.325  1.00  0.00    -0.080 Cl
BRANCH  22  26
ATOM     26  O   UNL     1      -0.259   5.905  -5.317  1.00  0.00    -0.506 OA
ATOM     27  H   UNL     1       0.058   5.185  -5.892  1.00  0.00     0.293 HD
ENDBRANCH  22  26
ENDBRANCH  18  19
ENDBRANCH  17  18
BRANCH  17  28
ATOM     28  O   UNL     1      -6.968   5.225  -1.728  1.00  0.00    -0.383 OA
ATOM     29  H   UNL     1      -6.633   5.860  -1.054  1.00  0.00     0.211 HD
ENDBRANCH  17  28
ENDBRANCH  14  17
ENDBRANCH  12  13
BRANCH  12  30
ATOM     30  C   UNL     1     -10.161   4.244  -5.235  1.00  0.00     0.018 C 
ATOM     31  C   UNL     1     -11.071   5.395  -5.692  1.00  0.00     0.010 C 
BRANCH  30  32
ATOM     32  C   UNL     1     -10.309   4.023  -3.710  1.00  0.00     0.002 C 
ATOM     33  C   UNL     1     -10.477   2.573  -3.275  1.00  0.00     0.004 C 
ENDBRANCH  30  32
ENDBRANCH  12  30
ENDBRANCH  10  12
ENDBRANCH   1  10
BRANCH   5  34
ATOM     34  C   UNL     1      -5.538   1.623  -7.389  1.00  0.00     0.242 C 
ATOM     35  O   UNL     1      -6.193   1.253  -8.363  1.00  0.00    -0.273 OA
ATOM     36  N   UNL     1      -4.162   1.595  -7.370  1.00  0.00    -0.354 N 
ATOM     37  H   UNL     1      -3.678   1.798  -6.494  1.00  0.00     0.163 HD
BRANCH  36  38
ATOM     38  C   UNL     1      -3.376   1.389  -8.569  1.00  0.00     0.116 C 
BRANCH  38  39
ATOM     39  C   UNL     1      -1.925   1.097  -8.194  1.00  0.00     0.023 C 
BRANCH  39  40
ATOM     40  C   UNL     1      -1.804  -0.004  -7.146  1.00  0.00     0.026 C 
BRANCH  40  41
ATOM     41  C   UNL     1      -2.114  -1.371  -7.756  1.00  0.00     0.146 C 
BRANCH  41  42
ATOM     42  N   UNL     1      -0.899  -1.945  -8.320  1.00  0.00    -0.254 NA
ATOM     43  C   UNL     1      -0.652  -3.190  -8.157  1.00  0.00     0.185 C 
ATOM     44  N   UNL     1      -1.361  -4.136  -7.513  1.00  0.00    -0.370 N 
ATOM     45  N   UNL     1       0.475  -3.699  -8.681  1.00  0.00    -0.370 N 
ATOM     46  H   UNL     1      -0.934  -5.009  -7.254  1.00  0.00     0.159 HD
ATOM     47  H   UNL     1      -2.249  -3.926  -7.068  1.00  0.00     0.159 HD
ATOM     48  H   UNL     1       1.063  -3.054  -9.191  1.00  0.00     0.159 HD
ATOM     49  H   UNL     1       0.622  -4.685  -8.802  1.00  0.00     0.159 HD
ENDBRANCH  41  42
ENDBRANCH  40  41
ENDBRANCH  39  40
ENDBRANCH  38  39
ENDBRANCH  36  38
ENDBRANCH   5  34
BRANCH   8  50
ATOM     50  O   UNL     1      -8.671  -1.928  -7.041  1.00  0.00    -0.245 OA
BRANCH  50  51
ATOM     51  S   UNL     1      -9.246  -3.300  -7.699  1.00  0.00     0.397 S 
ATOM     52  O   UNL     1      -8.633  -4.415  -7.014  1.00  0.00    -0.169 OA
ATOM     53  O   UNL     1      -9.224  -3.191  -9.143  1.00  0.00    -0.169 OA
BRANCH  51  54
ATOM     54  O   UNL     1     -10.781  -3.282  -7.223  1.00  0.00    -0.264 OA
ATOM     55  H   UNL     1     -10.994  -2.371  -6.936  1.00  0.00     0.236 HD
ENDBRANCH  51  54
ENDBRANCH  50  51
ENDBRANCH   8  50
TORSDOF 19
ENDMDL
MODEL 26
REMARK VINA RESULT:    -6.292      4.170      9.171
REMARK INTER + INTRA:         -16.811
REMARK INTER:                 -14.089
REMARK INTRA:                  -2.722
REMARK UNBOUND:                -4.083
REMARK SMILES CC[C@@H](C)[C@@H](NC(=O)[C@@H](O)Cc1ccc(O)c(Cl)c1)C(=O)N1[C@H](C(=O)NCCCCN=C(N)N)C[C@H]2CC[C@H](OS(=O)(=O)O)C[C@@H]21
REMARK SMILES IDX 22 1 36 2 46 3 35 4 23 5 45 6 37 7 39 8 38 9 20 10 21 11
REMARK SMILES IDX 5 12 6 13 7 14 8 15 9 17 11 18 12 19 17 20 19 21 15 22 14 23
REMARK SMILES IDX 13 24 18 25 16 26 10 28 3 30 4 31 2 32 1 33 24 34 25 35
REMARK SMILES IDX 26 36 27 38 28 39 29 40 30 41 31 42 32 43 33 44 34 45 40 50
REMARK SMILES IDX 41 51 42 52 43 53 44 54
REMARK H PARENT 6 16 16 27 10 29 26 37 33 46 33 47 34 48 34 49 44 55
ROOT
ATOM      1  N   UNL     1      -6.840   0.712  -6.040  1.00  0.00    -0.326 N 
ATOM      2  C   UNL     1      -6.638   3.056  -5.962  1.00  0.00     0.014 C 
ATOM      3  C   UNL     1      -6.774   1.814  -5.076  1.00  0.00     0.091 C 
ATOM      4  C   UNL     1      -7.475   2.693  -7.179  1.00  0.00     0.041 C 
ATOM      5  C   UNL     1      -7.002   1.247  -7.414  1.00  0.00     0.175 C 
ATOM      6  C   UNL     1      -5.636   1.819  -4.058  1.00  0.00     0.059 C 
ATOM      7  C   UNL     1      -6.964   4.315  -5.184  1.00  0.00     0.008 C 
ATOM      8  C   UNL     1      -5.187   3.235  -3.636  1.00  0.00     0.143 C 
ATOM      9  C   UNL     1      -6.320   4.270  -3.782  1.00  0.00     0.034 C 
ENDROOT
BRANCH   1  10
ATOM     10  C   UNL     1      -6.984  -0.648  -5.825  1.00  0.00     0.246 C 
ATOM     11  O   UNL     1      -6.623  -1.128  -4.745  1.00  0.00    -0.272 OA
BRANCH  10  12
ATOM     12  C   UNL     1      -7.634  -1.535  -6.926  1.00  0.00     0.174 C 
BRANCH  12  13
ATOM     13  N   UNL     1      -8.675  -2.377  -6.339  1.00  0.00    -0.342 N 
ATOM     14  C   UNL     1     -10.024  -2.103  -6.368  1.00  0.00     0.249 C 
ATOM     15  O   UNL     1     -10.509  -1.123  -6.922  1.00  0.00    -0.272 OA
ATOM     16  H   UNL     1      -8.416  -3.137  -5.714  1.00  0.00     0.164 HD
BRANCH  14  17
ATOM     17  C   UNL     1     -10.866  -3.175  -5.645  1.00  0.00     0.207 C 
BRANCH  17  18
ATOM     18  C   UNL     1     -10.280  -4.570  -5.887  1.00  0.00     0.077 C 
BRANCH  18  19
ATOM     19  C   UNL     1     -10.096  -5.334  -4.595  1.00  0.00    -0.043 A 
ATOM     20  C   UNL     1      -9.957  -5.368  -2.174  1.00  0.00     0.083 A 
ATOM     21  C   UNL     1     -10.175  -4.669  -3.362  1.00  0.00     0.028 A 
ATOM     22  C   UNL     1      -9.657  -6.730  -2.210  1.00  0.00     0.134 A 
ATOM     23  C   UNL     1      -9.576  -7.401  -3.425  1.00  0.00     0.048 A 
ATOM     24  C   UNL     1      -9.793  -6.704  -4.616  1.00  0.00     0.008 A 
ATOM     25  Cl  UNL     1     -10.057  -4.534  -0.668  1.00  0.00    -0.080 Cl
BRANCH  22  26
ATOM     26  O   UNL     1      -9.425  -7.455  -1.073  1.00  0.00    -0.506 OA
ATOM     27  H   UNL     1      -9.917  -8.292  -1.168  1.00  0.00     0.293 HD
ENDBRANCH  22  26
ENDBRANCH  18  19
ENDBRANCH  17  18
BRANCH  17  28
ATOM     28  O   UNL     1     -12.232  -3.148  -6.091  1.00  0.00    -0.383 OA
ATOM     29  H   UNL     1     -12.784  -3.182  -5.278  1.00  0.00     0.211 HD
ENDBRANCH  17  28
ENDBRANCH  14  17
ENDBRANCH  12  13
BRANCH  12  30
ATOM     30  C   UNL     1      -6.590  -2.357  -7.729  1.00  0.00     0.018 C 
ATOM     31  C   UNL     1      -7.283  -3.276  -8.747  1.00  0.00     0.010 C 
BRANCH  30  32
ATOM     32  C   UNL     1      -5.629  -3.180  -6.837  1.00  0.00     0.002 C 
ATOM     33  C   UNL     1      -5.824  -4.690  -6.890  1.00  0.00     0.004 C 
ENDBRANCH  30  32
ENDBRANCH  12  30
ENDBRANCH  10  12
ENDBRANCH   1  10
BRANCH   5  34
ATOM     34  C   UNL     1      -5.655   1.205  -8.184  1.00  0.00     0.242 C 
ATOM     35  O   UNL     1      -5.486   1.801  -9.248  1.00  0.00    -0.273 OA
ATOM     36  N   UNL     1      -4.683   0.409  -7.620  1.00  0.00    -0.354 N 
ATOM     37  H   UNL     1      -4.922  -0.155  -6.803  1.00  0.00     0.163 HD
BRANCH  36  38
ATOM     38  C   UNL     1      -3.310   0.422  -8.080  1.00  0.00     0.116 C 
BRANCH  38  39
ATOM     39  C   UNL     1      -2.362   0.382  -6.884  1.00  0.00     0.023 C 
BRANCH  39  40
ATOM     40  C   UNL     1      -1.128   1.255  -7.089  1.00  0.00     0.026 C 
BRANCH  40  41
ATOM     41  C   UNL     1      -1.476   2.503  -7.901  1.00  0.00     0.146 C 
BRANCH  41  42
ATOM     42  N   UNL     1      -1.356   3.687  -7.059  1.00  0.00    -0.254 NA
ATOM     43  C   UNL     1      -0.245   4.320  -7.012  1.00  0.00     0.185 C 
ATOM     44  N   UNL     1       0.918   4.076  -7.644  1.00  0.00    -0.370 N 
ATOM     45  N   UNL     1      -0.154   5.406  -6.227  1.00  0.00    -0.370 N 
ATOM     46  H   UNL     1       1.772   4.504  -7.330  1.00  0.00     0.159 HD
ATOM     47  H   UNL     1       1.021   3.299  -8.289  1.00  0.00     0.159 HD
ATOM     48  H   UNL     1      -0.990   5.665  -5.721  1.00  0.00     0.159 HD
ATOM     49  H   UNL     1       0.586   6.080  -6.315  1.00  0.00     0.159 HD
ENDBRANCH  41  42
ENDBRANCH  40  41
ENDBRANCH  39  40
ENDBRANCH  38  39
ENDBRANCH  36  38
ENDBRANCH   5  34
BRANCH   8  50
ATOM     50  O   UNL     1      -4.081   3.657  -4.435  1.00  0.00    -0.245 OA
BRANCH  50  51
ATOM     51  S   UNL     1      -2.857   4.475  -3.745  1.00  0.00     0.397 S 
ATOM     52  O   UNL     1      -1.670   3.653  -3.824  1.00  0.00    -0.169 OA
ATOM     53  O   UNL     1      -3.301   5.049  -2.491  1.00  0.00    -0.169 OA
BRANCH  51  54
ATOM     54  O   UNL     1      -2.627   5.678  -4.786  1.00  0.00    -0.264 OA
ATOM     55  H   UNL     1      -2.819   6.517  -4.320  1.00  0.00     0.236 HD
ENDBRANCH  51  54
ENDBRANCH  50  51
ENDBRANCH   8  50
TORSDOF 19
ENDMDL
MODEL 27
REMARK VINA RESULT:    -6.275      4.768      8.199
REMARK INTER + INTRA:         -16.778
REMARK INTER:                 -14.628
REMARK INTRA:                  -2.150
REMARK UNBOUND:                -4.083
REMARK SMILES CC[C@@H](C)[C@@H](NC(=O)[C@@H](O)Cc1ccc(O)c(Cl)c1)C(=O)N1[C@H](C(=O)NCCCCN=C(N)N)C[C@H]2CC[C@H](OS(=O)(=O)O)C[C@@H]21
REMARK SMILES IDX 22 1 36 2 46 3 35 4 23 5 45 6 37 7 39 8 38 9 20 10 21 11
REMARK SMILES IDX 5 12 6 13 7 14 8 15 9 17 11 18 12 19 17 20 19 21 15 22 14 23
REMARK SMILES IDX 13 24 18 25 16 26 10 28 3 30 4 31 2 32 1 33 24 34 25 35
REMARK SMILES IDX 26 36 27 38 28 39 29 40 30 41 31 42 32 43 33 44 34 45 40 50
REMARK SMILES IDX 41 51 42 52 43 53 44 54
REMARK H PARENT 6 16 16 27 10 29 26 37 33 46 33 47 34 48 34 49 44 55
ROOT
ATOM      1  N   UNL     1      -8.654  -2.960  -5.847  1.00  0.00    -0.326 N 
ATOM      2  C   UNL     1      -9.945  -4.868  -5.364  1.00  0.00     0.014 C 
ATOM      3  C   UNL     1      -8.595  -4.205  -5.077  1.00  0.00     0.091 C 
ATOM      4  C   UNL     1     -10.215  -4.467  -6.806  1.00  0.00     0.041 C 
ATOM      5  C   UNL     1      -9.831  -2.977  -6.750  1.00  0.00     0.175 C 
ATOM      6  C   UNL     1      -8.415  -4.113  -3.563  1.00  0.00     0.059 C 
ATOM      7  C   UNL     1      -9.917  -6.338  -4.995  1.00  0.00     0.008 C 
ATOM      8  C   UNL     1      -9.084  -5.268  -2.786  1.00  0.00     0.143 C 
ATOM      9  C   UNL     1      -9.207  -6.545  -3.640  1.00  0.00     0.034 C 
ENDROOT
BRANCH   1  10
ATOM     10  C   UNL     1      -7.709  -1.958  -5.989  1.00  0.00     0.246 C 
ATOM     11  O   UNL     1      -7.949  -0.836  -5.531  1.00  0.00    -0.272 OA
BRANCH  10  12
ATOM     12  C   UNL     1      -6.352  -2.277  -6.681  1.00  0.00     0.174 C 
BRANCH  12  13
ATOM     13  N   UNL     1      -5.429  -1.156  -6.508  1.00  0.00    -0.342 N 
ATOM     14  C   UNL     1      -4.210  -1.031  -7.136  1.00  0.00     0.249 C 
ATOM     15  O   UNL     1      -3.772  -1.844  -7.941  1.00  0.00    -0.272 OA
ATOM     16  H   UNL     1      -5.584  -0.487  -5.758  1.00  0.00     0.164 HD
BRANCH  14  17
ATOM     17  C   UNL     1      -3.460   0.256  -6.733  1.00  0.00     0.207 C 
BRANCH  17  18
ATOM     18  C   UNL     1      -1.953   0.088  -6.948  1.00  0.00     0.077 C 
BRANCH  18  19
ATOM     19  C   UNL     1      -1.390   1.165  -7.848  1.00  0.00    -0.043 A 
ATOM     20  C   UNL     1      -0.597   3.435  -8.169  1.00  0.00     0.083 A 
ATOM     21  C   UNL     1      -1.069   2.428  -7.327  1.00  0.00     0.028 A 
ATOM     22  C   UNL     1      -0.445   3.189  -9.534  1.00  0.00     0.134 A 
ATOM     23  C   UNL     1      -0.759   1.943 -10.064  1.00  0.00     0.048 A 
ATOM     24  C   UNL     1      -1.233   0.933  -9.224  1.00  0.00     0.008 A 
ATOM     25  Cl  UNL     1      -0.209   4.980  -7.510  1.00  0.00    -0.080 Cl
BRANCH  22  26
ATOM     26  O   UNL     1       0.005   4.148 -10.401  1.00  0.00    -0.506 OA
ATOM     27  H   UNL     1      -0.376   3.938 -11.274  1.00  0.00     0.293 HD
ENDBRANCH  22  26
ENDBRANCH  18  19
ENDBRANCH  17  18
BRANCH  17  28
ATOM     28  O   UNL     1      -3.711   0.592  -5.358  1.00  0.00    -0.383 OA
ATOM     29  H   UNL     1      -4.654   0.867  -5.313  1.00  0.00     0.211 HD
ENDBRANCH  17  28
ENDBRANCH  14  17
ENDBRANCH  12  13
BRANCH  12  30
ATOM     30  C   UNL     1      -6.519  -2.682  -8.170  1.00  0.00     0.018 C 
ATOM     31  C   UNL     1      -7.605  -1.834  -8.849  1.00  0.00     0.010 C 
BRANCH  30  32
ATOM     32  C   UNL     1      -6.814  -4.188  -8.375  1.00  0.00     0.002 C 
ATOM     33  C   UNL     1      -6.091  -5.129  -7.420  1.00  0.00     0.004 C 
ENDBRANCH  30  32
ENDBRANCH  12  30
ENDBRANCH  10  12
ENDBRANCH   1  10
BRANCH   5  34
ATOM     34  C   UNL     1     -10.982  -2.111  -6.171  1.00  0.00     0.242 C 
ATOM     35  O   UNL     1     -12.131  -2.536  -6.056  1.00  0.00    -0.273 OA
ATOM     36  N   UNL     1     -10.636  -0.818  -5.847  1.00  0.00    -0.354 N 
ATOM     37  H   UNL     1      -9.698  -0.488  -6.078  1.00  0.00     0.163 HD
BRANCH  36  38
ATOM     38  C   UNL     1     -11.519   0.055  -5.102  1.00  0.00     0.116 C 
BRANCH  38  39
ATOM     39  C   UNL     1     -12.713   0.448  -5.969  1.00  0.00     0.023 C 
BRANCH  39  40
ATOM     40  C   UNL     1     -14.005   0.557  -5.166  1.00  0.00     0.026 C 
BRANCH  40  41
ATOM     41  C   UNL     1     -13.895  -0.221  -3.854  1.00  0.00     0.146 C 
BRANCH  41  42
ATOM     42  N   UNL     1     -14.572  -1.505  -3.985  1.00  0.00    -0.254 NA
ATOM     43  C   UNL     1     -14.000  -2.567  -3.557  1.00  0.00     0.185 C 
ATOM     44  N   UNL     1     -12.803  -2.728  -2.966  1.00  0.00    -0.370 N 
ATOM     45  N   UNL     1     -14.639  -3.742  -3.691  1.00  0.00    -0.370 N 
ATOM     46  H   UNL     1     -12.378  -3.638  -2.905  1.00  0.00     0.159 HD
ATOM     47  H   UNL     1     -12.193  -1.939  -2.775  1.00  0.00     0.159 HD
ATOM     48  H   UNL     1     -15.553  -3.708  -4.120  1.00  0.00     0.159 HD
ATOM     49  H   UNL     1     -14.374  -4.566  -3.181  1.00  0.00     0.159 HD
ENDBRANCH  41  42
ENDBRANCH  40  41
ENDBRANCH  39  40
ENDBRANCH  38  39
ENDBRANCH  36  38
ENDBRANCH   5  34
BRANCH   8  50
ATOM     50  O   UNL     1     -10.390  -4.879  -2.359  1.00  0.00    -0.245 OA
BRANCH  50  51
ATOM     51  S   UNL     1     -10.953  -5.396  -0.923  1.00  0.00     0.397 S 
ATOM     52  O   UNL     1     -11.744  -4.333  -0.346  1.00  0.00    -0.169 OA
ATOM     53  O   UNL     1      -9.884  -6.035  -0.184  1.00  0.00    -0.169 OA
BRANCH  51  54
ATOM     54  O   UNL     1     -12.001  -6.533  -1.363  1.00  0.00    -0.264 OA
ATOM     55  H   UNL     1     -11.489  -7.330  -1.613  1.00  0.00     0.236 HD
ENDBRANCH  51  54
ENDBRANCH  50  51
ENDBRANCH   8  50
TORSDOF 19
ENDMDL
MODEL 28
REMARK VINA RESULT:    -6.264      5.388      8.189
REMARK INTER + INTRA:         -16.757
REMARK INTER:                 -13.718
REMARK INTRA:                  -3.038
REMARK UNBOUND:                -4.083
REMARK SMILES CC[C@@H](C)[C@@H](NC(=O)[C@@H](O)Cc1ccc(O)c(Cl)c1)C(=O)N1[C@H](C(=O)NCCCCN=C(N)N)C[C@H]2CC[C@H](OS(=O)(=O)O)C[C@@H]21
REMARK SMILES IDX 22 1 36 2 46 3 35 4 23 5 45 6 37 7 39 8 38 9 20 10 21 11
REMARK SMILES IDX 5 12 6 13 7 14 8 15 9 17 11 18 12 19 17 20 19 21 15 22 14 23
REMARK SMILES IDX 13 24 18 25 16 26 10 28 3 30 4 31 2 32 1 33 24 34 25 35
REMARK SMILES IDX 26 36 27 38 28 39 29 40 30 41 31 42 32 43 33 44 34 45 40 50
REMARK SMILES IDX 41 51 42 52 43 53 44 54
REMARK H PARENT 6 16 16 27 10 29 26 37 33 46 33 47 34 48 34 49 44 55
ROOT
ATOM      1  N   UNL     1      -9.655   5.101  -4.614  1.00  0.00    -0.326 N 
ATOM      2  C   UNL     1     -11.732   6.208  -4.629  1.00  0.00     0.014 C 
ATOM      3  C   UNL     1     -10.226   6.442  -4.772  1.00  0.00     0.091 C 
ATOM      4  C   UNL     1     -11.801   5.086  -3.604  1.00  0.00     0.041 C 
ATOM      5  C   UNL     1     -10.698   4.157  -4.143  1.00  0.00     0.175 C 
ATOM      6  C   UNL     1      -9.975   7.186  -6.083  1.00  0.00     0.059 C 
ATOM      7  C   UNL     1     -12.459   7.510  -4.355  1.00  0.00     0.008 C 
ATOM      8  C   UNL     1     -11.121   8.140  -6.484  1.00  0.00     0.143 C 
ATOM      9  C   UNL     1     -11.917   8.636  -5.261  1.00  0.00     0.034 C 
ENDROOT
BRANCH   1  10
ATOM     10  C   UNL     1      -8.332   4.692  -4.630  1.00  0.00     0.246 C 
ATOM     11  O   UNL     1      -7.667   4.849  -5.660  1.00  0.00    -0.272 OA
BRANCH  10  12
ATOM     12  C   UNL     1      -7.701   4.085  -3.343  1.00  0.00     0.174 C 
BRANCH  12  13
ATOM     13  N   UNL     1      -6.248   4.244  -3.378  1.00  0.00    -0.342 N 
ATOM     14  C   UNL     1      -5.523   5.072  -2.551  1.00  0.00     0.249 C 
ATOM     15  O   UNL     1      -6.020   5.755  -1.664  1.00  0.00    -0.272 OA
ATOM     16  H   UNL     1      -5.718   3.863  -4.158  1.00  0.00     0.164 HD
BRANCH  14  17
ATOM     17  C   UNL     1      -4.008   5.032  -2.846  1.00  0.00     0.207 C 
BRANCH  17  18
ATOM     18  C   UNL     1      -3.678   3.875  -3.794  1.00  0.00     0.077 C 
BRANCH  18  19
ATOM     19  C   UNL     1      -2.631   4.264  -4.813  1.00  0.00    -0.043 A 
ATOM     20  C   UNL     1      -1.693   4.076  -7.042  1.00  0.00     0.083 A 
ATOM     21  C   UNL     1      -2.689   3.754  -6.119  1.00  0.00     0.028 A 
ATOM     22  C   UNL     1      -0.636   4.906  -6.668  1.00  0.00     0.134 A 
ATOM     23  C   UNL     1      -0.566   5.419  -5.378  1.00  0.00     0.048 A 
ATOM     24  C   UNL     1      -1.560   5.097  -4.451  1.00  0.00     0.008 A 
ATOM     25  Cl  UNL     1      -1.782   3.439  -8.642  1.00  0.00    -0.080 Cl
BRANCH  22  26
ATOM     26  O   UNL     1       0.368   5.242  -7.535  1.00  0.00    -0.506 OA
ATOM     27  H   UNL     1       0.829   6.008  -7.147  1.00  0.00     0.293 HD
ENDBRANCH  22  26
ENDBRANCH  18  19
ENDBRANCH  17  18
BRANCH  17  28
ATOM     28  O   UNL     1      -3.249   4.887  -1.635  1.00  0.00    -0.383 OA
ATOM     29  H   UNL     1      -2.303   4.963  -1.896  1.00  0.00     0.211 HD
ENDBRANCH  17  28
ENDBRANCH  14  17
ENDBRANCH  12  13
BRANCH  12  30
ATOM     30  C   UNL     1      -8.131   2.614  -3.101  1.00  0.00     0.018 C 
ATOM     31  C   UNL     1      -7.367   2.010  -1.912  1.00  0.00     0.010 C 
BRANCH  30  32
ATOM     32  C   UNL     1      -7.977   1.708  -4.347  1.00  0.00     0.002 C 
ATOM     33  C   UNL     1      -6.667   0.935  -4.433  1.00  0.00     0.004 C 
ENDBRANCH  30  32
ENDBRANCH  12  30
ENDBRANCH  10  12
ENDBRANCH   1  10
BRANCH   5  34
ATOM     34  C   UNL     1     -11.213   3.277  -5.313  1.00  0.00     0.242 C 
ATOM     35  O   UNL     1     -12.252   2.622  -5.236  1.00  0.00    -0.273 OA
ATOM     36  N   UNL     1     -10.396   3.240  -6.421  1.00  0.00    -0.354 N 
ATOM     37  H   UNL     1      -9.489   3.707  -6.380  1.00  0.00     0.163 HD
BRANCH  36  38
ATOM     38  C   UNL     1     -10.819   2.650  -7.675  1.00  0.00     0.116 C 
BRANCH  38  39
ATOM     39  C   UNL     1      -9.943   3.167  -8.813  1.00  0.00     0.023 C 
BRANCH  39  40
ATOM     40  C   UNL     1      -9.617   4.650  -8.670  1.00  0.00     0.026 C 
BRANCH  40  41
ATOM     41  C   UNL     1      -9.452   5.303 -10.042  1.00  0.00     0.146 C 
BRANCH  41  42
ATOM     42  N   UNL     1      -9.820   6.711  -9.964  1.00  0.00    -0.254 NA
ATOM     43  C   UNL     1      -9.311   7.545 -10.791  1.00  0.00     0.185 C 
ATOM     44  N   UNL     1      -8.435   7.345 -11.793  1.00  0.00    -0.370 N 
ATOM     45  N   UNL     1      -9.660   8.839 -10.700  1.00  0.00    -0.370 N 
ATOM     46  H   UNL     1      -7.937   8.118 -12.200  1.00  0.00     0.159 HD
ATOM     47  H   UNL     1      -8.077   6.421 -12.011  1.00  0.00     0.159 HD
ATOM     48  H   UNL     1     -10.324   9.074  -9.975  1.00  0.00     0.159 HD
ATOM     49  H   UNL     1      -9.498   9.499 -11.439  1.00  0.00     0.159 HD
ENDBRANCH  41  42
ENDBRANCH  40  41
ENDBRANCH  39  40
ENDBRANCH  38  39
ENDBRANCH  36  38
ENDBRANCH   5  34
BRANCH   8  50
ATOM     50  O   UNL     1     -12.021   7.478  -7.373  1.00  0.00    -0.245 OA
BRANCH  50  51
ATOM     51  S   UNL     1     -12.780   8.332  -8.531  1.00  0.00     0.397 S 
ATOM     52  O   UNL     1     -11.869   9.350  -9.004  1.00  0.00    -0.169 OA
ATOM     53  O   UNL     1     -14.122   8.657  -8.094  1.00  0.00    -0.169 OA
BRANCH  51  54
ATOM     54  O   UNL     1     -12.892   7.257  -9.721  1.00  0.00    -0.264 OA
ATOM     55  H   UNL     1     -13.265   7.715 -10.502  1.00  0.00     0.236 HD
ENDBRANCH  51  54
ENDBRANCH  50  51
ENDBRANCH   8  50
TORSDOF 19
ENDMDL
MODEL 29
REMARK VINA RESULT:    -6.244      5.062      8.266
REMARK INTER + INTRA:         -16.715
REMARK INTER:                 -14.482
REMARK INTRA:                  -2.233
REMARK UNBOUND:                -4.083
REMARK SMILES CC[C@@H](C)[C@@H](NC(=O)[C@@H](O)Cc1ccc(O)c(Cl)c1)C(=O)N1[C@H](C(=O)NCCCCN=C(N)N)C[C@H]2CC[C@H](OS(=O)(=O)O)C[C@@H]21
REMARK SMILES IDX 22 1 36 2 46 3 35 4 23 5 45 6 37 7 39 8 38 9 20 10 21 11
REMARK SMILES IDX 5 12 6 13 7 14 8 15 9 17 11 18 12 19 17 20 19 21 15 22 14 23
REMARK SMILES IDX 13 24 18 25 16 26 10 28 3 30 4 31 2 32 1 33 24 34 25 35
REMARK SMILES IDX 26 36 27 38 28 39 29 40 30 41 31 42 32 43 33 44 34 45 40 50
REMARK SMILES IDX 41 51 42 52 43 53 44 54
REMARK H PARENT 6 16 16 27 10 29 26 37 33 46 33 47 34 48 34 49 44 55
ROOT
ATOM      1  N   UNL     1      -9.779  -2.280  -5.286  1.00  0.00    -0.326 N 
ATOM      2  C   UNL     1     -10.581  -4.468  -4.954  1.00  0.00     0.014 C 
ATOM      3  C   UNL     1      -9.362  -3.569  -4.727  1.00  0.00     0.091 C 
ATOM      4  C   UNL     1     -11.131  -3.958  -6.277  1.00  0.00     0.041 C 
ATOM      5  C   UNL     1     -11.047  -2.439  -6.040  1.00  0.00     0.175 C 
ATOM      6  C   UNL     1      -8.987  -3.630  -3.248  1.00  0.00     0.059 C 
ATOM      7  C   UNL     1     -10.209  -5.931  -4.819  1.00  0.00     0.008 C 
ATOM      8  C   UNL     1      -9.294  -4.989  -2.583  1.00  0.00     0.143 C 
ATOM      9  C   UNL     1      -9.284  -6.147  -3.602  1.00  0.00     0.034 C 
ENDROOT
BRANCH   1  10
ATOM     10  C   UNL     1      -9.082  -1.087  -5.382  1.00  0.00     0.246 C 
ATOM     11  O   UNL     1      -9.564  -0.067  -4.879  1.00  0.00    -0.272 OA
BRANCH  10  12
ATOM     12  C   UNL     1      -7.691  -1.066  -6.080  1.00  0.00     0.174 C 
BRANCH  12  13
ATOM     13  N   UNL     1      -6.836  -0.056  -5.457  1.00  0.00    -0.342 N 
ATOM     14  C   UNL     1      -5.537   0.216  -5.826  1.00  0.00     0.249 C 
ATOM     15  O   UNL     1      -4.958  -0.346  -6.746  1.00  0.00    -0.272 OA
ATOM     16  H   UNL     1      -7.123   0.378  -4.584  1.00  0.00     0.164 HD
BRANCH  14  17
ATOM     17  C   UNL     1      -4.894   1.324  -4.965  1.00  0.00     0.207 C 
BRANCH  17  18
ATOM     18  C   UNL     1      -4.685   2.594  -5.796  1.00  0.00     0.077 C 
BRANCH  18  19
ATOM     19  C   UNL     1      -4.010   3.685  -4.995  1.00  0.00    -0.043 A 
ATOM     20  C   UNL     1      -2.115   5.151  -4.618  1.00  0.00     0.083 A 
ATOM     21  C   UNL     1      -2.757   4.180  -5.387  1.00  0.00     0.028 A 
ATOM     22  C   UNL     1      -2.718   5.632  -3.455  1.00  0.00     0.134 A 
ATOM     23  C   UNL     1      -3.959   5.151  -3.055  1.00  0.00     0.048 A 
ATOM     24  C   UNL     1      -4.603   4.177  -3.822  1.00  0.00     0.008 A 
ATOM     25  Cl  UNL     1      -0.575   5.747  -5.117  1.00  0.00    -0.080 Cl
BRANCH  22  26
ATOM     26  O   UNL     1      -2.122   6.576  -2.664  1.00  0.00    -0.506 OA
ATOM     27  H   UNL     1      -2.376   7.446  -3.025  1.00  0.00     0.293 HD
ENDBRANCH  22  26
ENDBRANCH  18  19
ENDBRANCH  17  18
BRANCH  17  28
ATOM     28  O   UNL     1      -3.633   0.894  -4.426  1.00  0.00    -0.383 OA
ATOM     29  H   UNL     1      -3.788   0.731  -3.468  1.00  0.00     0.211 HD
ENDBRANCH  17  28
ENDBRANCH  14  17
ENDBRANCH  12  13
BRANCH  12  30
ATOM     30  C   UNL     1      -7.795  -0.886  -7.619  1.00  0.00     0.018 C 
ATOM     31  C   UNL     1      -9.075  -0.123  -7.995  1.00  0.00     0.010 C 
BRANCH  30  32
ATOM     32  C   UNL     1      -7.718  -2.216  -8.407  1.00  0.00     0.002 C 
ATOM     33  C   UNL     1      -9.021  -2.665  -9.055  1.00  0.00     0.004 C 
ENDBRANCH  30  32
ENDBRANCH  12  30
ENDBRANCH  10  12
ENDBRANCH   1  10
BRANCH   5  34
ATOM     34  C   UNL     1     -12.250  -1.922  -5.207  1.00  0.00     0.242 C 
ATOM     35  O   UNL     1     -13.412  -2.013  -5.603  1.00  0.00    -0.273 OA
ATOM     36  N   UNL     1     -11.920  -1.308  -4.020  1.00  0.00    -0.354 N 
ATOM     37  H   UNL     1     -10.934  -1.156  -3.802  1.00  0.00     0.163 HD
BRANCH  36  38
ATOM     38  C   UNL     1     -12.914  -0.963  -3.025  1.00  0.00     0.116 C 
BRANCH  38  39
ATOM     39  C   UNL     1     -12.226  -0.486  -1.748  1.00  0.00     0.023 C 
BRANCH  39  40
ATOM     40  C   UNL     1     -10.808  -1.029  -1.613  1.00  0.00     0.026 C 
BRANCH  40  41
ATOM     41  C   UNL     1     -10.467  -1.297  -0.147  1.00  0.00     0.146 C 
BRANCH  41  42
ATOM     42  N   UNL     1      -9.940  -0.085   0.467  1.00  0.00    -0.254 NA
ATOM     43  C   UNL     1      -9.730  -0.055   1.729  1.00  0.00     0.185 C 
ATOM     44  N   UNL     1      -9.919  -1.006   2.661  1.00  0.00    -0.370 N 
ATOM     45  N   UNL     1      -9.247   1.073   2.276  1.00  0.00    -0.370 N 
ATOM     46  H   UNL     1      -9.945  -0.769   3.638  1.00  0.00     0.159 HD
ATOM     47  H   UNL     1     -10.267  -1.929   2.419  1.00  0.00     0.159 HD
ATOM     48  H   UNL     1      -9.068   1.839   1.640  1.00  0.00     0.159 HD
ATOM     49  H   UNL     1      -8.839   1.102   3.193  1.00  0.00     0.159 HD
ENDBRANCH  41  42
ENDBRANCH  40  41
ENDBRANCH  39  40
ENDBRANCH  38  39
ENDBRANCH  36  38
ENDBRANCH   5  34
BRANCH   8  50
ATOM     50  O   UNL     1     -10.575  -4.950  -1.955  1.00  0.00    -0.245 OA
BRANCH  50  51
ATOM     51  S   UNL     1     -10.728  -5.440  -0.412  1.00  0.00     0.397 S 
ATOM     52  O   UNL     1     -10.726  -6.885  -0.400  1.00  0.00    -0.169 OA
ATOM     53  O   UNL     1     -11.773  -4.677   0.239  1.00  0.00    -0.169 OA
BRANCH  51  54
ATOM     54  O   UNL     1      -9.320  -4.994   0.223  1.00  0.00    -0.264 OA
ATOM     55  H   UNL     1      -9.278  -4.016   0.200  1.00  0.00     0.236 HD
ENDBRANCH  51  54
ENDBRANCH  50  51
ENDBRANCH   8  50
TORSDOF 19
ENDMDL
MODEL 30
REMARK VINA RESULT:    -6.225      3.929      6.605
REMARK INTER + INTRA:         -16.676
REMARK INTER:                 -12.612
REMARK INTRA:                  -4.064
REMARK UNBOUND:                -4.083
REMARK SMILES CC[C@@H](C)[C@@H](NC(=O)[C@@H](O)Cc1ccc(O)c(Cl)c1)C(=O)N1[C@H](C(=O)NCCCCN=C(N)N)C[C@H]2CC[C@H](OS(=O)(=O)O)C[C@@H]21
REMARK SMILES IDX 22 1 36 2 46 3 35 4 23 5 45 6 37 7 39 8 38 9 20 10 21 11
REMARK SMILES IDX 5 12 6 13 7 14 8 15 9 17 11 18 12 19 17 20 19 21 15 22 14 23
REMARK SMILES IDX 13 24 18 25 16 26 10 28 3 30 4 31 2 32 1 33 24 34 25 35
REMARK SMILES IDX 26 36 27 38 28 39 29 40 30 41 31 42 32 43 33 44 34 45 40 50
REMARK SMILES IDX 41 51 42 52 43 53 44 54
REMARK H PARENT 6 16 16 27 10 29 26 37 33 46 33 47 34 48 34 49 44 55
ROOT
ATOM      1  N   UNL     1      -8.226  -2.071  -5.236  1.00  0.00    -0.326 N 
ATOM      2  C   UNL     1      -9.238  -4.136  -5.738  1.00  0.00     0.014 C 
ATOM      3  C   UNL     1      -8.823  -3.234  -4.573  1.00  0.00     0.091 C 
ATOM      4  C   UNL     1      -8.143  -3.884  -6.763  1.00  0.00     0.041 C 
ATOM      5  C   UNL     1      -8.041  -2.349  -6.681  1.00  0.00     0.175 C 
ATOM      6  C   UNL     1     -10.040  -3.011  -3.677  1.00  0.00     0.059 C 
ATOM      7  C   UNL     1      -9.498  -5.551  -5.262  1.00  0.00     0.008 C 
ATOM      8  C   UNL     1     -11.014  -4.209  -3.643  1.00  0.00     0.143 C 
ATOM      9  C   UNL     1     -10.302  -5.543  -3.945  1.00  0.00     0.034 C 
ENDROOT
BRANCH   1  10
ATOM     10  C   UNL     1      -7.655  -0.933  -4.690  1.00  0.00     0.246 C 
ATOM     11  O   UNL     1      -7.382  -0.917  -3.485  1.00  0.00    -0.272 OA
BRANCH  10  12
ATOM     12  C   UNL     1      -7.332   0.280  -5.609  1.00  0.00     0.174 C 
BRANCH  12  13
ATOM     13  N   UNL     1      -5.924   0.248  -6.000  1.00  0.00    -0.342 N 
ATOM     14  C   UNL     1      -5.460   0.342  -7.293  1.00  0.00     0.249 C 
ATOM     15  O   UNL     1      -6.185   0.492  -8.268  1.00  0.00    -0.272 OA
ATOM     16  H   UNL     1      -5.218  -0.028  -5.321  1.00  0.00     0.164 HD
BRANCH  14  17
ATOM     17  C   UNL     1      -3.921   0.258  -7.382  1.00  0.00     0.207 C 
BRANCH  17  18
ATOM     18  C   UNL     1      -3.343   1.575  -7.910  1.00  0.00     0.077 C 
BRANCH  18  19
ATOM     19  C   UNL     1      -2.415   2.223  -6.906  1.00  0.00    -0.043 A 
ATOM     20  C   UNL     1      -2.080   3.565  -4.913  1.00  0.00     0.083 A 
ATOM     21  C   UNL     1      -2.938   2.926  -5.809  1.00  0.00     0.028 A 
ATOM     22  C   UNL     1      -0.699   3.508  -5.107  1.00  0.00     0.134 A 
ATOM     23  C   UNL     1      -0.168   2.815  -6.189  1.00  0.00     0.048 A 
ATOM     24  C   UNL     1      -1.025   2.176  -7.089  1.00  0.00     0.008 A 
ATOM     25  Cl  UNL     1      -2.741   4.423  -3.572  1.00  0.00    -0.080 Cl
BRANCH  22  26
ATOM     26  O   UNL     1       0.181   4.127  -4.261  1.00  0.00    -0.506 OA
ATOM     27  H   UNL     1       0.001   3.780  -3.367  1.00  0.00     0.293 HD
ENDBRANCH  22  26
ENDBRANCH  18  19
ENDBRANCH  17  18
BRANCH  17  28
ATOM     28  O   UNL     1      -3.510  -0.820  -8.238  1.00  0.00    -0.383 OA
ATOM     29  H   UNL     1      -4.178  -1.532  -8.118  1.00  0.00     0.211 HD
ENDBRANCH  17  28
ENDBRANCH  14  17
ENDBRANCH  12  13
BRANCH  12  30
ATOM     30  C   UNL     1      -7.741   1.637  -4.977  1.00  0.00     0.018 C 
ATOM     31  C   UNL     1      -8.647   2.433  -5.929  1.00  0.00     0.010 C 
BRANCH  30  32
ATOM     32  C   UNL     1      -6.537   2.506  -4.538  1.00  0.00     0.002 C 
ATOM     33  C   UNL     1      -6.173   2.417  -3.062  1.00  0.00     0.004 C 
ENDBRANCH  30  32
ENDBRANCH  12  30
ENDBRANCH  10  12
ENDBRANCH   1  10
BRANCH   5  34
ATOM     34  C   UNL     1      -9.148  -1.657  -7.521  1.00  0.00     0.242 C 
ATOM     35  O   UNL     1     -10.319  -1.599  -7.146  1.00  0.00    -0.273 OA
ATOM     36  N   UNL     1      -8.736  -1.161  -8.738  1.00  0.00    -0.354 N 
ATOM     37  H   UNL     1      -7.780  -1.345  -9.045  1.00  0.00     0.163 HD
BRANCH  36  38
ATOM     38  C   UNL     1      -9.576  -0.303  -9.547  1.00  0.00     0.116 C 
BRANCH  38  39
ATOM     39  C   UNL     1      -9.249  -0.502 -11.025  1.00  0.00     0.023 C 
BRANCH  39  40
ATOM     40  C   UNL     1      -9.255  -1.972 -11.430  1.00  0.00     0.026 C 
BRANCH  40  41
ATOM     41  C   UNL     1      -7.844  -2.443 -11.782  1.00  0.00     0.146 C 
BRANCH  41  42
ATOM     42  N   UNL     1      -7.156  -2.882 -10.574  1.00  0.00    -0.254 NA
ATOM     43  C   UNL     1      -6.124  -2.243 -10.166  1.00  0.00     0.185 C 
ATOM     44  N   UNL     1      -5.514  -1.162 -10.685  1.00  0.00    -0.370 N 
ATOM     45  N   UNL     1      -5.502  -2.666  -9.053  1.00  0.00    -0.370 N 
ATOM     46  H   UNL     1      -4.580  -0.916 -10.405  1.00  0.00     0.159 HD
ATOM     47  H   UNL     1      -5.862  -0.704 -11.522  1.00  0.00     0.159 HD
ATOM     48  H   UNL     1      -5.903  -3.472  -8.594  1.00  0.00     0.159 HD
ATOM     49  H   UNL     1      -4.849  -2.096  -8.545  1.00  0.00     0.159 HD
ENDBRANCH  41  42
ENDBRANCH  40  41
ENDBRANCH  39  40
ENDBRANCH  38  39
ENDBRANCH  36  38
ENDBRANCH   5  34
BRANCH   8  50
ATOM     50  O   UNL     1     -12.054  -4.023  -4.604  1.00  0.00    -0.245 OA
BRANCH  50  51
ATOM     51  S   UNL     1     -13.269  -2.991  -4.282  1.00  0.00     0.397 S 
ATOM     52  O   UNL     1     -13.186  -2.625  -2.886  1.00  0.00    -0.169 OA
ATOM     53  O   UNL     1     -14.498  -3.491  -4.865  1.00  0.00    -0.169 OA
BRANCH  51  54
ATOM     54  O   UNL     1     -12.827  -1.683  -5.106  1.00  0.00    -0.264 OA
ATOM     55  H   UNL     1     -13.260  -0.909  -4.692  1.00  0.00     0.236 HD
ENDBRANCH  51  54
ENDBRANCH  50  51
ENDBRANCH   8  50
TORSDOF 19
ENDMDL
MODEL 31
REMARK VINA RESULT:    -6.209      8.107     11.918
REMARK INTER + INTRA:         -16.644
REMARK INTER:                 -13.194
REMARK INTRA:                  -3.450
REMARK UNBOUND:                -4.083
REMARK SMILES CC[C@@H](C)[C@@H](NC(=O)[C@@H](O)Cc1ccc(O)c(Cl)c1)C(=O)N1[C@H](C(=O)NCCCCN=C(N)N)C[C@H]2CC[C@H](OS(=O)(=O)O)C[C@@H]21
REMARK SMILES IDX 22 1 36 2 46 3 35 4 23 5 45 6 37 7 39 8 38 9 20 10 21 11
REMARK SMILES IDX 5 12 6 13 7 14 8 15 9 17 11 18 12 19 17 20 19 21 15 22 14 23
REMARK SMILES IDX 13 24 18 25 16 26 10 28 3 30 4 31 2 32 1 33 24 34 25 35
REMARK SMILES IDX 26 36 27 38 28 39 29 40 30 41 31 42 32 43 33 44 34 45 40 50
REMARK SMILES IDX 41 51 42 52 43 53 44 54
REMARK H PARENT 6 16 16 27 10 29 26 37 33 46 33 47 34 48 34 49 44 55
ROOT
ATOM      1  N   UNL     1     -11.287  -1.388  -0.005  1.00  0.00    -0.326 N 
ATOM      2  C   UNL     1     -12.408  -0.578   1.901  1.00  0.00     0.014 C 
ATOM      3  C   UNL     1     -12.338  -0.441   0.377  1.00  0.00     0.091 C 
ATOM      4  C   UNL     1     -10.958  -0.840   2.279  1.00  0.00     0.041 C 
ATOM      5  C   UNL     1     -10.577  -1.874   1.204  1.00  0.00     0.175 C 
ATOM      6  C   UNL     1     -13.741  -0.648  -0.191  1.00  0.00     0.059 C 
ATOM      7  C   UNL     1     -13.137   0.598   2.519  1.00  0.00     0.008 C 
ATOM      8  C   UNL     1     -14.869  -0.171   0.750  1.00  0.00     0.143 C 
ATOM      9  C   UNL     1     -14.397   0.949   1.699  1.00  0.00     0.034 C 
ENDROOT
BRANCH   1  10
ATOM     10  C   UNL     1     -10.771  -1.685  -1.255  1.00  0.00     0.246 C 
ATOM     11  O   UNL     1      -9.638  -1.288  -1.548  1.00  0.00    -0.272 OA
BRANCH  10  12
ATOM     12  C   UNL     1     -11.608  -2.546  -2.245  1.00  0.00     0.174 C 
BRANCH  12  13
ATOM     13  N   UNL     1     -10.768  -3.590  -2.831  1.00  0.00    -0.342 N 
ATOM     14  C   UNL     1     -11.096  -4.926  -2.892  1.00  0.00     0.249 C 
ATOM     15  O   UNL     1     -12.153  -5.388  -2.482  1.00  0.00    -0.272 OA
ATOM     16  H   UNL     1      -9.801  -3.384  -3.069  1.00  0.00     0.164 HD
BRANCH  14  17
ATOM     17  C   UNL     1      -9.993  -5.780  -3.555  1.00  0.00     0.207 C 
BRANCH  17  18
ATOM     18  C   UNL     1      -9.961  -5.533  -5.066  1.00  0.00     0.077 C 
BRANCH  18  19
ATOM     19  C   UNL     1      -8.727  -4.766  -5.485  1.00  0.00    -0.043 A 
ATOM     20  C   UNL     1      -7.304  -3.862  -7.228  1.00  0.00     0.083 A 
ATOM     21  C   UNL     1      -8.468  -4.527  -6.843  1.00  0.00     0.028 A 
ATOM     22  C   UNL     1      -6.393  -3.432  -6.262  1.00  0.00     0.134 A 
ATOM     23  C   UNL     1      -6.637  -3.662  -4.913  1.00  0.00     0.048 A 
ATOM     24  C   UNL     1      -7.801  -4.329  -4.525  1.00  0.00     0.008 A 
ATOM     25  Cl  UNL     1      -7.002  -3.579  -8.903  1.00  0.00    -0.080 Cl
BRANCH  22  26
ATOM     26  O   UNL     1      -5.233  -2.785  -6.592  1.00  0.00    -0.506 OA
ATOM     27  H   UNL     1      -4.519  -3.447  -6.541  1.00  0.00     0.293 HD
ENDBRANCH  22  26
ENDBRANCH  18  19
ENDBRANCH  17  18
BRANCH  17  28
ATOM     28  O   UNL     1     -10.202  -7.179  -3.304  1.00  0.00    -0.383 OA
ATOM     29  H   UNL     1      -9.424  -7.643  -3.689  1.00  0.00     0.211 HD
ENDBRANCH  17  28
ENDBRANCH  14  17
ENDBRANCH  12  13
BRANCH  12  30
ATOM     30  C   UNL     1     -12.328  -1.691  -3.323  1.00  0.00     0.018 C 
ATOM     31  C   UNL     1     -13.692  -2.300  -3.682  1.00  0.00     0.010 C 
BRANCH  30  32
ATOM     32  C   UNL     1     -11.489  -1.472  -4.605  1.00  0.00     0.002 C 
ATOM     33  C   UNL     1     -11.857  -2.363  -5.785  1.00  0.00     0.004 C 
ENDBRANCH  30  32
ENDBRANCH  12  30
ENDBRANCH  10  12
ENDBRANCH   1  10
BRANCH   5  34
ATOM     34  C   UNL     1     -11.056  -3.300   1.587  1.00  0.00     0.242 C 
ATOM     35  O   UNL     1     -11.890  -3.915   0.922  1.00  0.00    -0.273 OA
ATOM     36  N   UNL     1     -10.522  -3.804   2.752  1.00  0.00    -0.354 N 
ATOM     37  H   UNL     1      -9.929  -3.200   3.322  1.00  0.00     0.163 HD
BRANCH  36  38
ATOM     38  C   UNL     1     -10.688  -5.188   3.143  1.00  0.00     0.116 C 
BRANCH  38  39
ATOM     39  C   UNL     1      -9.349  -5.917   3.053  1.00  0.00     0.023 C 
BRANCH  39  40
ATOM     40  C   UNL     1      -9.357  -7.023   2.003  1.00  0.00     0.026 C 
BRANCH  40  41
ATOM     41  C   UNL     1      -7.939  -7.314   1.512  1.00  0.00     0.146 C 
BRANCH  41  42
ATOM     42  N   UNL     1      -7.989  -8.225   0.376  1.00  0.00    -0.254 NA
ATOM     43  C   UNL     1      -7.856  -7.765  -0.811  1.00  0.00     0.185 C 
ATOM     44  N   UNL     1      -7.663  -6.502  -1.233  1.00  0.00    -0.370 N 
ATOM     45  N   UNL     1      -7.909  -8.622  -1.845  1.00  0.00    -0.370 N 
ATOM     46  H   UNL     1      -7.820  -6.254  -2.195  1.00  0.00     0.159 HD
ATOM     47  H   UNL     1      -7.585  -5.729  -0.581  1.00  0.00     0.159 HD
ATOM     48  H   UNL     1      -8.043  -9.596  -1.613  1.00  0.00     0.159 HD
ATOM     49  H   UNL     1      -7.583  -8.385  -2.764  1.00  0.00     0.159 HD
ENDBRANCH  41  42
ENDBRANCH  40  41
ENDBRANCH  39  40
ENDBRANCH  38  39
ENDBRANCH  36  38
ENDBRANCH   5  34
BRANCH   8  50
ATOM     50  O   UNL     1     -15.345  -1.263   1.537  1.00  0.00    -0.245 OA
BRANCH  50  51
ATOM     51  S   UNL     1     -16.935  -1.389   1.857  1.00  0.00     0.397 S 
ATOM     52  O   UNL     1     -17.659  -1.090   0.643  1.00  0.00    -0.169 OA
ATOM     53  O   UNL     1     -17.234  -0.719   3.105  1.00  0.00    -0.169 OA
BRANCH  51  54
ATOM     54  O   UNL     1     -17.105  -2.971   2.091  1.00  0.00    -0.264 OA
ATOM     55  H   UNL     1     -16.211  -3.369   2.104  1.00  0.00     0.236 HD
ENDBRANCH  51  54
ENDBRANCH  50  51
ENDBRANCH   8  50
TORSDOF 19
ENDMDL
MODEL 32
REMARK VINA RESULT:    -6.203      5.134      8.461
REMARK INTER + INTRA:         -16.633
REMARK INTER:                 -12.465
REMARK INTRA:                  -4.167
REMARK UNBOUND:                -4.083
REMARK SMILES CC[C@@H](C)[C@@H](NC(=O)[C@@H](O)Cc1ccc(O)c(Cl)c1)C(=O)N1[C@H](C(=O)NCCCCN=C(N)N)C[C@H]2CC[C@H](OS(=O)(=O)O)C[C@@H]21
REMARK SMILES IDX 22 1 36 2 46 3 35 4 23 5 45 6 37 7 39 8 38 9 20 10 21 11
REMARK SMILES IDX 5 12 6 13 7 14 8 15 9 17 11 18 12 19 17 20 19 21 15 22 14 23
REMARK SMILES IDX 13 24 18 25 16 26 10 28 3 30 4 31 2 32 1 33 24 34 25 35
REMARK SMILES IDX 26 36 27 38 28 39 29 40 30 41 31 42 32 43 33 44 34 45 40 50
REMARK SMILES IDX 41 51 42 52 43 53 44 54
REMARK H PARENT 6 16 16 27 10 29 26 37 33 46 33 47 34 48 34 49 44 55
ROOT
ATOM      1  N   UNL     1      -8.743  -2.809  -5.014  1.00  0.00    -0.326 N 
ATOM      2  C   UNL     1      -9.896  -4.861  -5.065  1.00  0.00     0.014 C 
ATOM      3  C   UNL     1      -8.654  -4.175  -4.490  1.00  0.00     0.091 C 
ATOM      4  C   UNL     1     -10.042  -4.202  -6.428  1.00  0.00     0.041 C 
ATOM      5  C   UNL     1      -9.806  -2.729  -6.046  1.00  0.00     0.175 C 
ATOM      6  C   UNL     1      -8.652  -4.371  -2.975  1.00  0.00     0.059 C 
ATOM      7  C   UNL     1      -9.773  -6.369  -4.978  1.00  0.00     0.008 C 
ATOM      8  C   UNL     1      -9.292  -5.700  -2.519  1.00  0.00     0.143 C 
ATOM      9  C   UNL     1      -9.201  -6.790  -3.607  1.00  0.00     0.034 C 
ENDROOT
BRANCH   1  10
ATOM     10  C   UNL     1      -7.885  -1.736  -4.844  1.00  0.00     0.246 C 
ATOM     11  O   UNL     1      -6.693  -1.867  -5.139  1.00  0.00    -0.272 OA
BRANCH  10  12
ATOM     12  C   UNL     1      -8.447  -0.379  -4.329  1.00  0.00     0.174 C 
BRANCH  12  13
ATOM     13  N   UNL     1      -7.751   0.729  -4.983  1.00  0.00    -0.342 N 
ATOM     14  C   UNL     1      -8.165   1.350  -6.140  1.00  0.00     0.249 C 
ATOM     15  O   UNL     1      -9.191   1.056  -6.742  1.00  0.00    -0.272 OA
ATOM     16  H   UNL     1      -6.810   0.977  -4.688  1.00  0.00     0.164 HD
BRANCH  14  17
ATOM     17  C   UNL     1      -7.208   2.474  -6.589  1.00  0.00     0.207 C 
BRANCH  17  18
ATOM     18  C   UNL     1      -7.513   3.771  -5.833  1.00  0.00     0.077 C 
BRANCH  18  19
ATOM     19  C   UNL     1      -6.438   4.100  -4.822  1.00  0.00    -0.043 A 
ATOM     20  C   UNL     1      -4.140   3.925  -4.065  1.00  0.00     0.083 A 
ATOM     21  C   UNL     1      -5.119   3.664  -5.024  1.00  0.00     0.028 A 
ATOM     22  C   UNL     1      -4.471   4.621  -2.901  1.00  0.00     0.134 A 
ATOM     23  C   UNL     1      -5.773   5.059  -2.689  1.00  0.00     0.048 A 
ATOM     24  C   UNL     1      -6.756   4.796  -3.646  1.00  0.00     0.008 A 
ATOM     25  Cl  UNL     1      -2.526   3.381  -4.330  1.00  0.00    -0.080 Cl
BRANCH  22  26
ATOM     26  O   UNL     1      -3.548   4.892  -1.928  1.00  0.00    -0.506 OA
ATOM     27  H   UNL     1      -3.459   4.082  -1.392  1.00  0.00     0.293 HD
ENDBRANCH  22  26
ENDBRANCH  18  19
ENDBRANCH  17  18
BRANCH  17  28
ATOM     28  O   UNL     1      -7.312   2.709  -8.002  1.00  0.00    -0.383 OA
ATOM     29  H   UNL     1      -6.395   2.654  -8.356  1.00  0.00     0.211 HD
ENDBRANCH  17  28
ENDBRANCH  14  17
ENDBRANCH  12  13
BRANCH  12  30
ATOM     30  C   UNL     1      -8.418  -0.266  -2.781  1.00  0.00     0.018 C 
ATOM     31  C   UNL     1      -9.724  -0.795  -2.170  1.00  0.00     0.010 C 
BRANCH  30  32
ATOM     32  C   UNL     1      -8.132   1.166  -2.268  1.00  0.00     0.002 C 
ATOM     33  C   UNL     1      -9.361   2.042  -2.064  1.00  0.00     0.004 C 
ENDBRANCH  30  32
ENDBRANCH  12  30
ENDBRANCH  10  12
ENDBRANCH   1  10
BRANCH   5  34
ATOM     34  C   UNL     1     -11.089  -2.077  -5.465  1.00  0.00     0.242 C 
ATOM     35  O   UNL     1     -11.727  -2.587  -4.544  1.00  0.00    -0.273 OA
ATOM     36  N   UNL     1     -11.492  -0.918  -6.089  1.00  0.00    -0.354 N 
ATOM     37  H   UNL     1     -10.990  -0.610  -6.923  1.00  0.00     0.163 HD
BRANCH  36  38
ATOM     38  C   UNL     1     -12.532  -0.069  -5.547  1.00  0.00     0.116 C 
BRANCH  38  39
ATOM     39  C   UNL     1     -11.926   0.929  -4.563  1.00  0.00     0.023 C 
BRANCH  39  40
ATOM     40  C   UNL     1     -12.981   1.596  -3.686  1.00  0.00     0.026 C 
BRANCH  40  41
ATOM     41  C   UNL     1     -13.173   0.820  -2.383  1.00  0.00     0.146 C 
BRANCH  41  42
ATOM     42  N   UNL     1     -14.384   0.014  -2.464  1.00  0.00    -0.254 NA
ATOM     43  C   UNL     1     -14.305  -1.259  -2.361  1.00  0.00     0.185 C 
ATOM     44  N   UNL     1     -13.231  -2.048  -2.177  1.00  0.00    -0.370 N 
ATOM     45  N   UNL     1     -15.433  -1.984  -2.442  1.00  0.00    -0.370 N 
ATOM     46  H   UNL     1     -13.283  -3.036  -2.359  1.00  0.00     0.159 HD
ATOM     47  H   UNL     1     -12.297  -1.662  -2.081  1.00  0.00     0.159 HD
ATOM     48  H   UNL     1     -16.291  -1.466  -2.572  1.00  0.00     0.159 HD
ATOM     49  H   UNL     1     -15.488  -2.941  -2.140  1.00  0.00     0.159 HD
ENDBRANCH  41  42
ENDBRANCH  40  41
ENDBRANCH  39  40
ENDBRANCH  38  39
ENDBRANCH  36  38
ENDBRANCH   5  34
BRANCH   8  50
ATOM     50  O   UNL     1     -10.668  -5.496  -2.196  1.00  0.00    -0.245 OA
BRANCH  50  51
ATOM     51  S   UNL     1     -11.224  -5.942  -0.735  1.00  0.00     0.397 S 
ATOM     52  O   UNL     1     -11.642  -4.750  -0.033  1.00  0.00    -0.169 OA
ATOM     53  O   UNL     1     -10.312  -6.895  -0.137  1.00  0.00    -0.169 OA
BRANCH  51  54
ATOM     54  O   UNL     1     -12.578  -6.723  -1.115  1.00  0.00    -0.264 OA
ATOM     55  H   UNL     1     -12.545  -6.929  -2.072  1.00  0.00     0.236 HD
ENDBRANCH  51  54
ENDBRANCH  50  51
ENDBRANCH   8  50
TORSDOF 19
ENDMDL
MODEL 33
REMARK VINA RESULT:    -6.164      5.379      8.427
REMARK INTER + INTRA:         -16.553
REMARK INTER:                 -13.982
REMARK INTRA:                  -2.571
REMARK UNBOUND:                -4.083
REMARK SMILES CC[C@@H](C)[C@@H](NC(=O)[C@@H](O)Cc1ccc(O)c(Cl)c1)C(=O)N1[C@H](C(=O)NCCCCN=C(N)N)C[C@H]2CC[C@H](OS(=O)(=O)O)C[C@@H]21
REMARK SMILES IDX 22 1 36 2 46 3 35 4 23 5 45 6 37 7 39 8 38 9 20 10 21 11
REMARK SMILES IDX 5 12 6 13 7 14 8 15 9 17 11 18 12 19 17 20 19 21 15 22 14 23
REMARK SMILES IDX 13 24 18 25 16 26 10 28 3 30 4 31 2 32 1 33 24 34 25 35
REMARK SMILES IDX 26 36 27 38 28 39 29 40 30 41 31 42 32 43 33 44 34 45 40 50
REMARK SMILES IDX 41 51 42 52 43 53 44 54
REMARK H PARENT 6 16 16 27 10 29 26 37 33 46 33 47 34 48 34 49 44 55
ROOT
ATOM      1  N   UNL     1      -8.569  -2.699  -5.271  1.00  0.00    -0.326 N 
ATOM      2  C   UNL     1      -9.947  -4.607  -5.305  1.00  0.00     0.014 C 
ATOM      3  C   UNL     1      -8.587  -4.095  -4.824  1.00  0.00     0.091 C 
ATOM      4  C   UNL     1     -10.143  -3.859  -6.614  1.00  0.00     0.041 C 
ATOM      5  C   UNL     1      -9.707  -2.445  -6.187  1.00  0.00     0.175 C 
ATOM      6  C   UNL     1      -8.466  -4.378  -3.327  1.00  0.00     0.059 C 
ATOM      7  C   UNL     1      -9.988  -6.123  -5.302  1.00  0.00     0.008 C 
ATOM      8  C   UNL     1      -9.208  -5.654  -2.874  1.00  0.00     0.143 C 
ATOM      9  C   UNL     1      -9.343  -6.682  -4.016  1.00  0.00     0.034 C 
ENDROOT
BRANCH   1  10
ATOM     10  C   UNL     1      -7.583  -1.737  -5.136  1.00  0.00     0.246 C 
ATOM     11  O   UNL     1      -7.737  -0.828  -4.313  1.00  0.00    -0.272 OA
BRANCH  10  12
ATOM     12  C   UNL     1      -6.286  -1.843  -5.990  1.00  0.00     0.174 C 
BRANCH  12  13
ATOM     13  N   UNL     1      -6.025  -0.570  -6.661  1.00  0.00    -0.342 N 
ATOM     14  C   UNL     1      -5.320   0.480  -6.118  1.00  0.00     0.249 C 
ATOM     15  O   UNL     1      -4.802   0.452  -5.008  1.00  0.00    -0.272 OA
ATOM     16  H   UNL     1      -6.521  -0.342  -7.519  1.00  0.00     0.164 HD
BRANCH  14  17
ATOM     17  C   UNL     1      -5.231   1.693  -7.068  1.00  0.00     0.207 C 
BRANCH  17  18
ATOM     18  C   UNL     1      -4.533   2.867  -6.373  1.00  0.00     0.077 C 
BRANCH  18  19
ATOM     19  C   UNL     1      -3.032   2.808  -6.542  1.00  0.00    -0.043 A 
ATOM     20  C   UNL     1      -1.087   2.352  -7.919  1.00  0.00     0.083 A 
ATOM     21  C   UNL     1      -2.472   2.454  -7.780  1.00  0.00     0.028 A 
ATOM     22  C   UNL     1      -0.255   2.600  -6.827  1.00  0.00     0.134 A 
ATOM     23  C   UNL     1      -0.796   2.951  -5.595  1.00  0.00     0.048 A 
ATOM     24  C   UNL     1      -2.182   3.052  -5.453  1.00  0.00     0.008 A 
ATOM     25  Cl  UNL     1      -0.418   1.915  -9.448  1.00  0.00    -0.080 Cl
BRANCH  22  26
ATOM     26  O   UNL     1       1.107   2.502  -6.912  1.00  0.00    -0.506 OA
ATOM     27  H   UNL     1       1.472   3.014  -6.166  1.00  0.00     0.293 HD
ENDBRANCH  22  26
ENDBRANCH  18  19
ENDBRANCH  17  18
BRANCH  17  28
ATOM     28  O   UNL     1      -6.537   2.105  -7.503  1.00  0.00    -0.383 OA
ATOM     29  H   UNL     1      -6.390   2.715  -8.262  1.00  0.00     0.211 HD
ENDBRANCH  17  28
ENDBRANCH  14  17
ENDBRANCH  12  13
BRANCH  12  30
ATOM     30  C   UNL     1      -6.315  -3.039  -6.980  1.00  0.00     0.018 C 
ATOM     31  C   UNL     1      -5.305  -4.119  -6.562  1.00  0.00     0.010 C 
BRANCH  30  32
ATOM     32  C   UNL     1      -6.080  -2.632  -8.454  1.00  0.00     0.002 C 
ATOM     33  C   UNL     1      -7.165  -3.065  -9.431  1.00  0.00     0.004 C 
ENDBRANCH  30  32
ENDBRANCH  12  30
ENDBRANCH  10  12
ENDBRANCH   1  10
BRANCH   5  34
ATOM     34  C   UNL     1     -10.848  -1.693  -5.452  1.00  0.00     0.242 C 
ATOM     35  O   UNL     1     -11.928  -1.447  -5.990  1.00  0.00    -0.273 OA
ATOM     36  N   UNL     1     -10.546  -1.274  -4.175  1.00  0.00    -0.354 N 
ATOM     37  H   UNL     1      -9.595  -1.402  -3.829  1.00  0.00     0.163 HD
BRANCH  36  38
ATOM     38  C   UNL     1     -11.553  -0.753  -3.274  1.00  0.00     0.116 C 
BRANCH  38  39
ATOM     39  C   UNL     1     -11.194  -1.112  -1.834  1.00  0.00     0.023 C 
BRANCH  39  40
ATOM     40  C   UNL     1     -12.407  -1.558  -1.024  1.00  0.00     0.026 C 
BRANCH  40  41
ATOM     41  C   UNL     1     -12.093  -1.551   0.472  1.00  0.00     0.146 C 
BRANCH  41  42
ATOM     42  N   UNL     1     -13.334  -1.539   1.235  1.00  0.00    -0.254 NA
ATOM     43  C   UNL     1     -13.644  -2.551   1.955  1.00  0.00     0.185 C 
ATOM     44  N   UNL     1     -12.986  -3.708   2.151  1.00  0.00    -0.370 N 
ATOM     45  N   UNL     1     -14.795  -2.522   2.648  1.00  0.00    -0.370 N 
ATOM     46  H   UNL     1     -13.457  -4.506   2.542  1.00  0.00     0.159 HD
ATOM     47  H   UNL     1     -12.089  -3.892   1.712  1.00  0.00     0.159 HD
ATOM     48  H   UNL     1     -15.348  -1.680   2.563  1.00  0.00     0.159 HD
ATOM     49  H   UNL     1     -14.991  -3.155   3.403  1.00  0.00     0.159 HD
ENDBRANCH  41  42
ENDBRANCH  40  41
ENDBRANCH  39  40
ENDBRANCH  38  39
ENDBRANCH  36  38
ENDBRANCH   5  34
BRANCH   8  50
ATOM     50  O   UNL     1     -10.515  -5.321  -2.407  1.00  0.00    -0.245 OA
BRANCH  50  51
ATOM     51  S   UNL     1     -11.088  -6.022  -1.056  1.00  0.00     0.397 S 
ATOM     52  O   UNL     1     -11.606  -4.980  -0.198  1.00  0.00    -0.169 OA
ATOM     53  O   UNL     1     -10.135  -6.999  -0.574  1.00  0.00    -0.169 OA
BRANCH  51  54
ATOM     54  O   UNL     1     -12.374  -6.813  -1.608  1.00  0.00    -0.264 OA
ATOM     55  H   UNL     1     -12.507  -7.600  -1.040  1.00  0.00     0.236 HD
ENDBRANCH  51  54
ENDBRANCH  50  51
ENDBRANCH   8  50
TORSDOF 19
ENDMDL
MODEL 34
REMARK VINA RESULT:    -6.159      4.452      7.862
REMARK INTER + INTRA:         -16.544
REMARK INTER:                 -13.499
REMARK INTRA:                  -3.045
REMARK UNBOUND:                -4.083
REMARK SMILES CC[C@@H](C)[C@@H](NC(=O)[C@@H](O)Cc1ccc(O)c(Cl)c1)C(=O)N1[C@H](C(=O)NCCCCN=C(N)N)C[C@H]2CC[C@H](OS(=O)(=O)O)C[C@@H]21
REMARK SMILES IDX 22 1 36 2 46 3 35 4 23 5 45 6 37 7 39 8 38 9 20 10 21 11
REMARK SMILES IDX 5 12 6 13 7 14 8 15 9 17 11 18 12 19 17 20 19 21 15 22 14 23
REMARK SMILES IDX 13 24 18 25 16 26 10 28 3 30 4 31 2 32 1 33 24 34 25 35
REMARK SMILES IDX 26 36 27 38 28 39 29 40 30 41 31 42 32 43 33 44 34 45 40 50
REMARK SMILES IDX 41 51 42 52 43 53 44 54
REMARK H PARENT 6 16 16 27 10 29 26 37 33 46 33 47 34 48 34 49 44 55
ROOT
ATOM      1  N   UNL     1      -8.694  -2.599  -6.402  1.00  0.00    -0.326 N 
ATOM      2  C   UNL     1     -10.052  -4.313  -5.531  1.00  0.00     0.014 C 
ATOM      3  C   UNL     1      -8.631  -3.746  -5.491  1.00  0.00     0.091 C 
ATOM      4  C   UNL     1     -10.473  -4.062  -6.971  1.00  0.00     0.041 C 
ATOM      5  C   UNL     1      -9.974  -2.616  -7.151  1.00  0.00     0.175 C 
ATOM      6  C   UNL     1      -8.253  -3.493  -4.032  1.00  0.00     0.059 C 
ATOM      7  C   UNL     1     -10.088  -5.726  -4.982  1.00  0.00     0.008 C 
ATOM      8  C   UNL     1      -8.903  -4.482  -3.041  1.00  0.00     0.143 C 
ATOM      9  C   UNL     1      -9.230  -5.836  -3.705  1.00  0.00     0.034 C 
ENDROOT
BRANCH   1  10
ATOM     10  C   UNL     1      -7.702  -1.711  -6.780  1.00  0.00     0.246 C 
ATOM     11  O   UNL     1      -7.976  -0.809  -7.579  1.00  0.00    -0.272 OA
BRANCH  10  12
ATOM     12  C   UNL     1      -6.280  -1.839  -6.161  1.00  0.00     0.174 C 
BRANCH  12  13
ATOM     13  N   UNL     1      -5.653  -0.521  -6.075  1.00  0.00    -0.342 N 
ATOM     14  C   UNL     1      -5.907   0.412  -5.095  1.00  0.00     0.249 C 
ATOM     15  O   UNL     1      -6.676   0.227  -4.160  1.00  0.00    -0.272 OA
ATOM     16  H   UNL     1      -5.114  -0.167  -6.861  1.00  0.00     0.164 HD
BRANCH  14  17
ATOM     17  C   UNL     1      -5.100   1.714  -5.288  1.00  0.00     0.207 C 
BRANCH  17  18
ATOM     18  C   UNL     1      -3.650   1.518  -4.835  1.00  0.00     0.077 C 
BRANCH  18  19
ATOM     19  C   UNL     1      -2.709   2.479  -5.527  1.00  0.00    -0.043 A 
ATOM     20  C   UNL     1      -1.275   4.434  -5.458  1.00  0.00     0.083 A 
ATOM     21  C   UNL     1      -2.103   3.519  -4.806  1.00  0.00     0.028 A 
ATOM     22  C   UNL     1      -1.049   4.317  -6.829  1.00  0.00     0.134 A 
ATOM     23  C   UNL     1      -1.643   3.291  -7.556  1.00  0.00     0.048 A 
ATOM     24  C   UNL     1      -2.474   2.375  -6.906  1.00  0.00     0.008 A 
ATOM     25  Cl  UNL     1      -0.540   5.706  -4.555  1.00  0.00    -0.080 Cl
BRANCH  22  26
ATOM     26  O   UNL     1      -0.254   5.196  -7.514  1.00  0.00    -0.506 OA
ATOM     27  H   UNL     1       0.658   4.853  -7.454  1.00  0.00     0.293 HD
ENDBRANCH  22  26
ENDBRANCH  18  19
ENDBRANCH  17  18
BRANCH  17  28
ATOM     28  O   UNL     1      -5.686   2.800  -4.554  1.00  0.00    -0.383 OA
ATOM     29  H   UNL     1      -4.953   3.208  -4.039  1.00  0.00     0.211 HD
ENDBRANCH  17  28
ENDBRANCH  14  17
ENDBRANCH  12  13
BRANCH  12  30
ATOM     30  C   UNL     1      -5.392  -2.870  -6.908  1.00  0.00     0.018 C 
ATOM     31  C   UNL     1      -4.200  -2.175  -7.585  1.00  0.00     0.010 C 
BRANCH  30  32
ATOM     32  C   UNL     1      -6.166  -3.725  -7.940  1.00  0.00     0.002 C 
ATOM     33  C   UNL     1      -6.290  -5.204  -7.599  1.00  0.00     0.004 C 
ENDBRANCH  30  32
ENDBRANCH  12  30
ENDBRANCH  10  12
ENDBRANCH   1  10
BRANCH   5  34
ATOM     34  C   UNL     1     -10.974  -1.588  -6.557  1.00  0.00     0.242 C 
ATOM     35  O   UNL     1     -12.058  -1.924  -6.080  1.00  0.00    -0.273 OA
ATOM     36  N   UNL     1     -10.584  -0.271  -6.651  1.00  0.00    -0.354 N 
ATOM     37  H   UNL     1      -9.730  -0.046  -7.164  1.00  0.00     0.163 HD
BRANCH  36  38
ATOM     38  C   UNL     1     -11.284   0.794  -5.963  1.00  0.00     0.116 C 
BRANCH  38  39
ATOM     39  C   UNL     1     -10.742   0.938  -4.543  1.00  0.00     0.023 C 
BRANCH  39  40
ATOM     40  C   UNL     1     -11.851   0.963  -3.496  1.00  0.00     0.026 C 
BRANCH  40  41
ATOM     41  C   UNL     1     -11.940  -0.378  -2.769  1.00  0.00     0.146 C 
BRANCH  41  42
ATOM     42  N   UNL     1     -13.335  -0.784  -2.654  1.00  0.00    -0.254 NA
ATOM     43  C   UNL     1     -13.671  -1.985  -2.942  1.00  0.00     0.185 C 
ATOM     44  N   UNL     1     -12.916  -3.017  -3.362  1.00  0.00    -0.370 N 
ATOM     45  N   UNL     1     -14.962  -2.338  -2.834  1.00  0.00    -0.370 N 
ATOM     46  H   UNL     1     -13.342  -3.826  -3.783  1.00  0.00     0.159 HD
ATOM     47  H   UNL     1     -11.913  -2.928  -3.485  1.00  0.00     0.159 HD
ATOM     48  H   UNL     1     -15.598  -1.620  -2.515  1.00  0.00     0.159 HD
ATOM     49  H   UNL     1     -15.264  -3.296  -2.810  1.00  0.00     0.159 HD
ENDBRANCH  41  42
ENDBRANCH  40  41
ENDBRANCH  39  40
ENDBRANCH  38  39
ENDBRANCH  36  38
ENDBRANCH   5  34
BRANCH   8  50
ATOM     50  O   UNL     1     -10.111  -3.930  -2.518  1.00  0.00    -0.245 OA
BRANCH  50  51
ATOM     51  S   UNL     1     -10.750  -4.545  -1.155  1.00  0.00     0.397 S 
ATOM     52  O   UNL     1     -11.479  -3.489  -0.488  1.00  0.00    -0.169 OA
ATOM     53  O   UNL     1      -9.752  -5.333  -0.462  1.00  0.00    -0.169 OA
BRANCH  51  54
ATOM     54  O   UNL     1     -11.865  -5.550  -1.730  1.00  0.00    -0.264 OA
ATOM     55  H   UNL     1     -12.436  -5.043  -2.343  1.00  0.00     0.236 HD
ENDBRANCH  51  54
ENDBRANCH  50  51
ENDBRANCH   8  50
TORSDOF 19
ENDMDL
MODEL 35
REMARK VINA RESULT:    -6.141      4.718      7.906
REMARK INTER + INTRA:         -16.507
REMARK INTER:                 -13.492
REMARK INTRA:                  -3.015
REMARK UNBOUND:                -4.083
REMARK SMILES CC[C@@H](C)[C@@H](NC(=O)[C@@H](O)Cc1ccc(O)c(Cl)c1)C(=O)N1[C@H](C(=O)NCCCCN=C(N)N)C[C@H]2CC[C@H](OS(=O)(=O)O)C[C@@H]21
REMARK SMILES IDX 22 1 36 2 46 3 35 4 23 5 45 6 37 7 39 8 38 9 20 10 21 11
REMARK SMILES IDX 5 12 6 13 7 14 8 15 9 17 11 18 12 19 17 20 19 21 15 22 14 23
REMARK SMILES IDX 13 24 18 25 16 26 10 28 3 30 4 31 2 32 1 33 24 34 25 35
REMARK SMILES IDX 26 36 27 38 28 39 29 40 30 41 31 42 32 43 33 44 34 45 40 50
REMARK SMILES IDX 41 51 42 52 43 53 44 54
REMARK H PARENT 6 16 16 27 10 29 26 37 33 46 33 47 34 48 34 49 44 55
ROOT
ATOM      1  N   UNL     1      -9.365  -2.601  -5.486  1.00  0.00    -0.326 N 
ATOM      2  C   UNL     1     -10.269  -4.757  -5.211  1.00  0.00     0.014 C 
ATOM      3  C   UNL     1      -9.064  -3.885  -4.846  1.00  0.00     0.091 C 
ATOM      4  C   UNL     1     -10.625  -4.269  -6.607  1.00  0.00     0.041 C 
ATOM      5  C   UNL     1     -10.528  -2.747  -6.397  1.00  0.00     0.175 C 
ATOM      6  C   UNL     1      -8.888  -3.914  -3.329  1.00  0.00     0.059 C 
ATOM      7  C   UNL     1      -9.961  -6.225  -4.993  1.00  0.00     0.008 C 
ATOM      8  C   UNL     1      -9.320  -5.247  -2.680  1.00  0.00     0.143 C 
ATOM      9  C   UNL     1      -9.211  -6.432  -3.661  1.00  0.00     0.034 C 
ENDROOT
BRANCH   1  10
ATOM     10  C   UNL     1      -8.626  -1.430  -5.517  1.00  0.00     0.246 C 
ATOM     11  O   UNL     1      -9.191  -0.357  -5.279  1.00  0.00    -0.272 OA
BRANCH  10  12
ATOM     12  C   UNL     1      -7.099  -1.494  -5.808  1.00  0.00     0.174 C 
BRANCH  12  13
ATOM     13  N   UNL     1      -6.565  -0.143  -5.972  1.00  0.00    -0.342 N 
ATOM     14  C   UNL     1      -6.249   0.713  -4.940  1.00  0.00     0.249 C 
ATOM     15  O   UNL     1      -6.355   0.421  -3.756  1.00  0.00    -0.272 OA
ATOM     16  H   UNL     1      -6.570   0.293  -6.891  1.00  0.00     0.164 HD
BRANCH  14  17
ATOM     17  C   UNL     1      -5.723   2.076  -5.437  1.00  0.00     0.207 C 
BRANCH  17  18
ATOM     18  C   UNL     1      -4.899   2.764  -4.344  1.00  0.00     0.077 C 
BRANCH  18  19
ATOM     19  C   UNL     1      -3.663   3.428  -4.906  1.00  0.00    -0.043 A 
ATOM     20  C   UNL     1      -1.447   3.266  -5.879  1.00  0.00     0.083 A 
ATOM     21  C   UNL     1      -2.607   2.651  -5.407  1.00  0.00     0.028 A 
ATOM     22  C   UNL     1      -1.333   4.656  -5.853  1.00  0.00     0.134 A 
ATOM     23  C   UNL     1      -2.372   5.438  -5.360  1.00  0.00     0.048 A 
ATOM     24  C   UNL     1      -3.533   4.825  -4.885  1.00  0.00     0.008 A 
ATOM     25  Cl  UNL     1      -0.160   2.294  -6.490  1.00  0.00    -0.080 Cl
BRANCH  22  26
ATOM     26  O   UNL     1      -0.212   5.304  -6.295  1.00  0.00    -0.506 OA
ATOM     27  H   UNL     1       0.497   4.636  -6.342  1.00  0.00     0.293 HD
ENDBRANCH  22  26
ENDBRANCH  18  19
ENDBRANCH  17  18
BRANCH  17  28
ATOM     28  O   UNL     1      -6.806   2.936  -5.830  1.00  0.00    -0.383 OA
ATOM     29  H   UNL     1      -7.514   2.805  -5.159  1.00  0.00     0.211 HD
ENDBRANCH  17  28
ENDBRANCH  14  17
ENDBRANCH  12  13
BRANCH  12  30
ATOM     30  C   UNL     1      -6.755  -2.417  -7.008  1.00  0.00     0.018 C 
ATOM     31  C   UNL     1      -5.462  -3.203  -6.740  1.00  0.00     0.010 C 
BRANCH  30  32
ATOM     32  C   UNL     1      -6.652  -1.667  -8.359  1.00  0.00     0.002 C 
ATOM     33  C   UNL     1      -7.875  -1.776  -9.259  1.00  0.00     0.004 C 
ENDBRANCH  30  32
ENDBRANCH  12  30
ENDBRANCH  10  12
ENDBRANCH   1  10
BRANCH   5  34
ATOM     34  C   UNL     1     -11.814  -2.176  -5.742  1.00  0.00     0.242 C 
ATOM     35  O   UNL     1     -12.700  -2.901  -5.291  1.00  0.00    -0.273 OA
ATOM     36  N   UNL     1     -11.916  -0.803  -5.752  1.00  0.00    -0.354 N 
ATOM     37  H   UNL     1     -11.207  -0.261  -6.247  1.00  0.00     0.163 HD
BRANCH  36  38
ATOM     38  C   UNL     1     -12.934  -0.098  -5.001  1.00  0.00     0.116 C 
BRANCH  38  39
ATOM     39  C   UNL     1     -12.293   0.649  -3.834  1.00  0.00     0.023 C 
BRANCH  39  40
ATOM     40  C   UNL     1     -12.665   0.049  -2.482  1.00  0.00     0.026 C 
BRANCH  40  41
ATOM     41  C   UNL     1     -11.569  -0.896  -1.989  1.00  0.00     0.146 C 
BRANCH  41  42
ATOM     42  N   UNL     1     -10.808  -0.254  -0.925  1.00  0.00    -0.254 NA
ATOM     43  C   UNL     1      -9.578   0.045  -1.118  1.00  0.00     0.185 C 
ATOM     44  N   UNL     1      -8.803  -0.137  -2.203  1.00  0.00    -0.370 N 
ATOM     45  N   UNL     1      -8.893   0.632  -0.124  1.00  0.00    -0.370 N 
ATOM     46  H   UNL     1      -7.802  -0.081  -2.133  1.00  0.00     0.159 HD
ATOM     47  H   UNL     1      -9.167  -0.557  -3.053  1.00  0.00     0.159 HD
ATOM     48  H   UNL     1      -9.406   0.814   0.728  1.00  0.00     0.159 HD
ATOM     49  H   UNL     1      -8.018   1.104  -0.271  1.00  0.00     0.159 HD
ENDBRANCH  41  42
ENDBRANCH  40  41
ENDBRANCH  39  40
ENDBRANCH  38  39
ENDBRANCH  36  38
ENDBRANCH   5  34
BRANCH   8  50
ATOM     50  O   UNL     1     -10.672  -5.156  -2.227  1.00  0.00    -0.245 OA
BRANCH  50  51
ATOM     51  S   UNL     1     -11.097  -5.860  -0.824  1.00  0.00     0.397 S 
ATOM     52  O   UNL     1     -11.574  -4.827   0.067  1.00  0.00    -0.169 OA
ATOM     53  O   UNL     1     -10.071  -6.798  -0.420  1.00  0.00    -0.169 OA
BRANCH  51  54
ATOM     54  O   UNL     1     -12.398  -6.704  -1.253  1.00  0.00    -0.264 OA
ATOM     55  H   UNL     1     -13.060  -6.073  -1.602  1.00  0.00     0.236 HD
ENDBRANCH  51  54
ENDBRANCH  50  51
ENDBRANCH   8  50
TORSDOF 19
ENDMDL
MODEL 36
REMARK VINA RESULT:    -6.139      4.275      5.993
REMARK INTER + INTRA:         -16.504
REMARK INTER:                 -13.092
REMARK INTRA:                  -3.412
REMARK UNBOUND:                -4.083
REMARK SMILES CC[C@@H](C)[C@@H](NC(=O)[C@@H](O)Cc1ccc(O)c(Cl)c1)C(=O)N1[C@H](C(=O)NCCCCN=C(N)N)C[C@H]2CC[C@H](OS(=O)(=O)O)C[C@@H]21
REMARK SMILES IDX 22 1 36 2 46 3 35 4 23 5 45 6 37 7 39 8 38 9 20 10 21 11
REMARK SMILES IDX 5 12 6 13 7 14 8 15 9 17 11 18 12 19 17 20 19 21 15 22 14 23
REMARK SMILES IDX 13 24 18 25 16 26 10 28 3 30 4 31 2 32 1 33 24 34 25 35
REMARK SMILES IDX 26 36 27 38 28 39 29 40 30 41 31 42 32 43 33 44 34 45 40 50
REMARK SMILES IDX 41 51 42 52 43 53 44 54
REMARK H PARENT 6 16 16 27 10 29 26 37 33 46 33 47 34 48 34 49 44 55
ROOT
ATOM      1  N   UNL     1      -9.549  -0.170  -4.065  1.00  0.00    -0.326 N 
ATOM      2  C   UNL     1      -8.637  -0.099  -6.234  1.00  0.00     0.014 C 
ATOM      3  C   UNL     1      -8.264  -0.280  -4.760  1.00  0.00     0.091 C 
ATOM      4  C   UNL     1      -9.782   0.901  -6.169  1.00  0.00     0.041 C 
ATOM      5  C   UNL     1     -10.594   0.309  -5.003  1.00  0.00     0.175 C 
ATOM      6  C   UNL     1      -7.473  -1.579  -4.618  1.00  0.00     0.059 C 
ATOM      7  C   UNL     1      -7.414   0.225  -7.068  1.00  0.00     0.008 C 
ATOM      8  C   UNL     1      -6.620  -1.926  -5.858  1.00  0.00     0.143 C 
ATOM      9  C   UNL     1      -6.224  -0.669  -6.659  1.00  0.00     0.034 C 
ENDROOT
BRANCH   1  10
ATOM     10  C   UNL     1      -9.834  -0.233  -2.711  1.00  0.00     0.246 C 
ATOM     11  O   UNL     1      -9.797  -1.327  -2.139  1.00  0.00    -0.272 OA
BRANCH  10  12
ATOM     12  C   UNL     1     -10.153   1.077  -1.933  1.00  0.00     0.174 C 
BRANCH  12  13
ATOM     13  N   UNL     1      -9.054   2.030  -2.089  1.00  0.00    -0.342 N 
ATOM     14  C   UNL     1      -9.178   3.302  -2.600  1.00  0.00     0.249 C 
ATOM     15  O   UNL     1     -10.242   3.792  -2.959  1.00  0.00    -0.272 OA
ATOM     16  H   UNL     1      -8.094   1.713  -1.981  1.00  0.00     0.164 HD
BRANCH  14  17
ATOM     17  C   UNL     1      -7.833   4.056  -2.653  1.00  0.00     0.207 C 
BRANCH  17  18
ATOM     18  C   UNL     1      -6.663   3.072  -2.561  1.00  0.00     0.077 C 
BRANCH  18  19
ATOM     19  C   UNL     1      -5.624   3.332  -3.629  1.00  0.00    -0.043 A 
ATOM     20  C   UNL     1      -3.680   4.548  -4.420  1.00  0.00     0.083 A 
ATOM     21  C   UNL     1      -4.607   4.275  -3.414  1.00  0.00     0.028 A 
ATOM     22  C   UNL     1      -3.763   3.885  -5.645  1.00  0.00     0.134 A 
ATOM     23  C   UNL     1      -4.765   2.949  -5.872  1.00  0.00     0.048 A 
ATOM     24  C   UNL     1      -5.696   2.674  -4.867  1.00  0.00     0.008 A 
ATOM     25  Cl  UNL     1      -2.438   5.711  -4.136  1.00  0.00    -0.080 Cl
BRANCH  22  26
ATOM     26  O   UNL     1      -2.883   4.127  -6.665  1.00  0.00    -0.506 OA
ATOM     27  H   UNL     1      -3.387   4.042  -7.496  1.00  0.00     0.293 HD
ENDBRANCH  22  26
ENDBRANCH  18  19
ENDBRANCH  17  18
BRANCH  17  28
ATOM     28  O   UNL     1      -7.734   5.014  -1.587  1.00  0.00    -0.383 OA
ATOM     29  H   UNL     1      -7.509   5.873  -2.012  1.00  0.00     0.211 HD
ENDBRANCH  17  28
ENDBRANCH  14  17
ENDBRANCH  12  13
BRANCH  12  30
ATOM     30  C   UNL     1     -10.505   0.818  -0.443  1.00  0.00     0.018 C 
ATOM     31  C   UNL     1     -11.352   1.968   0.125  1.00  0.00     0.010 C 
BRANCH  30  32
ATOM     32  C   UNL     1      -9.268   0.574   0.455  1.00  0.00     0.002 C 
ATOM     33  C   UNL     1      -9.530   0.635   1.954  1.00  0.00     0.004 C 
ENDBRANCH  30  32
ENDBRANCH  12  30
ENDBRANCH  10  12
ENDBRANCH   1  10
BRANCH   5  34
ATOM     34  C   UNL     1     -11.494  -0.866  -5.470  1.00  0.00     0.242 C 
ATOM     35  O   UNL     1     -12.529  -0.688  -6.112  1.00  0.00    -0.273 OA
ATOM     36  N   UNL     1     -11.079  -2.117  -5.070  1.00  0.00    -0.354 N 
ATOM     37  H   UNL     1     -10.279  -2.191  -4.439  1.00  0.00     0.163 HD
BRANCH  36  38
ATOM     38  C   UNL     1     -11.670  -3.331  -5.592  1.00  0.00     0.116 C 
BRANCH  38  39
ATOM     39  C   UNL     1     -10.722  -4.507  -5.368  1.00  0.00     0.023 C 
BRANCH  39  40
ATOM     40  C   UNL     1      -9.888  -4.350  -4.101  1.00  0.00     0.026 C 
BRANCH  40  41
ATOM     41  C   UNL     1      -9.755  -5.686  -3.371  1.00  0.00     0.146 C 
BRANCH  41  42
ATOM     42  N   UNL     1     -11.066  -6.308  -3.237  1.00  0.00    -0.254 NA
ATOM     43  C   UNL     1     -11.717  -6.184  -2.142  1.00  0.00     0.185 C 
ATOM     44  N   UNL     1     -11.389  -5.537  -1.009  1.00  0.00    -0.370 N 
ATOM     45  N   UNL     1     -12.922  -6.768  -2.038  1.00  0.00    -0.370 N 
ATOM     46  H   UNL     1     -11.879  -5.725  -0.151  1.00  0.00     0.159 HD
ATOM     47  H   UNL     1     -10.515  -5.028  -0.920  1.00  0.00     0.159 HD
ATOM     48  H   UNL     1     -13.249  -7.270  -2.853  1.00  0.00     0.159 HD
ATOM     49  H   UNL     1     -13.584  -6.525  -1.322  1.00  0.00     0.159 HD
ENDBRANCH  41  42
ENDBRANCH  40  41
ENDBRANCH  39  40
ENDBRANCH  38  39
ENDBRANCH  36  38
ENDBRANCH   5  34
BRANCH   8  50
ATOM     50  O   UNL     1      -7.343  -2.804  -6.721  1.00  0.00    -0.245 OA
BRANCH  50  51
ATOM     51  S   UNL     1      -6.696  -4.238  -7.133  1.00  0.00     0.397 S 
ATOM     52  O   UNL     1      -7.510  -5.279  -6.547  1.00  0.00    -0.169 OA
ATOM     53  O   UNL     1      -5.261  -4.197  -6.942  1.00  0.00    -0.169 OA
BRANCH  51  54
ATOM     54  O   UNL     1      -6.985  -4.295  -8.714  1.00  0.00    -0.264 OA
ATOM     55  H   UNL     1      -6.746  -5.191  -9.029  1.00  0.00     0.236 HD
ENDBRANCH  51  54
ENDBRANCH  50  51
ENDBRANCH   8  50
TORSDOF 19
ENDMDL
MODEL 37
REMARK VINA RESULT:    -6.116      4.756      9.033
REMARK INTER + INTRA:         -16.456
REMARK INTER:                 -13.540
REMARK INTRA:                  -2.915
REMARK UNBOUND:                -4.083
REMARK SMILES CC[C@@H](C)[C@@H](NC(=O)[C@@H](O)Cc1ccc(O)c(Cl)c1)C(=O)N1[C@H](C(=O)NCCCCN=C(N)N)C[C@H]2CC[C@H](OS(=O)(=O)O)C[C@@H]21
REMARK SMILES IDX 22 1 36 2 46 3 35 4 23 5 45 6 37 7 39 8 38 9 20 10 21 11
REMARK SMILES IDX 5 12 6 13 7 14 8 15 9 17 11 18 12 19 17 20 19 21 15 22 14 23
REMARK SMILES IDX 13 24 18 25 16 26 10 28 3 30 4 31 2 32 1 33 24 34 25 35
REMARK SMILES IDX 26 36 27 38 28 39 29 40 30 41 31 42 32 43 33 44 34 45 40 50
REMARK SMILES IDX 41 51 42 52 43 53 44 54
REMARK H PARENT 6 16 16 27 10 29 26 37 33 46 33 47 34 48 34 49 44 55
ROOT
ATOM      1  N   UNL     1      -7.605   1.557  -4.775  1.00  0.00    -0.326 N 
ATOM      2  C   UNL     1      -6.879   3.744  -5.257  1.00  0.00     0.014 C 
ATOM      3  C   UNL     1      -7.270   2.816  -4.103  1.00  0.00     0.091 C 
ATOM      4  C   UNL     1      -7.805   3.296  -6.376  1.00  0.00     0.041 C 
ATOM      5  C   UNL     1      -7.675   1.768  -6.242  1.00  0.00     0.175 C 
ATOM      6  C   UNL     1      -6.136   2.812  -3.080  1.00  0.00     0.059 C 
ATOM      7  C   UNL     1      -6.894   5.195  -4.815  1.00  0.00     0.008 C 
ATOM      8  C   UNL     1      -5.369   4.150  -2.997  1.00  0.00     0.143 C 
ATOM      9  C   UNL     1      -6.244   5.346  -3.423  1.00  0.00     0.034 C 
ENDROOT
BRANCH   1  10
ATOM     10  C   UNL     1      -8.046   0.358  -4.243  1.00  0.00     0.246 C 
ATOM     11  O   UNL     1      -7.287  -0.617  -4.247  1.00  0.00    -0.272 OA
BRANCH  10  12
ATOM     12  C   UNL     1      -9.468   0.274  -3.616  1.00  0.00     0.174 C 
BRANCH  12  13
ATOM     13  N   UNL     1      -9.738  -1.094  -3.174  1.00  0.00    -0.342 N 
ATOM     14  C   UNL     1     -10.135  -1.450  -1.905  1.00  0.00     0.249 C 
ATOM     15  O   UNL     1     -10.336  -0.647  -1.002  1.00  0.00    -0.272 OA
ATOM     16  H   UNL     1      -9.466  -1.877  -3.763  1.00  0.00     0.164 HD
BRANCH  14  17
ATOM     17  C   UNL     1     -10.323  -2.974  -1.745  1.00  0.00     0.207 C 
BRANCH  17  18
ATOM     18  C   UNL     1      -9.850  -3.707  -3.005  1.00  0.00     0.077 C 
BRANCH  18  19
ATOM     19  C   UNL     1      -9.602  -5.175  -2.741  1.00  0.00    -0.043 A 
ATOM     20  C   UNL     1      -8.547  -6.928  -1.438  1.00  0.00     0.083 A 
ATOM     21  C   UNL     1      -8.815  -5.575  -1.650  1.00  0.00     0.028 A 
ATOM     22  C   UNL     1      -9.061  -7.887  -2.312  1.00  0.00     0.134 A 
ATOM     23  C   UNL     1      -9.841  -7.504  -3.397  1.00  0.00     0.048 A 
ATOM     24  C   UNL     1     -10.110  -6.150  -3.612  1.00  0.00     0.008 A 
ATOM     25  Cl  UNL     1      -7.578  -7.401  -0.092  1.00  0.00    -0.080 Cl
BRANCH  22  26
ATOM     26  O   UNL     1      -8.816  -9.224  -2.151  1.00  0.00    -0.506 OA
ATOM     27  H   UNL     1      -9.563  -9.697  -2.564  1.00  0.00     0.293 HD
ENDBRANCH  22  26
ENDBRANCH  18  19
ENDBRANCH  17  18
BRANCH  17  28
ATOM     28  O   UNL     1     -11.698  -3.302  -1.490  1.00  0.00    -0.383 OA
ATOM     29  H   UNL     1     -11.771  -4.277  -1.605  1.00  0.00     0.211 HD
ENDBRANCH  17  28
ENDBRANCH  14  17
ENDBRANCH  12  13
BRANCH  12  30
ATOM     30  C   UNL     1     -10.573   0.820  -4.560  1.00  0.00     0.018 C 
ATOM     31  C   UNL     1     -11.883   1.053  -3.790  1.00  0.00     0.010 C 
BRANCH  30  32
ATOM     32  C   UNL     1     -10.834  -0.075  -5.796  1.00  0.00     0.002 C 
ATOM     33  C   UNL     1     -11.890  -1.156  -5.605  1.00  0.00     0.004 C 
ENDBRANCH  30  32
ENDBRANCH  12  30
ENDBRANCH  10  12
ENDBRANCH   1  10
BRANCH   5  34
ATOM     34  C   UNL     1      -6.390   1.240  -6.936  1.00  0.00     0.242 C 
ATOM     35  O   UNL     1      -6.269   1.208  -8.160  1.00  0.00    -0.273 OA
ATOM     36  N   UNL     1      -5.420   0.760  -6.084  1.00  0.00    -0.354 N 
ATOM     37  H   UNL     1      -5.627   0.701  -5.087  1.00  0.00     0.163 HD
BRANCH  36  38
ATOM     38  C   UNL     1      -4.085   0.432  -6.540  1.00  0.00     0.116 C 
BRANCH  38  39
ATOM     39  C   UNL     1      -3.131   1.580  -6.217  1.00  0.00     0.023 C 
BRANCH  39  40
ATOM     40  C   UNL     1      -3.003   2.572  -7.368  1.00  0.00     0.026 C 
BRANCH  40  41
ATOM     41  C   UNL     1      -1.534   2.810  -7.716  1.00  0.00     0.146 C 
BRANCH  41  42
ATOM     42  N   UNL     1      -0.700   2.529  -6.555  1.00  0.00    -0.254 NA
ATOM     43  C   UNL     1      -0.241   3.497  -5.855  1.00  0.00     0.185 C 
ATOM     44  N   UNL     1      -0.400   4.825  -6.006  1.00  0.00    -0.370 N 
ATOM     45  N   UNL     1       0.529   3.217  -4.791  1.00  0.00    -0.370 N 
ATOM     46  H   UNL     1       0.210   5.471  -5.535  1.00  0.00     0.159 HD
ATOM     47  H   UNL     1      -0.966   5.213  -6.754  1.00  0.00     0.159 HD
ATOM     48  H   UNL     1       0.692   2.237  -4.602  1.00  0.00     0.159 HD
ATOM     49  H   UNL     1       0.725   3.888  -4.070  1.00  0.00     0.159 HD
ENDBRANCH  41  42
ENDBRANCH  40  41
ENDBRANCH  39  40
ENDBRANCH  38  39
ENDBRANCH  36  38
ENDBRANCH   5  34
BRANCH   8  50
ATOM     50  O   UNL     1      -4.217   4.108  -3.839  1.00  0.00    -0.245 OA
BRANCH  50  51
ATOM     51  S   UNL     1      -2.783   4.616  -3.263  1.00  0.00     0.397 S 
ATOM     52  O   UNL     1      -2.491   5.899  -3.861  1.00  0.00    -0.169 OA
ATOM     53  O   UNL     1      -1.830   3.525  -3.301  1.00  0.00    -0.169 OA
BRANCH  51  54
ATOM     54  O   UNL     1      -3.128   4.919  -1.722  1.00  0.00    -0.264 OA
ATOM     55  H   UNL     1      -3.709   5.707  -1.696  1.00  0.00     0.236 HD
ENDBRANCH  51  54
ENDBRANCH  50  51
ENDBRANCH   8  50
TORSDOF 19
ENDMDL
MODEL 38
REMARK VINA RESULT:    -6.105      4.635      8.958
REMARK INTER + INTRA:         -16.433
REMARK INTER:                 -12.644
REMARK INTRA:                  -3.789
REMARK UNBOUND:                -4.083
REMARK SMILES CC[C@@H](C)[C@@H](NC(=O)[C@@H](O)Cc1ccc(O)c(Cl)c1)C(=O)N1[C@H](C(=O)NCCCCN=C(N)N)C[C@H]2CC[C@H](OS(=O)(=O)O)C[C@@H]21
REMARK SMILES IDX 22 1 36 2 46 3 35 4 23 5 45 6 37 7 39 8 38 9 20 10 21 11
REMARK SMILES IDX 5 12 6 13 7 14 8 15 9 17 11 18 12 19 17 20 19 21 15 22 14 23
REMARK SMILES IDX 13 24 18 25 16 26 10 28 3 30 4 31 2 32 1 33 24 34 25 35
REMARK SMILES IDX 26 36 27 38 28 39 29 40 30 41 31 42 32 43 33 44 34 45 40 50
REMARK SMILES IDX 41 51 42 52 43 53 44 54
REMARK H PARENT 6 16 16 27 10 29 26 37 33 46 33 47 34 48 34 49 44 55
ROOT
ATOM      1  N   UNL     1      -7.171   1.518  -6.552  1.00  0.00    -0.326 N 
ATOM      2  C   UNL     1      -5.304   1.756  -5.137  1.00  0.00     0.014 C 
ATOM      3  C   UNL     1      -6.190   2.520  -6.126  1.00  0.00     0.091 C 
ATOM      4  C   UNL     1      -5.274   0.355  -5.728  1.00  0.00     0.041 C 
ATOM      5  C   UNL     1      -6.764   0.174  -6.074  1.00  0.00     0.175 C 
ATOM      6  C   UNL     1      -6.699   3.787  -5.439  1.00  0.00     0.059 C 
ATOM      7  C   UNL     1      -3.999   2.491  -4.899  1.00  0.00     0.008 C 
ATOM      8  C   UNL     1      -5.711   4.374  -4.407  1.00  0.00     0.143 C 
ATOM      9  C   UNL     1      -4.249   4.004  -4.729  1.00  0.00     0.034 C 
ENDROOT
BRANCH   1  10
ATOM     10  C   UNL     1      -8.215   1.626  -7.455  1.00  0.00     0.246 C 
ATOM     11  O   UNL     1      -9.271   2.154  -7.092  1.00  0.00    -0.272 OA
BRANCH  10  12
ATOM     12  C   UNL     1      -8.022   1.121  -8.914  1.00  0.00     0.174 C 
BRANCH  12  13
ATOM     13  N   UNL     1      -8.131  -0.337  -8.955  1.00  0.00    -0.342 N 
ATOM     14  C   UNL     1      -8.907  -1.046  -9.845  1.00  0.00     0.249 C 
ATOM     15  O   UNL     1      -9.578  -0.528 -10.729  1.00  0.00    -0.272 OA
ATOM     16  H   UNL     1      -7.758  -0.892  -8.189  1.00  0.00     0.164 HD
BRANCH  14  17
ATOM     17  C   UNL     1      -8.825  -2.571  -9.623  1.00  0.00     0.207 C 
BRANCH  17  18
ATOM     18  C   UNL     1      -8.013  -2.886  -8.362  1.00  0.00     0.077 C 
BRANCH  18  19
ATOM     19  C   UNL     1      -8.892  -3.379  -7.236  1.00  0.00    -0.043 A 
ATOM     20  C   UNL     1      -9.132  -4.319  -5.012  1.00  0.00     0.083 A 
ATOM     21  C   UNL     1      -8.321  -3.818  -6.031  1.00  0.00     0.028 A 
ATOM     22  C   UNL     1     -10.514  -4.387  -5.190  1.00  0.00     0.134 A 
ATOM     23  C   UNL     1     -11.093  -3.956  -6.377  1.00  0.00     0.048 A 
ATOM     24  C   UNL     1     -10.284  -3.455  -7.400  1.00  0.00     0.008 A 
ATOM     25  Cl  UNL     1      -8.411  -4.853  -3.539  1.00  0.00    -0.080 Cl
BRANCH  22  26
ATOM     26  O   UNL     1     -11.349  -4.880  -4.223  1.00  0.00    -0.506 OA
ATOM     27  H   UNL     1     -11.195  -5.842  -4.184  1.00  0.00     0.293 HD
ENDBRANCH  22  26
ENDBRANCH  18  19
ENDBRANCH  17  18
BRANCH  17  28
ATOM     28  O   UNL     1      -8.226  -3.227 -10.752  1.00  0.00    -0.383 OA
ATOM     29  H   UNL     1      -7.416  -2.711 -10.968  1.00  0.00     0.211 HD
ENDBRANCH  17  28
ENDBRANCH  14  17
ENDBRANCH  12  13
BRANCH  12  30
ATOM     30  C   UNL     1      -6.706   1.634  -9.557  1.00  0.00     0.018 C 
ATOM     31  C   UNL     1      -6.964   2.175 -10.972  1.00  0.00     0.010 C 
BRANCH  30  32
ATOM     32  C   UNL     1      -5.576   0.576  -9.590  1.00  0.00     0.002 C 
ATOM     33  C   UNL     1      -5.126   0.147 -10.981  1.00  0.00     0.004 C 
ENDBRANCH  30  32
ENDBRANCH  12  30
ENDBRANCH  10  12
ENDBRANCH   1  10
BRANCH   5  34
ATOM     34  C   UNL     1      -7.593  -0.242  -4.830  1.00  0.00     0.242 C 
ATOM     35  O   UNL     1      -7.089  -0.366  -3.714  1.00  0.00    -0.273 OA
ATOM     36  N   UNL     1      -8.921  -0.514  -5.075  1.00  0.00    -0.354 N 
ATOM     37  H   UNL     1      -9.253  -0.510  -6.040  1.00  0.00     0.163 HD
BRANCH  36  38
ATOM     38  C   UNL     1      -9.881  -0.705  -4.008  1.00  0.00     0.116 C 
BRANCH  38  39
ATOM     39  C   UNL     1     -11.144   0.103  -4.297  1.00  0.00     0.023 C 
BRANCH  39  40
ATOM     40  C   UNL     1     -11.909  -0.424  -5.506  1.00  0.00     0.026 C 
BRANCH  40  41
ATOM     41  C   UNL     1     -13.403  -0.529  -5.199  1.00  0.00     0.146 C 
BRANCH  41  42
ATOM     42  N   UNL     1     -13.778  -1.928  -5.050  1.00  0.00    -0.254 NA
ATOM     43  C   UNL     1     -13.919  -2.425  -3.878  1.00  0.00     0.185 C 
ATOM     44  N   UNL     1     -13.775  -1.848  -2.671  1.00  0.00    -0.370 N 
ATOM     45  N   UNL     1     -14.262  -3.718  -3.762  1.00  0.00    -0.370 N 
ATOM     46  H   UNL     1     -13.676  -2.410  -1.843  1.00  0.00     0.159 HD
ATOM     47  H   UNL     1     -13.531  -0.867  -2.575  1.00  0.00     0.159 HD
ATOM     48  H   UNL     1     -14.399  -4.225  -4.626  1.00  0.00     0.159 HD
ATOM     49  H   UNL     1     -14.618  -4.112  -2.909  1.00  0.00     0.159 HD
ENDBRANCH  41  42
ENDBRANCH  40  41
ENDBRANCH  39  40
ENDBRANCH  38  39
ENDBRANCH  36  38
ENDBRANCH   5  34
BRANCH   8  50
ATOM     50  O   UNL     1      -6.024   3.892  -3.100  1.00  0.00    -0.245 OA
BRANCH  50  51
ATOM     51  S   UNL     1      -5.942   4.905  -1.830  1.00  0.00     0.397 S 
ATOM     52  O   UNL     1      -5.349   6.142  -2.284  1.00  0.00    -0.169 OA
ATOM     53  O   UNL     1      -5.432   4.196  -0.675  1.00  0.00    -0.169 OA
BRANCH  51  54
ATOM     54  O   UNL     1      -7.494   5.234  -1.563  1.00  0.00    -0.264 OA
ATOM     55  H   UNL     1      -7.548   6.145  -1.209  1.00  0.00     0.236 HD
ENDBRANCH  51  54
ENDBRANCH  50  51
ENDBRANCH   8  50
TORSDOF 19
ENDMDL
MODEL 39
REMARK VINA RESULT:    -6.101      5.930      9.462
REMARK INTER + INTRA:         -16.427
REMARK INTER:                 -13.039
REMARK INTRA:                  -3.388
REMARK UNBOUND:                -4.083
REMARK SMILES CC[C@@H](C)[C@@H](NC(=O)[C@@H](O)Cc1ccc(O)c(Cl)c1)C(=O)N1[C@H](C(=O)NCCCCN=C(N)N)C[C@H]2CC[C@H](OS(=O)(=O)O)C[C@@H]21
REMARK SMILES IDX 22 1 36 2 46 3 35 4 23 5 45 6 37 7 39 8 38 9 20 10 21 11
REMARK SMILES IDX 5 12 6 13 7 14 8 15 9 17 11 18 12 19 17 20 19 21 15 22 14 23
REMARK SMILES IDX 13 24 18 25 16 26 10 28 3 30 4 31 2 32 1 33 24 34 25 35
REMARK SMILES IDX 26 36 27 38 28 39 29 40 30 41 31 42 32 43 33 44 34 45 40 50
REMARK SMILES IDX 41 51 42 52 43 53 44 54
REMARK H PARENT 6 16 16 27 10 29 26 37 33 46 33 47 34 48 34 49 44 55
ROOT
ATOM      1  N   UNL     1      -8.555  -2.760  -5.186  1.00  0.00    -0.326 N 
ATOM      2  C   UNL     1      -9.944  -4.659  -5.106  1.00  0.00     0.014 C 
ATOM      3  C   UNL     1      -8.583  -4.124  -4.651  1.00  0.00     0.091 C 
ATOM      4  C   UNL     1     -10.130  -3.994  -6.461  1.00  0.00     0.041 C 
ATOM      5  C   UNL     1      -9.688  -2.558  -6.123  1.00  0.00     0.175 C 
ATOM      6  C   UNL     1      -8.471  -4.312  -3.139  1.00  0.00     0.059 C 
ATOM      7  C   UNL     1      -9.994  -6.171  -5.006  1.00  0.00     0.008 C 
ATOM      8  C   UNL     1      -9.222  -5.552  -2.610  1.00  0.00     0.143 C 
ATOM      9  C   UNL     1      -9.358  -6.650  -3.684  1.00  0.00     0.034 C 
ENDROOT
BRANCH   1  10
ATOM     10  C   UNL     1      -7.564  -1.796  -5.109  1.00  0.00     0.246 C 
ATOM     11  O   UNL     1      -7.316  -1.275  -4.016  1.00  0.00    -0.272 OA
BRANCH  10  12
ATOM     12  C   UNL     1      -6.757  -1.422  -6.385  1.00  0.00     0.174 C 
BRANCH  12  13
ATOM     13  N   UNL     1      -7.649  -0.841  -7.387  1.00  0.00    -0.342 N 
ATOM     14  C   UNL     1      -7.855   0.508  -7.576  1.00  0.00     0.249 C 
ATOM     15  O   UNL     1      -7.284   1.381  -6.934  1.00  0.00    -0.272 OA
ATOM     16  H   UNL     1      -8.305  -1.438  -7.885  1.00  0.00     0.164 HD
BRANCH  14  17
ATOM     17  C   UNL     1      -8.870   0.804  -8.700  1.00  0.00     0.207 C 
BRANCH  17  18
ATOM     18  C   UNL     1      -8.154   0.932 -10.048  1.00  0.00     0.077 C 
BRANCH  18  19
ATOM     19  C   UNL     1      -7.943  -0.414 -10.703  1.00  0.00    -0.043 A 
ATOM     20  C   UNL     1      -8.843  -2.397 -11.772  1.00  0.00     0.083 A 
ATOM     21  C   UNL     1      -9.035  -1.133 -11.214  1.00  0.00     0.028 A 
ATOM     22  C   UNL     1      -7.563  -2.951 -11.823  1.00  0.00     0.134 A 
ATOM     23  C   UNL     1      -6.472  -2.250 -11.321  1.00  0.00     0.048 A 
ATOM     24  C   UNL     1      -6.662  -0.985 -10.760  1.00  0.00     0.008 A 
ATOM     25  Cl  UNL     1     -10.197  -3.264 -12.394  1.00  0.00    -0.080 Cl
BRANCH  22  26
ATOM     26  O   UNL     1      -7.327  -4.191 -12.352  1.00  0.00    -0.506 OA
ATOM     27  H   UNL     1      -8.187  -4.533 -12.659  1.00  0.00     0.293 HD
ENDBRANCH  22  26
ENDBRANCH  18  19
ENDBRANCH  17  18
BRANCH  17  28
ATOM     28  O   UNL     1      -9.601   2.011  -8.432  1.00  0.00    -0.383 OA
ATOM     29  H   UNL     1     -10.433   1.732  -7.985  1.00  0.00     0.211 HD
ENDBRANCH  17  28
ENDBRANCH  14  17
ENDBRANCH  12  13
BRANCH  12  30
ATOM     30  C   UNL     1      -5.933  -2.613  -6.945  1.00  0.00     0.018 C 
ATOM     31  C   UNL     1      -4.626  -2.120  -7.585  1.00  0.00     0.010 C 
BRANCH  30  32
ATOM     32  C   UNL     1      -6.717  -3.494  -7.948  1.00  0.00     0.002 C 
ATOM     33  C   UNL     1      -6.617  -4.995  -7.713  1.00  0.00     0.004 C 
ENDBRANCH  30  32
ENDBRANCH  12  30
ENDBRANCH  10  12
ENDBRANCH   1  10
BRANCH   5  34
ATOM     34  C   UNL     1     -10.828  -1.754  -5.443  1.00  0.00     0.242 C 
ATOM     35  O   UNL     1     -12.010  -1.899  -5.752  1.00  0.00    -0.273 OA
ATOM     36  N   UNL     1     -10.416  -0.830  -4.509  1.00  0.00    -0.354 N 
ATOM     37  H   UNL     1      -9.416  -0.671  -4.383  1.00  0.00     0.163 HD
BRANCH  36  38
ATOM     38  C   UNL     1     -11.346  -0.152  -3.630  1.00  0.00     0.116 C 
BRANCH  38  39
ATOM     39  C   UNL     1     -10.850  -0.234  -2.188  1.00  0.00     0.023 C 
BRANCH  39  40
ATOM     40  C   UNL     1     -11.072  -1.611  -1.573  1.00  0.00     0.026 C 
BRANCH  40  41
ATOM     41  C   UNL     1     -10.230  -1.782  -0.308  1.00  0.00     0.146 C 
BRANCH  41  42
ATOM     42  N   UNL     1      -9.733  -0.485   0.131  1.00  0.00    -0.254 NA
ATOM     43  C   UNL     1      -9.610  -0.246   1.383  1.00  0.00     0.185 C 
ATOM     44  N   UNL     1      -9.875  -1.029   2.444  1.00  0.00    -0.370 N 
ATOM     45  N   UNL     1      -9.154   0.958   1.768  1.00  0.00    -0.370 N 
ATOM     46  H   UNL     1      -9.966  -0.633   3.364  1.00  0.00     0.159 HD
ATOM     47  H   UNL     1     -10.216  -1.979   2.333  1.00  0.00     0.159 HD
ATOM     48  H   UNL     1      -8.922   1.607   1.028  1.00  0.00     0.159 HD
ATOM     49  H   UNL     1      -8.810   1.138   2.694  1.00  0.00     0.159 HD
ENDBRANCH  41  42
ENDBRANCH  40  41
ENDBRANCH  39  40
ENDBRANCH  38  39
ENDBRANCH  36  38
ENDBRANCH   5  34
BRANCH   8  50
ATOM     50  O   UNL     1     -10.530  -5.182  -2.171  1.00  0.00    -0.245 OA
BRANCH  50  51
ATOM     51  S   UNL     1     -11.337  -6.152  -1.144  1.00  0.00     0.397 S 
ATOM     52  O   UNL     1     -10.372  -6.996  -0.477  1.00  0.00    -0.169 OA
ATOM     53  O   UNL     1     -12.499  -6.705  -1.809  1.00  0.00    -0.169 OA
BRANCH  51  54
ATOM     54  O   UNL     1     -11.850  -5.110  -0.033  1.00  0.00    -0.264 OA
ATOM     55  H   UNL     1     -12.745  -5.391   0.249  1.00  0.00     0.236 HD
ENDBRANCH  51  54
ENDBRANCH  50  51
ENDBRANCH   8  50
TORSDOF 19
ENDMDL
MODEL 40
REMARK VINA RESULT:    -6.095      2.933      5.912
REMARK INTER + INTRA:         -16.414
REMARK INTER:                 -12.302
REMARK INTRA:                  -4.112
REMARK UNBOUND:                -4.083
REMARK SMILES CC[C@@H](C)[C@@H](NC(=O)[C@@H](O)Cc1ccc(O)c(Cl)c1)C(=O)N1[C@H](C(=O)NCCCCN=C(N)N)C[C@H]2CC[C@H](OS(=O)(=O)O)C[C@@H]21
REMARK SMILES IDX 22 1 36 2 46 3 35 4 23 5 45 6 37 7 39 8 38 9 20 10 21 11
REMARK SMILES IDX 5 12 6 13 7 14 8 15 9 17 11 18 12 19 17 20 19 21 15 22 14 23
REMARK SMILES IDX 13 24 18 25 16 26 10 28 3 30 4 31 2 32 1 33 24 34 25 35
REMARK SMILES IDX 26 36 27 38 28 39 29 40 30 41 31 42 32 43 33 44 34 45 40 50
REMARK SMILES IDX 41 51 42 52 43 53 44 54
REMARK H PARENT 6 16 16 27 10 29 26 37 33 46 33 47 34 48 34 49 44 55
ROOT
ATOM      1  N   UNL     1      -5.337  -0.126  -8.642  1.00  0.00    -0.326 N 
ATOM      2  C   UNL     1      -4.205   0.127  -6.594  1.00  0.00     0.014 C 
ATOM      3  C   UNL     1      -5.161   0.840  -7.555  1.00  0.00     0.091 C 
ATOM      4  C   UNL     1      -3.306  -0.658  -7.536  1.00  0.00     0.041 C 
ATOM      5  C   UNL     1      -4.360  -1.234  -8.500  1.00  0.00     0.175 C 
ATOM      6  C   UNL     1      -6.395   1.280  -6.770  1.00  0.00     0.059 C 
ATOM      7  C   UNL     1      -3.583   1.109  -5.620  1.00  0.00     0.008 C 
ATOM      8  C   UNL     1      -6.102   1.633  -5.296  1.00  0.00     0.143 C 
ATOM      9  C   UNL     1      -4.645   2.096  -5.090  1.00  0.00     0.034 C 
ENDROOT
BRANCH   1  10
ATOM     10  C   UNL     1      -6.080  -0.027  -9.806  1.00  0.00     0.246 C 
ATOM     11  O   UNL     1      -7.135  -0.662  -9.902  1.00  0.00    -0.272 OA
BRANCH  10  12
ATOM     12  C   UNL     1      -5.594   0.912 -10.949  1.00  0.00     0.174 C 
BRANCH  12  13
ATOM     13  N   UNL     1      -4.318   1.525 -10.582  1.00  0.00    -0.342 N 
ATOM     14  C   UNL     1      -3.078   1.025 -10.911  1.00  0.00     0.249 C 
ATOM     15  O   UNL     1      -2.906   0.014 -11.579  1.00  0.00    -0.272 OA
ATOM     16  H   UNL     1      -4.299   2.278  -9.899  1.00  0.00     0.164 HD
BRANCH  14  17
ATOM     17  C   UNL     1      -1.923   1.890 -10.363  1.00  0.00     0.207 C 
BRANCH  17  18
ATOM     18  C   UNL     1      -2.464   2.976  -9.428  1.00  0.00     0.077 C 
BRANCH  18  19
ATOM     19  C   UNL     1      -1.686   3.041  -8.133  1.00  0.00    -0.043 A 
ATOM     20  C   UNL     1      -1.141   4.182  -6.062  1.00  0.00     0.083 A 
ATOM     21  C   UNL     1      -1.896   4.098  -7.233  1.00  0.00     0.028 A 
ATOM     22  C   UNL     1      -0.174   3.215  -5.784  1.00  0.00     0.134 A 
ATOM     23  C   UNL     1       0.043   2.163  -6.666  1.00  0.00     0.048 A 
ATOM     24  C   UNL     1      -0.709   2.077  -7.840  1.00  0.00     0.008 A 
ATOM     25  Cl  UNL     1      -1.413   5.488  -4.969  1.00  0.00    -0.080 Cl
BRANCH  22  26
ATOM     26  O   UNL     1       0.597   3.260  -4.654  1.00  0.00    -0.506 OA
ATOM     27  H   UNL     1       0.445   4.133  -4.246  1.00  0.00     0.293 HD
ENDBRANCH  22  26
ENDBRANCH  18  19
ENDBRANCH  17  18
BRANCH  17  28
ATOM     28  O   UNL     1      -1.186   2.506 -11.432  1.00  0.00    -0.383 OA
ATOM     29  H   UNL     1      -1.517   2.095 -12.262  1.00  0.00     0.211 HD
ENDBRANCH  17  28
ENDBRANCH  14  17
ENDBRANCH  12  13
BRANCH  12  30
ATOM     30  C   UNL     1      -6.661   1.964 -11.355  1.00  0.00     0.018 C 
ATOM     31  C   UNL     1      -6.075   2.982 -12.346  1.00  0.00     0.010 C 
BRANCH  30  32
ATOM     32  C   UNL     1      -7.299   2.699 -10.151  1.00  0.00     0.002 C 
ATOM     33  C   UNL     1      -8.809   2.544 -10.019  1.00  0.00     0.004 C 
ENDBRANCH  30  32
ENDBRANCH  12  30
ENDBRANCH  10  12
ENDBRANCH   1  10
BRANCH   5  34
ATOM     34  C   UNL     1      -5.043  -2.498  -7.912  1.00  0.00     0.242 C 
ATOM     35  O   UNL     1      -4.623  -3.063  -6.903  1.00  0.00    -0.273 OA
ATOM     36  N   UNL     1      -6.119  -2.970  -8.630  1.00  0.00    -0.354 N 
ATOM     37  H   UNL     1      -6.345  -2.529  -9.523  1.00  0.00     0.163 HD
BRANCH  36  38
ATOM     38  C   UNL     1      -6.999  -3.999  -8.117  1.00  0.00     0.116 C 
BRANCH  38  39
ATOM     39  C   UNL     1      -8.022  -3.380  -7.167  1.00  0.00     0.023 C 
BRANCH  39  40
ATOM     40  C   UNL     1      -9.333  -4.158  -7.134  1.00  0.00     0.026 C 
BRANCH  40  41
ATOM     41  C   UNL     1      -9.627  -4.665  -5.722  1.00  0.00     0.146 C 
BRANCH  41  42
ATOM     42  N   UNL     1     -11.040  -4.479  -5.417  1.00  0.00    -0.254 NA
ATOM     43  C   UNL     1     -11.412  -3.457  -4.743  1.00  0.00     0.185 C 
ATOM     44  N   UNL     1     -10.686  -2.447  -4.228  1.00  0.00    -0.370 N 
ATOM     45  N   UNL     1     -12.718  -3.306  -4.468  1.00  0.00    -0.370 N 
ATOM     46  H   UNL     1     -11.072  -1.847  -3.520  1.00  0.00     0.159 HD
ATOM     47  H   UNL     1      -9.680  -2.397  -4.354  1.00  0.00     0.159 HD
ATOM     48  H   UNL     1     -13.338  -4.019  -4.828  1.00  0.00     0.159 HD
ATOM     49  H   UNL     1     -13.113  -2.434  -4.162  1.00  0.00     0.159 HD
ENDBRANCH  41  42
ENDBRANCH  40  41
ENDBRANCH  39  40
ENDBRANCH  38  39
ENDBRANCH  36  38
ENDBRANCH   5  34
BRANCH   8  50
ATOM     50  O   UNL     1      -6.338   0.498  -4.463  1.00  0.00    -0.245 OA
BRANCH  50  51
ATOM     51  S   UNL     1      -7.711   0.411  -3.594  1.00  0.00     0.397 S 
ATOM     52  O   UNL     1      -8.094  -0.979  -3.503  1.00  0.00    -0.169 OA
ATOM     53  O   UNL     1      -8.638   1.427  -4.048  1.00  0.00    -0.169 OA
BRANCH  51  54
ATOM     54  O   UNL     1      -7.204   0.823  -2.125  1.00  0.00    -0.264 OA
ATOM     55  H   UNL     1      -7.838   0.454  -1.476  1.00  0.00     0.236 HD
ENDBRANCH  51  54
ENDBRANCH  50  51
ENDBRANCH   8  50
TORSDOF 19
ENDMDL
MODEL 41
REMARK VINA RESULT:    -6.074      6.452     10.819
REMARK INTER + INTRA:         -16.372
REMARK INTER:                 -12.520
REMARK INTRA:                  -3.852
REMARK UNBOUND:                -4.083
REMARK SMILES CC[C@@H](C)[C@@H](NC(=O)[C@@H](O)Cc1ccc(O)c(Cl)c1)C(=O)N1[C@H](C(=O)NCCCCN=C(N)N)C[C@H]2CC[C@H](OS(=O)(=O)O)C[C@@H]21
REMARK SMILES IDX 22 1 36 2 46 3 35 4 23 5 45 6 37 7 39 8 38 9 20 10 21 11
REMARK SMILES IDX 5 12 6 13 7 14 8 15 9 17 11 18 12 19 17 20 19 21 15 22 14 23
REMARK SMILES IDX 13 24 18 25 16 26 10 28 3 30 4 31 2 32 1 33 24 34 25 35
REMARK SMILES IDX 26 36 27 38 28 39 29 40 30 41 31 42 32 43 33 44 34 45 40 50
REMARK SMILES IDX 41 51 42 52 43 53 44 54
REMARK H PARENT 6 16 16 27 10 29 26 37 33 46 33 47 34 48 34 49 44 55
ROOT
ATOM      1  N   UNL     1     -11.379   0.274  -0.331  1.00  0.00    -0.326 N 
ATOM      2  C   UNL     1     -10.215  -1.104   1.182  1.00  0.00     0.014 C 
ATOM      3  C   UNL     1     -11.614  -0.592   0.828  1.00  0.00     0.091 C 
ATOM      4  C   UNL     1      -9.329   0.086   0.846  1.00  0.00     0.041 C 
ATOM      5  C   UNL     1      -9.923   0.494  -0.514  1.00  0.00     0.175 C 
ATOM      6  C   UNL     1     -12.540  -1.794   0.658  1.00  0.00     0.059 C 
ATOM      7  C   UNL     1     -10.187  -1.681   2.583  1.00  0.00     0.008 C 
ATOM      8  C   UNL     1     -12.174  -2.993   1.559  1.00  0.00     0.143 C 
ATOM      9  C   UNL     1     -11.435  -2.552   2.838  1.00  0.00     0.034 C 
ENDROOT
BRANCH   1  10
ATOM     10  C   UNL     1     -12.274   1.028  -1.072  1.00  0.00     0.246 C 
ATOM     11  O   UNL     1     -12.315   2.251  -0.901  1.00  0.00    -0.272 OA
BRANCH  10  12
ATOM     12  C   UNL     1     -13.174   0.328  -2.131  1.00  0.00     0.174 C 
BRANCH  12  13
ATOM     13  N   UNL     1     -12.507  -0.870  -2.639  1.00  0.00    -0.342 N 
ATOM     14  C   UNL     1     -13.129  -2.068  -2.907  1.00  0.00     0.249 C 
ATOM     15  O   UNL     1     -14.332  -2.256  -2.773  1.00  0.00    -0.272 OA
ATOM     16  H   UNL     1     -11.491  -0.914  -2.651  1.00  0.00     0.164 HD
BRANCH  14  17
ATOM     17  C   UNL     1     -12.150  -3.147  -3.417  1.00  0.00     0.207 C 
BRANCH  17  18
ATOM     18  C   UNL     1     -12.199  -3.236  -4.945  1.00  0.00     0.077 C 
BRANCH  18  19
ATOM     19  C   UNL     1     -10.841  -3.546  -5.534  1.00  0.00    -0.043 A 
ATOM     20  C   UNL     1      -8.456  -3.887  -5.253  1.00  0.00     0.083 A 
ATOM     21  C   UNL     1      -9.716  -3.649  -4.702  1.00  0.00     0.028 A 
ATOM     22  C   UNL     1      -8.313  -4.021  -6.635  1.00  0.00     0.134 A 
ATOM     23  C   UNL     1      -9.419  -3.922  -7.470  1.00  0.00     0.048 A 
ATOM     24  C   UNL     1     -10.681  -3.682  -6.921  1.00  0.00     0.008 A 
ATOM     25  Cl  UNL     1      -7.085  -4.009  -4.215  1.00  0.00    -0.080 Cl
BRANCH  22  26
ATOM     26  O   UNL     1      -7.097  -4.244  -7.222  1.00  0.00    -0.506 OA
ATOM     27  H   UNL     1      -6.875  -3.438  -7.723  1.00  0.00     0.293 HD
ENDBRANCH  22  26
ENDBRANCH  18  19
ENDBRANCH  17  18
BRANCH  17  28
ATOM     28  O   UNL     1     -12.459  -4.433  -2.855  1.00  0.00    -0.383 OA
ATOM     29  H   UNL     1     -12.300  -5.088  -3.571  1.00  0.00     0.211 HD
ENDBRANCH  17  28
ENDBRANCH  14  17
ENDBRANCH  12  13
BRANCH  12  30
ATOM     30  C   UNL     1     -13.619   1.287  -3.268  1.00  0.00     0.018 C 
ATOM     31  C   UNL     1     -15.093   1.054  -3.633  1.00  0.00     0.010 C 
BRANCH  30  32
ATOM     32  C   UNL     1     -12.736   1.198  -4.537  1.00  0.00     0.002 C 
ATOM     33  C   UNL     1     -11.546   2.147  -4.570  1.00  0.00     0.004 C 
ENDBRANCH  30  32
ENDBRANCH  12  30
ENDBRANCH  10  12
ENDBRANCH   1  10
BRANCH   5  34
ATOM     34  C   UNL     1      -9.374  -0.388  -1.666  1.00  0.00     0.242 C 
ATOM     35  O   UNL     1      -9.695  -1.569  -1.801  1.00  0.00    -0.273 OA
ATOM     36  N   UNL     1      -8.463   0.229  -2.494  1.00  0.00    -0.354 N 
ATOM     37  H   UNL     1      -8.147   1.171  -2.260  1.00  0.00     0.163 HD
BRANCH  36  38
ATOM     38  C   UNL     1      -8.016  -0.369  -3.735  1.00  0.00     0.116 C 
BRANCH  38  39
ATOM     39  C   UNL     1      -7.041   0.570  -4.441  1.00  0.00     0.023 C 
BRANCH  39  40
ATOM     40  C   UNL     1      -7.736   1.788  -5.042  1.00  0.00     0.026 C 
BRANCH  40  41
ATOM     41  C   UNL     1      -7.260   3.073  -4.365  1.00  0.00     0.146 C 
BRANCH  41  42
ATOM     42  N   UNL     1      -6.486   2.745  -3.175  1.00  0.00    -0.254 NA
ATOM     43  C   UNL     1      -6.631   3.445  -2.113  1.00  0.00     0.185 C 
ATOM     44  N   UNL     1      -7.425   4.506  -1.877  1.00  0.00    -0.370 N 
ATOM     45  N   UNL     1      -5.905   3.130  -1.028  1.00  0.00    -0.370 N 
ATOM     46  H   UNL     1      -7.259   5.105  -1.086  1.00  0.00     0.159 HD
ATOM     47  H   UNL     1      -8.052   4.871  -2.587  1.00  0.00     0.159 HD
ATOM     48  H   UNL     1      -5.286   2.336  -1.118  1.00  0.00     0.159 HD
ATOM     49  H   UNL     1      -6.127   3.467  -0.108  1.00  0.00     0.159 HD
ENDBRANCH  41  42
ENDBRANCH  40  41
ENDBRANCH  39  40
ENDBRANCH  38  39
ENDBRANCH  36  38
ENDBRANCH   5  34
BRANCH   8  50
ATOM     50  O   UNL     1     -11.339  -3.906   0.845  1.00  0.00    -0.245 OA
BRANCH  50  51
ATOM     51  S   UNL     1     -11.637  -5.503   0.932  1.00  0.00     0.397 S 
ATOM     52  O   UNL     1     -10.599  -6.107   1.737  1.00  0.00    -0.169 OA
ATOM     53  O   UNL     1     -11.969  -6.007  -0.384  1.00  0.00    -0.169 OA
BRANCH  51  54
ATOM     54  O   UNL     1     -12.970  -5.547   1.831  1.00  0.00    -0.264 OA
ATOM     55  H   UNL     1     -13.195  -6.487   1.984  1.00  0.00     0.236 HD
ENDBRANCH  51  54
ENDBRANCH  50  51
ENDBRANCH   8  50
TORSDOF 19
ENDMDL
MODEL 42
REMARK VINA RESULT:    -6.026      3.603      7.763
REMARK INTER + INTRA:         -16.275
REMARK INTER:                 -13.170
REMARK INTRA:                  -3.104
REMARK UNBOUND:                -4.083
REMARK SMILES CC[C@@H](C)[C@@H](NC(=O)[C@@H](O)Cc1ccc(O)c(Cl)c1)C(=O)N1[C@H](C(=O)NCCCCN=C(N)N)C[C@H]2CC[C@H](OS(=O)(=O)O)C[C@@H]21
REMARK SMILES IDX 22 1 36 2 46 3 35 4 23 5 45 6 37 7 39 8 38 9 20 10 21 11
REMARK SMILES IDX 5 12 6 13 7 14 8 15 9 17 11 18 12 19 17 20 19 21 15 22 14 23
REMARK SMILES IDX 13 24 18 25 16 26 10 28 3 30 4 31 2 32 1 33 24 34 25 35
REMARK SMILES IDX 26 36 27 38 28 39 29 40 30 41 31 42 32 43 33 44 34 45 40 50
REMARK SMILES IDX 41 51 42 52 43 53 44 54
REMARK H PARENT 6 16 16 27 10 29 26 37 33 46 33 47 34 48 34 49 44 55
ROOT
ATOM      1  N   UNL     1      -7.404   1.539  -4.800  1.00  0.00    -0.326 N 
ATOM      2  C   UNL     1      -7.151   3.872  -4.986  1.00  0.00     0.014 C 
ATOM      3  C   UNL     1      -7.144   2.722  -3.975  1.00  0.00     0.091 C 
ATOM      4  C   UNL     1      -8.205   3.429  -5.989  1.00  0.00     0.041 C 
ATOM      5  C   UNL     1      -7.808   1.952  -6.167  1.00  0.00     0.175 C 
ATOM      6  C   UNL     1      -5.837   2.781  -3.186  1.00  0.00     0.059 C 
ATOM      7  C   UNL     1      -7.306   5.208  -4.287  1.00  0.00     0.008 C 
ATOM      8  C   UNL     1      -5.293   4.213  -2.991  1.00  0.00     0.143 C 
ATOM      9  C   UNL     1      -6.416   5.269  -3.027  1.00  0.00     0.034 C 
ENDROOT
BRANCH   1  10
ATOM     10  C   UNL     1      -7.530   0.210  -4.431  1.00  0.00     0.246 C 
ATOM     11  O   UNL     1      -6.583  -0.559  -4.624  1.00  0.00    -0.272 OA
BRANCH  10  12
ATOM     12  C   UNL     1      -8.840  -0.275  -3.746  1.00  0.00     0.174 C 
BRANCH  12  13
ATOM     13  N   UNL     1      -8.943  -1.731  -3.840  1.00  0.00    -0.342 N 
ATOM     14  C   UNL     1      -9.372  -2.560  -2.828  1.00  0.00     0.249 C 
ATOM     15  O   UNL     1      -9.747  -2.161  -1.732  1.00  0.00    -0.272 OA
ATOM     16  H   UNL     1      -8.521  -2.216  -4.628  1.00  0.00     0.164 HD
BRANCH  14  17
ATOM     17  C   UNL     1      -9.351  -4.050  -3.229  1.00  0.00     0.207 C 
BRANCH  17  18
ATOM     18  C   UNL     1     -10.252  -4.290  -4.445  1.00  0.00     0.077 C 
BRANCH  18  19
ATOM     19  C   UNL     1      -9.488  -4.167  -5.744  1.00  0.00    -0.043 A 
ATOM     20  C   UNL     1      -7.468  -4.529  -7.038  1.00  0.00     0.083 A 
ATOM     21  C   UNL     1      -8.189  -4.687  -5.853  1.00  0.00     0.028 A 
ATOM     22  C   UNL     1      -8.037  -3.851  -8.116  1.00  0.00     0.134 A 
ATOM     23  C   UNL     1      -9.323  -3.330  -8.021  1.00  0.00     0.048 A 
ATOM     24  C   UNL     1     -10.046  -3.486  -6.837  1.00  0.00     0.008 A 
ATOM     25  Cl  UNL     1      -5.873  -5.175  -7.153  1.00  0.00    -0.080 Cl
BRANCH  22  26
ATOM     26  O   UNL     1      -7.365  -3.661  -9.293  1.00  0.00    -0.506 OA
ATOM     27  H   UNL     1      -6.627  -4.299  -9.300  1.00  0.00     0.293 HD
ENDBRANCH  22  26
ENDBRANCH  18  19
ENDBRANCH  17  18
BRANCH  17  28
ATOM     28  O   UNL     1      -9.784  -4.885  -2.143  1.00  0.00    -0.383 OA
ATOM     29  H   UNL     1      -9.361  -4.519  -1.334  1.00  0.00     0.211 HD
ENDBRANCH  17  28
ENDBRANCH  14  17
ENDBRANCH  12  13
BRANCH  12  30
ATOM     30  C   UNL     1     -10.104   0.444  -4.290  1.00  0.00     0.018 C 
ATOM     31  C   UNL     1     -11.070   0.791  -3.146  1.00  0.00     0.010 C 
BRANCH  30  32
ATOM     32  C   UNL     1     -10.846  -0.352  -5.391  1.00  0.00     0.002 C 
ATOM     33  C   UNL     1     -12.206  -0.907  -4.987  1.00  0.00     0.004 C 
ENDBRANCH  30  32
ENDBRANCH  12  30
ENDBRANCH  10  12
ENDBRANCH   1  10
BRANCH   5  34
ATOM     34  C   UNL     1      -6.627   1.792  -7.161  1.00  0.00     0.242 C 
ATOM     35  O   UNL     1      -6.623   2.327  -8.269  1.00  0.00    -0.273 OA
ATOM     36  N   UNL     1      -5.611   0.965  -6.735  1.00  0.00    -0.354 N 
ATOM     37  H   UNL     1      -5.727   0.455  -5.859  1.00  0.00     0.163 HD
BRANCH  36  38
ATOM     38  C   UNL     1      -4.345   0.874  -7.433  1.00  0.00     0.116 C 
BRANCH  38  39
ATOM     39  C   UNL     1      -3.299   1.730  -6.724  1.00  0.00     0.023 C 
BRANCH  39  40
ATOM     40  C   UNL     1      -1.879   1.224  -6.954  1.00  0.00     0.026 C 
BRANCH  40  41
ATOM     41  C   UNL     1      -1.872  -0.289  -7.176  1.00  0.00     0.146 C 
BRANCH  41  42
ATOM     42  N   UNL     1      -0.989  -0.619  -8.286  1.00  0.00    -0.254 NA
ATOM     43  C   UNL     1      -1.439  -1.299  -9.273  1.00  0.00     0.185 C 
ATOM     44  N   UNL     1      -2.669  -1.800  -9.489  1.00  0.00    -0.370 N 
ATOM     45  N   UNL     1      -0.608  -1.597 -10.285  1.00  0.00    -0.370 N 
ATOM     46  H   UNL     1      -2.818  -2.515 -10.180  1.00  0.00     0.159 HD
ATOM     47  H   UNL     1      -3.427  -1.656  -8.828  1.00  0.00     0.159 HD
ATOM     48  H   UNL     1       0.338  -1.249 -10.206  1.00  0.00     0.159 HD
ATOM     49  H   UNL     1      -0.934  -1.910 -11.182  1.00  0.00     0.159 HD
ENDBRANCH  41  42
ENDBRANCH  40  41
ENDBRANCH  39  40
ENDBRANCH  38  39
ENDBRANCH  36  38
ENDBRANCH   5  34
BRANCH   8  50
ATOM     50  O   UNL     1      -4.347   4.522  -4.015  1.00  0.00    -0.245 OA
BRANCH  50  51
ATOM     51  S   UNL     1      -2.778   4.706  -3.629  1.00  0.00     0.397 S 
ATOM     52  O   UNL     1      -2.341   5.988  -4.137  1.00  0.00    -0.169 OA
ATOM     53  O   UNL     1      -2.057   3.486  -3.926  1.00  0.00    -0.169 OA
BRANCH  51  54
ATOM     54  O   UNL     1      -2.842   4.868  -2.031  1.00  0.00    -0.264 OA
ATOM     55  H   UNL     1      -2.992   3.980  -1.647  1.00  0.00     0.236 HD
ENDBRANCH  51  54
ENDBRANCH  50  51
ENDBRANCH   8  50
TORSDOF 19
ENDMDL
MODEL 43
REMARK VINA RESULT:    -6.026      5.787      9.280
REMARK INTER + INTRA:         -16.274
REMARK INTER:                 -13.233
REMARK INTRA:                  -3.041
REMARK UNBOUND:                -4.083
REMARK SMILES CC[C@@H](C)[C@@H](NC(=O)[C@@H](O)Cc1ccc(O)c(Cl)c1)C(=O)N1[C@H](C(=O)NCCCCN=C(N)N)C[C@H]2CC[C@H](OS(=O)(=O)O)C[C@@H]21
REMARK SMILES IDX 22 1 36 2 46 3 35 4 23 5 45 6 37 7 39 8 38 9 20 10 21 11
REMARK SMILES IDX 5 12 6 13 7 14 8 15 9 17 11 18 12 19 17 20 19 21 15 22 14 23
REMARK SMILES IDX 13 24 18 25 16 26 10 28 3 30 4 31 2 32 1 33 24 34 25 35
REMARK SMILES IDX 26 36 27 38 28 39 29 40 30 41 31 42 32 43 33 44 34 45 40 50
REMARK SMILES IDX 41 51 42 52 43 53 44 54
REMARK H PARENT 6 16 16 27 10 29 26 37 33 46 33 47 34 48 34 49 44 55
ROOT
ATOM      1  N   UNL     1      -8.670  -3.842  -4.345  1.00  0.00    -0.326 N 
ATOM      2  C   UNL     1     -10.158  -5.644  -4.063  1.00  0.00     0.014 C 
ATOM      3  C   UNL     1      -8.682  -5.253  -3.948  1.00  0.00     0.091 C 
ATOM      4  C   UNL     1     -10.631  -4.821  -5.251  1.00  0.00     0.041 C 
ATOM      5  C   UNL     1      -9.986  -3.464  -4.917  1.00  0.00     0.175 C 
ATOM      6  C   UNL     1      -8.194  -5.615  -2.547  1.00  0.00     0.059 C 
ATOM      7  C   UNL     1     -10.319  -7.151  -4.091  1.00  0.00     0.008 C 
ATOM      8  C   UNL     1      -8.891  -6.856  -1.947  1.00  0.00     0.143 C 
ATOM      9  C   UNL     1      -9.405  -7.816  -3.040  1.00  0.00     0.034 C 
ENDROOT
BRANCH   1  10
ATOM     10  C   UNL     1      -7.609  -2.959  -4.452  1.00  0.00     0.246 C 
ATOM     11  O   UNL     1      -7.322  -2.243  -3.487  1.00  0.00    -0.272 OA
BRANCH  10  12
ATOM     12  C   UNL     1      -6.775  -2.918  -5.766  1.00  0.00     0.174 C 
BRANCH  12  13
ATOM     13  N   UNL     1      -6.627  -1.536  -6.220  1.00  0.00    -0.342 N 
ATOM     14  C   UNL     1      -5.510  -1.022  -6.839  1.00  0.00     0.249 C 
ATOM     15  O   UNL     1      -4.514  -1.683  -7.106  1.00  0.00    -0.272 OA
ATOM     16  H   UNL     1      -7.304  -0.835  -5.929  1.00  0.00     0.164 HD
BRANCH  14  17
ATOM     17  C   UNL     1      -5.654   0.476  -7.182  1.00  0.00     0.207 C 
BRANCH  17  18
ATOM     18  C   UNL     1      -6.582   1.168  -6.178  1.00  0.00     0.077 C 
BRANCH  18  19
ATOM     19  C   UNL     1      -5.859   2.234  -5.386  1.00  0.00    -0.043 A 
ATOM     20  C   UNL     1      -3.797   3.172  -4.518  1.00  0.00     0.083 A 
ATOM     21  C   UNL     1      -4.458   2.216  -5.290  1.00  0.00     0.028 A 
ATOM     22  C   UNL     1      -4.528   4.148  -3.838  1.00  0.00     0.134 A 
ATOM     23  C   UNL     1      -5.915   4.177  -3.925  1.00  0.00     0.048 A 
ATOM     24  C   UNL     1      -6.580   3.220  -4.696  1.00  0.00     0.008 A 
ATOM     25  Cl  UNL     1      -2.077   3.134  -4.411  1.00  0.00    -0.080 Cl
BRANCH  22  26
ATOM     26  O   UNL     1      -3.925   5.099  -3.061  1.00  0.00    -0.506 OA
ATOM     27  H   UNL     1      -3.415   4.622  -2.379  1.00  0.00     0.293 HD
ENDBRANCH  22  26
ENDBRANCH  18  19
ENDBRANCH  17  18
BRANCH  17  28
ATOM     28  O   UNL     1      -6.170   0.655  -8.510  1.00  0.00    -0.383 OA
ATOM     29  H   UNL     1      -7.029   1.126  -8.407  1.00  0.00     0.211 HD
ENDBRANCH  17  28
ENDBRANCH  14  17
ENDBRANCH  12  13
BRANCH  12  30
ATOM     30  C   UNL     1      -7.349  -3.846  -6.870  1.00  0.00     0.018 C 
ATOM     31  C   UNL     1      -6.323  -4.919  -7.270  1.00  0.00     0.010 C 
BRANCH  30  32
ATOM     32  C   UNL     1      -7.841  -3.087  -8.126  1.00  0.00     0.002 C 
ATOM     33  C   UNL     1      -6.986  -3.268  -9.373  1.00  0.00     0.004 C 
ENDBRANCH  30  32
ENDBRANCH  12  30
ENDBRANCH  10  12
ENDBRANCH   1  10
BRANCH   5  34
ATOM     34  C   UNL     1     -10.827  -2.669  -3.884  1.00  0.00     0.242 C 
ATOM     35  O   UNL     1     -12.050  -2.562  -3.974  1.00  0.00    -0.273 OA
ATOM     36  N   UNL     1     -10.102  -2.049  -2.891  1.00  0.00    -0.354 N 
ATOM     37  H   UNL     1      -9.083  -2.075  -2.937  1.00  0.00     0.163 HD
BRANCH  36  38
ATOM     38  C   UNL     1     -10.732  -1.451  -1.732  1.00  0.00     0.116 C 
BRANCH  38  39
ATOM     39  C   UNL     1     -10.332  -2.216  -0.472  1.00  0.00     0.023 C 
BRANCH  39  40
ATOM     40  C   UNL     1     -10.327  -1.331   0.770  1.00  0.00     0.026 C 
BRANCH  40  41
ATOM     41  C   UNL     1     -10.603  -2.158   2.026  1.00  0.00     0.146 C 
BRANCH  41  42
ATOM     42  N   UNL     1     -12.009  -2.047   2.390  1.00  0.00    -0.254 NA
ATOM     43  C   UNL     1     -12.785  -3.053   2.235  1.00  0.00     0.185 C 
ATOM     44  N   UNL     1     -12.520  -4.286   1.764  1.00  0.00    -0.370 N 
ATOM     45  N   UNL     1     -14.079  -2.929   2.572  1.00  0.00    -0.370 N 
ATOM     46  H   UNL     1     -13.265  -4.893   1.469  1.00  0.00     0.159 HD
ATOM     47  H   UNL     1     -11.585  -4.556   1.475  1.00  0.00     0.159 HD
ATOM     48  H   UNL     1     -14.361  -2.033   2.945  1.00  0.00     0.159 HD
ATOM     49  H   UNL     1     -14.685  -3.719   2.705  1.00  0.00     0.159 HD
ENDBRANCH  41  42
ENDBRANCH  40  41
ENDBRANCH  39  40
ENDBRANCH  38  39
ENDBRANCH  36  38
ENDBRANCH   5  34
BRANCH   8  50
ATOM     50  O   UNL     1      -9.997  -6.454  -1.139  1.00  0.00    -0.245 OA
BRANCH  50  51
ATOM     51  S   UNL     1      -9.914  -6.621   0.476  1.00  0.00     0.397 S 
ATOM     52  O   UNL     1      -9.716  -5.309   1.051  1.00  0.00    -0.169 OA
ATOM     53  O   UNL     1      -9.048  -7.733   0.806  1.00  0.00    -0.169 OA
BRANCH  51  54
ATOM     54  O   UNL     1     -11.422  -7.038   0.849  1.00  0.00    -0.264 OA
ATOM     55  H   UNL     1     -11.463  -7.175   1.817  1.00  0.00     0.236 HD
ENDBRANCH  51  54
ENDBRANCH  50  51
ENDBRANCH   8  50
TORSDOF 19
ENDMDL
MODEL 44
REMARK VINA RESULT:    -6.019      4.157      9.184
REMARK INTER + INTRA:         -16.260
REMARK INTER:                 -11.287
REMARK INTRA:                  -4.973
REMARK UNBOUND:                -4.083
REMARK SMILES CC[C@@H](C)[C@@H](NC(=O)[C@@H](O)Cc1ccc(O)c(Cl)c1)C(=O)N1[C@H](C(=O)NCCCCN=C(N)N)C[C@H]2CC[C@H](OS(=O)(=O)O)C[C@@H]21
REMARK SMILES IDX 22 1 36 2 46 3 35 4 23 5 45 6 37 7 39 8 38 9 20 10 21 11
REMARK SMILES IDX 5 12 6 13 7 14 8 15 9 17 11 18 12 19 17 20 19 21 15 22 14 23
REMARK SMILES IDX 13 24 18 25 16 26 10 28 3 30 4 31 2 32 1 33 24 34 25 35
REMARK SMILES IDX 26 36 27 38 28 39 29 40 30 41 31 42 32 43 33 44 34 45 40 50
REMARK SMILES IDX 41 51 42 52 43 53 44 54
REMARK H PARENT 6 16 16 27 10 29 26 37 33 46 33 47 34 48 34 49 44 55
ROOT
ATOM      1  N   UNL     1      -6.638   0.434  -6.454  1.00  0.00    -0.326 N 
ATOM      2  C   UNL     1      -8.809  -0.170  -5.773  1.00  0.00     0.014 C 
ATOM      3  C   UNL     1      -7.333  -0.275  -5.376  1.00  0.00     0.091 C 
ATOM      4  C   UNL     1      -8.754  -0.238  -7.291  1.00  0.00     0.041 C 
ATOM      5  C   UNL     1      -7.580   0.721  -7.564  1.00  0.00     0.175 C 
ATOM      6  C   UNL     1      -7.178   0.245  -3.949  1.00  0.00     0.059 C 
ATOM      7  C   UNL     1      -9.648  -1.179  -5.013  1.00  0.00     0.008 C 
ATOM      8  C   UNL     1      -8.415  -0.004  -3.058  1.00  0.00     0.143 C 
ATOM      9  C   UNL     1      -9.230  -1.226  -3.528  1.00  0.00     0.034 C 
ENDROOT
BRANCH   1  10
ATOM     10  C   UNL     1      -5.284   0.649  -6.646  1.00  0.00     0.246 C 
ATOM     11  O   UNL     1      -4.751   1.634  -6.124  1.00  0.00    -0.272 OA
BRANCH  10  12
ATOM     12  C   UNL     1      -4.455  -0.374  -7.477  1.00  0.00     0.174 C 
BRANCH  12  13
ATOM     13  N   UNL     1      -4.841  -1.738  -7.117  1.00  0.00    -0.342 N 
ATOM     14  C   UNL     1      -5.608  -2.574  -7.897  1.00  0.00     0.249 C 
ATOM     15  O   UNL     1      -6.034  -2.272  -9.005  1.00  0.00    -0.272 OA
ATOM     16  H   UNL     1      -4.695  -2.069  -6.166  1.00  0.00     0.164 HD
BRANCH  14  17
ATOM     17  C   UNL     1      -5.859  -3.945  -7.234  1.00  0.00     0.207 C 
BRANCH  17  18
ATOM     18  C   UNL     1      -6.032  -3.783  -5.720  1.00  0.00     0.077 C 
BRANCH  18  19
ATOM     19  C   UNL     1      -7.412  -4.204  -5.265  1.00  0.00    -0.043 A 
ATOM     20  C   UNL     1      -8.931  -4.865  -3.493  1.00  0.00     0.083 A 
ATOM     21  C   UNL     1      -7.670  -4.429  -3.904  1.00  0.00     0.028 A 
ATOM     22  C   UNL     1      -9.937  -5.080  -4.435  1.00  0.00     0.134 A 
ATOM     23  C   UNL     1      -9.695  -4.860  -5.786  1.00  0.00     0.048 A 
ATOM     24  C   UNL     1      -8.434  -4.426  -6.201  1.00  0.00     0.008 A 
ATOM     25  Cl  UNL     1      -9.229  -5.137  -1.816  1.00  0.00    -0.080 Cl
BRANCH  22  26
ATOM     26  O   UNL     1     -11.185  -5.517  -4.081  1.00  0.00    -0.506 OA
ATOM     27  H   UNL     1     -11.124  -5.817  -3.155  1.00  0.00     0.293 HD
ENDBRANCH  22  26
ENDBRANCH  18  19
ENDBRANCH  17  18
BRANCH  17  28
ATOM     28  O   UNL     1      -4.775  -4.851  -7.495  1.00  0.00    -0.383 OA
ATOM     29  H   UNL     1      -4.515  -4.701  -8.432  1.00  0.00     0.211 HD
ENDBRANCH  17  28
ENDBRANCH  14  17
ENDBRANCH  12  13
BRANCH  12  30
ATOM     30  C   UNL     1      -2.924  -0.142  -7.360  1.00  0.00     0.018 C 
ATOM     31  C   UNL     1      -2.468   0.977  -8.310  1.00  0.00     0.010 C 
BRANCH  30  32
ATOM     32  C   UNL     1      -2.082  -1.418  -7.598  1.00  0.00     0.002 C 
ATOM     33  C   UNL     1      -1.704  -1.688  -9.048  1.00  0.00     0.004 C 
ENDBRANCH  30  32
ENDBRANCH  12  30
ENDBRANCH  10  12
ENDBRANCH   1  10
BRANCH   5  34
ATOM     34  C   UNL     1      -8.034   2.205  -7.531  1.00  0.00     0.242 C 
ATOM     35  O   UNL     1      -8.747   2.694  -8.406  1.00  0.00    -0.273 OA
ATOM     36  N   UNL     1      -7.536   2.946  -6.482  1.00  0.00    -0.354 N 
ATOM     37  H   UNL     1      -6.854   2.516  -5.857  1.00  0.00     0.163 HD
BRANCH  36  38
ATOM     38  C   UNL     1      -8.022   4.275  -6.176  1.00  0.00     0.116 C 
BRANCH  38  39
ATOM     39  C   UNL     1      -8.491   4.334  -4.724  1.00  0.00     0.023 C 
BRANCH  39  40
ATOM     40  C   UNL     1      -7.682   5.321  -3.890  1.00  0.00     0.026 C 
BRANCH  40  41
ATOM     41  C   UNL     1      -6.341   4.712  -3.480  1.00  0.00     0.146 C 
BRANCH  41  42
ATOM     42  N   UNL     1      -6.564   3.454  -2.781  1.00  0.00    -0.254 NA
ATOM     43  C   UNL     1      -6.121   3.304  -1.589  1.00  0.00     0.185 C 
ATOM     44  N   UNL     1      -5.436   4.159  -0.807  1.00  0.00    -0.370 N 
ATOM     45  N   UNL     1      -6.333   2.135  -0.963  1.00  0.00    -0.370 N 
ATOM     46  H   UNL     1      -4.943   3.828   0.004  1.00  0.00     0.159 HD
ATOM     47  H   UNL     1      -5.201   5.096  -1.120  1.00  0.00     0.159 HD
ATOM     48  H   UNL     1      -6.851   1.437  -1.480  1.00  0.00     0.159 HD
ATOM     49  H   UNL     1      -6.233   2.024   0.030  1.00  0.00     0.159 HD
ENDBRANCH  41  42
ENDBRANCH  40  41
ENDBRANCH  39  40
ENDBRANCH  38  39
ENDBRANCH  36  38
ENDBRANCH   5  34
BRANCH   8  50
ATOM     50  O   UNL     1      -9.267   1.141  -3.071  1.00  0.00    -0.245 OA
BRANCH  50  51
ATOM     51  S   UNL     1      -9.940   1.656  -1.683  1.00  0.00     0.397 S 
ATOM     52  O   UNL     1      -9.304   0.954  -0.591  1.00  0.00    -0.169 OA
ATOM     53  O   UNL     1     -11.381   1.694  -1.825  1.00  0.00    -0.169 OA
BRANCH  51  54
ATOM     54  O   UNL     1      -9.410   3.172  -1.596  1.00  0.00    -0.264 OA
ATOM     55  H   UNL     1      -8.636   3.252  -2.189  1.00  0.00     0.236 HD
ENDBRANCH  51  54
ENDBRANCH  50  51
ENDBRANCH   8  50
TORSDOF 19
ENDMDL
MODEL 45
REMARK VINA RESULT:    -6.018      5.142      8.564
REMARK INTER + INTRA:         -16.258
REMARK INTER:                 -13.393
REMARK INTRA:                  -2.865
REMARK UNBOUND:                -4.083
REMARK SMILES CC[C@@H](C)[C@@H](NC(=O)[C@@H](O)Cc1ccc(O)c(Cl)c1)C(=O)N1[C@H](C(=O)NCCCCN=C(N)N)C[C@H]2CC[C@H](OS(=O)(=O)O)C[C@@H]21
REMARK SMILES IDX 22 1 36 2 46 3 35 4 23 5 45 6 37 7 39 8 38 9 20 10 21 11
REMARK SMILES IDX 5 12 6 13 7 14 8 15 9 17 11 18 12 19 17 20 19 21 15 22 14 23
REMARK SMILES IDX 13 24 18 25 16 26 10 28 3 30 4 31 2 32 1 33 24 34 25 35
REMARK SMILES IDX 26 36 27 38 28 39 29 40 30 41 31 42 32 43 33 44 34 45 40 50
REMARK SMILES IDX 41 51 42 52 43 53 44 54
REMARK H PARENT 6 16 16 27 10 29 26 37 33 46 33 47 34 48 34 49 44 55
ROOT
ATOM      1  N   UNL     1      -7.536   0.732  -4.341  1.00  0.00    -0.326 N 
ATOM      2  C   UNL     1      -6.690   2.647  -5.418  1.00  0.00     0.014 C 
ATOM      3  C   UNL     1      -7.240   2.144  -4.081  1.00  0.00     0.091 C 
ATOM      4  C   UNL     1      -7.497   1.851  -6.433  1.00  0.00     0.041 C 
ATOM      5  C   UNL     1      -7.431   0.451  -5.794  1.00  0.00     0.175 C 
ATOM      6  C   UNL     1      -6.231   2.483  -2.985  1.00  0.00     0.059 C 
ATOM      7  C   UNL     1      -6.709   4.162  -5.477  1.00  0.00     0.008 C 
ATOM      8  C   UNL     1      -5.437   3.780  -3.251  1.00  0.00     0.143 C 
ATOM      9  C   UNL     1      -6.218   4.764  -4.144  1.00  0.00     0.034 C 
ENDROOT
BRANCH   1  10
ATOM     10  C   UNL     1      -8.073  -0.231  -3.504  1.00  0.00     0.246 C 
ATOM     11  O   UNL     1      -7.476  -1.304  -3.361  1.00  0.00    -0.272 OA
BRANCH  10  12
ATOM     12  C   UNL     1      -9.390   0.072  -2.732  1.00  0.00     0.174 C 
BRANCH  12  13
ATOM     13  N   UNL     1      -9.380  -0.615  -1.441  1.00  0.00    -0.342 N 
ATOM     14  C   UNL     1      -9.856  -0.088  -0.262  1.00  0.00     0.249 C 
ATOM     15  O   UNL     1     -10.372   1.019  -0.168  1.00  0.00    -0.272 OA
ATOM     16  H   UNL     1      -8.845  -1.473  -1.331  1.00  0.00     0.164 HD
BRANCH  14  17
ATOM     17  C   UNL     1      -9.689  -1.052   0.932  1.00  0.00     0.207 C 
BRANCH  17  18
ATOM     18  C   UNL     1     -10.832  -2.071   0.962  1.00  0.00     0.077 C 
BRANCH  18  19
ATOM     19  C   UNL     1     -10.335  -3.481   0.737  1.00  0.00    -0.043 A 
ATOM     20  C   UNL     1      -9.945  -5.362  -0.745  1.00  0.00     0.083 A 
ATOM     21  C   UNL     1     -10.359  -4.043  -0.549  1.00  0.00     0.028 A 
ATOM     22  C   UNL     1      -9.508  -6.125   0.338  1.00  0.00     0.134 A 
ATOM     23  C   UNL     1      -9.479  -5.580   1.617  1.00  0.00     0.048 A 
ATOM     24  C   UNL     1      -9.894  -4.261   1.816  1.00  0.00     0.008 A 
ATOM     25  Cl  UNL     1      -9.982  -6.035  -2.332  1.00  0.00    -0.080 Cl
BRANCH  22  26
ATOM     26  O   UNL     1      -9.103  -7.424   0.197  1.00  0.00    -0.506 OA
ATOM     27  H   UNL     1      -9.022  -7.590  -0.761  1.00  0.00     0.293 HD
ENDBRANCH  22  26
ENDBRANCH  18  19
ENDBRANCH  17  18
BRANCH  17  28
ATOM     28  O   UNL     1      -9.658  -0.334   2.176  1.00  0.00    -0.383 OA
ATOM     29  H   UNL     1      -8.859   0.240   2.139  1.00  0.00     0.211 HD
ENDBRANCH  17  28
ENDBRANCH  14  17
ENDBRANCH  12  13
BRANCH  12  30
ATOM     30  C   UNL     1     -10.661  -0.249  -3.564  1.00  0.00     0.018 C 
ATOM     31  C   UNL     1     -11.662   0.916  -3.503  1.00  0.00     0.010 C 
BRANCH  30  32
ATOM     32  C   UNL     1     -11.356  -1.569  -3.153  1.00  0.00     0.002 C 
ATOM     33  C   UNL     1     -10.964  -2.794  -3.970  1.00  0.00     0.004 C 
ENDBRANCH  30  32
ENDBRANCH  12  30
ENDBRANCH  10  12
ENDBRANCH   1  10
BRANCH   5  34
ATOM     34  C   UNL     1      -6.094  -0.265  -6.121  1.00  0.00     0.242 C 
ATOM     35  O   UNL     1      -5.016   0.112  -5.662  1.00  0.00    -0.273 OA
ATOM     36  N   UNL     1      -6.194  -1.318  -7.004  1.00  0.00    -0.354 N 
ATOM     37  H   UNL     1      -7.095  -1.507  -7.443  1.00  0.00     0.163 HD
BRANCH  36  38
ATOM     38  C   UNL     1      -5.093  -2.226  -7.251  1.00  0.00     0.116 C 
BRANCH  38  39
ATOM     39  C   UNL     1      -5.316  -3.530  -6.488  1.00  0.00     0.023 C 
BRANCH  39  40
ATOM     40  C   UNL     1      -5.874  -4.637  -7.376  1.00  0.00     0.026 C 
BRANCH  40  41
ATOM     41  C   UNL     1      -7.402  -4.635  -7.348  1.00  0.00     0.146 C 
BRANCH  41  42
ATOM     42  N   UNL     1      -7.913  -3.714  -8.355  1.00  0.00    -0.254 NA
ATOM     43  C   UNL     1      -9.127  -3.314  -8.289  1.00  0.00     0.185 C 
ATOM     44  N   UNL     1     -10.088  -3.609  -7.395  1.00  0.00    -0.370 N 
ATOM     45  N   UNL     1      -9.579  -2.468  -9.229  1.00  0.00    -0.370 N 
ATOM     46  H   UNL     1     -11.055  -3.421  -7.601  1.00  0.00     0.159 HD
ATOM     47  H   UNL     1      -9.913  -4.225  -6.608  1.00  0.00     0.159 HD
ATOM     48  H   UNL     1      -8.914  -2.187  -9.938  1.00  0.00     0.159 HD
ATOM     49  H   UNL     1     -10.422  -1.932  -9.119  1.00  0.00     0.159 HD
ENDBRANCH  41  42
ENDBRANCH  40  41
ENDBRANCH  39  40
ENDBRANCH  38  39
ENDBRANCH  36  38
ENDBRANCH   5  34
BRANCH   8  50
ATOM     50  O   UNL     1      -4.197   3.473  -3.891  1.00  0.00    -0.245 OA
BRANCH  50  51
ATOM     51  S   UNL     1      -2.888   4.388  -3.586  1.00  0.00     0.397 S 
ATOM     52  O   UNL     1      -2.943   5.548  -4.448  1.00  0.00    -0.169 OA
ATOM     53  O   UNL     1      -1.712   3.547  -3.519  1.00  0.00    -0.169 OA
BRANCH  51  54
ATOM     54  O   UNL     1      -3.196   4.930  -2.103  1.00  0.00    -0.264 OA
ATOM     55  H   UNL     1      -3.002   4.205  -1.475  1.00  0.00     0.236 HD
ENDBRANCH  51  54
ENDBRANCH  50  51
ENDBRANCH   8  50
TORSDOF 19
ENDMDL
MODEL 46
REMARK VINA RESULT:    -6.007      3.034      7.672
REMARK INTER + INTRA:         -16.236
REMARK INTER:                 -12.233
REMARK INTRA:                  -4.003
REMARK UNBOUND:                -4.083
REMARK SMILES CC[C@@H](C)[C@@H](NC(=O)[C@@H](O)Cc1ccc(O)c(Cl)c1)C(=O)N1[C@H](C(=O)NCCCCN=C(N)N)C[C@H]2CC[C@H](OS(=O)(=O)O)C[C@@H]21
REMARK SMILES IDX 22 1 36 2 46 3 35 4 23 5 45 6 37 7 39 8 38 9 20 10 21 11
REMARK SMILES IDX 5 12 6 13 7 14 8 15 9 17 11 18 12 19 17 20 19 21 15 22 14 23
REMARK SMILES IDX 13 24 18 25 16 26 10 28 3 30 4 31 2 32 1 33 24 34 25 35
REMARK SMILES IDX 26 36 27 38 28 39 29 40 30 41 31 42 32 43 33 44 34 45 40 50
REMARK SMILES IDX 41 51 42 52 43 53 44 54
REMARK H PARENT 6 16 16 27 10 29 26 37 33 46 33 47 34 48 34 49 44 55
ROOT
ATOM      1  N   UNL     1      -7.250   0.271  -5.758  1.00  0.00    -0.326 N 
ATOM      2  C   UNL     1      -7.411   2.454  -6.624  1.00  0.00     0.014 C 
ATOM      3  C   UNL     1      -8.165   1.416  -5.788  1.00  0.00     0.091 C 
ATOM      4  C   UNL     1      -6.675   1.595  -7.640  1.00  0.00     0.041 C 
ATOM      5  C   UNL     1      -6.140   0.482  -6.720  1.00  0.00     0.175 C 
ATOM      6  C   UNL     1      -8.562   2.060  -4.461  1.00  0.00     0.059 C 
ATOM      7  C   UNL     1      -8.348   3.542  -7.110  1.00  0.00     0.008 C 
ATOM      8  C   UNL     1      -8.847   3.574  -4.566  1.00  0.00     0.143 C 
ATOM      9  C   UNL     1      -9.305   3.980  -5.981  1.00  0.00     0.034 C 
ENDROOT
BRANCH   1  10
ATOM     10  C   UNL     1      -7.400  -0.971  -5.164  1.00  0.00     0.246 C 
ATOM     11  O   UNL     1      -7.071  -1.116  -3.982  1.00  0.00    -0.272 OA
BRANCH  10  12
ATOM     12  C   UNL     1      -8.019  -2.142  -5.981  1.00  0.00     0.174 C 
BRANCH  12  13
ATOM     13  N   UNL     1      -7.463  -2.155  -7.334  1.00  0.00    -0.342 N 
ATOM     14  C   UNL     1      -7.050  -3.283  -8.007  1.00  0.00     0.249 C 
ATOM     15  O   UNL     1      -7.131  -4.417  -7.552  1.00  0.00    -0.272 OA
ATOM     16  H   UNL     1      -7.191  -1.280  -7.775  1.00  0.00     0.164 HD
BRANCH  14  17
ATOM     17  C   UNL     1      -6.492  -2.967  -9.412  1.00  0.00     0.207 C 
BRANCH  17  18
ATOM     18  C   UNL     1      -6.215  -1.466  -9.553  1.00  0.00     0.077 C 
BRANCH  18  19
ATOM     19  C   UNL     1      -4.733  -1.165  -9.533  1.00  0.00    -0.043 A 
ATOM     20  C   UNL     1      -2.533  -1.493  -8.566  1.00  0.00     0.083 A 
ATOM     21  C   UNL     1      -3.891  -1.810  -8.614  1.00  0.00     0.028 A 
ATOM     22  C   UNL     1      -2.009  -0.531  -9.430  1.00  0.00     0.134 A 
ATOM     23  C   UNL     1      -2.832   0.116 -10.345  1.00  0.00     0.048 A 
ATOM     24  C   UNL     1      -4.192  -0.198 -10.395  1.00  0.00     0.008 A 
ATOM     25  Cl  UNL     1      -1.514  -2.297  -7.430  1.00  0.00    -0.080 Cl
BRANCH  22  26
ATOM     26  O   UNL     1      -0.687  -0.179  -9.412  1.00  0.00    -0.506 OA
ATOM     27  H   UNL     1      -0.399  -0.220  -8.482  1.00  0.00     0.293 HD
ENDBRANCH  22  26
ENDBRANCH  18  19
ENDBRANCH  17  18
BRANCH  17  28
ATOM     28  O   UNL     1      -7.409  -3.380 -10.438  1.00  0.00    -0.383 OA
ATOM     29  H   UNL     1      -8.043  -3.996 -10.004  1.00  0.00     0.211 HD
ENDBRANCH  17  28
ENDBRANCH  14  17
ENDBRANCH  12  13
BRANCH  12  30
ATOM     30  C   UNL     1      -9.572  -2.120  -5.980  1.00  0.00     0.018 C 
ATOM     31  C   UNL     1     -10.105  -1.292  -4.800  1.00  0.00     0.010 C 
BRANCH  30  32
ATOM     32  C   UNL     1     -10.213  -3.529  -5.974  1.00  0.00     0.002 C 
ATOM     33  C   UNL     1     -10.613  -4.067  -7.342  1.00  0.00     0.004 C 
ENDBRANCH  30  32
ENDBRANCH  12  30
ENDBRANCH  10  12
ENDBRANCH   1  10
BRANCH   5  34
ATOM     34  C   UNL     1      -4.848   0.922  -5.982  1.00  0.00     0.242 C 
ATOM     35  O   UNL     1      -4.763   0.932  -4.754  1.00  0.00    -0.273 OA
ATOM     36  N   UNL     1      -3.824   1.350  -6.797  1.00  0.00    -0.354 N 
ATOM     37  H   UNL     1      -3.996   1.432  -7.800  1.00  0.00     0.163 HD
BRANCH  36  38
ATOM     38  C   UNL     1      -2.486   1.589  -6.298  1.00  0.00     0.116 C 
BRANCH  38  39
ATOM     39  C   UNL     1      -2.089   3.041  -6.553  1.00  0.00     0.023 C 
BRANCH  39  40
ATOM     40  C   UNL     1      -0.859   3.458  -5.753  1.00  0.00     0.026 C 
BRANCH  40  41
ATOM     41  C   UNL     1      -1.137   3.381  -4.252  1.00  0.00     0.146 C 
BRANCH  41  42
ATOM     42  N   UNL     1      -1.859   4.572  -3.823  1.00  0.00    -0.254 NA
ATOM     43  C   UNL     1      -3.093   4.481  -3.497  1.00  0.00     0.185 C 
ATOM     44  N   UNL     1      -3.906   3.409  -3.475  1.00  0.00    -0.370 N 
ATOM     45  N   UNL     1      -3.742   5.591  -3.108  1.00  0.00    -0.370 N 
ATOM     46  H   UNL     1      -4.904   3.523  -3.435  1.00  0.00     0.159 HD
ATOM     47  H   UNL     1      -3.574   2.483  -3.727  1.00  0.00     0.159 HD
ATOM     48  H   UNL     1      -3.199   6.444  -3.088  1.00  0.00     0.159 HD
ATOM     49  H   UNL     1      -4.619   5.566  -2.620  1.00  0.00     0.159 HD
ENDBRANCH  41  42
ENDBRANCH  40  41
ENDBRANCH  39  40
ENDBRANCH  38  39
ENDBRANCH  36  38
ENDBRANCH   5  34
BRANCH   8  50
ATOM     50  O   UNL     1      -7.672   4.317  -4.239  1.00  0.00    -0.245 OA
BRANCH  50  51
ATOM     51  S   UNL     1      -7.368   4.697  -2.687  1.00  0.00     0.397 S 
ATOM     52  O   UNL     1      -6.383   3.765  -2.185  1.00  0.00    -0.169 OA
ATOM     53  O   UNL     1      -8.616   4.932  -1.991  1.00  0.00    -0.169 OA
BRANCH  51  54
ATOM     54  O   UNL     1      -6.606   6.105  -2.829  1.00  0.00    -0.264 OA
ATOM     55  H   UNL     1      -5.746   5.937  -3.264  1.00  0.00     0.236 HD
ENDBRANCH  51  54
ENDBRANCH  50  51
ENDBRANCH   8  50
TORSDOF 19
ENDMDL
MODEL 47
REMARK VINA RESULT:    -5.993      4.570      8.530
REMARK INTER + INTRA:         -16.207
REMARK INTER:                 -13.527
REMARK INTRA:                  -2.680
REMARK UNBOUND:                -4.083
REMARK SMILES CC[C@@H](C)[C@@H](NC(=O)[C@@H](O)Cc1ccc(O)c(Cl)c1)C(=O)N1[C@H](C(=O)NCCCCN=C(N)N)C[C@H]2CC[C@H](OS(=O)(=O)O)C[C@@H]21
REMARK SMILES IDX 22 1 36 2 46 3 35 4 23 5 45 6 37 7 39 8 38 9 20 10 21 11
REMARK SMILES IDX 5 12 6 13 7 14 8 15 9 17 11 18 12 19 17 20 19 21 15 22 14 23
REMARK SMILES IDX 13 24 18 25 16 26 10 28 3 30 4 31 2 32 1 33 24 34 25 35
REMARK SMILES IDX 26 36 27 38 28 39 29 40 30 41 31 42 32 43 33 44 34 45 40 50
REMARK SMILES IDX 41 51 42 52 43 53 44 54
REMARK H PARENT 6 16 16 27 10 29 26 37 33 46 33 47 34 48 34 49 44 55
ROOT
ATOM      1  N   UNL     1      -7.454   1.356  -4.960  1.00  0.00    -0.326 N 
ATOM      2  C   UNL     1      -6.783   3.587  -5.304  1.00  0.00     0.014 C 
ATOM      3  C   UNL     1      -7.103   2.565  -4.208  1.00  0.00     0.091 C 
ATOM      4  C   UNL     1      -7.759   3.210  -6.408  1.00  0.00     0.041 C 
ATOM      5  C   UNL     1      -7.601   1.679  -6.400  1.00  0.00     0.175 C 
ATOM      6  C   UNL     1      -5.918   2.502  -3.246  1.00  0.00     0.059 C 
ATOM      7  C   UNL     1      -6.796   4.997  -4.749  1.00  0.00     0.008 C 
ATOM      8  C   UNL     1      -5.167   3.842  -3.097  1.00  0.00     0.143 C 
ATOM      9  C   UNL     1      -6.078   5.052  -3.384  1.00  0.00     0.034 C 
ENDROOT
BRANCH   1  10
ATOM     10  C   UNL     1      -7.851   0.111  -4.502  1.00  0.00     0.246 C 
ATOM     11  O   UNL     1      -6.995  -0.758  -4.305  1.00  0.00    -0.272 OA
BRANCH  10  12
ATOM     12  C   UNL     1      -9.356  -0.153  -4.207  1.00  0.00     0.174 C 
BRANCH  12  13
ATOM     13  N   UNL     1      -9.488  -1.112  -3.111  1.00  0.00    -0.342 N 
ATOM     14  C   UNL     1      -9.961  -0.813  -1.853  1.00  0.00     0.249 C 
ATOM     15  O   UNL     1     -10.355   0.297  -1.518  1.00  0.00    -0.272 OA
ATOM     16  H   UNL     1      -9.058  -2.030  -3.189  1.00  0.00     0.164 HD
BRANCH  14  17
ATOM     17  C   UNL     1      -9.963  -2.036  -0.911  1.00  0.00     0.207 C 
BRANCH  17  18
ATOM     18  C   UNL     1     -11.013  -3.057  -1.361  1.00  0.00     0.077 C 
BRANCH  18  19
ATOM     19  C   UNL     1     -10.400  -4.415  -1.623  1.00  0.00    -0.043 A 
ATOM     20  C   UNL     1      -9.740  -6.161  -3.172  1.00  0.00     0.083 A 
ATOM     21  C   UNL     1     -10.260  -4.888  -2.937  1.00  0.00     0.028 A 
ATOM     22  C   UNL     1      -9.359  -6.968  -2.100  1.00  0.00     0.134 A 
ATOM     23  C   UNL     1      -9.492  -6.513  -0.793  1.00  0.00     0.048 A 
ATOM     24  C   UNL     1     -10.014  -5.239  -0.555  1.00  0.00     0.008 A 
ATOM     25  Cl  UNL     1      -9.576  -6.724  -4.794  1.00  0.00    -0.080 Cl
BRANCH  22  26
ATOM     26  O   UNL     1      -8.854  -8.228  -2.280  1.00  0.00    -0.506 OA
ATOM     27  H   UNL     1      -9.389  -8.826  -1.726  1.00  0.00     0.293 HD
ENDBRANCH  22  26
ENDBRANCH  18  19
ENDBRANCH  17  18
BRANCH  17  28
ATOM     28  O   UNL     1     -10.231  -1.644   0.445  1.00  0.00    -0.383 OA
ATOM     29  H   UNL     1     -11.058  -2.110   0.704  1.00  0.00     0.211 HD
ENDBRANCH  17  28
ENDBRANCH  14  17
ENDBRANCH  12  13
BRANCH  12  30
ATOM     30  C   UNL     1     -10.148  -0.585  -5.470  1.00  0.00     0.018 C 
ATOM     31  C   UNL     1     -11.170   0.491  -5.869  1.00  0.00     0.010 C 
BRANCH  30  32
ATOM     32  C   UNL     1     -10.850  -1.957  -5.325  1.00  0.00     0.002 C 
ATOM     33  C   UNL     1     -10.485  -2.991  -6.382  1.00  0.00     0.004 C 
ENDBRANCH  30  32
ENDBRANCH  12  30
ENDBRANCH  10  12
ENDBRANCH   1  10
BRANCH   5  34
ATOM     34  C   UNL     1      -6.347   1.229  -7.196  1.00  0.00     0.242 C 
ATOM     35  O   UNL     1      -6.139   1.589  -8.355  1.00  0.00    -0.273 OA
ATOM     36  N   UNL     1      -5.514   0.357  -6.532  1.00  0.00    -0.354 N 
ATOM     37  H   UNL     1      -5.801   0.001  -5.620  1.00  0.00     0.163 HD
BRANCH  36  38
ATOM     38  C   UNL     1      -4.201   0.008  -7.035  1.00  0.00     0.116 C 
BRANCH  38  39
ATOM     39  C   UNL     1      -3.167   1.007  -6.522  1.00  0.00     0.023 C 
BRANCH  39  40
ATOM     40  C   UNL     1      -1.763   0.709  -7.037  1.00  0.00     0.026 C 
BRANCH  40  41
ATOM     41  C   UNL     1      -1.806  -0.330  -8.158  1.00  0.00     0.146 C 
BRANCH  41  42
ATOM     42  N   UNL     1      -0.939  -1.452  -7.823  1.00  0.00    -0.254 NA
ATOM     43  C   UNL     1      -0.784  -2.405  -8.663  1.00  0.00     0.185 C 
ATOM     44  N   UNL     1      -1.314  -2.573  -9.889  1.00  0.00    -0.370 N 
ATOM     45  N   UNL     1       0.016  -3.433  -8.334  1.00  0.00    -0.370 N 
ATOM     46  H   UNL     1      -1.303  -3.476 -10.333  1.00  0.00     0.159 HD
ATOM     47  H   UNL     1      -1.933  -1.882 -10.301  1.00  0.00     0.159 HD
ATOM     48  H   UNL     1       0.463  -3.381  -7.428  1.00  0.00     0.159 HD
ATOM     49  H   UNL     1       0.371  -4.084  -9.011  1.00  0.00     0.159 HD
ENDBRANCH  41  42
ENDBRANCH  40  41
ENDBRANCH  39  40
ENDBRANCH  38  39
ENDBRANCH  36  38
ENDBRANCH   5  34
BRANCH   8  50
ATOM     50  O   UNL     1      -4.058   3.886  -3.996  1.00  0.00    -0.245 OA
BRANCH  50  51
ATOM     51  S   UNL     1      -2.679   4.615  -3.535  1.00  0.00     0.397 S 
ATOM     52  O   UNL     1      -1.596   3.673  -3.709  1.00  0.00    -0.169 OA
ATOM     53  O   UNL     1      -2.890   5.305  -2.279  1.00  0.00    -0.169 OA
BRANCH  51  54
ATOM     54  O   UNL     1      -2.485   5.723  -4.683  1.00  0.00    -0.264 OA
ATOM     55  H   UNL     1      -1.530   5.766  -4.898  1.00  0.00     0.236 HD
ENDBRANCH  51  54
ENDBRANCH  50  51
ENDBRANCH   8  50
TORSDOF 19
ENDMDL
MODEL 48
REMARK VINA RESULT:    -5.971      4.369      9.745
REMARK INTER + INTRA:         -16.164
REMARK INTER:                 -12.914
REMARK INTRA:                  -3.249
REMARK UNBOUND:                -4.083
REMARK SMILES CC[C@@H](C)[C@@H](NC(=O)[C@@H](O)Cc1ccc(O)c(Cl)c1)C(=O)N1[C@H](C(=O)NCCCCN=C(N)N)C[C@H]2CC[C@H](OS(=O)(=O)O)C[C@@H]21
REMARK SMILES IDX 22 1 36 2 46 3 35 4 23 5 45 6 37 7 39 8 38 9 20 10 21 11
REMARK SMILES IDX 5 12 6 13 7 14 8 15 9 17 11 18 12 19 17 20 19 21 15 22 14 23
REMARK SMILES IDX 13 24 18 25 16 26 10 28 3 30 4 31 2 32 1 33 24 34 25 35
REMARK SMILES IDX 26 36 27 38 28 39 29 40 30 41 31 42 32 43 33 44 34 45 40 50
REMARK SMILES IDX 41 51 42 52 43 53 44 54
REMARK H PARENT 6 16 16 27 10 29 26 37 33 46 33 47 34 48 34 49 44 55
ROOT
ATOM      1  N   UNL     1      -7.948   0.197  -5.562  1.00  0.00    -0.326 N 
ATOM      2  C   UNL     1      -9.372   1.839  -4.659  1.00  0.00     0.014 C 
ATOM      3  C   UNL     1      -8.634   0.542  -4.314  1.00  0.00     0.091 C 
ATOM      4  C   UNL     1      -9.757   1.628  -6.115  1.00  0.00     0.041 C 
ATOM      5  C   UNL     1      -8.436   1.060  -6.666  1.00  0.00     0.175 C 
ATOM      6  C   UNL     1      -7.788   0.785  -3.065  1.00  0.00     0.059 C 
ATOM      7  C   UNL     1     -10.455   2.134  -3.639  1.00  0.00     0.008 C 
ATOM      8  C   UNL     1      -8.403   1.810  -2.088  1.00  0.00     0.143 C 
ATOM      9  C   UNL     1      -9.939   1.875  -2.208  1.00  0.00     0.034 C 
ENDROOT
BRANCH   1  10
ATOM     10  C   UNL     1      -7.140  -0.888  -5.860  1.00  0.00     0.246 C 
ATOM     11  O   UNL     1      -6.009  -0.948  -5.367  1.00  0.00    -0.272 OA
BRANCH  10  12
ATOM     12  C   UNL     1      -7.687  -2.024  -6.772  1.00  0.00     0.174 C 
BRANCH  12  13
ATOM     13  N   UNL     1      -8.742  -2.759  -6.074  1.00  0.00    -0.342 N 
ATOM     14  C   UNL     1      -9.880  -3.260  -6.665  1.00  0.00     0.249 C 
ATOM     15  O   UNL     1     -10.124  -3.167  -7.861  1.00  0.00    -0.272 OA
ATOM     16  H   UNL     1      -8.754  -2.778  -5.057  1.00  0.00     0.164 HD
BRANCH  14  17
ATOM     17  C   UNL     1     -10.810  -3.971  -5.659  1.00  0.00     0.207 C 
BRANCH  17  18
ATOM     18  C   UNL     1     -10.281  -5.373  -5.340  1.00  0.00     0.077 C 
BRANCH  18  19
ATOM     19  C   UNL     1      -9.884  -5.507  -3.887  1.00  0.00    -0.043 A 
ATOM     20  C   UNL     1      -8.926  -6.812  -2.081  1.00  0.00     0.083 A 
ATOM     21  C   UNL     1      -9.246  -6.672  -3.432  1.00  0.00     0.028 A 
ATOM     22  C   UNL     1      -9.241  -5.796  -1.179  1.00  0.00     0.134 A 
ATOM     23  C   UNL     1      -9.872  -4.637  -1.616  1.00  0.00     0.048 A 
ATOM     24  C   UNL     1     -10.196  -4.494  -2.968  1.00  0.00     0.008 A 
ATOM     25  Cl  UNL     1      -8.142  -8.250  -1.540  1.00  0.00    -0.080 Cl
BRANCH  22  26
ATOM     26  O   UNL     1      -8.956  -5.893   0.156  1.00  0.00    -0.506 OA
ATOM     27  H   UNL     1      -8.241  -6.551   0.243  1.00  0.00     0.293 HD
ENDBRANCH  22  26
ENDBRANCH  18  19
ENDBRANCH  17  18
BRANCH  17  28
ATOM     28  O   UNL     1     -12.148  -4.072  -6.173  1.00  0.00    -0.383 OA
ATOM     29  H   UNL     1     -12.573  -4.811  -5.681  1.00  0.00     0.211 HD
ENDBRANCH  17  28
ENDBRANCH  14  17
ENDBRANCH  12  13
BRANCH  12  30
ATOM     30  C   UNL     1      -6.567  -2.958  -7.304  1.00  0.00     0.018 C 
ATOM     31  C   UNL     1      -6.749  -3.229  -8.806  1.00  0.00     0.010 C 
BRANCH  30  32
ATOM     32  C   UNL     1      -6.454  -4.295  -6.532  1.00  0.00     0.002 C 
ATOM     33  C   UNL     1      -6.373  -5.544  -7.401  1.00  0.00     0.004 C 
ENDBRANCH  30  32
ENDBRANCH  12  30
ENDBRANCH  10  12
ENDBRANCH   1  10
BRANCH   5  34
ATOM     34  C   UNL     1      -7.414   2.186  -6.977  1.00  0.00     0.242 C 
ATOM     35  O   UNL     1      -7.695   3.151  -7.687  1.00  0.00    -0.273 OA
ATOM     36  N   UNL     1      -6.157   1.998  -6.448  1.00  0.00    -0.354 N 
ATOM     37  H   UNL     1      -5.951   1.120  -5.970  1.00  0.00     0.163 HD
BRANCH  36  38
ATOM     38  C   UNL     1      -5.151   3.040  -6.456  1.00  0.00     0.116 C 
BRANCH  38  39
ATOM     39  C   UNL     1      -3.822   2.475  -6.950  1.00  0.00     0.023 C 
BRANCH  39  40
ATOM     40  C   UNL     1      -2.922   2.019  -5.807  1.00  0.00     0.026 C 
BRANCH  40  41
ATOM     41  C   UNL     1      -1.931   3.120  -5.426  1.00  0.00     0.146 C 
BRANCH  41  42
ATOM     42  N   UNL     1      -2.026   3.396  -3.999  1.00  0.00    -0.254 NA
ATOM     43  C   UNL     1      -2.743   4.374  -3.590  1.00  0.00     0.185 C 
ATOM     44  N   UNL     1      -3.481   5.257  -4.287  1.00  0.00    -0.370 N 
ATOM     45  N   UNL     1      -2.814   4.615  -2.270  1.00  0.00    -0.370 N 
ATOM     46  H   UNL     1      -3.793   6.113  -3.862  1.00  0.00     0.159 HD
ATOM     47  H   UNL     1      -3.551   5.212  -5.299  1.00  0.00     0.159 HD
ATOM     48  H   UNL     1      -2.293   3.988  -1.672  1.00  0.00     0.159 HD
ATOM     49  H   UNL     1      -3.525   5.194  -1.861  1.00  0.00     0.159 HD
ENDBRANCH  41  42
ENDBRANCH  40  41
ENDBRANCH  39  40
ENDBRANCH  38  39
ENDBRANCH  36  38
ENDBRANCH   5  34
BRANCH   8  50
ATOM     50  O   UNL     1      -7.873   3.111  -2.343  1.00  0.00    -0.245 OA
BRANCH  50  51
ATOM     51  S   UNL     1      -6.264   3.344  -2.301  1.00  0.00     0.397 S 
ATOM     52  O   UNL     1      -6.020   4.769  -2.274  1.00  0.00    -0.169 OA
ATOM     53  O   UNL     1      -5.622   2.482  -3.272  1.00  0.00    -0.169 OA
BRANCH  51  54
ATOM     54  O   UNL     1      -5.885   2.807  -0.834  1.00  0.00    -0.264 OA
ATOM     55  H   UNL     1      -6.713   2.523  -0.397  1.00  0.00     0.236 HD
ENDBRANCH  51  54
ENDBRANCH  50  51
ENDBRANCH   8  50
TORSDOF 19
ENDMDL
MODEL 49
REMARK VINA RESULT:    -5.967      6.142      8.965
REMARK INTER + INTRA:         -16.155
REMARK INTER:                 -12.726
REMARK INTRA:                  -3.429
REMARK UNBOUND:                -4.083
REMARK SMILES CC[C@@H](C)[C@@H](NC(=O)[C@@H](O)Cc1ccc(O)c(Cl)c1)C(=O)N1[C@H](C(=O)NCCCCN=C(N)N)C[C@H]2CC[C@H](OS(=O)(=O)O)C[C@@H]21
REMARK SMILES IDX 22 1 36 2 46 3 35 4 23 5 45 6 37 7 39 8 38 9 20 10 21 11
REMARK SMILES IDX 5 12 6 13 7 14 8 15 9 17 11 18 12 19 17 20 19 21 15 22 14 23
REMARK SMILES IDX 13 24 18 25 16 26 10 28 3 30 4 31 2 32 1 33 24 34 25 35
REMARK SMILES IDX 26 36 27 38 28 39 29 40 30 41 31 42 32 43 33 44 34 45 40 50
REMARK SMILES IDX 41 51 42 52 43 53 44 54
REMARK H PARENT 6 16 16 27 10 29 26 37 33 46 33 47 34 48 34 49 44 55
ROOT
ATOM      1  N   UNL     1     -11.155   4.759  -4.090  1.00  0.00    -0.326 N 
ATOM      2  C   UNL     1     -12.175   6.814  -4.617  1.00  0.00     0.014 C 
ATOM      3  C   UNL     1     -10.857   6.043  -4.730  1.00  0.00     0.091 C 
ATOM      4  C   UNL     1     -12.725   6.343  -3.280  1.00  0.00     0.041 C 
ATOM      5  C   UNL     1     -12.466   4.829  -3.397  1.00  0.00     0.175 C 
ATOM      6  C   UNL     1     -10.424   6.038  -6.195  1.00  0.00     0.059 C 
ATOM      7  C   UNL     1     -11.957   8.296  -4.850  1.00  0.00     0.008 C 
ATOM      8  C   UNL     1     -10.847   7.304  -6.972  1.00  0.00     0.143 C 
ATOM      9  C   UNL     1     -11.008   8.526  -6.045  1.00  0.00     0.034 C 
ENDROOT
BRANCH   1  10
ATOM     10  C   UNL     1     -10.338   3.661  -3.878  1.00  0.00     0.246 C 
ATOM     11  O   UNL     1     -10.114   2.889  -4.815  1.00  0.00    -0.272 OA
BRANCH  10  12
ATOM     12  C   UNL     1      -9.688   3.448  -2.480  1.00  0.00     0.174 C 
BRANCH  12  13
ATOM     13  N   UNL     1      -8.240   3.299  -2.622  1.00  0.00    -0.342 N 
ATOM     14  C   UNL     1      -7.309   4.246  -2.259  1.00  0.00     0.249 C 
ATOM     15  O   UNL     1      -7.594   5.321  -1.745  1.00  0.00    -0.272 OA
ATOM     16  H   UNL     1      -7.864   2.532  -3.173  1.00  0.00     0.164 HD
BRANCH  14  17
ATOM     17  C   UNL     1      -5.860   3.800  -2.550  1.00  0.00     0.207 C 
BRANCH  17  18
ATOM     18  C   UNL     1      -5.473   4.143  -3.992  1.00  0.00     0.077 C 
BRANCH  18  19
ATOM     19  C   UNL     1      -3.992   4.413  -4.127  1.00  0.00    -0.043 A 
ATOM     20  C   UNL     1      -1.817   3.807  -5.014  1.00  0.00     0.083 A 
ATOM     21  C   UNL     1      -3.192   3.585  -4.931  1.00  0.00     0.028 A 
ATOM     22  C   UNL     1      -1.233   4.852  -4.297  1.00  0.00     0.134 A 
ATOM     23  C   UNL     1      -2.013   5.679  -3.498  1.00  0.00     0.048 A 
ATOM     24  C   UNL     1      -3.390   5.459  -3.411  1.00  0.00     0.008 A 
ATOM     25  Cl  UNL     1      -0.850   2.779  -6.006  1.00  0.00    -0.080 Cl
BRANCH  22  26
ATOM     26  O   UNL     1       0.112   5.102  -4.340  1.00  0.00    -0.506 OA
ATOM     27  H   UNL     1       0.549   4.360  -3.882  1.00  0.00     0.293 HD
ENDBRANCH  22  26
ENDBRANCH  18  19
ENDBRANCH  17  18
BRANCH  17  28
ATOM     28  O   UNL     1      -5.701   2.388  -2.337  1.00  0.00    -0.383 OA
ATOM     29  H   UNL     1      -5.696   1.977  -3.231  1.00  0.00     0.211 HD
ENDBRANCH  17  28
ENDBRANCH  14  17
ENDBRANCH  12  13
BRANCH  12  30
ATOM     30  C   UNL     1     -10.330   2.275  -1.692  1.00  0.00     0.018 C 
ATOM     31  C   UNL     1     -11.101   2.795  -0.469  1.00  0.00     0.010 C 
BRANCH  30  32
ATOM     32  C   UNL     1      -9.315   1.189  -1.258  1.00  0.00     0.002 C 
ATOM     33  C   UNL     1      -9.413  -0.132  -2.010  1.00  0.00     0.004 C 
ENDBRANCH  30  32
ENDBRANCH  12  30
ENDBRANCH  10  12
ENDBRANCH   1  10
BRANCH   5  34
ATOM     34  C   UNL     1     -13.568   4.123  -4.232  1.00  0.00     0.242 C 
ATOM     35  O   UNL     1     -13.310   3.472  -5.244  1.00  0.00    -0.273 OA
ATOM     36  N   UNL     1     -14.856   4.324  -3.790  1.00  0.00    -0.354 N 
ATOM     37  H   UNL     1     -15.015   4.972  -3.017  1.00  0.00     0.163 HD
BRANCH  36  38
ATOM     38  C   UNL     1     -15.979   3.573  -4.313  1.00  0.00     0.116 C 
BRANCH  38  39
ATOM     39  C   UNL     1     -16.808   4.459  -5.239  1.00  0.00     0.023 C 
BRANCH  39  40
ATOM     40  C   UNL     1     -16.806   3.960  -6.680  1.00  0.00     0.026 C 
BRANCH  40  41
ATOM     41  C   UNL     1     -15.772   4.716  -7.514  1.00  0.00     0.146 C 
BRANCH  41  42
ATOM     42  N   UNL     1     -15.296   3.866  -8.598  1.00  0.00    -0.254 NA
ATOM     43  C   UNL     1     -14.039   3.750  -8.806  1.00  0.00     0.185 C 
ATOM     44  N   UNL     1     -12.999   4.310  -8.160  1.00  0.00    -0.370 N 
ATOM     45  N   UNL     1     -13.621   2.966  -9.813  1.00  0.00    -0.370 N 
ATOM     46  H   UNL     1     -12.085   4.327  -8.578  1.00  0.00     0.159 HD
ATOM     47  H   UNL     1     -13.135   4.922  -7.362  1.00  0.00     0.159 HD
ATOM     48  H   UNL     1     -14.342   2.499 -10.346  1.00  0.00     0.159 HD
ATOM     49  H   UNL     1     -12.674   2.639  -9.891  1.00  0.00     0.159 HD
ENDBRANCH  41  42
ENDBRANCH  40  41
ENDBRANCH  39  40
ENDBRANCH  38  39
ENDBRANCH  36  38
ENDBRANCH   5  34
BRANCH   8  50
ATOM     50  O   UNL     1     -12.087   7.076  -7.642  1.00  0.00    -0.245 OA
BRANCH  50  51
ATOM     51  S   UNL     1     -12.415   7.878  -9.019  1.00  0.00     0.397 S 
ATOM     52  O   UNL     1     -13.133   9.084  -8.673  1.00  0.00    -0.169 OA
ATOM     53  O   UNL     1     -12.918   6.953 -10.013  1.00  0.00    -0.169 OA
BRANCH  51  54
ATOM     54  O   UNL     1     -10.952   8.358  -9.484  1.00  0.00    -0.264 OA
ATOM     55  H   UNL     1     -11.066   9.127 -10.080  1.00  0.00     0.236 HD
ENDBRANCH  51  54
ENDBRANCH  50  51
ENDBRANCH   8  50
TORSDOF 19
ENDMDL
MODEL 50
REMARK VINA RESULT:    -5.841      6.483      9.462
REMARK INTER + INTRA:         -15.901
REMARK INTER:                 -11.281
REMARK INTRA:                  -4.620
REMARK UNBOUND:                -4.083
REMARK SMILES CC[C@@H](C)[C@@H](NC(=O)[C@@H](O)Cc1ccc(O)c(Cl)c1)C(=O)N1[C@H](C(=O)NCCCCN=C(N)N)C[C@H]2CC[C@H](OS(=O)(=O)O)C[C@@H]21
REMARK SMILES IDX 22 1 36 2 46 3 35 4 23 5 45 6 37 7 39 8 38 9 20 10 21 11
REMARK SMILES IDX 5 12 6 13 7 14 8 15 9 17 11 18 12 19 17 20 19 21 15 22 14 23
REMARK SMILES IDX 13 24 18 25 16 26 10 28 3 30 4 31 2 32 1 33 24 34 25 35
REMARK SMILES IDX 26 36 27 38 28 39 29 40 30 41 31 42 32 43 33 44 34 45 40 50
REMARK SMILES IDX 41 51 42 52 43 53 44 54
REMARK H PARENT 6 16 16 27 10 29 26 37 33 46 33 47 34 48 34 49 44 55
ROOT
ATOM      1  N   UNL     1     -12.372  -1.038  -3.608  1.00  0.00    -0.326 N 
ATOM      2  C   UNL     1     -10.639  -1.490  -2.079  1.00  0.00     0.014 C 
ATOM      3  C   UNL     1     -12.017  -0.833  -2.200  1.00  0.00     0.091 C 
ATOM      4  C   UNL     1     -10.012  -1.204  -3.435  1.00  0.00     0.041 C 
ATOM      5  C   UNL     1     -11.196  -1.541  -4.360  1.00  0.00     0.175 C 
ATOM      6  C   UNL     1     -12.930  -1.427  -1.129  1.00  0.00     0.059 C 
ATOM      7  C   UNL     1      -9.929  -1.033  -0.820  1.00  0.00     0.008 C 
ATOM      8  C   UNL     1     -12.190  -1.836   0.162  1.00  0.00     0.143 C 
ATOM      9  C   UNL     1     -10.903  -1.014   0.377  1.00  0.00     0.034 C 
ENDROOT
BRANCH   1  10
ATOM     10  C   UNL     1     -13.500  -0.641  -4.305  1.00  0.00     0.246 C 
ATOM     11  O   UNL     1     -14.477  -1.396  -4.347  1.00  0.00    -0.272 OA
BRANCH  10  12
ATOM     12  C   UNL     1     -13.530   0.759  -4.983  1.00  0.00     0.174 C 
BRANCH  12  13
ATOM     13  N   UNL     1     -12.904   1.750  -4.108  1.00  0.00    -0.342 N 
ATOM     14  C   UNL     1     -11.659   2.305  -4.305  1.00  0.00     0.249 C 
ATOM     15  O   UNL     1     -10.942   2.046  -5.264  1.00  0.00    -0.272 OA
ATOM     16  H   UNL     1     -13.309   1.944  -3.196  1.00  0.00     0.164 HD
BRANCH  14  17
ATOM     17  C   UNL     1     -11.272   3.307  -3.198  1.00  0.00     0.207 C 
BRANCH  17  18
ATOM     18  C   UNL     1     -10.446   2.612  -2.111  1.00  0.00     0.077 C 
BRANCH  18  19
ATOM     19  C   UNL     1      -8.962   2.815  -2.315  1.00  0.00    -0.043 A 
ATOM     20  C   UNL     1      -7.113   4.190  -3.074  1.00  0.00     0.083 A 
ATOM     21  C   UNL     1      -8.479   4.024  -2.841  1.00  0.00     0.028 A 
ATOM     22  C   UNL     1      -6.224   3.153  -2.787  1.00  0.00     0.134 A 
ATOM     23  C   UNL     1      -6.689   1.952  -2.266  1.00  0.00     0.048 A 
ATOM     24  C   UNL     1      -8.056   1.781  -2.033  1.00  0.00     0.008 A 
ATOM     25  Cl  UNL     1      -6.538   5.682  -3.721  1.00  0.00    -0.080 Cl
BRANCH  22  26
ATOM     26  O   UNL     1      -4.878   3.266  -3.009  1.00  0.00    -0.506 OA
ATOM     27  H   UNL     1      -4.594   2.434  -3.432  1.00  0.00     0.293 HD
ENDBRANCH  22  26
ENDBRANCH  18  19
ENDBRANCH  17  18
BRANCH  17  28
ATOM     28  O   UNL     1     -12.438   3.900  -2.604  1.00  0.00    -0.383 OA
ATOM     29  H   UNL     1     -12.464   4.830  -2.924  1.00  0.00     0.211 HD
ENDBRANCH  17  28
ENDBRANCH  14  17
ENDBRANCH  12  13
BRANCH  12  30
ATOM     30  C   UNL     1     -14.956   1.180  -5.429  1.00  0.00     0.018 C 
ATOM     31  C   UNL     1     -15.064   1.202  -6.962  1.00  0.00     0.010 C 
BRANCH  30  32
ATOM     32  C   UNL     1     -15.415   2.537  -4.844  1.00  0.00     0.002 C 
ATOM     33  C   UNL     1     -15.984   3.524  -5.856  1.00  0.00     0.004 C 
ENDBRANCH  30  32
ENDBRANCH  12  30
ENDBRANCH  10  12
ENDBRANCH   1  10
BRANCH   5  34
ATOM     34  C   UNL     1     -11.312  -3.068  -4.606  1.00  0.00     0.242 C 
ATOM     35  O   UNL     1     -12.326  -3.705  -4.321  1.00  0.00    -0.273 OA
ATOM     36  N   UNL     1     -10.182  -3.667  -5.116  1.00  0.00    -0.354 N 
ATOM     37  H   UNL     1      -9.334  -3.109  -5.218  1.00  0.00     0.163 HD
BRANCH  36  38
ATOM     38  C   UNL     1     -10.183  -5.031  -5.605  1.00  0.00     0.116 C 
BRANCH  38  39
ATOM     39  C   UNL     1      -9.157  -5.859  -4.834  1.00  0.00     0.023 C 
BRANCH  39  40
ATOM     40  C   UNL     1      -9.779  -7.077  -4.162  1.00  0.00     0.026 C 
BRANCH  40  41
ATOM     41  C   UNL     1     -10.778  -6.652  -3.085  1.00  0.00     0.146 C 
BRANCH  41  42
ATOM     42  N   UNL     1     -10.273  -7.022  -1.770  1.00  0.00    -0.254 NA
ATOM     43  C   UNL     1      -9.715  -6.136  -1.033  1.00  0.00     0.185 C 
ATOM     44  N   UNL     1      -9.496  -4.830  -1.267  1.00  0.00    -0.370 N 
ATOM     45  N   UNL     1      -9.252  -6.499   0.174  1.00  0.00    -0.370 N 
ATOM     46  H   UNL     1      -8.836  -4.313  -0.712  1.00  0.00     0.159 HD
ATOM     47  H   UNL     1      -9.796  -4.385  -2.130  1.00  0.00     0.159 HD
ATOM     48  H   UNL     1      -9.385  -7.467   0.433  1.00  0.00     0.159 HD
ATOM     49  H   UNL     1      -9.025  -5.834   0.892  1.00  0.00     0.159 HD
ENDBRANCH  41  42
ENDBRANCH  40  41
ENDBRANCH  39  40
ENDBRANCH  38  39
ENDBRANCH  36  38
ENDBRANCH   5  34
BRANCH   8  50
ATOM     50  O   UNL     1     -11.841  -3.220   0.110  1.00  0.00    -0.245 OA
BRANCH  50  51
ATOM     51  S   UNL     1     -11.813  -4.094   1.481  1.00  0.00     0.397 S 
ATOM     52  O   UNL     1     -12.209  -5.446   1.157  1.00  0.00    -0.169 OA
ATOM     53  O   UNL     1     -12.454  -3.349   2.545  1.00  0.00    -0.169 OA
BRANCH  51  54
ATOM     54  O   UNL     1     -10.239  -4.163   1.803  1.00  0.00    -0.264 OA
ATOM     55  H   UNL     1      -9.756  -4.001   0.967  1.00  0.00     0.236 HD
ENDBRANCH  51  54
ENDBRANCH  50  51
ENDBRANCH   8  50
TORSDOF 19
ENDMDL
