MODEL 1
REMARK VINA RESULT:    -6.576      0.000      0.000
REMARK INTER + INTRA:         -27.965
REMARK INTER:                 -19.646
REMARK INTRA:                  -8.320
REMARK UNBOUND:                -8.320
REMARK SMILES C=C1C(=O)N[C@H](C)C(=O)N[C@@H](CC(C)C)C(=O)N[C@@H](C(=O)O)[C@H](C)C(=O)N[C@@H](CCCN=C(N)N)C(=O)N[C@@H](/C=C/C(C)=C/[C@H](C)[C@H](Cc2ccccc2)OC)[C@H](C)C(=O)N[C@@H](C(=O)O)CCC(=O)N1C
REMARK SMILES IDX 39 1 38 2 37 3 36 4 28 6 27 7 25 8 26 9 23 11 24 12 19 13
REMARK SMILES IDX 18 14 16 15 17 16 11 18 10 19 8 20 9 21 12 24 13 25 14 26
REMARK SMILES IDX 15 27 20 28 21 29 22 30 29 32 30 33 31 34 32 35 33 36 34 37
REMARK SMILES IDX 35 38 57 43 58 44 59 45 60 46 61 47 62 49 66 50 67 51 68 52
REMARK SMILES IDX 69 53 70 54 71 55 2 56 1 57 3 58 4 59 5 60 6 62 7 63 63 65
REMARK SMILES IDX 64 66 65 67 40 69 41 70 42 71 44 72 43 73 45 74 46 75 47 76
REMARK SMILES IDX 55 77 56 78 48 79 49 80 50 81 54 82 51 83 53 84 52 85
REMARK H PARENT 38 5 27 10 18 17 10 22 22 31 34 39 34 40 35 41 35 42 61 48
REMARK H PARENT 5 61 65 68
REMARK Flexibility Score:  369.900
ROOT
ATOM      1  C   UNL     1      -0.300  -6.306   0.614  1.00  0.00     0.117 C 
ENDROOT
BRANCH   1   2
ATOM      2  N   UNL     1      -1.352  -6.134  -0.388  1.00  0.00    -0.347 N 
ATOM      3  O   UNL     1      -0.095  -5.053  -1.977  1.00  0.00    -0.273 OA
ATOM      4  C   UNL     1      -1.142  -5.601  -1.646  1.00  0.00     0.243 C 
ATOM      5  H   UNL     1      -2.284  -6.462  -0.189  1.00  0.00     0.164 HD
BRANCH   4   6
ATOM      6  C   UNL     1      -2.404  -5.609  -2.545  1.00  0.00     0.171 C 
BRANCH   6   7
ATOM      7  N   UNL     1      -2.192  -6.470  -3.720  1.00  0.00    -0.344 N 
ATOM      8  C   UNL     1      -1.711  -5.943  -4.899  1.00  0.00     0.226 C 
ATOM      9  O   UNL     1      -1.462  -4.751  -5.037  1.00  0.00    -0.275 OA
ATOM     10  H   UNL     1      -2.450  -7.447  -3.666  1.00  0.00     0.164 HD
BRANCH   8  11
ATOM     11  C   UNL     1      -1.496  -6.967  -6.000  1.00  0.00     0.109 C 
ATOM     12  C   UNL     1      -0.229  -7.777  -5.723  1.00  0.00     0.021 C 
BRANCH  11  13
ATOM     13  C   UNL     1      -2.774  -7.807  -6.188  1.00  0.00     0.204 C 
BRANCH  13  14
ATOM     14  N   UNL     1      -3.289  -7.730  -7.559  1.00  0.00    -0.340 N 
ATOM     15  C   UNL     1      -4.628  -7.583  -7.849  1.00  0.00     0.243 C 
ATOM     16  O   UNL     1      -5.481  -7.444  -6.975  1.00  0.00    -0.273 OA
ATOM     17  H   UNL     1      -2.659  -7.989  -8.323  1.00  0.00     0.164 HD
BRANCH  15  18
ATOM     18  C   UNL     1      -4.955  -7.735  -9.355  1.00  0.00     0.171 C 
BRANCH  18  19
ATOM     19  N   UNL     1      -6.411  -7.694  -9.472  1.00  0.00    -0.343 N 
ATOM     20  C   UNL     1      -7.127  -8.738 -10.027  1.00  0.00     0.242 CG0
ATOM     21  O   UNL     1      -6.566  -9.688 -10.567  1.00  0.00    -0.273 OA
ATOM     22  H   UNL     1      -6.914  -6.877  -9.145  1.00  0.00     0.164 HD
ATOM     23  G   UNL     1      -8.658  -8.548  -9.994  1.00  0.00     0.000 G0
ENDBRANCH  18  19
BRANCH  18  24
ATOM     24  C   UNL     1      -4.294  -6.617 -10.169  1.00  0.00     0.038 C 
BRANCH  24  25
ATOM     25  C   UNL     1      -3.424  -7.105 -11.346  1.00  0.00    -0.015 C 
ATOM     26  C   UNL     1      -3.993  -6.694 -12.704  1.00  0.00     0.007 C 
ATOM     27  C   UNL     1      -3.284  -8.628 -11.286  1.00  0.00     0.007 C 
ENDBRANCH  24  25
ENDBRANCH  18  24
ENDBRANCH  15  18
ENDBRANCH  13  14
BRANCH  13  28
ATOM     28  C   UNL     1      -2.576  -9.291  -5.861  1.00  0.00     0.327 C 
ATOM     29  O   UNL     1      -2.473 -10.201  -6.668  1.00  0.00    -0.250 OA
BRANCH  28  30
ATOM     30  O   UNL     1      -2.638  -9.553  -4.540  1.00  0.00    -0.480 OA
ATOM     31  H   UNL     1      -1.708  -9.727  -4.285  1.00  0.00     0.296 HD
ENDBRANCH  28  30
ENDBRANCH  13  28
ENDBRANCH  11  13
ENDBRANCH   8  11
ENDBRANCH   6   7
BRANCH   6  32
ATOM     32  C   UNL     1      -3.604  -6.091  -1.723  1.00  0.00     0.037 C 
BRANCH  32  33
ATOM     33  C   UNL     1      -4.908  -6.069  -2.534  1.00  0.00     0.026 C 
BRANCH  33  34
ATOM     34  C   UNL     1      -5.620  -7.423  -2.534  1.00  0.00     0.146 C 
BRANCH  34  35
ATOM     35  N   UNL     1      -4.626  -8.476  -2.691  1.00  0.00    -0.254 NA
ATOM     36  C   UNL     1      -4.646  -9.466  -1.878  1.00  0.00     0.185 C 
ATOM     37  N   UNL     1      -3.739 -10.444  -2.017  1.00  0.00    -0.370 N 
ATOM     38  N   UNL     1      -5.479  -9.696  -0.848  1.00  0.00    -0.370 N 
ATOM     39  H   UNL     1      -3.080 -10.348  -2.780  1.00  0.00     0.159 HD
ATOM     40  H   UNL     1      -3.795 -11.327  -1.538  1.00  0.00     0.159 HD
ATOM     41  H   UNL     1      -5.306 -10.442  -0.195  1.00  0.00     0.159 HD
ATOM     42  H   UNL     1      -6.203  -9.034  -0.616  1.00  0.00     0.159 HD
ENDBRANCH  34  35
ENDBRANCH  33  34
ENDBRANCH  32  33
ENDBRANCH   6  32
ENDBRANCH   4   6
ENDBRANCH   1   2
BRANCH   1  43
ATOM     43  C   UNL     1       0.290  -7.739   0.472  1.00  0.00     0.102 C 
ATOM     44  C   UNL     1       1.471  -7.819  -0.510  1.00  0.00     0.020 C 
BRANCH  43  45
ATOM     45  C   UNL     1      -0.815  -8.764   0.200  1.00  0.00     0.225 C 
ATOM     46  O   UNL     1      -1.228  -9.022  -0.927  1.00  0.00    -0.275 OA
ATOM     47  N   UNL     1      -1.392  -9.323   1.317  1.00  0.00    -0.342 N 
ATOM     48  H   UNL     1      -0.945  -9.218   2.217  1.00  0.00     0.164 HD
BRANCH  47  49
ATOM     49  C   UNL     1      -2.437 -10.346   1.209  1.00  0.00     0.192 C 
BRANCH  49  50
ATOM     50  C   UNL     1      -3.538 -10.066   2.234  1.00  0.00     0.047 C 
BRANCH  50  51
ATOM     51  C   UNL     1      -2.971  -9.716   3.617  1.00  0.00     0.103 C 
BRANCH  51  52
ATOM     52  C   UNL     1      -3.611 -10.547   4.727  1.00  0.00     0.226 C 
ATOM     53  O   UNL     1      -4.634 -11.193   4.493  1.00  0.00    -0.275 OA
BRANCH  52  54
ATOM     54  N   UNL     1      -2.930 -10.579   5.958  1.00  0.00    -0.311 N 
ATOM     55  C   UNL     1      -1.482 -10.342   6.027  1.00  0.00     0.153 C 
BRANCH  54  56
ATOM     56  C   UNL     1      -3.606 -10.834   7.163  1.00  0.00     0.102 C 
ATOM     57  C   UNL     1      -4.319  -9.927   7.850  1.00  0.00     0.043 C 
BRANCH  56  58
ATOM     58  C   UNL     1      -3.613 -12.217   7.770  1.00  0.00     0.268 C 
ATOM     59  O   UNL     1      -3.140 -13.197   7.210  1.00  0.00    -0.268 OA
ATOM     60  N   UNL     1      -4.143 -12.248   9.038  1.00  0.00    -0.339 N 
ATOM     61  H   UNL     1      -4.523 -11.394   9.427  1.00  0.00     0.164 HD
BRANCH  60  62
ATOM     62  C   UNL     1      -4.190 -13.474   9.833  1.00  0.00     0.168 CG0
ATOM     63  C   UNL     1      -4.354 -13.159  11.315  1.00  0.00     0.041 C 
ATOM     64  G   UNL     1      -2.909 -14.298   9.589  1.00  0.00     0.000 G0
ENDBRANCH  60  62
ENDBRANCH  56  58
ENDBRANCH  54  56
ENDBRANCH  52  54
ENDBRANCH  51  52
ENDBRANCH  50  51
ENDBRANCH  49  50
BRANCH  49  65
ATOM     65  C   UNL     1      -1.874 -11.757   1.438  1.00  0.00     0.326 C 
ATOM     66  O   UNL     1      -1.015 -12.055   2.254  1.00  0.00    -0.250 OA
BRANCH  65  67
ATOM     67  O   UNL     1      -2.364 -12.701   0.605  1.00  0.00    -0.480 OA
ATOM     68  H   UNL     1      -1.788 -13.478   0.771  1.00  0.00     0.296 HD
ENDBRANCH  65  67
ENDBRANCH  49  65
ENDBRANCH  47  49
ENDBRANCH  43  45
ENDBRANCH   1  43
BRANCH   1  69
ATOM     69  C   UNL     1      -0.909  -5.892   1.942  1.00  0.00    -0.001 C 
ATOM     70  C   UNL     1      -0.496  -6.241   3.174  1.00  0.00     0.001 C 
BRANCH  70  71
ATOM     71  C   UNL     1      -1.079  -5.818   4.449  1.00  0.00    -0.055 C 
ATOM     72  C   UNL     1      -2.127  -6.522   4.924  1.00  0.00    -0.018 C 
ATOM     73  C   UNL     1      -0.462  -4.632   5.144  1.00  0.00     0.044 C 
BRANCH  72  74
ATOM     74  C   UNL     1      -2.922  -6.319   6.206  1.00  0.00     0.038 C 
ATOM     75  C   UNL     1      -2.136  -6.991   7.338  1.00  0.00     0.015 C 
BRANCH  74  76
ATOM     76  C   UNL     1      -4.363  -6.871   5.995  1.00  0.00     0.128 C 
BRANCH  76  77
ATOM     77  O   UNL     1      -5.250  -6.318   6.982  1.00  0.00    -0.381 OA
ATOM     78  C   UNL     1      -6.465  -7.041   7.126  1.00  0.00     0.195 C 
ENDBRANCH  76  77
BRANCH  76  79
ATOM     79  C   UNL     1      -4.896  -6.702   4.549  1.00  0.00     0.068 C 
BRANCH  79  80
ATOM     80  C   UNL     1      -5.304  -5.319   4.103  1.00  0.00    -0.045 A 
ATOM     81  C   UNL     1      -4.391  -4.468   3.466  1.00  0.00     0.004 A 
ATOM     82  C   UNL     1      -6.604  -4.852   4.346  1.00  0.00     0.004 A 
ATOM     83  C   UNL     1      -4.772  -3.184   3.069  1.00  0.00     0.000 A 
ATOM     84  C   UNL     1      -6.984  -3.569   3.949  1.00  0.00     0.000 A 
ATOM     85  C   UNL     1      -6.069  -2.736   3.309  1.00  0.00     0.000 A 
ENDBRANCH  79  80
ENDBRANCH  76  79
ENDBRANCH  74  76
ENDBRANCH  72  74
ENDBRANCH  70  71
ENDBRANCH   1  69
TORSDOF 17
ENDMDL
MODEL 2
REMARK VINA RESULT:    -6.443      2.150      2.785
REMARK INTER + INTRA:         -27.568
REMARK INTER:                 -19.339
REMARK INTRA:                  -8.229
REMARK UNBOUND:                -8.320
REMARK SMILES C=C1C(=O)N[C@H](C)C(=O)N[C@@H](CC(C)C)C(=O)N[C@@H](C(=O)O)[C@H](C)C(=O)N[C@@H](CCCN=C(N)N)C(=O)N[C@@H](/C=C/C(C)=C/[C@H](C)[C@H](Cc2ccccc2)OC)[C@H](C)C(=O)N[C@@H](C(=O)O)CCC(=O)N1C
REMARK SMILES IDX 39 1 38 2 37 3 36 4 28 6 27 7 25 8 26 9 23 11 24 12 19 13
REMARK SMILES IDX 18 14 16 15 17 16 11 18 10 19 8 20 9 21 12 24 13 25 14 26
REMARK SMILES IDX 15 27 20 28 21 29 22 30 29 32 30 33 31 34 32 35 33 36 34 37
REMARK SMILES IDX 35 38 57 43 58 44 59 45 60 46 61 47 62 49 66 50 67 51 68 52
REMARK SMILES IDX 69 53 70 54 71 55 2 56 1 57 3 58 4 59 5 60 6 62 7 63 63 65
REMARK SMILES IDX 64 66 65 67 40 69 41 70 42 71 44 72 43 73 45 74 46 75 47 76
REMARK SMILES IDX 55 77 56 78 48 79 49 80 50 81 54 82 51 83 53 84 52 85
REMARK H PARENT 38 5 27 10 18 17 10 22 22 31 34 39 34 40 35 41 35 42 61 48
REMARK H PARENT 5 61 65 68
REMARK Flexibility Score:  369.900
ROOT
ATOM      1  C   UNL     1      -0.243  -6.184   0.470  1.00  0.00     0.117 C 
ENDROOT
BRANCH   1   2
ATOM      2  N   UNL     1      -1.333  -6.050  -0.496  1.00  0.00    -0.347 N 
ATOM      3  O   UNL     1      -0.205  -4.818  -2.071  1.00  0.00    -0.273 OA
ATOM      4  C   UNL     1      -1.199  -5.453  -1.735  1.00  0.00     0.243 C 
ATOM      5  H   UNL     1      -2.233  -6.454  -0.286  1.00  0.00     0.164 HD
BRANCH   4   6
ATOM      6  C   UNL     1      -2.483  -5.519  -2.601  1.00  0.00     0.171 C 
BRANCH   6   7
ATOM      7  N   UNL     1      -2.287  -6.428  -3.742  1.00  0.00    -0.344 N 
ATOM      8  C   UNL     1      -1.725  -5.973  -4.915  1.00  0.00     0.226 C 
ATOM      9  O   UNL     1      -1.385  -4.807  -5.075  1.00  0.00    -0.275 OA
ATOM     10  H   UNL     1      -2.617  -7.383  -3.671  1.00  0.00     0.164 HD
BRANCH   8  11
ATOM     11  C   UNL     1      -1.541  -7.043  -5.976  1.00  0.00     0.109 C 
ATOM     12  C   UNL     1      -0.250  -7.822  -5.720  1.00  0.00     0.021 C 
BRANCH  11  13
ATOM     13  C   UNL     1      -2.812  -7.910  -6.070  1.00  0.00     0.204 C 
BRANCH  13  14
ATOM     14  N   UNL     1      -3.420  -7.856  -7.403  1.00  0.00    -0.340 N 
ATOM     15  C   UNL     1      -4.767  -7.645  -7.604  1.00  0.00     0.243 C 
ATOM     16  O   UNL     1      -5.546  -7.426  -6.678  1.00  0.00    -0.273 OA
ATOM     17  H   UNL     1      -2.862  -8.179  -8.198  1.00  0.00     0.164 HD
BRANCH  15  18
ATOM     18  C   UNL     1      -5.210  -7.837  -9.075  1.00  0.00     0.171 C 
BRANCH  18  19
ATOM     19  N   UNL     1      -4.284  -8.798  -9.670  1.00  0.00    -0.343 N 
ATOM     20  C   UNL     1      -3.677  -8.566 -10.889  1.00  0.00     0.242 CG0
ATOM     21  O   UNL     1      -3.989  -7.607 -11.591  1.00  0.00    -0.273 OA
ATOM     22  H   UNL     1      -4.082  -9.663  -9.181  1.00  0.00     0.164 HD
ATOM     23  G   UNL     1      -2.672  -9.655 -11.317  1.00  0.00     0.000 G0
ENDBRANCH  18  19
BRANCH  18  24
ATOM     24  C   UNL     1      -6.659  -8.337  -9.143  1.00  0.00     0.038 C 
BRANCH  24  25
ATOM     25  C   UNL     1      -6.806  -9.863  -9.323  1.00  0.00    -0.015 C 
ATOM     26  C   UNL     1      -7.978 -10.234 -10.232  1.00  0.00     0.007 C 
ATOM     27  C   UNL     1      -6.983 -10.528  -7.956  1.00  0.00     0.007 C 
ENDBRANCH  24  25
ENDBRANCH  18  24
ENDBRANCH  15  18
ENDBRANCH  13  14
BRANCH  13  28
ATOM     28  C   UNL     1      -2.562  -9.386  -5.744  1.00  0.00     0.327 C 
ATOM     29  O   UNL     1      -2.360 -10.280  -6.551  1.00  0.00    -0.250 OA
BRANCH  28  30
ATOM     30  O   UNL     1      -2.700  -9.668  -4.432  1.00  0.00    -0.480 OA
ATOM     31  H   UNL     1      -3.668  -9.639  -4.280  1.00  0.00     0.296 HD
ENDBRANCH  28  30
ENDBRANCH  13  28
ENDBRANCH  11  13
ENDBRANCH   8  11
ENDBRANCH   6   7
BRANCH   6  32
ATOM     32  C   UNL     1      -3.655  -5.980  -1.728  1.00  0.00     0.037 C 
BRANCH  32  33
ATOM     33  C   UNL     1      -5.004  -5.832  -2.446  1.00  0.00     0.026 C 
BRANCH  33  34
ATOM     34  C   UNL     1      -5.855  -7.100  -2.359  1.00  0.00     0.146 C 
BRANCH  34  35
ATOM     35  N   UNL     1      -5.395  -8.045  -3.367  1.00  0.00    -0.254 NA
ATOM     36  C   UNL     1      -6.149  -9.036  -3.669  1.00  0.00     0.185 C 
ATOM     37  N   UNL     1      -5.737  -9.910  -4.600  1.00  0.00    -0.370 N 
ATOM     38  N   UNL     1      -7.357  -9.359  -3.176  1.00  0.00    -0.370 N 
ATOM     39  H   UNL     1      -4.837  -9.728  -5.028  1.00  0.00     0.159 HD
ATOM     40  H   UNL     1      -6.335 -10.604  -5.015  1.00  0.00     0.159 HD
ATOM     41  H   UNL     1      -7.789 -10.242  -3.395  1.00  0.00     0.159 HD
ATOM     42  H   UNL     1      -7.784  -8.798  -2.456  1.00  0.00     0.159 HD
ENDBRANCH  34  35
ENDBRANCH  33  34
ENDBRANCH  32  33
ENDBRANCH   6  32
ENDBRANCH   4   6
ENDBRANCH   1   2
BRANCH   1  43
ATOM     43  C   UNL     1       0.483  -7.536   0.214  1.00  0.00     0.102 C 
ATOM     44  C   UNL     1       1.562  -7.453  -0.879  1.00  0.00     0.020 C 
BRANCH  43  45
ATOM     45  C   UNL     1      -0.525  -8.671   0.008  1.00  0.00     0.225 C 
ATOM     46  O   UNL     1      -1.037  -8.924  -1.079  1.00  0.00    -0.275 OA
ATOM     47  N   UNL     1      -0.901  -9.343   1.148  1.00  0.00    -0.342 N 
ATOM     48  H   UNL     1      -0.365  -9.228   1.996  1.00  0.00     0.164 HD
BRANCH  47  49
ATOM     49  C   UNL     1      -1.830 -10.476   1.098  1.00  0.00     0.192 C 
BRANCH  49  50
ATOM     50  C   UNL     1      -2.753 -10.439   2.319  1.00  0.00     0.047 C 
BRANCH  50  51
ATOM     51  C   UNL     1      -2.281  -9.429   3.374  1.00  0.00     0.103 C 
BRANCH  51  52
ATOM     52  C   UNL     1      -1.655 -10.116   4.586  1.00  0.00     0.226 C 
ATOM     53  O   UNL     1      -2.029 -11.245   4.908  1.00  0.00    -0.275 OA
BRANCH  52  54
ATOM     54  N   UNL     1      -0.610  -9.425   5.227  1.00  0.00    -0.311 N 
ATOM     55  C   UNL     1       0.170  -8.403   4.516  1.00  0.00     0.153 C 
BRANCH  54  56
ATOM     56  C   UNL     1      -0.277  -9.681   6.568  1.00  0.00     0.102 C 
ATOM     57  C   UNL     1      -0.963  -9.228   7.630  1.00  0.00     0.043 C 
BRANCH  56  58
ATOM     58  C   UNL     1       0.900 -10.559   6.920  1.00  0.00     0.268 C 
ATOM     59  O   UNL     1       1.230 -11.534   6.259  1.00  0.00    -0.268 OA
ATOM     60  N   UNL     1       1.598 -10.113   8.017  1.00  0.00    -0.339 N 
ATOM     61  H   UNL     1       1.253  -9.302   8.517  1.00  0.00     0.164 HD
BRANCH  60  62
ATOM     62  C   UNL     1       2.809 -10.779   8.494  1.00  0.00     0.168 CG0
ATOM     63  C   UNL     1       4.059 -10.077   7.978  1.00  0.00     0.041 C 
ATOM     64  G   UNL     1       2.793 -12.258   8.055  1.00  0.00     0.000 G0
ENDBRANCH  60  62
ENDBRANCH  56  58
ENDBRANCH  54  56
ENDBRANCH  52  54
ENDBRANCH  51  52
ENDBRANCH  50  51
ENDBRANCH  49  50
BRANCH  49  65
ATOM     65  C   UNL     1      -1.086 -11.819   1.063  1.00  0.00     0.326 C 
ATOM     66  O   UNL     1      -0.472 -12.267   0.105  1.00  0.00    -0.250 OA
BRANCH  65  67
ATOM     67  O   UNL     1      -1.195 -12.554   2.192  1.00  0.00    -0.480 OA
ATOM     68  H   UNL     1      -2.143 -12.472   2.431  1.00  0.00     0.296 HD
ENDBRANCH  65  67
ENDBRANCH  49  65
ENDBRANCH  47  49
ENDBRANCH  43  45
ENDBRANCH   1  43
BRANCH   1  69
ATOM     69  C   UNL     1      -0.854  -5.927   1.836  1.00  0.00    -0.001 C 
ATOM     70  C   UNL     1      -1.086  -4.736   2.416  1.00  0.00     0.001 C 
BRANCH  70  71
ATOM     71  C   UNL     1      -1.696  -4.500   3.726  1.00  0.00    -0.055 C 
ATOM     72  C   UNL     1      -1.950  -5.575   4.503  1.00  0.00    -0.018 C 
ATOM     73  C   UNL     1      -1.990  -3.076   4.118  1.00  0.00     0.044 C 
BRANCH  72  74
ATOM     74  C   UNL     1      -2.566  -5.634   5.894  1.00  0.00     0.038 C 
ATOM     75  C   UNL     1      -1.416  -5.814   6.891  1.00  0.00     0.015 C 
BRANCH  74  76
ATOM     76  C   UNL     1      -3.636  -6.765   5.919  1.00  0.00     0.128 C 
BRANCH  76  77
ATOM     77  O   UNL     1      -4.396  -6.693   7.138  1.00  0.00    -0.381 OA
ATOM     78  C   UNL     1      -4.351  -7.886   7.909  1.00  0.00     0.195 C 
ENDBRANCH  76  77
BRANCH  76  79
ATOM     79  C   UNL     1      -4.532  -6.812   4.656  1.00  0.00     0.068 C 
BRANCH  79  80
ATOM     80  C   UNL     1      -5.570  -5.730   4.484  1.00  0.00    -0.045 A 
ATOM     81  C   UNL     1      -5.323  -4.615   3.672  1.00  0.00     0.004 A 
ATOM     82  C   UNL     1      -6.796  -5.812   5.162  1.00  0.00     0.004 A 
ATOM     83  C   UNL     1      -6.284  -3.612   3.530  1.00  0.00     0.000 A 
ATOM     84  C   UNL     1      -7.755  -4.807   5.019  1.00  0.00     0.000 A 
ATOM     85  C   UNL     1      -7.500  -3.709   4.202  1.00  0.00     0.000 A 
ENDBRANCH  79  80
ENDBRANCH  76  79
ENDBRANCH  74  76
ENDBRANCH  72  74
ENDBRANCH  70  71
ENDBRANCH   1  69
TORSDOF 17
ENDMDL
MODEL 3
REMARK VINA RESULT:    -6.113      2.322     11.400
REMARK INTER + INTRA:         -26.582
REMARK INTER:                 -19.271
REMARK INTRA:                  -7.311
REMARK UNBOUND:                -8.320
REMARK SMILES C=C1C(=O)N[C@H](C)C(=O)N[C@@H](CC(C)C)C(=O)N[C@@H](C(=O)O)[C@H](C)C(=O)N[C@@H](CCCN=C(N)N)C(=O)N[C@@H](/C=C/C(C)=C/[C@H](C)[C@H](Cc2ccccc2)OC)[C@H](C)C(=O)N[C@@H](C(=O)O)CCC(=O)N1C
REMARK SMILES IDX 39 1 38 2 37 3 36 4 28 6 27 7 25 8 26 9 23 11 24 12 19 13
REMARK SMILES IDX 18 14 16 15 17 16 11 18 10 19 8 20 9 21 12 24 13 25 14 26
REMARK SMILES IDX 15 27 20 28 21 29 22 30 29 32 30 33 31 34 32 35 33 36 34 37
REMARK SMILES IDX 35 38 57 43 58 44 59 45 60 46 61 47 62 49 66 50 67 51 68 52
REMARK SMILES IDX 69 53 70 54 71 55 2 56 1 57 3 58 4 59 5 60 6 62 7 63 63 65
REMARK SMILES IDX 64 66 65 67 40 69 41 70 42 71 44 72 43 73 45 74 46 75 47 76
REMARK SMILES IDX 55 77 56 78 48 79 49 80 50 81 54 82 51 83 53 84 52 85
REMARK H PARENT 38 5 27 10 18 17 10 22 22 31 34 39 34 40 35 41 35 42 61 48
REMARK H PARENT 5 61 65 68
REMARK Flexibility Score:  369.900
ROOT
ATOM      1  C   UNL     1      -2.385  -6.111  -0.939  1.00  0.00     0.117 C 
ENDROOT
BRANCH   1   2
ATOM      2  N   UNL     1      -2.813  -7.492  -1.166  1.00  0.00    -0.347 N 
ATOM      3  O   UNL     1      -0.969  -8.539  -0.286  1.00  0.00    -0.273 OA
ATOM      4  C   UNL     1      -2.108  -8.600  -0.737  1.00  0.00     0.243 C 
ATOM      5  H   UNL     1      -3.697  -7.668  -1.618  1.00  0.00     0.164 HD
BRANCH   4   6
ATOM      6  C   UNL     1      -2.822  -9.944  -1.029  1.00  0.00     0.171 C 
BRANCH   6   7
ATOM      7  N   UNL     1      -3.834 -10.224   0.003  1.00  0.00    -0.344 N 
ATOM      8  C   UNL     1      -3.758 -11.366   0.770  1.00  0.00     0.226 C 
ATOM      9  O   UNL     1      -2.877 -12.204   0.622  1.00  0.00    -0.275 OA
ATOM     10  H   UNL     1      -4.615  -9.589   0.108  1.00  0.00     0.164 HD
BRANCH   8  11
ATOM     11  C   UNL     1      -4.844 -11.484   1.825  1.00  0.00     0.109 C 
ATOM     12  C   UNL     1      -4.884 -12.907   2.383  1.00  0.00     0.021 C 
BRANCH  11  13
ATOM     13  C   UNL     1      -4.663 -10.378   2.884  1.00  0.00     0.204 C 
BRANCH  13  14
ATOM     14  N   UNL     1      -5.219 -10.763   4.185  1.00  0.00    -0.340 N 
ATOM     15  C   UNL     1      -6.536 -10.549   4.528  1.00  0.00     0.243 C 
ATOM     16  O   UNL     1      -7.355 -10.074   3.743  1.00  0.00    -0.273 OA
ATOM     17  H   UNL     1      -4.566 -11.019   4.930  1.00  0.00     0.164 HD
BRANCH  15  18
ATOM     18  C   UNL     1      -6.844 -10.843   6.017  1.00  0.00     0.171 C 
BRANCH  18  19
ATOM     19  N   UNL     1      -6.961 -12.295   6.141  1.00  0.00    -0.343 N 
ATOM     20  C   UNL     1      -8.174 -12.942   6.003  1.00  0.00     0.242 CG0
ATOM     21  O   UNL     1      -9.228 -12.319   5.902  1.00  0.00    -0.273 OA
ATOM     22  H   UNL     1      -6.134 -12.846   6.340  1.00  0.00     0.164 HD
ATOM     23  G   UNL     1      -8.088 -14.480   6.087  1.00  0.00     0.000 G0
ENDBRANCH  18  19
BRANCH  18  24
ATOM     24  C   UNL     1      -5.733 -10.290   6.918  1.00  0.00     0.038 C 
BRANCH  24  25
ATOM     25  C   UNL     1      -4.747 -11.352   7.451  1.00  0.00    -0.015 C 
ATOM     26  C   UNL     1      -4.808 -11.497   8.972  1.00  0.00     0.007 C 
ATOM     27  C   UNL     1      -3.322 -10.990   7.025  1.00  0.00     0.007 C 
ENDBRANCH  24  25
ENDBRANCH  18  24
ENDBRANCH  15  18
ENDBRANCH  13  14
BRANCH  13  28
ATOM     28  C   UNL     1      -3.197  -9.995   3.113  1.00  0.00     0.327 C 
ATOM     29  O   UNL     1      -2.360 -10.661   3.702  1.00  0.00    -0.250 OA
BRANCH  28  30
ATOM     30  O   UNL     1      -2.904  -8.748   2.692  1.00  0.00    -0.480 OA
ATOM     31  H   UNL     1      -3.565  -8.569   1.990  1.00  0.00     0.296 HD
ENDBRANCH  28  30
ENDBRANCH  13  28
ENDBRANCH  11  13
ENDBRANCH   8  11
ENDBRANCH   6   7
BRANCH   6  32
ATOM     32  C   UNL     1      -3.461  -9.883  -2.420  1.00  0.00     0.037 C 
BRANCH  32  33
ATOM     33  C   UNL     1      -4.942 -10.286  -2.396  1.00  0.00     0.026 C 
BRANCH  33  34
ATOM     34  C   UNL     1      -5.844  -9.241  -3.055  1.00  0.00     0.146 C 
BRANCH  34  35
ATOM     35  N   UNL     1      -5.693  -7.977  -2.348  1.00  0.00    -0.254 NA
ATOM     36  C   UNL     1      -5.891  -6.886  -2.990  1.00  0.00     0.185 C 
ATOM     37  N   UNL     1      -5.760  -5.716  -2.347  1.00  0.00    -0.370 N 
ATOM     38  N   UNL     1      -6.230  -6.715  -4.280  1.00  0.00    -0.370 N 
ATOM     39  H   UNL     1      -5.516  -5.761  -1.366  1.00  0.00     0.159 HD
ATOM     40  H   UNL     1      -6.064  -4.836  -2.727  1.00  0.00     0.159 HD
ATOM     41  H   UNL     1      -6.221  -5.802  -4.705  1.00  0.00     0.159 HD
ATOM     42  H   UNL     1      -6.347  -7.510  -4.889  1.00  0.00     0.159 HD
ENDBRANCH  34  35
ENDBRANCH  33  34
ENDBRANCH  32  33
ENDBRANCH   6  32
ENDBRANCH   4   6
ENDBRANCH   1   2
BRANCH   1  43
ATOM     43  C   UNL     1      -1.097  -5.848  -1.771  1.00  0.00     0.102 C 
ATOM     44  C   UNL     1      -0.215  -4.728  -1.195  1.00  0.00     0.020 C 
BRANCH  43  45
ATOM     45  C   UNL     1      -1.428  -5.677  -3.257  1.00  0.00     0.225 C 
ATOM     46  O   UNL     1      -1.355  -4.599  -3.841  1.00  0.00    -0.275 OA
ATOM     47  N   UNL     1      -1.911  -6.799  -3.890  1.00  0.00    -0.342 N 
ATOM     48  H   UNL     1      -1.822  -7.702  -3.444  1.00  0.00     0.164 HD
BRANCH  47  49
ATOM     49  C   UNL     1      -2.236  -6.793  -5.319  1.00  0.00     0.192 C 
BRANCH  49  50
ATOM     50  C   UNL     1      -3.099  -8.011  -5.656  1.00  0.00     0.047 C 
BRANCH  50  51
ATOM     51  C   UNL     1      -2.758  -8.605  -7.029  1.00  0.00     0.103 C 
BRANCH  51  52
ATOM     52  C   UNL     1      -3.701  -8.104  -8.121  1.00  0.00     0.226 C 
ATOM     53  O   UNL     1      -3.688  -6.914  -8.440  1.00  0.00    -0.275 OA
BRANCH  52  54
ATOM     54  N   UNL     1      -4.492  -9.076  -8.761  1.00  0.00    -0.311 N 
ATOM     55  C   UNL     1      -4.570 -10.449  -8.242  1.00  0.00     0.153 C 
BRANCH  54  56
ATOM     56  C   UNL     1      -5.239  -8.772  -9.911  1.00  0.00     0.102 C 
ATOM     57  C   UNL     1      -6.558  -8.521  -9.927  1.00  0.00     0.043 C 
BRANCH  56  58
ATOM     58  C   UNL     1      -4.571  -8.658 -11.261  1.00  0.00     0.268 C 
ATOM     59  O   UNL     1      -4.569  -9.562 -12.086  1.00  0.00    -0.268 OA
ATOM     60  N   UNL     1      -4.026  -7.417 -11.491  1.00  0.00    -0.339 N 
ATOM     61  H   UNL     1      -4.060  -6.726 -10.751  1.00  0.00     0.164 HD
BRANCH  60  62
ATOM     62  C   UNL     1      -3.385  -7.071 -12.759  1.00  0.00     0.168 CG0
ATOM     63  C   UNL     1      -4.354  -6.340 -13.679  1.00  0.00     0.041 C 
ATOM     64  G   UNL     1      -2.850  -8.350 -13.434  1.00  0.00     0.000 G0
ENDBRANCH  60  62
ENDBRANCH  56  58
ENDBRANCH  54  56
ENDBRANCH  52  54
ENDBRANCH  51  52
ENDBRANCH  50  51
ENDBRANCH  49  50
BRANCH  49  65
ATOM     65  C   UNL     1      -0.968  -6.812  -6.188  1.00  0.00     0.326 C 
ATOM     66  O   UNL     1       0.025  -7.493  -5.982  1.00  0.00    -0.250 OA
BRANCH  65  67
ATOM     67  O   UNL     1      -0.982  -5.944  -7.224  1.00  0.00    -0.480 OA
ATOM     68  H   UNL     1      -0.656  -6.479  -7.979  1.00  0.00     0.296 HD
ENDBRANCH  65  67
ENDBRANCH  49  65
ENDBRANCH  47  49
ENDBRANCH  43  45
ENDBRANCH   1  43
BRANCH   1  69
ATOM     69  C   UNL     1      -2.336  -5.925   0.567  1.00  0.00    -0.001 C 
ATOM     70  C   UNL     1      -2.966  -4.986   1.295  1.00  0.00     0.001 C 
BRANCH  70  71
ATOM     71  C   UNL     1      -2.928  -4.829   2.750  1.00  0.00    -0.055 C 
ATOM     72  C   UNL     1      -1.902  -5.399   3.416  1.00  0.00    -0.018 C 
ATOM     73  C   UNL     1      -4.031  -4.036   3.400  1.00  0.00     0.044 C 
BRANCH  72  74
ATOM     74  C   UNL     1      -1.604  -5.399   4.909  1.00  0.00     0.038 C 
ATOM     75  C   UNL     1      -0.196  -4.819   5.090  1.00  0.00     0.015 C 
BRANCH  74  76
ATOM     76  C   UNL     1      -1.790  -6.845   5.457  1.00  0.00     0.128 C 
BRANCH  76  77
ATOM     77  O   UNL     1      -0.507  -7.461   5.662  1.00  0.00    -0.381 OA
ATOM     78  C   UNL     1      -0.585  -8.802   6.125  1.00  0.00     0.195 C 
ENDBRANCH  76  77
BRANCH  76  79
ATOM     79  C   UNL     1      -2.704  -6.933   6.705  1.00  0.00     0.068 C 
BRANCH  79  80
ATOM     80  C   UNL     1      -4.198  -6.915   6.489  1.00  0.00    -0.045 A 
ATOM     81  C   UNL     1      -4.744  -7.056   5.207  1.00  0.00     0.004 A 
ATOM     82  C   UNL     1      -5.066  -6.726   7.575  1.00  0.00     0.004 A 
ATOM     83  C   UNL     1      -6.127  -7.024   5.015  1.00  0.00     0.000 A 
ATOM     84  C   UNL     1      -6.449  -6.693   7.381  1.00  0.00     0.000 A 
ATOM     85  C   UNL     1      -6.979  -6.844   6.102  1.00  0.00     0.000 A 
ENDBRANCH  79  80
ENDBRANCH  76  79
ENDBRANCH  74  76
ENDBRANCH  72  74
ENDBRANCH  70  71
ENDBRANCH   1  69
TORSDOF 17
ENDMDL
MODEL 4
REMARK VINA RESULT:    -6.080      4.241     11.740
REMARK INTER + INTRA:         -26.484
REMARK INTER:                 -18.594
REMARK INTRA:                  -7.890
REMARK UNBOUND:                -8.320
REMARK SMILES C=C1C(=O)N[C@H](C)C(=O)N[C@@H](CC(C)C)C(=O)N[C@@H](C(=O)O)[C@H](C)C(=O)N[C@@H](CCCN=C(N)N)C(=O)N[C@@H](/C=C/C(C)=C/[C@H](C)[C@H](Cc2ccccc2)OC)[C@H](C)C(=O)N[C@@H](C(=O)O)CCC(=O)N1C
REMARK SMILES IDX 39 1 38 2 37 3 36 4 28 6 27 7 25 8 26 9 23 11 24 12 19 13
REMARK SMILES IDX 18 14 16 15 17 16 11 18 10 19 8 20 9 21 12 24 13 25 14 26
REMARK SMILES IDX 15 27 20 28 21 29 22 30 29 32 30 33 31 34 32 35 33 36 34 37
REMARK SMILES IDX 35 38 57 43 58 44 59 45 60 46 61 47 62 49 66 50 67 51 68 52
REMARK SMILES IDX 69 53 70 54 71 55 2 56 1 57 3 58 4 59 5 60 6 62 7 63 63 65
REMARK SMILES IDX 64 66 65 67 40 69 41 70 42 71 44 72 43 73 45 74 46 75 47 76
REMARK SMILES IDX 55 77 56 78 48 79 49 80 50 81 54 82 51 83 53 84 52 85
REMARK H PARENT 38 5 27 10 18 17 10 22 22 31 34 39 34 40 35 41 35 42 61 48
REMARK H PARENT 5 61 65 68
REMARK Flexibility Score:  369.900
ROOT
ATOM      1  C   UNL     1      -5.443 -11.574  -0.901  1.00  0.00     0.117 C 
ENDROOT
BRANCH   1   2
ATOM      2  N   UNL     1      -4.800 -10.938   0.249  1.00  0.00    -0.347 N 
ATOM      3  O   UNL     1      -6.198 -11.753   1.878  1.00  0.00    -0.273 OA
ATOM      4  C   UNL     1      -5.176 -11.153   1.561  1.00  0.00     0.243 C 
ATOM      5  H   UNL     1      -4.001 -10.341   0.102  1.00  0.00     0.164 HD
BRANCH   4   6
ATOM      6  C   UNL     1      -4.277 -10.427   2.594  1.00  0.00     0.171 C 
BRANCH   6   7
ATOM      7  N   UNL     1      -3.112  -9.823   1.928  1.00  0.00    -0.344 N 
ATOM      8  C   UNL     1      -1.838 -10.044   2.404  1.00  0.00     0.226 C 
ATOM      9  O   UNL     1      -1.613 -10.721   3.400  1.00  0.00    -0.275 OA
ATOM     10  H   UNL     1      -3.263  -9.203   1.142  1.00  0.00     0.164 HD
BRANCH   8  11
ATOM     11  C   UNL     1      -0.740  -9.398   1.576  1.00  0.00     0.109 C 
ATOM     12  C   UNL     1      -1.314  -8.873   0.260  1.00  0.00     0.021 C 
BRANCH  11  13
ATOM     13  C   UNL     1       0.003  -8.348   2.425  1.00  0.00     0.204 C 
BRANCH  13  14
ATOM     14  N   UNL     1      -0.895  -7.652   3.352  1.00  0.00    -0.340 N 
ATOM     15  C   UNL     1      -0.744  -6.323   3.684  1.00  0.00     0.243 C 
ATOM     16  O   UNL     1       0.121  -5.610   3.178  1.00  0.00    -0.273 OA
ATOM     17  H   UNL     1      -1.532  -8.218   3.918  1.00  0.00     0.164 HD
BRANCH  15  18
ATOM     18  C   UNL     1      -1.674  -5.863   4.834  1.00  0.00     0.171 C 
BRANCH  18  19
ATOM     19  N   UNL     1      -1.017  -6.245   6.082  1.00  0.00    -0.343 N 
ATOM     20  C   UNL     1      -1.733  -6.707   7.170  1.00  0.00     0.242 CG0
ATOM     21  O   UNL     1      -2.961  -6.692   7.186  1.00  0.00    -0.273 OA
ATOM     22  H   UNL     1      -0.010  -6.165   6.159  1.00  0.00     0.164 HD
ATOM     23  G   UNL     1      -0.862  -7.135   8.369  1.00  0.00     0.000 G0
ENDBRANCH  18  19
BRANCH  18  24
ATOM     24  C   UNL     1      -1.913  -4.350   4.764  1.00  0.00     0.038 C 
BRANCH  24  25
ATOM     25  C   UNL     1      -3.298  -3.941   4.219  1.00  0.00    -0.015 C 
ATOM     26  C   UNL     1      -4.223  -5.140   4.012  1.00  0.00     0.007 C 
ATOM     27  C   UNL     1      -3.128  -3.186   2.898  1.00  0.00     0.007 C 
ENDBRANCH  24  25
ENDBRANCH  18  24
ENDBRANCH  15  18
ENDBRANCH  13  14
BRANCH  13  28
ATOM     28  C   UNL     1       1.144  -8.941   3.257  1.00  0.00     0.327 C 
ATOM     29  O   UNL     1       2.226  -9.320   2.834  1.00  0.00    -0.250 OA
BRANCH  28  30
ATOM     30  O   UNL     1       0.811  -9.133   4.549  1.00  0.00    -0.480 OA
ATOM     31  H   UNL     1      -0.096  -9.501   4.513  1.00  0.00     0.296 HD
ENDBRANCH  28  30
ENDBRANCH  13  28
ENDBRANCH  11  13
ENDBRANCH   8  11
ENDBRANCH   6   7
BRANCH   6  32
ATOM     32  C   UNL     1      -5.105  -9.361   3.320  1.00  0.00     0.037 C 
BRANCH  32  33
ATOM     33  C   UNL     1      -4.366  -8.780   4.534  1.00  0.00     0.026 C 
BRANCH  33  34
ATOM     34  C   UNL     1      -4.752  -9.474   5.841  1.00  0.00     0.146 C 
BRANCH  34  35
ATOM     35  N   UNL     1      -5.663  -8.610   6.579  1.00  0.00    -0.254 NA
ATOM     36  C   UNL     1      -6.882  -8.980   6.719  1.00  0.00     0.185 C 
ATOM     37  N   UNL     1      -7.729  -8.194   7.402  1.00  0.00    -0.370 N 
ATOM     38  N   UNL     1      -7.484 -10.094   6.266  1.00  0.00    -0.370 N 
ATOM     39  H   UNL     1      -7.347  -7.339   7.785  1.00  0.00     0.159 HD
ATOM     40  H   UNL     1      -8.642  -8.490   7.702  1.00  0.00     0.159 HD
ATOM     41  H   UNL     1      -8.483 -10.205   6.322  1.00  0.00     0.159 HD
ATOM     42  H   UNL     1      -6.970 -10.769   5.722  1.00  0.00     0.159 HD
ENDBRANCH  34  35
ENDBRANCH  33  34
ENDBRANCH  32  33
ENDBRANCH   6  32
ENDBRANCH   4   6
ENDBRANCH   1   2
BRANCH   1  43
ATOM     43  C   UNL     1      -5.126 -13.096  -0.867  1.00  0.00     0.102 C 
ATOM     44  C   UNL     1      -4.135 -13.540  -1.957  1.00  0.00     0.020 C 
BRANCH  43  45
ATOM     45  C   UNL     1      -6.413 -13.926  -0.823  1.00  0.00     0.225 C 
ATOM     46  O   UNL     1      -6.430 -15.146  -0.960  1.00  0.00    -0.275 OA
ATOM     47  N   UNL     1      -7.579 -13.204  -0.712  1.00  0.00    -0.342 N 
ATOM     48  H   UNL     1      -7.541 -12.229  -0.450  1.00  0.00     0.164 HD
BRANCH  47  49
ATOM     49  C   UNL     1      -8.884 -13.865  -0.622  1.00  0.00     0.192 C 
BRANCH  49  50
ATOM     50  C   UNL     1      -9.581 -13.816  -1.984  1.00  0.00     0.047 C 
BRANCH  50  51
ATOM     51  C   UNL     1      -9.604 -15.186  -2.676  1.00  0.00     0.103 C 
BRANCH  51  52
ATOM     52  C   UNL     1      -8.973 -15.137  -4.066  1.00  0.00     0.226 C 
ATOM     53  O   UNL     1      -7.859 -15.632  -4.248  1.00  0.00    -0.275 OA
BRANCH  52  54
ATOM     54  N   UNL     1      -9.759 -14.582  -5.092  1.00  0.00    -0.311 N 
ATOM     55  C   UNL     1     -11.216 -14.772  -5.117  1.00  0.00     0.153 C 
BRANCH  54  56
ATOM     56  C   UNL     1      -9.185 -13.822  -6.125  1.00  0.00     0.102 C 
ATOM     57  C   UNL     1      -8.481 -12.692  -5.947  1.00  0.00     0.043 C 
BRANCH  56  58
ATOM     58  C   UNL     1      -9.288 -14.268  -7.565  1.00  0.00     0.268 C 
ATOM     59  O   UNL     1     -10.113 -13.817  -8.348  1.00  0.00    -0.268 OA
ATOM     60  N   UNL     1      -8.321 -15.178  -7.918  1.00  0.00    -0.339 N 
ATOM     61  H   UNL     1      -7.680 -15.509  -7.207  1.00  0.00     0.164 HD
BRANCH  60  62
ATOM     62  C   UNL     1      -8.198 -15.695  -9.281  1.00  0.00     0.168 CG0
ATOM     63  C   UNL     1      -7.163 -14.907 -10.074  1.00  0.00     0.041 C 
ATOM     64  G   UNL     1      -9.574 -15.645  -9.978  1.00  0.00     0.000 G0
ENDBRANCH  60  62
ENDBRANCH  56  58
ENDBRANCH  54  56
ENDBRANCH  52  54
ENDBRANCH  51  52
ENDBRANCH  50  51
ENDBRANCH  49  50
BRANCH  49  65
ATOM     65  C   UNL     1      -9.783 -13.204   0.434  1.00  0.00     0.326 C 
ATOM     66  O   UNL     1     -10.996 -13.071   0.352  1.00  0.00    -0.250 OA
BRANCH  65  67
ATOM     67  O   UNL     1      -9.124 -12.694   1.497  1.00  0.00    -0.480 OA
ATOM     68  H   UNL     1      -9.838 -12.502   2.142  1.00  0.00     0.296 HD
ENDBRANCH  65  67
ENDBRANCH  49  65
ENDBRANCH  47  49
ENDBRANCH  43  45
ENDBRANCH   1  43
BRANCH   1  69
ATOM     69  C   UNL     1      -5.030 -10.765  -2.118  1.00  0.00    -0.001 C 
ATOM     70  C   UNL     1      -4.796  -9.443  -2.179  1.00  0.00     0.001 C 
BRANCH  70  71
ATOM     71  C   UNL     1      -4.376  -8.677  -3.354  1.00  0.00    -0.055 C 
ATOM     72  C   UNL     1      -3.131  -8.889  -3.830  1.00  0.00    -0.018 C 
ATOM     73  C   UNL     1      -5.366  -7.713  -3.955  1.00  0.00     0.044 C 
BRANCH  72  74
ATOM     74  C   UNL     1      -2.433  -8.249  -5.021  1.00  0.00     0.038 C 
ATOM     75  C   UNL     1      -1.792  -9.381  -5.832  1.00  0.00     0.015 C 
BRANCH  74  76
ATOM     76  C   UNL     1      -1.435  -7.173  -4.499  1.00  0.00     0.128 C 
BRANCH  76  77
ATOM     77  O   UNL     1      -0.476  -6.856  -5.522  1.00  0.00    -0.381 OA
ATOM     78  C   UNL     1      -0.979  -5.982  -6.524  1.00  0.00     0.195 C 
ENDBRANCH  76  77
BRANCH  76  79
ATOM     79  C   UNL     1      -2.119  -5.915  -3.906  1.00  0.00     0.068 C 
BRANCH  79  80
ATOM     80  C   UNL     1      -1.967  -5.659  -2.427  1.00  0.00    -0.045 A 
ATOM     81  C   UNL     1      -3.040  -5.852  -1.547  1.00  0.00     0.004 A 
ATOM     82  C   UNL     1      -0.748  -5.194  -1.911  1.00  0.00     0.004 A 
ATOM     83  C   UNL     1      -2.895  -5.599  -0.181  1.00  0.00     0.000 A 
ATOM     84  C   UNL     1      -0.605  -4.940  -0.545  1.00  0.00     0.000 A 
ATOM     85  C   UNL     1      -1.677  -5.144   0.320  1.00  0.00     0.000 A 
ENDBRANCH  79  80
ENDBRANCH  76  79
ENDBRANCH  74  76
ENDBRANCH  72  74
ENDBRANCH  70  71
ENDBRANCH   1  69
TORSDOF 17
ENDMDL
MODEL 5
REMARK VINA RESULT:    -6.077      2.381     11.333
REMARK INTER + INTRA:         -26.476
REMARK INTER:                 -19.461
REMARK INTRA:                  -7.015
REMARK UNBOUND:                -8.320
REMARK SMILES C=C1C(=O)N[C@H](C)C(=O)N[C@@H](CC(C)C)C(=O)N[C@@H](C(=O)O)[C@H](C)C(=O)N[C@@H](CCCN=C(N)N)C(=O)N[C@@H](/C=C/C(C)=C/[C@H](C)[C@H](Cc2ccccc2)OC)[C@H](C)C(=O)N[C@@H](C(=O)O)CCC(=O)N1C
REMARK SMILES IDX 39 1 38 2 37 3 36 4 28 6 27 7 25 8 26 9 23 11 24 12 19 13
REMARK SMILES IDX 18 14 16 15 17 16 11 18 10 19 8 20 9 21 12 24 13 25 14 26
REMARK SMILES IDX 15 27 20 28 21 29 22 30 29 32 30 33 31 34 32 35 33 36 34 37
REMARK SMILES IDX 35 38 57 43 58 44 59 45 60 46 61 47 62 49 66 50 67 51 68 52
REMARK SMILES IDX 69 53 70 54 71 55 2 56 1 57 3 58 4 59 5 60 6 62 7 63 63 65
REMARK SMILES IDX 64 66 65 67 40 69 41 70 42 71 44 72 43 73 45 74 46 75 47 76
REMARK SMILES IDX 55 77 56 78 48 79 49 80 50 81 54 82 51 83 53 84 52 85
REMARK H PARENT 38 5 27 10 18 17 10 22 22 31 34 39 34 40 35 41 35 42 61 48
REMARK H PARENT 5 61 65 68
REMARK Flexibility Score:  369.900
ROOT
ATOM      1  C   UNL     1      -2.622  -5.677  -0.989  1.00  0.00     0.117 C 
ENDROOT
BRANCH   1   2
ATOM      2  N   UNL     1      -3.558  -6.755  -1.309  1.00  0.00    -0.347 N 
ATOM      3  O   UNL     1      -2.367  -8.488  -0.389  1.00  0.00    -0.273 OA
ATOM      4  C   UNL     1      -3.398  -8.065  -0.902  1.00  0.00     0.243 C 
ATOM      5  H   UNL     1      -4.404  -6.541  -1.816  1.00  0.00     0.164 HD
BRANCH   4   6
ATOM      6  C   UNL     1      -4.576  -8.990  -1.299  1.00  0.00     0.171 C 
BRANCH   6   7
ATOM      7  N   UNL     1      -5.104  -9.689  -0.117  1.00  0.00    -0.344 N 
ATOM      8  C   UNL     1      -4.720 -10.982   0.164  1.00  0.00     0.226 C 
ATOM      9  O   UNL     1      -3.953 -11.614  -0.553  1.00  0.00    -0.275 OA
ATOM     10  H   UNL     1      -5.791  -9.224   0.462  1.00  0.00     0.164 HD
BRANCH   8  11
ATOM     11  C   UNL     1      -5.307 -11.545   1.447  1.00  0.00     0.109 C 
ATOM     12  C   UNL     1      -5.009 -13.040   1.550  1.00  0.00     0.021 C 
BRANCH  11  13
ATOM     13  C   UNL     1      -4.834 -10.704   2.650  1.00  0.00     0.204 C 
BRANCH  13  14
ATOM     14  N   UNL     1      -5.444 -11.147   3.907  1.00  0.00    -0.340 N 
ATOM     15  C   UNL     1      -6.603 -10.597   4.411  1.00  0.00     0.243 C 
ATOM     16  O   UNL     1      -7.241  -9.735   3.809  1.00  0.00    -0.273 OA
ATOM     17  H   UNL     1      -4.890 -11.746   4.525  1.00  0.00     0.164 HD
BRANCH  15  18
ATOM     18  C   UNL     1      -6.942 -11.075   5.844  1.00  0.00     0.171 C 
BRANCH  18  19
ATOM     19  N   UNL     1      -6.753 -12.524   5.858  1.00  0.00    -0.343 N 
ATOM     20  C   UNL     1      -7.777 -13.390   6.190  1.00  0.00     0.242 CG0
ATOM     21  O   UNL     1      -8.854 -12.979   6.616  1.00  0.00    -0.273 OA
ATOM     22  H   UNL     1      -5.844 -12.909   5.625  1.00  0.00     0.164 HD
ATOM     23  G   UNL     1      -7.411 -14.884   6.072  1.00  0.00     0.000 G0
ENDBRANCH  18  19
BRANCH  18  24
ATOM     24  C   UNL     1      -6.042 -10.380   6.873  1.00  0.00     0.038 C 
BRANCH  24  25
ATOM     25  C   UNL     1      -4.740 -11.138   7.206  1.00  0.00    -0.015 C 
ATOM     26  C   UNL     1      -4.745 -11.718   8.621  1.00  0.00     0.007 C 
ATOM     27  C   UNL     1      -3.541 -10.200   7.038  1.00  0.00     0.007 C 
ENDBRANCH  24  25
ENDBRANCH  18  24
ENDBRANCH  15  18
ENDBRANCH  13  14
BRANCH  13  28
ATOM     28  C   UNL     1      -3.315 -10.735   2.847  1.00  0.00     0.327 C 
ATOM     29  O   UNL     1      -2.714 -11.317   3.737  1.00  0.00    -0.250 OA
BRANCH  28  30
ATOM     30  O   UNL     1      -2.653  -9.937   1.985  1.00  0.00    -0.480 OA
ATOM     31  H   UNL     1      -3.280  -9.206   1.803  1.00  0.00     0.296 HD
ENDBRANCH  28  30
ENDBRANCH  13  28
ENDBRANCH  11  13
ENDBRANCH   8  11
ENDBRANCH   6   7
BRANCH   6  32
ATOM     32  C   UNL     1      -5.669  -8.152  -1.972  1.00  0.00     0.037 C 
BRANCH  32  33
ATOM     33  C   UNL     1      -6.030  -8.683  -3.367  1.00  0.00     0.026 C 
BRANCH  33  34
ATOM     34  C   UNL     1      -6.945  -9.907  -3.308  1.00  0.00     0.146 C 
BRANCH  34  35
ATOM     35  N   UNL     1      -6.126 -11.109  -3.384  1.00  0.00    -0.254 NA
ATOM     36  C   UNL     1      -6.505 -12.152  -2.745  1.00  0.00     0.185 C 
ATOM     37  N   UNL     1      -5.761 -13.267  -2.813  1.00  0.00    -0.370 N 
ATOM     38  N   UNL     1      -7.594 -12.321  -1.974  1.00  0.00    -0.370 N 
ATOM     39  H   UNL     1      -4.927 -13.223  -3.385  1.00  0.00     0.159 HD
ATOM     40  H   UNL     1      -6.075 -14.166  -2.489  1.00  0.00     0.159 HD
ATOM     41  H   UNL     1      -7.710 -13.147  -1.411  1.00  0.00     0.159 HD
ATOM     42  H   UNL     1      -8.236 -11.560  -1.820  1.00  0.00     0.159 HD
ENDBRANCH  34  35
ENDBRANCH  33  34
ENDBRANCH  32  33
ENDBRANCH   6  32
ENDBRANCH   4   6
ENDBRANCH   1   2
BRANCH   1  43
ATOM     43  C   UNL     1      -1.297  -5.925  -1.766  1.00  0.00     0.102 C 
ATOM     44  C   UNL     1      -0.140  -5.021  -1.308  1.00  0.00     0.020 C 
BRANCH  43  45
ATOM     45  C   UNL     1      -1.535  -5.911  -3.279  1.00  0.00     0.225 C 
ATOM     46  O   UNL     1      -1.480  -4.889  -3.957  1.00  0.00    -0.275 OA
ATOM     47  N   UNL     1      -1.913  -7.114  -3.830  1.00  0.00    -0.342 N 
ATOM     48  H   UNL     1      -1.807  -7.964  -3.296  1.00  0.00     0.164 HD
BRANCH  47  49
ATOM     49  C   UNL     1      -2.140  -7.258  -5.272  1.00  0.00     0.192 C 
BRANCH  49  50
ATOM     50  C   UNL     1      -3.554  -7.789  -5.519  1.00  0.00     0.047 C 
BRANCH  50  51
ATOM     51  C   UNL     1      -4.252  -7.069  -6.680  1.00  0.00     0.103 C 
BRANCH  51  52
ATOM     52  C   UNL     1      -4.409  -7.971  -7.903  1.00  0.00     0.226 C 
ATOM     53  O   UNL     1      -5.244  -8.877  -7.890  1.00  0.00    -0.275 OA
BRANCH  52  54
ATOM     54  N   UNL     1      -3.620  -7.651  -9.023  1.00  0.00    -0.311 N 
ATOM     55  C   UNL     1      -2.478  -6.733  -8.907  1.00  0.00     0.153 C 
BRANCH  54  56
ATOM     56  C   UNL     1      -3.888  -8.198 -10.289  1.00  0.00     0.102 C 
ATOM     57  C   UNL     1      -3.399  -9.364 -10.741  1.00  0.00     0.043 C 
BRANCH  56  58
ATOM     58  C   UNL     1      -4.822  -7.504 -11.252  1.00  0.00     0.268 C 
ATOM     59  O   UNL     1      -4.728  -6.318 -11.537  1.00  0.00    -0.268 OA
ATOM     60  N   UNL     1      -5.741  -8.353 -11.821  1.00  0.00    -0.339 N 
ATOM     61  H   UNL     1      -5.759  -9.321 -11.523  1.00  0.00     0.164 HD
BRANCH  60  62
ATOM     62  C   UNL     1      -6.700  -7.901 -12.828  1.00  0.00     0.168 CG0
ATOM     63  C   UNL     1      -8.105  -7.813 -12.244  1.00  0.00     0.041 C 
ATOM     64  G   UNL     1      -6.670  -8.859 -14.037  1.00  0.00     0.000 G0
ENDBRANCH  60  62
ENDBRANCH  56  58
ENDBRANCH  54  56
ENDBRANCH  52  54
ENDBRANCH  51  52
ENDBRANCH  50  51
ENDBRANCH  49  50
BRANCH  49  65
ATOM     65  C   UNL     1      -1.119  -8.210  -5.914  1.00  0.00     0.326 C 
ATOM     66  O   UNL     1      -1.382  -9.274  -6.454  1.00  0.00    -0.250 OA
BRANCH  65  67
ATOM     67  O   UNL     1       0.169  -7.818  -5.795  1.00  0.00    -0.480 OA
ATOM     68  H   UNL     1       0.666  -8.503  -6.293  1.00  0.00     0.296 HD
ENDBRANCH  65  67
ENDBRANCH  49  65
ENDBRANCH  47  49
ENDBRANCH  43  45
ENDBRANCH   1  43
BRANCH   1  69
ATOM     69  C   UNL     1      -2.579  -5.589   0.526  1.00  0.00    -0.001 C 
ATOM     70  C   UNL     1      -2.531  -4.476   1.278  1.00  0.00     0.001 C 
BRANCH  70  71
ATOM     71  C   UNL     1      -2.511  -4.403   2.741  1.00  0.00    -0.055 C 
ATOM     72  C   UNL     1      -1.593  -5.146   3.394  1.00  0.00    -0.018 C 
ATOM     73  C   UNL     1      -3.511  -3.497   3.412  1.00  0.00     0.044 C 
BRANCH  72  74
ATOM     74  C   UNL     1      -1.339  -5.267   4.889  1.00  0.00     0.038 C 
ATOM     75  C   UNL     1       0.137  -4.928   5.127  1.00  0.00     0.015 C 
BRANCH  74  76
ATOM     76  C   UNL     1      -1.767  -6.689   5.357  1.00  0.00     0.128 C 
BRANCH  76  77
ATOM     77  O   UNL     1      -0.604  -7.510   5.557  1.00  0.00    -0.381 OA
ATOM     78  C   UNL     1      -0.528  -8.619   4.672  1.00  0.00     0.195 C 
ENDBRANCH  76  77
BRANCH  76  79
ATOM     79  C   UNL     1      -2.720  -6.691   6.579  1.00  0.00     0.068 C 
BRANCH  79  80
ATOM     80  C   UNL     1      -4.206  -6.694   6.316  1.00  0.00    -0.045 A 
ATOM     81  C   UNL     1      -4.709  -6.621   5.010  1.00  0.00     0.004 A 
ATOM     82  C   UNL     1      -5.113  -6.741   7.386  1.00  0.00     0.004 A 
ATOM     83  C   UNL     1      -6.085  -6.610   4.776  1.00  0.00     0.000 A 
ATOM     84  C   UNL     1      -6.490  -6.730   7.151  1.00  0.00     0.000 A 
ATOM     85  C   UNL     1      -6.975  -6.666   5.847  1.00  0.00     0.000 A 
ENDBRANCH  79  80
ENDBRANCH  76  79
ENDBRANCH  74  76
ENDBRANCH  72  74
ENDBRANCH  70  71
ENDBRANCH   1  69
TORSDOF 17
ENDMDL
MODEL 6
REMARK VINA RESULT:    -6.048      2.076      3.242
REMARK INTER + INTRA:         -26.388
REMARK INTER:                 -19.129
REMARK INTRA:                  -7.258
REMARK UNBOUND:                -8.320
REMARK SMILES C=C1C(=O)N[C@H](C)C(=O)N[C@@H](CC(C)C)C(=O)N[C@@H](C(=O)O)[C@H](C)C(=O)N[C@@H](CCCN=C(N)N)C(=O)N[C@@H](/C=C/C(C)=C/[C@H](C)[C@H](Cc2ccccc2)OC)[C@H](C)C(=O)N[C@@H](C(=O)O)CCC(=O)N1C
REMARK SMILES IDX 39 1 38 2 37 3 36 4 28 6 27 7 25 8 26 9 23 11 24 12 19 13
REMARK SMILES IDX 18 14 16 15 17 16 11 18 10 19 8 20 9 21 12 24 13 25 14 26
REMARK SMILES IDX 15 27 20 28 21 29 22 30 29 32 30 33 31 34 32 35 33 36 34 37
REMARK SMILES IDX 35 38 57 43 58 44 59 45 60 46 61 47 62 49 66 50 67 51 68 52
REMARK SMILES IDX 69 53 70 54 71 55 2 56 1 57 3 58 4 59 5 60 6 62 7 63 63 65
REMARK SMILES IDX 64 66 65 67 40 69 41 70 42 71 44 72 43 73 45 74 46 75 47 76
REMARK SMILES IDX 55 77 56 78 48 79 49 80 50 81 54 82 51 83 53 84 52 85
REMARK H PARENT 38 5 27 10 18 17 10 22 22 31 34 39 34 40 35 41 35 42 61 48
REMARK H PARENT 5 61 65 68
REMARK Flexibility Score:  369.900
ROOT
ATOM      1  C   UNL     1      -1.225  -8.705  -0.722  1.00  0.00     0.117 C 
ENDROOT
BRANCH   1   2
ATOM      2  N   UNL     1      -1.799  -8.428  -2.039  1.00  0.00    -0.347 N 
ATOM      3  O   UNL     1      -0.284  -6.841  -2.714  1.00  0.00    -0.273 OA
ATOM      4  C   UNL     1      -1.228  -7.581  -2.969  1.00  0.00     0.243 C 
ATOM      5  H   UNL     1      -2.637  -8.912  -2.325  1.00  0.00     0.164 HD
BRANCH   4   6
ATOM      6  C   UNL     1      -1.991  -7.531  -4.317  1.00  0.00     0.171 C 
BRANCH   6   7
ATOM      7  N   UNL     1      -2.970  -8.626  -4.395  1.00  0.00    -0.344 N 
ATOM      8  C   UNL     1      -3.006  -9.460  -5.492  1.00  0.00     0.226 C 
ATOM      9  O   UNL     1      -2.256  -9.322  -6.451  1.00  0.00    -0.275 OA
ATOM     10  H   UNL     1      -3.651  -8.730  -3.653  1.00  0.00     0.164 HD
BRANCH   8  11
ATOM     11  C   UNL     1      -4.035 -10.573  -5.398  1.00  0.00     0.109 C 
ATOM     12  C   UNL     1      -4.115 -11.095  -3.964  1.00  0.00     0.021 C 
BRANCH  11  13
ATOM     13  C   UNL     1      -5.376 -10.095  -5.990  1.00  0.00     0.204 C 
BRANCH  13  14
ATOM     14  N   UNL     1      -5.228  -9.597  -7.361  1.00  0.00    -0.340 N 
ATOM     15  C   UNL     1      -5.512  -8.298  -7.720  1.00  0.00     0.243 C 
ATOM     16  O   UNL     1      -5.853  -7.446  -6.901  1.00  0.00    -0.273 OA
ATOM     17  H   UNL     1      -5.097 -10.283  -8.110  1.00  0.00     0.164 HD
BRANCH  15  18
ATOM     18  C   UNL     1      -5.483  -8.058  -9.249  1.00  0.00     0.171 C 
BRANCH  18  19
ATOM     19  N   UNL     1      -6.865  -7.822  -9.662  1.00  0.00    -0.343 N 
ATOM     20  C   UNL     1      -7.659  -8.836 -10.163  1.00  0.00     0.242 CG0
ATOM     21  O   UNL     1      -7.202  -9.949 -10.408  1.00  0.00    -0.273 OA
ATOM     22  H   UNL     1      -7.254  -6.889  -9.587  1.00  0.00     0.164 HD
ATOM     23  G   UNL     1      -9.111  -8.414 -10.471  1.00  0.00     0.000 G0
ENDBRANCH  18  19
BRANCH  18  24
ATOM     24  C   UNL     1      -4.582  -6.865  -9.593  1.00  0.00     0.038 C 
BRANCH  24  25
ATOM     25  C   UNL     1      -3.660  -7.084 -10.811  1.00  0.00    -0.015 C 
ATOM     26  C   UNL     1      -2.341  -6.319 -10.691  1.00  0.00     0.007 C 
ATOM     27  C   UNL     1      -4.386  -6.661 -12.090  1.00  0.00     0.007 C 
ENDBRANCH  24  25
ENDBRANCH  18  24
ENDBRANCH  15  18
ENDBRANCH  13  14
BRANCH  13  28
ATOM     28  C   UNL     1      -6.447 -11.190  -6.018  1.00  0.00     0.327 C 
ATOM     29  O   UNL     1      -7.438 -11.251  -5.305  1.00  0.00    -0.250 OA
BRANCH  28  30
ATOM     30  O   UNL     1      -6.147 -12.202  -6.857  1.00  0.00    -0.480 OA
ATOM     31  H   UNL     1      -6.500 -11.910  -7.723  1.00  0.00     0.296 HD
ENDBRANCH  28  30
ENDBRANCH  13  28
ENDBRANCH  11  13
ENDBRANCH   8  11
ENDBRANCH   6   7
BRANCH   6  32
ATOM     32  C   UNL     1      -2.681  -6.169  -4.454  1.00  0.00     0.037 C 
BRANCH  32  33
ATOM     33  C   UNL     1      -3.045  -5.564  -3.091  1.00  0.00     0.026 C 
BRANCH  33  34
ATOM     34  C   UNL     1      -4.238  -6.265  -2.440  1.00  0.00     0.146 C 
BRANCH  34  35
ATOM     35  N   UNL     1      -5.250  -6.512  -3.458  1.00  0.00    -0.254 NA
ATOM     36  C   UNL     1      -6.061  -7.491  -3.293  1.00  0.00     0.185 C 
ATOM     37  N   UNL     1      -7.000  -7.724  -4.222  1.00  0.00    -0.370 N 
ATOM     38  N   UNL     1      -6.126  -8.373  -2.280  1.00  0.00    -0.370 N 
ATOM     39  H   UNL     1      -7.023  -7.094  -5.014  1.00  0.00     0.159 HD
ATOM     40  H   UNL     1      -7.773  -8.353  -4.086  1.00  0.00     0.159 HD
ATOM     41  H   UNL     1      -6.719  -9.184  -2.333  1.00  0.00     0.159 HD
ATOM     42  H   UNL     1      -5.468  -8.326  -1.517  1.00  0.00     0.159 HD
ENDBRANCH  34  35
ENDBRANCH  33  34
ENDBRANCH  32  33
ENDBRANCH   6  32
ENDBRANCH   4   6
ENDBRANCH   1   2
BRANCH   1  43
ATOM     43  C   UNL     1      -1.831 -10.034  -0.186  1.00  0.00     0.102 C 
ATOM     44  C   UNL     1      -1.648 -11.221  -1.147  1.00  0.00     0.020 C 
BRANCH  43  45
ATOM     45  C   UNL     1      -3.276  -9.830   0.282  1.00  0.00     0.225 C 
ATOM     46  O   UNL     1      -4.202  -9.591  -0.487  1.00  0.00    -0.275 OA
ATOM     47  N   UNL     1      -3.463  -9.838   1.645  1.00  0.00    -0.342 N 
ATOM     48  H   UNL     1      -2.730 -10.183   2.249  1.00  0.00     0.164 HD
BRANCH  47  49
ATOM     49  C   UNL     1      -4.797  -9.691   2.235  1.00  0.00     0.192 C 
BRANCH  49  50
ATOM     50  C   UNL     1      -4.682  -9.011   3.602  1.00  0.00     0.047 C 
BRANCH  50  51
ATOM     51  C   UNL     1      -3.224  -8.861   4.057  1.00  0.00     0.103 C 
BRANCH  51  52
ATOM     52  C   UNL     1      -2.741 -10.075   4.848  1.00  0.00     0.226 C 
ATOM     53  O   UNL     1      -1.897 -10.827   4.356  1.00  0.00    -0.275 OA
BRANCH  52  54
ATOM     54  N   UNL     1      -3.252 -10.218   6.151  1.00  0.00    -0.311 N 
ATOM     55  C   UNL     1      -4.155 -11.325   6.493  1.00  0.00     0.153 C 
BRANCH  54  56
ATOM     56  C   UNL     1      -2.915  -9.314   7.173  1.00  0.00     0.102 C 
ATOM     57  C   UNL     1      -3.761  -8.432   7.729  1.00  0.00     0.043 C 
BRANCH  56  58
ATOM     58  C   UNL     1      -1.528  -9.304   7.771  1.00  0.00     0.268 C 
ATOM     59  O   UNL     1      -0.979  -8.287   8.172  1.00  0.00    -0.268 OA
ATOM     60  N   UNL     1      -0.977 -10.559   7.880  1.00  0.00    -0.339 N 
ATOM     61  H   UNL     1      -1.493 -11.350   7.514  1.00  0.00     0.164 HD
BRANCH  60  62
ATOM     62  C   UNL     1       0.333 -10.785   8.489  1.00  0.00     0.168 CG0
ATOM     63  C   UNL     1       1.428 -10.828   7.430  1.00  0.00     0.041 C 
ATOM     64  G   UNL     1       0.307 -12.096   9.301  1.00  0.00     0.000 G0
ENDBRANCH  60  62
ENDBRANCH  56  58
ENDBRANCH  54  56
ENDBRANCH  52  54
ENDBRANCH  51  52
ENDBRANCH  50  51
ENDBRANCH  49  50
BRANCH  49  65
ATOM     65  C   UNL     1      -5.497 -11.049   2.400  1.00  0.00     0.326 C 
ATOM     66  O   UNL     1      -5.702 -11.619   3.462  1.00  0.00    -0.250 OA
BRANCH  65  67
ATOM     67  O   UNL     1      -5.846 -11.648   1.240  1.00  0.00    -0.480 OA
ATOM     68  H   UNL     1      -6.781 -11.907   1.385  1.00  0.00     0.296 HD
ENDBRANCH  65  67
ENDBRANCH  49  65
ENDBRANCH  47  49
ENDBRANCH  43  45
ENDBRANCH   1  43
BRANCH   1  69
ATOM     69  C   UNL     1      -1.403  -7.437   0.093  1.00  0.00    -0.001 C 
ATOM     70  C   UNL     1      -0.491  -6.835   0.877  1.00  0.00     0.001 C 
BRANCH  70  71
ATOM     71  C   UNL     1      -0.667  -5.599   1.642  1.00  0.00    -0.055 C 
ATOM     72  C   UNL     1      -0.196  -5.571   2.907  1.00  0.00    -0.018 C 
ATOM     73  C   UNL     1      -1.355  -4.444   0.962  1.00  0.00     0.044 C 
BRANCH  72  74
ATOM     74  C   UNL     1      -0.233  -4.439   3.924  1.00  0.00     0.038 C 
ATOM     75  C   UNL     1       0.989  -4.608   4.834  1.00  0.00     0.015 C 
BRANCH  74  76
ATOM     76  C   UNL     1      -1.605  -4.472   4.659  1.00  0.00     0.128 C 
BRANCH  76  77
ATOM     77  O   UNL     1      -1.404  -4.375   6.079  1.00  0.00    -0.381 OA
ATOM     78  C   UNL     1      -1.726  -5.567   6.784  1.00  0.00     0.195 C 
ENDBRANCH  76  77
BRANCH  76  79
ATOM     79  C   UNL     1      -2.629  -3.437   4.127  1.00  0.00     0.068 C 
BRANCH  79  80
ATOM     80  C   UNL     1      -4.081  -3.847   4.064  1.00  0.00    -0.045 A 
ATOM     81  C   UNL     1      -5.069  -2.944   3.652  1.00  0.00     0.004 A 
ATOM     82  C   UNL     1      -4.467  -5.141   4.445  1.00  0.00     0.004 A 
ATOM     83  C   UNL     1      -6.411  -3.327   3.610  1.00  0.00     0.000 A 
ATOM     84  C   UNL     1      -5.810  -5.523   4.402  1.00  0.00     0.000 A 
ATOM     85  C   UNL     1      -6.781  -4.617   3.983  1.00  0.00     0.000 A 
ENDBRANCH  79  80
ENDBRANCH  76  79
ENDBRANCH  74  76
ENDBRANCH  72  74
ENDBRANCH  70  71
ENDBRANCH   1  69
TORSDOF 17
ENDMDL
MODEL 7
REMARK VINA RESULT:    -6.010      4.734      7.331
REMARK INTER + INTRA:         -26.275
REMARK INTER:                 -19.348
REMARK INTRA:                  -6.926
REMARK UNBOUND:                -8.320
REMARK SMILES C=C1C(=O)N[C@H](C)C(=O)N[C@@H](CC(C)C)C(=O)N[C@@H](C(=O)O)[C@H](C)C(=O)N[C@@H](CCCN=C(N)N)C(=O)N[C@@H](/C=C/C(C)=C/[C@H](C)[C@H](Cc2ccccc2)OC)[C@H](C)C(=O)N[C@@H](C(=O)O)CCC(=O)N1C
REMARK SMILES IDX 39 1 38 2 37 3 36 4 28 6 27 7 25 8 26 9 23 11 24 12 19 13
REMARK SMILES IDX 18 14 16 15 17 16 11 18 10 19 8 20 9 21 12 24 13 25 14 26
REMARK SMILES IDX 15 27 20 28 21 29 22 30 29 32 30 33 31 34 32 35 33 36 34 37
REMARK SMILES IDX 35 38 57 43 58 44 59 45 60 46 61 47 62 49 66 50 67 51 68 52
REMARK SMILES IDX 69 53 70 54 71 55 2 56 1 57 3 58 4 59 5 60 6 62 7 63 63 65
REMARK SMILES IDX 64 66 65 67 40 69 41 70 42 71 44 72 43 73 45 74 46 75 47 76
REMARK SMILES IDX 55 77 56 78 48 79 49 80 50 81 54 82 51 83 53 84 52 85
REMARK H PARENT 38 5 27 10 18 17 10 22 22 31 34 39 34 40 35 41 35 42 61 48
REMARK H PARENT 5 61 65 68
REMARK Flexibility Score:  369.900
ROOT
ATOM      1  C   UNL     1      -2.278  -6.197   0.560  1.00  0.00     0.117 C 
ENDROOT
BRANCH   1   2
ATOM      2  N   UNL     1      -2.147  -6.890  -0.721  1.00  0.00    -0.347 N 
ATOM      3  O   UNL     1      -4.124  -6.193  -1.657  1.00  0.00    -0.273 OA
ATOM      4  C   UNL     1      -3.041  -6.758  -1.766  1.00  0.00     0.243 C 
ATOM      5  H   UNL     1      -1.337  -7.466  -0.892  1.00  0.00     0.164 HD
BRANCH   4   6
ATOM      6  C   UNL     1      -2.626  -7.532  -3.043  1.00  0.00     0.171 C 
BRANCH   6   7
ATOM      7  N   UNL     1      -3.147  -8.908  -3.003  1.00  0.00    -0.344 N 
ATOM      8  C   UNL     1      -2.488  -9.888  -2.293  1.00  0.00     0.226 C 
ATOM      9  O   UNL     1      -1.443  -9.677  -1.689  1.00  0.00    -0.275 OA
ATOM     10  H   UNL     1      -3.971  -9.137  -3.545  1.00  0.00     0.164 HD
BRANCH   8  11
ATOM     11  C   UNL     1      -3.179 -11.240  -2.304  1.00  0.00     0.109 C 
ATOM     12  C   UNL     1      -4.534 -11.133  -3.004  1.00  0.00     0.021 C 
BRANCH  11  13
ATOM     13  C   UNL     1      -2.231 -12.306  -2.889  1.00  0.00     0.204 C 
BRANCH  13  14
ATOM     14  N   UNL     1      -1.627 -11.874  -4.153  1.00  0.00    -0.340 N 
ATOM     15  C   UNL     1      -1.760 -12.585  -5.327  1.00  0.00     0.243 C 
ATOM     16  O   UNL     1      -2.446 -13.602  -5.409  1.00  0.00    -0.273 OA
ATOM     17  H   UNL     1      -0.927 -11.129  -4.121  1.00  0.00     0.164 HD
BRANCH  15  18
ATOM     18  C   UNL     1      -0.869 -12.052  -6.476  1.00  0.00     0.171 C 
BRANCH  18  19
ATOM     19  N   UNL     1       0.032 -13.141  -6.846  1.00  0.00    -0.343 N 
ATOM     20  C   UNL     1       1.404 -13.017  -6.748  1.00  0.00     0.242 CG0
ATOM     21  O   UNL     1       1.935 -11.944  -6.473  1.00  0.00    -0.273 OA
ATOM     22  H   UNL     1      -0.356 -14.012  -7.191  1.00  0.00     0.164 HD
ATOM     23  G   UNL     1       2.187 -14.297  -7.109  1.00  0.00     0.000 G0
ENDBRANCH  18  19
BRANCH  18  24
ATOM     24  C   UNL     1      -1.729 -11.605  -7.664  1.00  0.00     0.038 C 
BRANCH  24  25
ATOM     25  C   UNL     1      -2.675 -10.422  -7.367  1.00  0.00    -0.015 C 
ATOM     26  C   UNL     1      -4.145 -10.841  -7.338  1.00  0.00     0.007 C 
ATOM     27  C   UNL     1      -2.472  -9.325  -8.415  1.00  0.00     0.007 C 
ENDBRANCH  24  25
ENDBRANCH  18  24
ENDBRANCH  15  18
ENDBRANCH  13  14
BRANCH  13  28
ATOM     28  C   UNL     1      -1.085 -12.678  -1.943  1.00  0.00     0.327 C 
ATOM     29  O   UNL     1       0.025 -13.069  -2.270  1.00  0.00    -0.250 OA
BRANCH  28  30
ATOM     30  O   UNL     1      -1.443 -12.651  -0.643  1.00  0.00    -0.480 OA
ATOM     31  H   UNL     1      -1.845 -11.766  -0.522  1.00  0.00     0.296 HD
ENDBRANCH  28  30
ENDBRANCH  13  28
ENDBRANCH  11  13
ENDBRANCH   8  11
ENDBRANCH   6   7
BRANCH   6  32
ATOM     32  C   UNL     1      -3.147  -6.786  -4.276  1.00  0.00     0.037 C 
BRANCH  32  33
ATOM     33  C   UNL     1      -3.781  -7.734  -5.303  1.00  0.00     0.026 C 
BRANCH  33  34
ATOM     34  C   UNL     1      -5.267  -7.449  -5.525  1.00  0.00     0.146 C 
BRANCH  34  35
ATOM     35  N   UNL     1      -6.048  -8.489  -4.869  1.00  0.00    -0.254 NA
ATOM     36  C   UNL     1      -6.617  -8.218  -3.754  1.00  0.00     0.185 C 
ATOM     37  N   UNL     1      -7.343  -9.167  -3.143  1.00  0.00    -0.370 N 
ATOM     38  N   UNL     1      -6.604  -7.069  -3.056  1.00  0.00    -0.370 N 
ATOM     39  H   UNL     1      -7.410 -10.061  -3.613  1.00  0.00     0.159 HD
ATOM     40  H   UNL     1      -7.956  -8.985  -2.367  1.00  0.00     0.159 HD
ATOM     41  H   UNL     1      -6.976  -7.023  -2.121  1.00  0.00     0.159 HD
ATOM     42  H   UNL     1      -6.083  -6.273  -3.388  1.00  0.00     0.159 HD
ENDBRANCH  34  35
ENDBRANCH  33  34
ENDBRANCH  32  33
ENDBRANCH   6  32
ENDBRANCH   4   6
ENDBRANCH   1   2
BRANCH   1  43
ATOM     43  C   UNL     1      -0.871  -5.696   0.998  1.00  0.00     0.102 C 
ATOM     44  C   UNL     1       0.193  -6.806   1.024  1.00  0.00     0.020 C 
BRANCH  43  45
ATOM     45  C   UNL     1      -0.954  -4.884   2.294  1.00  0.00     0.225 C 
ATOM     46  O   UNL     1      -1.767  -3.981   2.469  1.00  0.00    -0.275 OA
ATOM     47  N   UNL     1       0.011  -5.167   3.233  1.00  0.00    -0.342 N 
ATOM     48  H   UNL     1       0.569  -6.004   3.140  1.00  0.00     0.164 HD
BRANCH  47  49
ATOM     49  C   UNL     1       0.034  -4.494   4.535  1.00  0.00     0.192 C 
BRANCH  49  50
ATOM     50  C   UNL     1       1.430  -4.614   5.152  1.00  0.00     0.047 C 
BRANCH  50  51
ATOM     51  C   UNL     1       2.183  -3.277   5.152  1.00  0.00     0.103 C 
BRANCH  51  52
ATOM     52  C   UNL     1       3.610  -3.423   5.676  1.00  0.00     0.226 C 
ATOM     53  O   UNL     1       3.913  -4.406   6.355  1.00  0.00    -0.275 OA
BRANCH  52  54
ATOM     54  N   UNL     1       4.529  -2.435   5.276  1.00  0.00    -0.311 N 
ATOM     55  C   UNL     1       5.290  -2.572   4.027  1.00  0.00     0.153 C 
BRANCH  54  56
ATOM     56  C   UNL     1       4.748  -1.282   6.049  1.00  0.00     0.102 C 
ATOM     57  C   UNL     1       4.089  -0.122   5.902  1.00  0.00     0.043 C 
BRANCH  56  58
ATOM     58  C   UNL     1       5.754  -1.285   7.176  1.00  0.00     0.268 C 
ATOM     59  O   UNL     1       6.763  -0.592   7.175  1.00  0.00    -0.268 OA
ATOM     60  N   UNL     1       5.386  -2.092   8.226  1.00  0.00    -0.339 N 
ATOM     61  H   UNL     1       4.540  -2.642   8.145  1.00  0.00     0.164 HD
BRANCH  60  62
ATOM     62  C   UNL     1       6.185  -2.194   9.447  1.00  0.00     0.168 CG0
ATOM     63  C   UNL     1       5.595  -3.224  10.402  1.00  0.00     0.041 C 
ATOM     64  G   UNL     1       6.274  -0.810  10.123  1.00  0.00     0.000 G0
ENDBRANCH  60  62
ENDBRANCH  56  58
ENDBRANCH  54  56
ENDBRANCH  52  54
ENDBRANCH  51  52
ENDBRANCH  50  51
ENDBRANCH  49  50
BRANCH  49  65
ATOM     65  C   UNL     1      -1.002  -5.092   5.500  1.00  0.00     0.326 C 
ATOM     66  O   UNL     1      -0.846  -6.100   6.174  1.00  0.00    -0.250 OA
BRANCH  65  67
ATOM     67  O   UNL     1      -2.187  -4.444   5.527  1.00  0.00    -0.480 OA
ATOM     68  H   UNL     1      -2.093  -3.760   4.830  1.00  0.00     0.296 HD
ENDBRANCH  65  67
ENDBRANCH  49  65
ENDBRANCH  47  49
ENDBRANCH  43  45
ENDBRANCH   1  43
BRANCH   1  69
ATOM     69  C   UNL     1      -3.038  -7.138   1.476  1.00  0.00    -0.001 C 
ATOM     70  C   UNL     1      -3.010  -8.482   1.472  1.00  0.00     0.001 C 
BRANCH  70  71
ATOM     71  C   UNL     1      -3.733  -9.380   2.375  1.00  0.00    -0.055 C 
ATOM     72  C   UNL     1      -4.528  -8.821   3.312  1.00  0.00    -0.018 C 
ATOM     73  C   UNL     1      -3.545 -10.863   2.191  1.00  0.00     0.044 C 
BRANCH  72  74
ATOM     74  C   UNL     1      -5.390  -9.495   4.370  1.00  0.00     0.038 C 
ATOM     75  C   UNL     1      -6.614 -10.077   3.654  1.00  0.00     0.015 C 
BRANCH  74  76
ATOM     76  C   UNL     1      -5.717  -8.458   5.485  1.00  0.00     0.128 C 
BRANCH  76  77
ATOM     77  O   UNL     1      -5.545  -9.057   6.780  1.00  0.00    -0.381 OA
ATOM     78  C   UNL     1      -4.185  -9.177   7.177  1.00  0.00     0.195 C 
ENDBRANCH  76  77
BRANCH  76  79
ATOM     79  C   UNL     1      -4.956  -7.116   5.339  1.00  0.00     0.068 C 
BRANCH  79  80
ATOM     80  C   UNL     1      -5.718  -5.925   4.809  1.00  0.00    -0.045 A 
ATOM     81  C   UNL     1      -5.131  -5.042   3.893  1.00  0.00     0.004 A 
ATOM     82  C   UNL     1      -7.024  -5.667   5.251  1.00  0.00     0.004 A 
ATOM     83  C   UNL     1      -5.837  -3.934   3.419  1.00  0.00     0.000 A 
ATOM     84  C   UNL     1      -7.729  -4.559   4.777  1.00  0.00     0.000 A 
ATOM     85  C   UNL     1      -7.136  -3.694   3.860  1.00  0.00     0.000 A 
ENDBRANCH  79  80
ENDBRANCH  76  79
ENDBRANCH  74  76
ENDBRANCH  72  74
ENDBRANCH  70  71
ENDBRANCH   1  69
TORSDOF 17
ENDMDL
MODEL 8
REMARK VINA RESULT:    -6.007      2.740      3.848
REMARK INTER + INTRA:         -26.266
REMARK INTER:                 -17.837
REMARK INTRA:                  -8.429
REMARK UNBOUND:                -8.320
REMARK SMILES C=C1C(=O)N[C@H](C)C(=O)N[C@@H](CC(C)C)C(=O)N[C@@H](C(=O)O)[C@H](C)C(=O)N[C@@H](CCCN=C(N)N)C(=O)N[C@@H](/C=C/C(C)=C/[C@H](C)[C@H](Cc2ccccc2)OC)[C@H](C)C(=O)N[C@@H](C(=O)O)CCC(=O)N1C
REMARK SMILES IDX 39 1 38 2 37 3 36 4 28 6 27 7 25 8 26 9 23 11 24 12 19 13
REMARK SMILES IDX 18 14 16 15 17 16 11 18 10 19 8 20 9 21 12 24 13 25 14 26
REMARK SMILES IDX 15 27 20 28 21 29 22 30 29 32 30 33 31 34 32 35 33 36 34 37
REMARK SMILES IDX 35 38 57 43 58 44 59 45 60 46 61 47 62 49 66 50 67 51 68 52
REMARK SMILES IDX 69 53 70 54 71 55 2 56 1 57 3 58 4 59 5 60 6 62 7 63 63 65
REMARK SMILES IDX 64 66 65 67 40 69 41 70 42 71 44 72 43 73 45 74 46 75 47 76
REMARK SMILES IDX 55 77 56 78 48 79 49 80 50 81 54 82 51 83 53 84 52 85
REMARK H PARENT 38 5 27 10 18 17 10 22 22 31 34 39 34 40 35 41 35 42 61 48
REMARK H PARENT 5 61 65 68
REMARK Flexibility Score:  369.900
ROOT
ATOM      1  C   UNL     1      -2.109  -5.256  -0.292  1.00  0.00     0.117 C 
ENDROOT
BRANCH   1   2
ATOM      2  N   UNL     1      -2.827  -6.378  -0.897  1.00  0.00    -0.347 N 
ATOM      3  O   UNL     1      -3.679  -5.261  -2.713  1.00  0.00    -0.273 OA
ATOM      4  C   UNL     1      -3.481  -6.312  -2.112  1.00  0.00     0.243 C 
ATOM      5  H   UNL     1      -2.814  -7.277  -0.440  1.00  0.00     0.164 HD
BRANCH   4   6
ATOM      6  C   UNL     1      -4.087  -7.664  -2.568  1.00  0.00     0.171 C 
BRANCH   6   7
ATOM      7  N   UNL     1      -3.120  -8.410  -3.390  1.00  0.00    -0.344 N 
ATOM      8  C   UNL     1      -3.370  -8.650  -4.724  1.00  0.00     0.226 C 
ATOM      9  O   UNL     1      -4.399  -8.283  -5.279  1.00  0.00    -0.275 OA
ATOM     10  H   UNL     1      -2.290  -8.787  -2.950  1.00  0.00     0.164 HD
BRANCH   8  11
ATOM     11  C   UNL     1      -2.254  -9.382  -5.447  1.00  0.00     0.109 C 
ATOM     12  C   UNL     1      -2.723 -10.777  -5.862  1.00  0.00     0.021 C 
BRANCH  11  13
ATOM     13  C   UNL     1      -1.718  -8.509  -6.599  1.00  0.00     0.204 C 
BRANCH  13  14
ATOM     14  N   UNL     1      -2.750  -8.222  -7.600  1.00  0.00    -0.340 N 
ATOM     15  C   UNL     1      -2.830  -8.888  -8.805  1.00  0.00     0.243 C 
ATOM     16  O   UNL     1      -2.076  -9.813  -9.099  1.00  0.00    -0.273 OA
ATOM     17  H   UNL     1      -3.307  -7.371  -7.486  1.00  0.00     0.164 HD
BRANCH  15  18
ATOM     18  C   UNL     1      -3.864  -8.276  -9.782  1.00  0.00     0.171 C 
BRANCH  18  19
ATOM     19  N   UNL     1      -3.109  -7.766 -10.925  1.00  0.00    -0.343 N 
ATOM     20  C   UNL     1      -3.594  -6.747 -11.722  1.00  0.00     0.242 CG0
ATOM     21  O   UNL     1      -4.736  -6.314 -11.589  1.00  0.00    -0.273 OA
ATOM     22  H   UNL     1      -2.207  -8.172 -11.146  1.00  0.00     0.164 HD
ATOM     23  G   UNL     1      -2.624  -6.290 -12.830  1.00  0.00     0.000 G0
ENDBRANCH  18  19
BRANCH  18  24
ATOM     24  C   UNL     1      -4.892  -9.330 -10.212  1.00  0.00     0.038 C 
BRANCH  24  25
ATOM     25  C   UNL     1      -6.097  -9.481  -9.260  1.00  0.00    -0.015 C 
ATOM     26  C   UNL     1      -6.426  -8.183  -8.522  1.00  0.00     0.007 C 
ATOM     27  C   UNL     1      -5.817 -10.594  -8.246  1.00  0.00     0.007 C 
ENDBRANCH  24  25
ENDBRANCH  18  24
ENDBRANCH  15  18
ENDBRANCH  13  14
BRANCH  13  28
ATOM     28  C   UNL     1      -1.158  -7.164  -6.127  1.00  0.00     0.327 C 
ATOM     29  O   UNL     1      -1.131  -6.126  -6.770  1.00  0.00    -0.250 OA
BRANCH  28  30
ATOM     30  O   UNL     1      -0.559  -7.235  -4.921  1.00  0.00    -0.480 OA
ATOM     31  H   UNL     1       0.243  -7.774  -5.081  1.00  0.00     0.296 HD
ENDBRANCH  28  30
ENDBRANCH  13  28
ENDBRANCH  11  13
ENDBRANCH   8  11
ENDBRANCH   6   7
BRANCH   6  32
ATOM     32  C   UNL     1      -4.494  -8.475  -1.332  1.00  0.00     0.037 C 
BRANCH  32  33
ATOM     33  C   UNL     1      -4.008  -9.929  -1.407  1.00  0.00     0.026 C 
BRANCH  33  34
ATOM     34  C   UNL     1      -5.146 -10.914  -1.678  1.00  0.00     0.146 C 
BRANCH  34  35
ATOM     35  N   UNL     1      -5.440 -10.912  -3.104  1.00  0.00    -0.254 NA
ATOM     36  C   UNL     1      -6.523 -10.360  -3.508  1.00  0.00     0.185 C 
ATOM     37  N   UNL     1      -6.801 -10.347  -4.820  1.00  0.00    -0.370 N 
ATOM     38  N   UNL     1      -7.482  -9.754  -2.785  1.00  0.00    -0.370 N 
ATOM     39  H   UNL     1      -6.120 -10.776  -5.433  1.00  0.00     0.159 HD
ATOM     40  H   UNL     1      -7.532  -9.790  -5.229  1.00  0.00     0.159 HD
ATOM     41  H   UNL     1      -8.356  -9.481  -3.204  1.00  0.00     0.159 HD
ATOM     42  H   UNL     1      -7.412  -9.703  -1.781  1.00  0.00     0.159 HD
ENDBRANCH  34  35
ENDBRANCH  33  34
ENDBRANCH  32  33
ENDBRANCH   6  32
ENDBRANCH   4   6
ENDBRANCH   1   2
BRANCH   1  43
ATOM     43  C   UNL     1      -0.592  -5.416  -0.595  1.00  0.00     0.102 C 
ATOM     44  C   UNL     1      -0.074  -4.436  -1.662  1.00  0.00     0.020 C 
BRANCH  43  45
ATOM     45  C   UNL     1      -0.238  -6.880  -0.873  1.00  0.00     0.225 C 
ATOM     46  O   UNL     1      -0.360  -7.402  -1.978  1.00  0.00    -0.275 OA
ATOM     47  N   UNL     1       0.142  -7.617   0.226  1.00  0.00    -0.342 N 
ATOM     48  H   UNL     1       0.382  -7.144   1.086  1.00  0.00     0.164 HD
BRANCH  47  49
ATOM     49  C   UNL     1       0.543  -9.021   0.105  1.00  0.00     0.192 C 
BRANCH  49  50
ATOM     50  C   UNL     1      -0.297  -9.880   1.054  1.00  0.00     0.047 C 
BRANCH  50  51
ATOM     51  C   UNL     1      -1.166  -9.030   1.991  1.00  0.00     0.103 C 
BRANCH  51  52
ATOM     52  C   UNL     1      -0.502  -8.811   3.349  1.00  0.00     0.226 C 
ATOM     53  O   UNL     1       0.236  -7.839   3.518  1.00  0.00    -0.275 OA
BRANCH  52  54
ATOM     54  N   UNL     1      -0.846  -9.719   4.368  1.00  0.00    -0.311 N 
ATOM     55  C   UNL     1      -2.214 -10.241   4.487  1.00  0.00     0.153 C 
BRANCH  54  56
ATOM     56  C   UNL     1       0.103 -10.163   5.304  1.00  0.00     0.102 C 
ATOM     57  C   UNL     1       0.062  -9.906   6.622  1.00  0.00     0.043 C 
BRANCH  56  58
ATOM     58  C   UNL     1       1.261 -11.036   4.879  1.00  0.00     0.268 C 
ATOM     59  O   UNL     1       1.248 -11.718   3.863  1.00  0.00    -0.268 OA
ATOM     60  N   UNL     1       2.349 -10.933   5.713  1.00  0.00    -0.339 N 
ATOM     61  H   UNL     1       2.276 -10.354   6.540  1.00  0.00     0.164 HD
BRANCH  60  62
ATOM     62  C   UNL     1       3.600 -11.645   5.452  1.00  0.00     0.168 CG0
ATOM     63  C   UNL     1       3.531 -13.077   5.965  1.00  0.00     0.041 C 
ATOM     64  G   UNL     1       4.772 -10.886   6.107  1.00  0.00     0.000 G0
ENDBRANCH  60  62
ENDBRANCH  56  58
ENDBRANCH  54  56
ENDBRANCH  52  54
ENDBRANCH  51  52
ENDBRANCH  50  51
ENDBRANCH  49  50
BRANCH  49  65
ATOM     65  C   UNL     1       2.033  -9.215   0.428  1.00  0.00     0.326 C 
ATOM     66  O   UNL     1       2.479  -9.763   1.426  1.00  0.00    -0.250 OA
BRANCH  65  67
ATOM     67  O   UNL     1       2.881  -8.667  -0.471  1.00  0.00    -0.480 OA
ATOM     68  H   UNL     1       2.448  -7.819  -0.710  1.00  0.00     0.296 HD
ENDBRANCH  65  67
ENDBRANCH  49  65
ENDBRANCH  47  49
ENDBRANCH  43  45
ENDBRANCH   1  43
BRANCH   1  69
ATOM     69  C   UNL     1      -2.565  -5.192   1.155  1.00  0.00    -0.001 C 
ATOM     70  C   UNL     1      -1.791  -5.136   2.253  1.00  0.00     0.001 C 
BRANCH  70  71
ATOM     71  C   UNL     1      -2.243  -5.053   3.644  1.00  0.00    -0.055 C 
ATOM     72  C   UNL     1      -2.833  -6.143   4.178  1.00  0.00    -0.018 C 
ATOM     73  C   UNL     1      -2.010  -3.761   4.382  1.00  0.00     0.044 C 
BRANCH  72  74
ATOM     74  C   UNL     1      -3.391  -6.347   5.579  1.00  0.00     0.038 C 
ATOM     75  C   UNL     1      -2.320  -7.085   6.391  1.00  0.00     0.015 C 
BRANCH  74  76
ATOM     76  C   UNL     1      -4.756  -7.090   5.472  1.00  0.00     0.128 C 
BRANCH  76  77
ATOM     77  O   UNL     1      -4.679  -8.357   6.146  1.00  0.00    -0.381 OA
ATOM     78  C   UNL     1      -5.736  -9.246   5.812  1.00  0.00     0.195 C 
ENDBRANCH  76  77
BRANCH  76  79
ATOM     79  C   UNL     1      -5.971  -6.242   5.925  1.00  0.00     0.068 C 
BRANCH  79  80
ATOM     80  C   UNL     1      -6.561  -5.267   4.935  1.00  0.00    -0.045 A 
ATOM     81  C   UNL     1      -5.755  -4.625   3.986  1.00  0.00     0.004 A 
ATOM     82  C   UNL     1      -7.931  -4.965   4.971  1.00  0.00     0.004 A 
ATOM     83  C   UNL     1      -6.307  -3.713   3.083  1.00  0.00     0.000 A 
ATOM     84  C   UNL     1      -8.482  -4.053   4.068  1.00  0.00     0.000 A 
ATOM     85  C   UNL     1      -7.670  -3.428   3.124  1.00  0.00     0.000 A 
ENDBRANCH  79  80
ENDBRANCH  76  79
ENDBRANCH  74  76
ENDBRANCH  72  74
ENDBRANCH  70  71
ENDBRANCH   1  69
TORSDOF 17
ENDMDL
MODEL 9
REMARK VINA RESULT:    -5.980      3.152     12.071
REMARK INTER + INTRA:         -26.185
REMARK INTER:                 -20.019
REMARK INTRA:                  -6.167
REMARK UNBOUND:                -8.320
REMARK SMILES C=C1C(=O)N[C@H](C)C(=O)N[C@@H](CC(C)C)C(=O)N[C@@H](C(=O)O)[C@H](C)C(=O)N[C@@H](CCCN=C(N)N)C(=O)N[C@@H](/C=C/C(C)=C/[C@H](C)[C@H](Cc2ccccc2)OC)[C@H](C)C(=O)N[C@@H](C(=O)O)CCC(=O)N1C
REMARK SMILES IDX 39 1 38 2 37 3 36 4 28 6 27 7 25 8 26 9 23 11 24 12 19 13
REMARK SMILES IDX 18 14 16 15 17 16 11 18 10 19 8 20 9 21 12 24 13 25 14 26
REMARK SMILES IDX 15 27 20 28 21 29 22 30 29 32 30 33 31 34 32 35 33 36 34 37
REMARK SMILES IDX 35 38 57 43 58 44 59 45 60 46 61 47 62 49 66 50 67 51 68 52
REMARK SMILES IDX 69 53 70 54 71 55 2 56 1 57 3 58 4 59 5 60 6 62 7 63 63 65
REMARK SMILES IDX 64 66 65 67 40 69 41 70 42 71 44 72 43 73 45 74 46 75 47 76
REMARK SMILES IDX 55 77 56 78 48 79 49 80 50 81 54 82 51 83 53 84 52 85
REMARK H PARENT 38 5 27 10 18 17 10 22 22 31 34 39 34 40 35 41 35 42 61 48
REMARK H PARENT 5 61 65 68
REMARK Flexibility Score:  369.900
ROOT
ATOM      1  C   UNL     1      -5.635  -9.060  -1.896  1.00  0.00     0.117 C 
ENDROOT
BRANCH   1   2
ATOM      2  N   UNL     1      -5.440 -10.344  -1.223  1.00  0.00    -0.347 N 
ATOM      3  O   UNL     1      -4.911  -9.531   0.857  1.00  0.00    -0.273 OA
ATOM      4  C   UNL     1      -5.182 -10.478   0.128  1.00  0.00     0.243 C 
ATOM      5  H   UNL     1      -5.545 -11.199  -1.749  1.00  0.00     0.164 HD
BRANCH   4   6
ATOM      6  C   UNL     1      -5.104 -11.951   0.604  1.00  0.00     0.171 C 
BRANCH   6   7
ATOM      7  N   UNL     1      -6.212 -12.254   1.524  1.00  0.00    -0.344 N 
ATOM      8  C   UNL     1      -5.962 -12.733   2.792  1.00  0.00     0.226 C 
ATOM      9  O   UNL     1      -4.828 -12.951   3.203  1.00  0.00    -0.275 OA
ATOM     10  H   UNL     1      -7.164 -12.151   1.197  1.00  0.00     0.164 HD
BRANCH   8  11
ATOM     11  C   UNL     1      -7.205 -12.944   3.638  1.00  0.00     0.109 C 
ATOM     12  C   UNL     1      -7.673 -14.395   3.533  1.00  0.00     0.021 C 
BRANCH  11  13
ATOM     13  C   UNL     1      -6.948 -12.448   5.075  1.00  0.00     0.204 C 
BRANCH  13  14
ATOM     14  N   UNL     1      -6.359 -11.106   5.099  1.00  0.00    -0.340 N 
ATOM     15  C   UNL     1      -5.355 -10.744   5.971  1.00  0.00     0.243 C 
ATOM     16  O   UNL     1      -4.840 -11.541   6.752  1.00  0.00    -0.273 OA
ATOM     17  H   UNL     1      -6.840 -10.361   4.587  1.00  0.00     0.164 HD
BRANCH  15  18
ATOM     18  C   UNL     1      -5.040  -9.228   5.956  1.00  0.00     0.171 C 
BRANCH  18  19
ATOM     19  N   UNL     1      -5.833  -8.624   7.025  1.00  0.00    -0.343 N 
ATOM     20  C   UNL     1      -6.979  -7.899   6.762  1.00  0.00     0.242 CG0
ATOM     21  O   UNL     1      -7.311  -7.615   5.613  1.00  0.00    -0.273 OA
ATOM     22  H   UNL     1      -5.535  -8.733   7.988  1.00  0.00     0.164 HD
ATOM     23  G   UNL     1      -7.724  -7.407   8.019  1.00  0.00     0.000 G0
ENDBRANCH  18  19
BRANCH  18  24
ATOM     24  C   UNL     1      -3.540  -8.985   6.163  1.00  0.00     0.038 C 
BRANCH  24  25
ATOM     25  C   UNL     1      -3.003  -7.685   5.528  1.00  0.00    -0.015 C 
ATOM     26  C   UNL     1      -1.742  -7.918   4.695  1.00  0.00     0.007 C 
ATOM     27  C   UNL     1      -2.714  -6.657   6.625  1.00  0.00     0.007 C 
ENDBRANCH  24  25
ENDBRANCH  18  24
ENDBRANCH  15  18
ENDBRANCH  13  14
BRANCH  13  28
ATOM     28  C   UNL     1      -8.215 -12.403   5.934  1.00  0.00     0.327 C 
ATOM     29  O   UNL     1      -8.740 -13.351   6.498  1.00  0.00    -0.250 OA
BRANCH  28  30
ATOM     30  O   UNL     1      -8.811 -11.194   5.934  1.00  0.00    -0.480 OA
ATOM     31  H   UNL     1      -9.107 -11.071   5.008  1.00  0.00     0.296 HD
ENDBRANCH  28  30
ENDBRANCH  13  28
ENDBRANCH  11  13
ENDBRANCH   8  11
ENDBRANCH   6   7
BRANCH   6  32
ATOM     32  C   UNL     1      -5.139 -12.877  -0.617  1.00  0.00     0.037 C 
BRANCH  32  33
ATOM     33  C   UNL     1      -6.222 -13.958  -0.493  1.00  0.00     0.026 C 
BRANCH  33  34
ATOM     34  C   UNL     1      -7.526 -13.562  -1.186  1.00  0.00     0.146 C 
BRANCH  34  35
ATOM     35  N   UNL     1      -8.611 -13.624  -0.217  1.00  0.00    -0.254 NA
ATOM     36  C   UNL     1      -9.720 -13.047  -0.497  1.00  0.00     0.185 C 
ATOM     37  N   UNL     1     -10.728 -13.102   0.387  1.00  0.00    -0.370 N 
ATOM     38  N   UNL     1     -10.057 -12.355  -1.600  1.00  0.00    -0.370 N 
ATOM     39  H   UNL     1     -10.555 -13.616   1.241  1.00  0.00     0.159 HD
ATOM     40  H   UNL     1     -11.672 -12.830   0.172  1.00  0.00     0.159 HD
ATOM     41  H   UNL     1     -10.914 -11.829  -1.643  1.00  0.00     0.159 HD
ATOM     42  H   UNL     1      -9.389 -12.219  -2.344  1.00  0.00     0.159 HD
ENDBRANCH  34  35
ENDBRANCH  33  34
ENDBRANCH  32  33
ENDBRANCH   6  32
ENDBRANCH   4   6
ENDBRANCH   1   2
BRANCH   1  43
ATOM     43  C   UNL     1      -6.011  -9.331  -3.381  1.00  0.00     0.102 C 
ATOM     44  C   UNL     1      -7.355 -10.061  -3.549  1.00  0.00     0.020 C 
BRANCH  43  45
ATOM     45  C   UNL     1      -4.849  -9.987  -4.132  1.00  0.00     0.225 C 
ATOM     46  O   UNL     1      -4.211 -10.936  -3.683  1.00  0.00    -0.275 OA
ATOM     47  N   UNL     1      -4.494  -9.385  -5.317  1.00  0.00    -0.342 N 
ATOM     48  H   UNL     1      -5.115  -8.712  -5.742  1.00  0.00     0.164 HD
BRANCH  47  49
ATOM     49  C   UNL     1      -3.423  -9.926  -6.160  1.00  0.00     0.192 C 
BRANCH  49  50
ATOM     50  C   UNL     1      -2.717  -8.782  -6.892  1.00  0.00     0.047 C 
BRANCH  50  51
ATOM     51  C   UNL     1      -3.543  -7.488  -6.883  1.00  0.00     0.103 C 
BRANCH  51  52
ATOM     52  C   UNL     1      -4.424  -7.361  -8.124  1.00  0.00     0.226 C 
ATOM     53  O   UNL     1      -5.649  -7.444  -8.014  1.00  0.00    -0.275 OA
BRANCH  52  54
ATOM     54  N   UNL     1      -3.765  -7.076  -9.334  1.00  0.00    -0.311 N 
ATOM     55  C   UNL     1      -2.506  -6.319  -9.350  1.00  0.00     0.153 C 
BRANCH  54  56
ATOM     56  C   UNL     1      -4.281  -7.506 -10.568  1.00  0.00     0.102 C 
ATOM     57  C   UNL     1      -4.729  -6.694 -11.539  1.00  0.00     0.043 C 
BRANCH  56  58
ATOM     58  C   UNL     1      -4.327  -8.975 -10.919  1.00  0.00     0.268 C 
ATOM     59  O   UNL     1      -5.330  -9.664 -10.788  1.00  0.00    -0.268 OA
ATOM     60  N   UNL     1      -3.151  -9.438 -11.460  1.00  0.00    -0.339 N 
ATOM     61  H   UNL     1      -2.362  -8.806 -11.525  1.00  0.00     0.164 HD
BRANCH  60  62
ATOM     62  C   UNL     1      -2.998 -10.815 -11.927  1.00  0.00     0.168 CG0
ATOM     63  C   UNL     1      -1.710 -11.432 -11.397  1.00  0.00     0.041 C 
ATOM     64  G   UNL     1      -3.022 -10.843 -13.469  1.00  0.00     0.000 G0
ENDBRANCH  60  62
ENDBRANCH  56  58
ENDBRANCH  54  56
ENDBRANCH  52  54
ENDBRANCH  51  52
ENDBRANCH  50  51
ENDBRANCH  49  50
BRANCH  49  65
ATOM     65  C   UNL     1      -3.964 -10.931  -7.189  1.00  0.00     0.326 C 
ATOM     66  O   UNL     1      -4.686 -11.885  -6.938  1.00  0.00    -0.250 OA
BRANCH  65  67
ATOM     67  O   UNL     1      -3.532 -10.731  -8.454  1.00  0.00    -0.480 OA
ATOM     68  H   UNL     1      -2.592 -11.010  -8.424  1.00  0.00     0.296 HD
ENDBRANCH  65  67
ENDBRANCH  49  65
ENDBRANCH  47  49
ENDBRANCH  43  45
ENDBRANCH   1  43
BRANCH   1  69
ATOM     69  C   UNL     1      -4.401  -8.230  -1.591  1.00  0.00    -0.001 C 
ATOM     70  C   UNL     1      -4.197  -6.932  -1.880  1.00  0.00     0.001 C 
BRANCH  70  71
ATOM     71  C   UNL     1      -3.010  -6.137  -1.562  1.00  0.00    -0.055 C 
ATOM     72  C   UNL     1      -2.697  -5.969  -0.260  1.00  0.00    -0.018 C 
ATOM     73  C   UNL     1      -2.218  -5.568  -2.710  1.00  0.00     0.044 C 
BRANCH  72  74
ATOM     74  C   UNL     1      -1.536  -5.206   0.361  1.00  0.00     0.038 C 
ATOM     75  C   UNL     1      -0.262  -6.012   0.080  1.00  0.00     0.015 C 
BRANCH  74  76
ATOM     76  C   UNL     1      -1.841  -4.972   1.870  1.00  0.00     0.128 C 
BRANCH  76  77
ATOM     77  O   UNL     1      -0.620  -5.002   2.628  1.00  0.00    -0.381 OA
ATOM     78  C   UNL     1      -0.621  -4.126   3.748  1.00  0.00     0.195 C 
ENDBRANCH  76  77
BRANCH  76  79
ATOM     79  C   UNL     1      -2.690  -3.706   2.152  1.00  0.00     0.068 C 
BRANCH  79  80
ATOM     80  C   UNL     1      -4.034  -3.890   2.814  1.00  0.00    -0.045 A 
ATOM     81  C   UNL     1      -4.299  -5.011   3.611  1.00  0.00     0.004 A 
ATOM     82  C   UNL     1      -5.055  -2.947   2.615  1.00  0.00     0.004 A 
ATOM     83  C   UNL     1      -5.550  -5.180   4.209  1.00  0.00     0.000 A 
ATOM     84  C   UNL     1      -6.306  -3.118   3.213  1.00  0.00     0.000 A 
ATOM     85  C   UNL     1      -6.553  -4.233   4.010  1.00  0.00     0.000 A 
ENDBRANCH  79  80
ENDBRANCH  76  79
ENDBRANCH  74  76
ENDBRANCH  72  74
ENDBRANCH  70  71
ENDBRANCH   1  69
TORSDOF 17
ENDMDL
MODEL 10
REMARK VINA RESULT:    -5.974      1.940      3.508
REMARK INTER + INTRA:         -26.167
REMARK INTER:                 -18.128
REMARK INTRA:                  -8.039
REMARK UNBOUND:                -8.320
REMARK SMILES C=C1C(=O)N[C@H](C)C(=O)N[C@@H](CC(C)C)C(=O)N[C@@H](C(=O)O)[C@H](C)C(=O)N[C@@H](CCCN=C(N)N)C(=O)N[C@@H](/C=C/C(C)=C/[C@H](C)[C@H](Cc2ccccc2)OC)[C@H](C)C(=O)N[C@@H](C(=O)O)CCC(=O)N1C
REMARK SMILES IDX 39 1 38 2 37 3 36 4 28 6 27 7 25 8 26 9 23 11 24 12 19 13
REMARK SMILES IDX 18 14 16 15 17 16 11 18 10 19 8 20 9 21 12 24 13 25 14 26
REMARK SMILES IDX 15 27 20 28 21 29 22 30 29 32 30 33 31 34 32 35 33 36 34 37
REMARK SMILES IDX 35 38 57 43 58 44 59 45 60 46 61 47 62 49 66 50 67 51 68 52
REMARK SMILES IDX 69 53 70 54 71 55 2 56 1 57 3 58 4 59 5 60 6 62 7 63 63 65
REMARK SMILES IDX 64 66 65 67 40 69 41 70 42 71 44 72 43 73 45 74 46 75 47 76
REMARK SMILES IDX 55 77 56 78 48 79 49 80 50 81 54 82 51 83 53 84 52 85
REMARK H PARENT 38 5 27 10 18 17 10 22 22 31 34 39 34 40 35 41 35 42 61 48
REMARK H PARENT 5 61 65 68
REMARK Flexibility Score:  369.900
ROOT
ATOM      1  C   UNL     1      -0.971  -6.262   0.349  1.00  0.00     0.117 C 
ENDROOT
BRANCH   1   2
ATOM      2  N   UNL     1      -1.707  -6.988  -0.687  1.00  0.00    -0.347 N 
ATOM      3  O   UNL     1      -1.424  -5.474  -2.389  1.00  0.00    -0.273 OA
ATOM      4  C   UNL     1      -1.797  -6.577  -2.003  1.00  0.00     0.243 C 
ATOM      5  H   UNL     1      -2.141  -7.869  -0.459  1.00  0.00     0.164 HD
BRANCH   4   6
ATOM      6  C   UNL     1      -2.561  -7.570  -2.914  1.00  0.00     0.171 C 
BRANCH   6   7
ATOM      7  N   UNL     1      -2.056  -7.494  -4.295  1.00  0.00    -0.344 N 
ATOM      8  C   UNL     1      -2.798  -6.884  -5.282  1.00  0.00     0.226 C 
ATOM      9  O   UNL     1      -3.905  -6.402  -5.073  1.00  0.00    -0.275 OA
ATOM     10  H   UNL     1      -1.176  -7.941  -4.520  1.00  0.00     0.164 HD
BRANCH   8  11
ATOM     11  C   UNL     1      -2.118  -6.838  -6.639  1.00  0.00     0.109 C 
ATOM     12  C   UNL     1      -0.605  -6.982  -6.473  1.00  0.00     0.021 C 
BRANCH  11  13
ATOM     13  C   UNL     1      -2.767  -7.870  -7.583  1.00  0.00     0.204 C 
BRANCH  13  14
ATOM     14  N   UNL     1      -4.155  -8.162  -7.209  1.00  0.00    -0.340 N 
ATOM     15  C   UNL     1      -4.699  -9.426  -7.286  1.00  0.00     0.243 C 
ATOM     16  O   UNL     1      -4.040 -10.410  -7.616  1.00  0.00    -0.273 OA
ATOM     17  H   UNL     1      -4.793  -7.374  -7.074  1.00  0.00     0.164 HD
BRANCH  15  18
ATOM     18  C   UNL     1      -6.228  -9.456  -7.042  1.00  0.00     0.171 C 
BRANCH  18  19
ATOM     19  N   UNL     1      -6.851  -9.760  -8.329  1.00  0.00    -0.343 N 
ATOM     20  C   UNL     1      -6.789  -8.883  -9.394  1.00  0.00     0.242 CG0
ATOM     21  O   UNL     1      -6.324  -7.752  -9.270  1.00  0.00    -0.273 OA
ATOM     22  H   UNL     1      -7.349 -10.636  -8.446  1.00  0.00     0.164 HD
ATOM     23  G   UNL     1      -7.436  -9.410 -10.691  1.00  0.00     0.000 G0
ENDBRANCH  18  19
BRANCH  18  24
ATOM     24  C   UNL     1      -6.587 -10.505  -5.982  1.00  0.00     0.038 C 
BRANCH  24  25
ATOM     25  C   UNL     1      -6.710  -9.954  -4.546  1.00  0.00    -0.015 C 
ATOM     26  C   UNL     1      -7.975 -10.442  -3.838  1.00  0.00     0.007 C 
ATOM     27  C   UNL     1      -6.697  -8.423  -4.579  1.00  0.00     0.007 C 
ENDBRANCH  24  25
ENDBRANCH  18  24
ENDBRANCH  15  18
ENDBRANCH  13  14
BRANCH  13  28
ATOM     28  C   UNL     1      -2.776  -7.425  -9.049  1.00  0.00     0.327 C 
ATOM     29  O   UNL     1      -2.474  -6.318  -9.470  1.00  0.00    -0.250 OA
BRANCH  28  30
ATOM     30  O   UNL     1      -3.278  -8.359  -9.882  1.00  0.00    -0.480 OA
ATOM     31  H   UNL     1      -3.706  -9.008  -9.286  1.00  0.00     0.296 HD
ENDBRANCH  28  30
ENDBRANCH  13  28
ENDBRANCH  11  13
ENDBRANCH   8  11
ENDBRANCH   6   7
BRANCH   6  32
ATOM     32  C   UNL     1      -2.408  -8.988  -2.353  1.00  0.00     0.037 C 
BRANCH  32  33
ATOM     33  C   UNL     1      -3.718  -9.786  -2.430  1.00  0.00     0.026 C 
BRANCH  33  34
ATOM     34  C   UNL     1      -4.797  -9.230  -1.501  1.00  0.00     0.146 C 
BRANCH  34  35
ATOM     35  N   UNL     1      -4.199  -8.944  -0.204  1.00  0.00    -0.254 NA
ATOM     36  C   UNL     1      -4.504  -9.690   0.792  1.00  0.00     0.185 C 
ATOM     37  N   UNL     1      -3.955  -9.439   1.990  1.00  0.00    -0.370 N 
ATOM     38  N   UNL     1      -5.335 -10.747   0.831  1.00  0.00    -0.370 N 
ATOM     39  H   UNL     1      -3.308  -8.662   2.039  1.00  0.00     0.159 HD
ATOM     40  H   UNL     1      -4.006 -10.073   2.769  1.00  0.00     0.159 HD
ATOM     41  H   UNL     1      -5.601 -11.168   1.707  1.00  0.00     0.159 HD
ATOM     42  H   UNL     1      -5.831 -11.041   0.004  1.00  0.00     0.159 HD
ENDBRANCH  34  35
ENDBRANCH  33  34
ENDBRANCH  32  33
ENDBRANCH   6  32
ENDBRANCH   4   6
ENDBRANCH   1   2
BRANCH   1  43
ATOM     43  C   UNL     1       0.158  -7.184   0.893  1.00  0.00     0.102 C 
ATOM     44  C   UNL     1       1.281  -7.444  -0.126  1.00  0.00     0.020 C 
BRANCH  43  45
ATOM     45  C   UNL     1      -0.424  -8.458   1.515  1.00  0.00     0.225 C 
ATOM     46  O   UNL     1      -1.010  -9.316   0.861  1.00  0.00    -0.275 OA
ATOM     47  N   UNL     1      -0.332  -8.543   2.885  1.00  0.00    -0.342 N 
ATOM     48  H   UNL     1       0.279  -7.914   3.386  1.00  0.00     0.164 HD
BRANCH  47  49
ATOM     49  C   UNL     1      -0.814  -9.721   3.613  1.00  0.00     0.192 C 
BRANCH  49  50
ATOM     50  C   UNL     1      -1.387  -9.291   4.966  1.00  0.00     0.047 C 
BRANCH  50  51
ATOM     51  C   UNL     1      -2.677 -10.044   5.318  1.00  0.00     0.103 C 
BRANCH  51  52
ATOM     52  C   UNL     1      -2.554 -10.807   6.635  1.00  0.00     0.226 C 
ATOM     53  O   UNL     1      -1.720 -10.451   7.471  1.00  0.00    -0.275 OA
BRANCH  52  54
ATOM     54  N   UNL     1      -3.479 -11.847   6.846  1.00  0.00    -0.311 N 
ATOM     55  C   UNL     1      -3.342 -13.132   6.149  1.00  0.00     0.153 C 
BRANCH  54  56
ATOM     56  C   UNL     1      -4.559 -11.699   7.732  1.00  0.00     0.102 C 
ATOM     57  C   UNL     1      -5.479 -10.723   7.665  1.00  0.00     0.043 C 
BRANCH  56  58
ATOM     58  C   UNL     1      -4.793 -12.696   8.842  1.00  0.00     0.268 C 
ATOM     59  O   UNL     1      -5.780 -13.417   8.897  1.00  0.00    -0.268 OA
ATOM     60  N   UNL     1      -3.757 -12.755   9.743  1.00  0.00    -0.339 N 
ATOM     61  H   UNL     1      -2.979 -12.116   9.633  1.00  0.00     0.164 HD
BRANCH  60  62
ATOM     62  C   UNL     1      -3.749 -13.698  10.861  1.00  0.00     0.168 CG0
ATOM     63  C   UNL     1      -4.354 -13.069  12.110  1.00  0.00     0.041 C 
ATOM     64  G   UNL     1      -2.305 -14.168  11.131  1.00  0.00     0.000 G0
ENDBRANCH  60  62
ENDBRANCH  56  58
ENDBRANCH  54  56
ENDBRANCH  52  54
ENDBRANCH  51  52
ENDBRANCH  50  51
ENDBRANCH  49  50
BRANCH  49  65
ATOM     65  C   UNL     1       0.308 -10.746   3.839  1.00  0.00     0.326 C 
ATOM     66  O   UNL     1       0.756 -11.082   4.925  1.00  0.00    -0.250 OA
BRANCH  65  67
ATOM     67  O   UNL     1       0.849 -11.248   2.707  1.00  0.00    -0.480 OA
ATOM     68  H   UNL     1       1.711 -10.784   2.636  1.00  0.00     0.296 HD
ENDBRANCH  65  67
ENDBRANCH  49  65
ENDBRANCH  47  49
ENDBRANCH  43  45
ENDBRANCH   1  43
BRANCH   1  69
ATOM     69  C   UNL     1      -2.013  -5.730   1.316  1.00  0.00    -0.001 C 
ATOM     70  C   UNL     1      -2.293  -4.444   1.589  1.00  0.00     0.001 C 
BRANCH  70  71
ATOM     71  C   UNL     1      -3.316  -3.942   2.509  1.00  0.00    -0.055 C 
ATOM     72  C   UNL     1      -4.573  -4.412   2.366  1.00  0.00    -0.018 C 
ATOM     73  C   UNL     1      -2.893  -2.944   3.555  1.00  0.00     0.044 C 
BRANCH  72  74
ATOM     74  C   UNL     1      -5.824  -4.079   3.167  1.00  0.00     0.038 C 
ATOM     75  C   UNL     1      -5.844  -2.558   3.362  1.00  0.00     0.015 C 
BRANCH  74  76
ATOM     76  C   UNL     1      -5.809  -4.906   4.486  1.00  0.00     0.128 C 
BRANCH  76  77
ATOM     77  O   UNL     1      -7.154  -5.228   4.879  1.00  0.00    -0.381 OA
ATOM     78  C   UNL     1      -7.354  -6.608   5.152  1.00  0.00     0.195 C 
ENDBRANCH  76  77
BRANCH  76  79
ATOM     79  C   UNL     1      -4.884  -6.149   4.440  1.00  0.00     0.068 C 
BRANCH  79  80
ATOM     80  C   UNL     1      -3.911  -6.349   5.576  1.00  0.00    -0.045 A 
ATOM     81  C   UNL     1      -2.609  -5.836   5.511  1.00  0.00     0.004 A 
ATOM     82  C   UNL     1      -4.291  -7.082   6.711  1.00  0.00     0.004 A 
ATOM     83  C   UNL     1      -1.710  -6.038   6.560  1.00  0.00     0.000 A 
ATOM     84  C   UNL     1      -3.391  -7.284   7.760  1.00  0.00     0.000 A 
ATOM     85  C   UNL     1      -2.102  -6.760   7.685  1.00  0.00     0.000 A 
ENDBRANCH  79  80
ENDBRANCH  76  79
ENDBRANCH  74  76
ENDBRANCH  72  74
ENDBRANCH  70  71
ENDBRANCH   1  69
TORSDOF 17
ENDMDL
MODEL 11
REMARK VINA RESULT:    -5.956      2.850     11.924
REMARK INTER + INTRA:         -26.115
REMARK INTER:                 -19.266
REMARK INTRA:                  -6.849
REMARK UNBOUND:                -8.320
REMARK SMILES C=C1C(=O)N[C@H](C)C(=O)N[C@@H](CC(C)C)C(=O)N[C@@H](C(=O)O)[C@H](C)C(=O)N[C@@H](CCCN=C(N)N)C(=O)N[C@@H](/C=C/C(C)=C/[C@H](C)[C@H](Cc2ccccc2)OC)[C@H](C)C(=O)N[C@@H](C(=O)O)CCC(=O)N1C
REMARK SMILES IDX 39 1 38 2 37 3 36 4 28 6 27 7 25 8 26 9 23 11 24 12 19 13
REMARK SMILES IDX 18 14 16 15 17 16 11 18 10 19 8 20 9 21 12 24 13 25 14 26
REMARK SMILES IDX 15 27 20 28 21 29 22 30 29 32 30 33 31 34 32 35 33 36 34 37
REMARK SMILES IDX 35 38 57 43 58 44 59 45 60 46 61 47 62 49 66 50 67 51 68 52
REMARK SMILES IDX 69 53 70 54 71 55 2 56 1 57 3 58 4 59 5 60 6 62 7 63 63 65
REMARK SMILES IDX 64 66 65 67 40 69 41 70 42 71 44 72 43 73 45 74 46 75 47 76
REMARK SMILES IDX 55 77 56 78 48 79 49 80 50 81 54 82 51 83 53 84 52 85
REMARK H PARENT 38 5 27 10 18 17 10 22 22 31 34 39 34 40 35 41 35 42 61 48
REMARK H PARENT 5 61 65 68
REMARK Flexibility Score:  369.900
ROOT
ATOM      1  C   UNL     1      -4.734 -10.568   0.113  1.00  0.00     0.117 C 
ENDROOT
BRANCH   1   2
ATOM      2  N   UNL     1      -4.253 -10.839   1.468  1.00  0.00    -0.347 N 
ATOM      3  O   UNL     1      -6.214 -10.423   2.586  1.00  0.00    -0.273 OA
ATOM      4  C   UNL     1      -5.059 -10.833   2.590  1.00  0.00     0.243 C 
ATOM      5  H   UNL     1      -3.288 -11.096   1.607  1.00  0.00     0.164 HD
BRANCH   4   6
ATOM      6  C   UNL     1      -4.318 -11.238   3.890  1.00  0.00     0.171 C 
BRANCH   6   7
ATOM      7  N   UNL     1      -3.891 -10.041   4.632  1.00  0.00    -0.344 N 
ATOM      8  C   UNL     1      -2.724  -9.388   4.301  1.00  0.00     0.226 C 
ATOM      9  O   UNL     1      -1.983  -9.774   3.404  1.00  0.00    -0.275 OA
ATOM     10  H   UNL     1      -4.442  -9.731   5.423  1.00  0.00     0.164 HD
BRANCH   8  11
ATOM     11  C   UNL     1      -2.449  -8.141   5.122  1.00  0.00     0.109 C 
ATOM     12  C   UNL     1      -3.377  -7.007   4.683  1.00  0.00     0.021 C 
BRANCH  11  13
ATOM     13  C   UNL     1      -2.509  -8.482   6.625  1.00  0.00     0.204 C 
BRANCH  13  14
ATOM     14  N   UNL     1      -1.289  -9.152   7.087  1.00  0.00    -0.340 N 
ATOM     15  C   UNL     1      -1.221 -10.509   7.316  1.00  0.00     0.243 C 
ATOM     16  O   UNL     1      -2.164 -11.265   7.089  1.00  0.00    -0.273 OA
ATOM     17  H   UNL     1      -0.524  -8.568   7.436  1.00  0.00     0.164 HD
BRANCH  15  18
ATOM     18  C   UNL     1       0.096 -10.957   7.995  1.00  0.00     0.171 C 
BRANCH  18  19
ATOM     19  N   UNL     1      -0.254 -12.031   8.921  1.00  0.00    -0.343 N 
ATOM     20  C   UNL     1       0.521 -12.323  10.027  1.00  0.00     0.242 CG0
ATOM     21  O   UNL     1       1.609 -11.782  10.210  1.00  0.00    -0.273 OA
ATOM     22  H   UNL     1      -1.086 -12.585   8.748  1.00  0.00     0.164 HD
ATOM     23  G   UNL     1      -0.050 -13.436  10.929  1.00  0.00     0.000 G0
ENDBRANCH  18  19
BRANCH  18  24
ATOM     24  C   UNL     1       1.113 -11.427   6.948  1.00  0.00     0.038 C 
BRANCH  24  25
ATOM     25  C   UNL     1       2.275 -10.444   6.691  1.00  0.00    -0.015 C 
ATOM     26  C   UNL     1       2.426 -10.089   5.211  1.00  0.00     0.007 C 
ATOM     27  C   UNL     1       3.583 -11.045   7.212  1.00  0.00     0.007 C 
ENDBRANCH  24  25
ENDBRANCH  18  24
ENDBRANCH  15  18
ENDBRANCH  13  14
BRANCH  13  28
ATOM     28  C   UNL     1      -2.717  -7.253   7.515  1.00  0.00     0.327 C 
ATOM     29  O   UNL     1      -1.883  -6.401   7.777  1.00  0.00    -0.250 OA
BRANCH  28  30
ATOM     30  O   UNL     1      -3.924  -7.235   8.116  1.00  0.00    -0.480 OA
ATOM     31  H   UNL     1      -4.496  -6.738   7.495  1.00  0.00     0.296 HD
ENDBRANCH  28  30
ENDBRANCH  13  28
ENDBRANCH  11  13
ENDBRANCH   8  11
ENDBRANCH   6   7
BRANCH   6  32
ATOM     32  C   UNL     1      -5.244 -12.110   4.746  1.00  0.00     0.037 C 
BRANCH  32  33
ATOM     33  C   UNL     1      -5.541 -11.475   6.111  1.00  0.00     0.026 C 
BRANCH  33  34
ATOM     34  C   UNL     1      -6.860 -10.702   6.122  1.00  0.00     0.146 C 
BRANCH  34  35
ATOM     35  N   UNL     1      -6.732  -9.567   7.026  1.00  0.00    -0.254 NA
ATOM     36  C   UNL     1      -6.979  -8.393   6.576  1.00  0.00     0.185 C 
ATOM     37  N   UNL     1      -6.869  -7.340   7.401  1.00  0.00    -0.370 N 
ATOM     38  N   UNL     1      -7.353  -8.024   5.339  1.00  0.00    -0.370 N 
ATOM     39  H   UNL     1      -6.600  -7.538   8.357  1.00  0.00     0.159 HD
ATOM     40  H   UNL     1      -7.209  -6.421   7.178  1.00  0.00     0.159 HD
ATOM     41  H   UNL     1      -7.382  -7.054   5.071  1.00  0.00     0.159 HD
ATOM     42  H   UNL     1      -7.460  -8.711   4.609  1.00  0.00     0.159 HD
ENDBRANCH  34  35
ENDBRANCH  33  34
ENDBRANCH  32  33
ENDBRANCH   6  32
ENDBRANCH   4   6
ENDBRANCH   1   2
BRANCH   1  43
ATOM     43  C   UNL     1      -4.151 -11.647  -0.845  1.00  0.00     0.102 C 
ATOM     44  C   UNL     1      -2.632 -11.521  -1.055  1.00  0.00     0.020 C 
BRANCH  43  45
ATOM     45  C   UNL     1      -4.954 -11.719  -2.147  1.00  0.00     0.225 C 
ATOM     46  O   UNL     1      -4.615 -12.404  -3.107  1.00  0.00    -0.275 OA
ATOM     47  N   UNL     1      -6.047 -10.886  -2.216  1.00  0.00    -0.342 N 
ATOM     48  H   UNL     1      -6.397 -10.449  -1.374  1.00  0.00     0.164 HD
BRANCH  47  49
ATOM     49  C   UNL     1      -6.929 -10.874  -3.386  1.00  0.00     0.192 C 
BRANCH  49  50
ATOM     50  C   UNL     1      -7.042  -9.448  -3.931  1.00  0.00     0.047 C 
BRANCH  50  51
ATOM     51  C   UNL     1      -5.888  -8.552  -3.460  1.00  0.00     0.103 C 
BRANCH  51  52
ATOM     52  C   UNL     1      -5.166  -7.885  -4.629  1.00  0.00     0.226 C 
ATOM     53  O   UNL     1      -5.814  -7.251  -5.464  1.00  0.00    -0.275 OA
BRANCH  52  54
ATOM     54  N   UNL     1      -3.762  -7.978  -4.634  1.00  0.00    -0.311 N 
ATOM     55  C   UNL     1      -3.070  -9.012  -3.853  1.00  0.00     0.153 C 
BRANCH  54  56
ATOM     56  C   UNL     1      -2.972  -7.094  -5.388  1.00  0.00     0.102 C 
ATOM     57  C   UNL     1      -2.451  -5.945  -4.926  1.00  0.00     0.043 C 
BRANCH  56  58
ATOM     58  C   UNL     1      -2.602  -7.411  -6.817  1.00  0.00     0.268 C 
ATOM     59  O   UNL     1      -1.543  -7.935  -7.134  1.00  0.00    -0.268 OA
ATOM     60  N   UNL     1      -3.601  -7.113  -7.713  1.00  0.00    -0.339 N 
ATOM     61  H   UNL     1      -4.446  -6.670  -7.371  1.00  0.00     0.164 HD
BRANCH  60  62
ATOM     62  C   UNL     1      -3.477  -7.398  -9.142  1.00  0.00     0.168 CG0
ATOM     63  C   UNL     1      -2.664  -6.319  -9.846  1.00  0.00     0.041 C 
ATOM     64  G   UNL     1      -4.881  -7.520  -9.768  1.00  0.00     0.000 G0
ENDBRANCH  60  62
ENDBRANCH  56  58
ENDBRANCH  54  56
ENDBRANCH  52  54
ENDBRANCH  51  52
ENDBRANCH  50  51
ENDBRANCH  49  50
BRANCH  49  65
ATOM     65  C   UNL     1      -8.332 -11.401  -3.045  1.00  0.00     0.326 C 
ATOM     66  O   UNL     1      -8.680 -12.572  -3.084  1.00  0.00    -0.250 OA
BRANCH  65  67
ATOM     67  O   UNL     1      -9.233 -10.443  -2.734  1.00  0.00    -0.480 OA
ATOM     68  H   UNL     1      -9.897 -10.918  -2.188  1.00  0.00     0.296 HD
ENDBRANCH  65  67
ENDBRANCH  49  65
ENDBRANCH  47  49
ENDBRANCH  43  45
ENDBRANCH   1  43
BRANCH   1  69
ATOM     69  C   UNL     1      -4.434  -9.106  -0.160  1.00  0.00    -0.001 C 
ATOM     70  C   UNL     1      -3.484  -8.346   0.415  1.00  0.00     0.001 C 
BRANCH  70  71
ATOM     71  C   UNL     1      -3.190  -6.941   0.128  1.00  0.00    -0.055 C 
ATOM     72  C   UNL     1      -2.728  -6.177   1.141  1.00  0.00    -0.018 C 
ATOM     73  C   UNL     1      -3.415  -6.448  -1.278  1.00  0.00     0.044 C 
BRANCH  72  74
ATOM     74  C   UNL     1      -2.339  -4.705   1.137  1.00  0.00     0.038 C 
ATOM     75  C   UNL     1      -0.978  -4.598   0.440  1.00  0.00     0.015 C 
BRANCH  74  76
ATOM     76  C   UNL     1      -2.366  -4.177   2.602  1.00  0.00     0.128 C 
BRANCH  76  77
ATOM     77  O   UNL     1      -1.033  -3.850   3.030  1.00  0.00    -0.381 OA
ATOM     78  C   UNL     1      -0.659  -4.467   4.255  1.00  0.00     0.195 C 
ENDBRANCH  76  77
BRANCH  76  79
ATOM     79  C   UNL     1      -3.371  -3.022   2.836  1.00  0.00     0.068 C 
BRANCH  79  80
ATOM     80  C   UNL     1      -4.773  -3.381   3.267  1.00  0.00    -0.045 A 
ATOM     81  C   UNL     1      -5.024  -4.537   4.017  1.00  0.00     0.004 A 
ATOM     82  C   UNL     1      -5.856  -2.570   2.894  1.00  0.00     0.004 A 
ATOM     83  C   UNL     1      -6.325  -4.869   4.399  1.00  0.00     0.000 A 
ATOM     84  C   UNL     1      -7.157  -2.904   3.277  1.00  0.00     0.000 A 
ATOM     85  C   UNL     1      -7.392  -4.052   4.030  1.00  0.00     0.000 A 
ENDBRANCH  79  80
ENDBRANCH  76  79
ENDBRANCH  74  76
ENDBRANCH  72  74
ENDBRANCH  70  71
ENDBRANCH   1  69
TORSDOF 17
ENDMDL
MODEL 12
REMARK VINA RESULT:    -5.907      4.495      7.438
REMARK INTER + INTRA:         -25.969
REMARK INTER:                 -19.423
REMARK INTRA:                  -6.546
REMARK UNBOUND:                -8.320
REMARK SMILES C=C1C(=O)N[C@H](C)C(=O)N[C@@H](CC(C)C)C(=O)N[C@@H](C(=O)O)[C@H](C)C(=O)N[C@@H](CCCN=C(N)N)C(=O)N[C@@H](/C=C/C(C)=C/[C@H](C)[C@H](Cc2ccccc2)OC)[C@H](C)C(=O)N[C@@H](C(=O)O)CCC(=O)N1C
REMARK SMILES IDX 39 1 38 2 37 3 36 4 28 6 27 7 25 8 26 9 23 11 24 12 19 13
REMARK SMILES IDX 18 14 16 15 17 16 11 18 10 19 8 20 9 21 12 24 13 25 14 26
REMARK SMILES IDX 15 27 20 28 21 29 22 30 29 32 30 33 31 34 32 35 33 36 34 37
REMARK SMILES IDX 35 38 57 43 58 44 59 45 60 46 61 47 62 49 66 50 67 51 68 52
REMARK SMILES IDX 69 53 70 54 71 55 2 56 1 57 3 58 4 59 5 60 6 62 7 63 63 65
REMARK SMILES IDX 64 66 65 67 40 69 41 70 42 71 44 72 43 73 45 74 46 75 47 76
REMARK SMILES IDX 55 77 56 78 48 79 49 80 50 81 54 82 51 83 53 84 52 85
REMARK H PARENT 38 5 27 10 18 17 10 22 22 31 34 39 34 40 35 41 35 42 61 48
REMARK H PARENT 5 61 65 68
REMARK Flexibility Score:  369.900
ROOT
ATOM      1  C   UNL     1      -3.282  -5.063   1.680  1.00  0.00     0.117 C 
ENDROOT
BRANCH   1   2
ATOM      2  N   UNL     1      -2.772  -6.153   0.848  1.00  0.00    -0.347 N 
ATOM      3  O   UNL     1      -4.091  -5.785  -0.994  1.00  0.00    -0.273 OA
ATOM      4  C   UNL     1      -3.154  -6.371  -0.462  1.00  0.00     0.243 C 
ATOM      5  H   UNL     1      -2.060  -6.766   1.217  1.00  0.00     0.164 HD
BRANCH   4   6
ATOM      6  C   UNL     1      -2.399  -7.539  -1.146  1.00  0.00     0.171 C 
BRANCH   6   7
ATOM      7  N   UNL     1      -3.255  -8.184  -2.154  1.00  0.00    -0.344 N 
ATOM      8  C   UNL     1      -3.156  -9.537  -2.398  1.00  0.00     0.226 C 
ATOM      9  O   UNL     1      -2.351 -10.255  -1.817  1.00  0.00    -0.275 OA
ATOM     10  H   UNL     1      -3.885  -7.612  -2.702  1.00  0.00     0.164 HD
BRANCH   8  11
ATOM     11  C   UNL     1      -4.144 -10.061  -3.425  1.00  0.00     0.109 C 
ATOM     12  C   UNL     1      -5.111 -11.047  -2.770  1.00  0.00     0.021 C 
BRANCH  11  13
ATOM     13  C   UNL     1      -4.816  -8.880  -4.153  1.00  0.00     0.204 C 
BRANCH  13  14
ATOM     14  N   UNL     1      -4.765  -9.028  -5.610  1.00  0.00    -0.340 N 
ATOM     15  C   UNL     1      -4.496  -7.977  -6.460  1.00  0.00     0.243 C 
ATOM     16  O   UNL     1      -4.220  -6.851  -6.051  1.00  0.00    -0.273 OA
ATOM     17  H   UNL     1      -5.130  -9.892  -6.019  1.00  0.00     0.164 HD
BRANCH  15  18
ATOM     18  C   UNL     1      -4.700  -8.323  -7.956  1.00  0.00     0.171 C 
BRANCH  18  19
ATOM     19  N   UNL     1      -3.421  -8.081  -8.620  1.00  0.00    -0.343 N 
ATOM     20  C   UNL     1      -3.240  -7.025  -9.492  1.00  0.00     0.242 CG0
ATOM     21  O   UNL     1      -4.180  -6.320  -9.852  1.00  0.00    -0.273 OA
ATOM     22  H   UNL     1      -2.643  -8.707  -8.444  1.00  0.00     0.164 HD
ATOM     23  G   UNL     1      -1.802  -6.884 -10.033  1.00  0.00     0.000 G0
ENDBRANCH  18  19
BRANCH  18  24
ATOM     24  C   UNL     1      -5.151  -9.780  -8.118  1.00  0.00     0.038 C 
BRANCH  24  25
ATOM     25  C   UNL     1      -6.314  -9.988  -9.110  1.00  0.00    -0.015 C 
ATOM     26  C   UNL     1      -6.984  -8.673  -9.511  1.00  0.00     0.007 C 
ATOM     27  C   UNL     1      -7.353 -10.929  -8.496  1.00  0.00     0.007 C 
ENDBRANCH  24  25
ENDBRANCH  18  24
ENDBRANCH  15  18
ENDBRANCH  13  14
BRANCH  13  28
ATOM     28  C   UNL     1      -6.286  -8.692  -3.767  1.00  0.00     0.327 C 
ATOM     29  O   UNL     1      -7.254  -9.130  -4.371  1.00  0.00    -0.250 OA
BRANCH  28  30
ATOM     30  O   UNL     1      -6.456  -7.866  -2.715  1.00  0.00    -0.480 OA
ATOM     31  H   UNL     1      -5.905  -7.085  -2.930  1.00  0.00     0.296 HD
ENDBRANCH  28  30
ENDBRANCH  13  28
ENDBRANCH  11  13
ENDBRANCH   8  11
ENDBRANCH   6   7
BRANCH   6  32
ATOM     32  C   UNL     1      -1.113  -7.002  -1.783  1.00  0.00     0.037 C 
BRANCH  32  33
ATOM     33  C   UNL     1      -1.316  -5.624  -2.426  1.00  0.00     0.026 C 
BRANCH  33  34
ATOM     34  C   UNL     1      -1.622  -5.715  -3.922  1.00  0.00     0.146 C 
BRANCH  34  35
ATOM     35  N   UNL     1      -1.232  -7.034  -4.401  1.00  0.00    -0.254 NA
ATOM     36  C   UNL     1      -0.970  -7.183  -5.646  1.00  0.00     0.185 C 
ATOM     37  N   UNL     1      -0.604  -8.392  -6.098  1.00  0.00    -0.370 N 
ATOM     38  N   UNL     1      -1.003  -6.268  -6.631  1.00  0.00    -0.370 N 
ATOM     39  H   UNL     1      -0.546  -9.134  -5.412  1.00  0.00     0.159 HD
ATOM     40  H   UNL     1      -0.218  -8.551  -7.013  1.00  0.00     0.159 HD
ATOM     41  H   UNL     1      -0.911  -6.538  -7.597  1.00  0.00     0.159 HD
ATOM     42  H   UNL     1      -1.277  -5.317  -6.439  1.00  0.00     0.159 HD
ENDBRANCH  34  35
ENDBRANCH  33  34
ENDBRANCH  32  33
ENDBRANCH   6  32
ENDBRANCH   4   6
ENDBRANCH   1   2
BRANCH   1  43
ATOM     43  C   UNL     1      -2.148  -4.016   1.875  1.00  0.00     0.102 C 
ATOM     44  C   UNL     1      -0.979  -4.190   0.891  1.00  0.00     0.020 C 
BRANCH  43  45
ATOM     45  C   UNL     1      -1.718  -3.938   3.343  1.00  0.00     0.225 C 
ATOM     46  O   UNL     1      -2.240  -3.180   4.156  1.00  0.00    -0.275 OA
ATOM     47  N   UNL     1      -0.633  -4.713   3.685  1.00  0.00    -0.342 N 
ATOM     48  H   UNL     1      -0.316  -5.436   3.054  1.00  0.00     0.164 HD
BRANCH  47  49
ATOM     49  C   UNL     1      -0.133  -4.766   5.062  1.00  0.00     0.192 C 
BRANCH  49  50
ATOM     50  C   UNL     1       1.365  -5.084   5.053  1.00  0.00     0.047 C 
BRANCH  50  51
ATOM     51  C   UNL     1       2.215  -3.898   5.527  1.00  0.00     0.103 C 
BRANCH  51  52
ATOM     52  C   UNL     1       3.636  -4.320   5.892  1.00  0.00     0.226 C 
ATOM     53  O   UNL     1       4.017  -5.465   5.639  1.00  0.00    -0.275 OA
BRANCH  52  54
ATOM     54  N   UNL     1       4.465  -3.324   6.441  1.00  0.00    -0.311 N 
ATOM     55  C   UNL     1       4.715  -3.260   7.887  1.00  0.00     0.153 C 
BRANCH  54  56
ATOM     56  C   UNL     1       5.087  -2.360   5.630  1.00  0.00     0.102 C 
ATOM     57  C   UNL     1       5.507  -2.570   4.371  1.00  0.00     0.043 C 
BRANCH  56  58
ATOM     58  C   UNL     1       5.294  -0.948   6.124  1.00  0.00     0.268 C 
ATOM     59  O   UNL     1       4.379  -0.151   6.278  1.00  0.00    -0.268 OA
ATOM     60  N   UNL     1       6.602  -0.675   6.446  1.00  0.00    -0.339 N 
ATOM     61  H   UNL     1       7.304  -1.386   6.279  1.00  0.00     0.164 HD
BRANCH  60  62
ATOM     62  C   UNL     1       7.015   0.613   7.002  1.00  0.00     0.168 CG0
ATOM     63  C   UNL     1       7.361   1.602   5.896  1.00  0.00     0.041 C 
ATOM     64  G   UNL     1       8.218   0.407   7.945  1.00  0.00     0.000 G0
ENDBRANCH  60  62
ENDBRANCH  56  58
ENDBRANCH  54  56
ENDBRANCH  52  54
ENDBRANCH  51  52
ENDBRANCH  50  51
ENDBRANCH  49  50
BRANCH  49  65
ATOM     65  C   UNL     1      -0.873  -5.825   5.893  1.00  0.00     0.326 C 
ATOM     66  O   UNL     1      -1.729  -5.596   6.736  1.00  0.00    -0.250 OA
BRANCH  65  67
ATOM     67  O   UNL     1      -0.469  -7.096   5.677  1.00  0.00    -0.480 OA
ATOM     68  H   UNL     1      -0.302  -7.124   4.710  1.00  0.00     0.296 HD
ENDBRANCH  65  67
ENDBRANCH  49  65
ENDBRANCH  47  49
ENDBRANCH  43  45
ENDBRANCH   1  43
BRANCH   1  69
ATOM     69  C   UNL     1      -3.896  -5.717   2.905  1.00  0.00    -0.001 C 
ATOM     70  C   UNL     1      -4.972  -5.304   3.599  1.00  0.00     0.001 C 
BRANCH  70  71
ATOM     71  C   UNL     1      -5.568  -5.955   4.767  1.00  0.00    -0.055 C 
ATOM     72  C   UNL     1      -4.820  -6.863   5.429  1.00  0.00    -0.018 C 
ATOM     73  C   UNL     1      -6.969  -5.560   5.152  1.00  0.00     0.044 C 
BRANCH  72  74
ATOM     74  C   UNL     1      -5.170  -7.684   6.662  1.00  0.00     0.038 C 
ATOM     75  C   UNL     1      -4.413  -7.070   7.845  1.00  0.00     0.015 C 
BRANCH  74  76
ATOM     76  C   UNL     1      -4.837  -9.179   6.379  1.00  0.00     0.128 C 
BRANCH  76  77
ATOM     77  O   UNL     1      -5.314 -10.001   7.458  1.00  0.00    -0.381 OA
ATOM     78  C   UNL     1      -4.486 -11.124   7.729  1.00  0.00     0.195 C 
ENDBRANCH  76  77
BRANCH  76  79
ATOM     79  C   UNL     1      -5.312  -9.678   4.991  1.00  0.00     0.068 C 
BRANCH  79  80
ATOM     80  C   UNL     1      -4.307  -9.698   3.865  1.00  0.00    -0.045 A 
ATOM     81  C   UNL     1      -2.931  -9.740   4.126  1.00  0.00     0.004 A 
ATOM     82  C   UNL     1      -4.738  -9.647   2.531  1.00  0.00     0.004 A 
ATOM     83  C   UNL     1      -2.007  -9.744   3.079  1.00  0.00     0.000 A 
ATOM     84  C   UNL     1      -3.813  -9.651   1.484  1.00  0.00     0.000 A 
ATOM     85  C   UNL     1      -2.449  -9.701   1.759  1.00  0.00     0.000 A 
ENDBRANCH  79  80
ENDBRANCH  76  79
ENDBRANCH  74  76
ENDBRANCH  72  74
ENDBRANCH  70  71
ENDBRANCH   1  69
TORSDOF 17
ENDMDL
MODEL 13
REMARK VINA RESULT:    -5.897      2.650     12.058
REMARK INTER + INTRA:         -25.937
REMARK INTER:                 -19.408
REMARK INTRA:                  -6.529
REMARK UNBOUND:                -8.320
REMARK SMILES C=C1C(=O)N[C@H](C)C(=O)N[C@@H](CC(C)C)C(=O)N[C@@H](C(=O)O)[C@H](C)C(=O)N[C@@H](CCCN=C(N)N)C(=O)N[C@@H](/C=C/C(C)=C/[C@H](C)[C@H](Cc2ccccc2)OC)[C@H](C)C(=O)N[C@@H](C(=O)O)CCC(=O)N1C
REMARK SMILES IDX 39 1 38 2 37 3 36 4 28 6 27 7 25 8 26 9 23 11 24 12 19 13
REMARK SMILES IDX 18 14 16 15 17 16 11 18 10 19 8 20 9 21 12 24 13 25 14 26
REMARK SMILES IDX 15 27 20 28 21 29 22 30 29 32 30 33 31 34 32 35 33 36 34 37
REMARK SMILES IDX 35 38 57 43 58 44 59 45 60 46 61 47 62 49 66 50 67 51 68 52
REMARK SMILES IDX 69 53 70 54 71 55 2 56 1 57 3 58 4 59 5 60 6 62 7 63 63 65
REMARK SMILES IDX 64 66 65 67 40 69 41 70 42 71 44 72 43 73 45 74 46 75 47 76
REMARK SMILES IDX 55 77 56 78 48 79 49 80 50 81 54 82 51 83 53 84 52 85
REMARK H PARENT 38 5 27 10 18 17 10 22 22 31 34 39 34 40 35 41 35 42 61 48
REMARK H PARENT 5 61 65 68
REMARK Flexibility Score:  369.900
ROOT
ATOM      1  C   UNL     1      -6.111  -8.438  -2.711  1.00  0.00     0.117 C 
ENDROOT
BRANCH   1   2
ATOM      2  N   UNL     1      -6.027  -9.824  -2.248  1.00  0.00    -0.347 N 
ATOM      3  O   UNL     1      -3.938 -10.304  -3.070  1.00  0.00    -0.273 OA
ATOM      4  C   UNL     1      -4.906 -10.619  -2.386  1.00  0.00     0.243 C 
ATOM      5  H   UNL     1      -6.807 -10.227  -1.751  1.00  0.00     0.164 HD
BRANCH   4   6
ATOM      6  C   UNL     1      -5.050 -12.017  -1.732  1.00  0.00     0.171 C 
BRANCH   6   7
ATOM      7  N   UNL     1      -5.620 -11.897  -0.381  1.00  0.00    -0.344 N 
ATOM      8  C   UNL     1      -4.872 -12.225   0.729  1.00  0.00     0.226 C 
ATOM      9  O   UNL     1      -3.724 -12.646   0.651  1.00  0.00    -0.275 OA
ATOM     10  H   UNL     1      -6.587 -11.617  -0.280  1.00  0.00     0.164 HD
BRANCH   8  11
ATOM     11  C   UNL     1      -5.582 -11.995   2.052  1.00  0.00     0.109 C 
ATOM     12  C   UNL     1      -5.171 -13.067   3.062  1.00  0.00     0.021 C 
BRANCH  11  13
ATOM     13  C   UNL     1      -5.357 -10.543   2.519  1.00  0.00     0.204 C 
BRANCH  13  14
ATOM     14  N   UNL     1      -4.962 -10.473   3.930  1.00  0.00    -0.340 N 
ATOM     15  C   UNL     1      -5.653  -9.732   4.864  1.00  0.00     0.243 C 
ATOM     16  O   UNL     1      -6.687  -9.125   4.591  1.00  0.00    -0.273 OA
ATOM     17  H   UNL     1      -4.037 -10.826   4.188  1.00  0.00     0.164 HD
BRANCH  15  18
ATOM     18  C   UNL     1      -4.936  -9.639   6.233  1.00  0.00     0.171 C 
BRANCH  18  19
ATOM     19  N   UNL     1      -4.513 -10.996   6.577  1.00  0.00    -0.343 N 
ATOM     20  C   UNL     1      -4.699 -11.519   7.842  1.00  0.00     0.242 CG0
ATOM     21  O   UNL     1      -5.105 -10.825   8.771  1.00  0.00    -0.273 OA
ATOM     22  H   UNL     1      -4.066 -11.570   5.872  1.00  0.00     0.164 HD
ATOM     23  G   UNL     1      -4.261 -12.990   7.993  1.00  0.00     0.000 G0
ENDBRANCH  18  19
BRANCH  18  24
ATOM     24  C   UNL     1      -3.742  -8.681   6.156  1.00  0.00     0.038 C 
BRANCH  24  25
ATOM     25  C   UNL     1      -3.577  -7.756   7.381  1.00  0.00    -0.015 C 
ATOM     26  C   UNL     1      -4.884  -7.069   7.776  1.00  0.00     0.007 C 
ATOM     27  C   UNL     1      -2.508  -6.700   7.089  1.00  0.00     0.007 C 
ENDBRANCH  24  25
ENDBRANCH  18  24
ENDBRANCH  15  18
ENDBRANCH  13  14
BRANCH  13  28
ATOM     28  C   UNL     1      -4.283  -9.808   1.710  1.00  0.00     0.327 C 
ATOM     29  O   UNL     1      -4.456  -9.201   0.665  1.00  0.00    -0.250 OA
BRANCH  28  30
ATOM     30  O   UNL     1      -3.040  -9.981   2.202  1.00  0.00    -0.480 OA
ATOM     31  H   UNL     1      -2.910 -10.953   2.194  1.00  0.00     0.296 HD
ENDBRANCH  28  30
ENDBRANCH  13  28
ENDBRANCH  11  13
ENDBRANCH   8  11
ENDBRANCH   6   7
BRANCH   6  32
ATOM     32  C   UNL     1      -5.932 -12.901  -2.622  1.00  0.00     0.037 C 
BRANCH  32  33
ATOM     33  C   UNL     1      -7.285 -13.212  -1.969  1.00  0.00     0.026 C 
BRANCH  33  34
ATOM     34  C   UNL     1      -8.466 -12.723  -2.808  1.00  0.00     0.146 C 
BRANCH  34  35
ATOM     35  N   UNL     1      -9.653 -12.674  -1.965  1.00  0.00    -0.254 NA
ATOM     36  C   UNL     1     -10.381 -11.620  -1.989  1.00  0.00     0.185 C 
ATOM     37  N   UNL     1     -11.479 -11.566  -1.220  1.00  0.00    -0.370 N 
ATOM     38  N   UNL     1     -10.212 -10.493  -2.703  1.00  0.00    -0.370 N 
ATOM     39  H   UNL     1     -11.681 -12.383  -0.658  1.00  0.00     0.159 HD
ATOM     40  H   UNL     1     -12.187 -10.858  -1.310  1.00  0.00     0.159 HD
ATOM     41  H   UNL     1     -10.776  -9.677  -2.530  1.00  0.00     0.159 HD
ATOM     42  H   UNL     1      -9.416 -10.387  -3.313  1.00  0.00     0.159 HD
ENDBRANCH  34  35
ENDBRANCH  33  34
ENDBRANCH  32  33
ENDBRANCH   6  32
ENDBRANCH   4   6
ENDBRANCH   1   2
BRANCH   1  43
ATOM     43  C   UNL     1      -6.625  -8.437  -4.180  1.00  0.00     0.102 C 
ATOM     44  C   UNL     1      -7.257  -9.773  -4.608  1.00  0.00     0.020 C 
BRANCH  43  45
ATOM     45  C   UNL     1      -5.547  -7.924  -5.140  1.00  0.00     0.225 C 
ATOM     46  O   UNL     1      -5.618  -6.839  -5.710  1.00  0.00    -0.275 OA
ATOM     47  N   UNL     1      -4.522  -8.804  -5.404  1.00  0.00    -0.342 N 
ATOM     48  H   UNL     1      -4.399  -9.618  -4.819  1.00  0.00     0.164 HD
BRANCH  47  49
ATOM     49  C   UNL     1      -3.403  -8.435  -6.276  1.00  0.00     0.192 C 
BRANCH  49  50
ATOM     50  C   UNL     1      -2.985  -9.645  -7.116  1.00  0.00     0.047 C 
BRANCH  50  51
ATOM     51  C   UNL     1      -2.159  -9.243  -8.345  1.00  0.00     0.103 C 
BRANCH  51  52
ATOM     52  C   UNL     1      -2.873  -8.198  -9.200  1.00  0.00     0.226 C 
ATOM     53  O   UNL     1      -2.481  -7.030  -9.190  1.00  0.00    -0.275 OA
BRANCH  52  54
ATOM     54  N   UNL     1      -3.914  -8.667 -10.023  1.00  0.00    -0.311 N 
ATOM     55  C   UNL     1      -3.734  -9.857 -10.866  1.00  0.00     0.153 C 
BRANCH  54  56
ATOM     56  C   UNL     1      -5.161  -8.022 -10.066  1.00  0.00     0.102 C 
ATOM     57  C   UNL     1      -5.957  -7.818  -9.004  1.00  0.00     0.043 C 
BRANCH  56  58
ATOM     58  C   UNL     1      -5.693  -7.450 -11.359  1.00  0.00     0.268 C 
ATOM     59  O   UNL     1      -5.020  -6.761 -12.113  1.00  0.00    -0.268 OA
ATOM     60  N   UNL     1      -6.984  -7.836 -11.629  1.00  0.00    -0.339 N 
ATOM     61  H   UNL     1      -7.477  -8.399 -10.947  1.00  0.00     0.164 HD
BRANCH  60  62
ATOM     62  C   UNL     1      -7.672  -7.446 -12.859  1.00  0.00     0.168 CG0
ATOM     63  C   UNL     1      -8.480  -8.607 -13.425  1.00  0.00     0.041 C 
ATOM     64  G   UNL     1      -6.642  -6.943 -13.891  1.00  0.00     0.000 G0
ENDBRANCH  60  62
ENDBRANCH  56  58
ENDBRANCH  54  56
ENDBRANCH  52  54
ENDBRANCH  51  52
ENDBRANCH  50  51
ENDBRANCH  49  50
BRANCH  49  65
ATOM     65  C   UNL     1      -2.195  -7.937  -5.467  1.00  0.00     0.326 C 
ATOM     66  O   UNL     1      -1.474  -6.998  -5.773  1.00  0.00    -0.250 OA
BRANCH  65  67
ATOM     67  O   UNL     1      -1.916  -8.665  -4.364  1.00  0.00    -0.480 OA
ATOM     68  H   UNL     1      -1.923  -9.590  -4.689  1.00  0.00     0.296 HD
ENDBRANCH  65  67
ENDBRANCH  49  65
ENDBRANCH  47  49
ENDBRANCH  43  45
ENDBRANCH   1  43
BRANCH   1  69
ATOM     69  C   UNL     1      -4.765  -7.807  -2.405  1.00  0.00    -0.001 C 
ATOM     70  C   UNL     1      -4.534  -6.616  -1.825  1.00  0.00     0.001 C 
BRANCH  70  71
ATOM     71  C   UNL     1      -3.230  -6.027  -1.515  1.00  0.00    -0.055 C 
ATOM     72  C   UNL     1      -2.874  -5.937  -0.216  1.00  0.00    -0.018 C 
ATOM     73  C   UNL     1      -2.374  -5.570  -2.667  1.00  0.00     0.044 C 
BRANCH  72  74
ATOM     74  C   UNL     1      -1.597  -5.381   0.397  1.00  0.00     0.038 C 
ATOM     75  C   UNL     1      -0.512  -6.452   0.230  1.00  0.00     0.015 C 
BRANCH  74  76
ATOM     76  C   UNL     1      -1.886  -4.969   1.870  1.00  0.00     0.128 C 
BRANCH  76  77
ATOM     77  O   UNL     1      -0.661  -4.601   2.527  1.00  0.00    -0.381 OA
ATOM     78  C   UNL     1      -0.448  -5.277   3.759  1.00  0.00     0.195 C 
ENDBRANCH  76  77
BRANCH  76  79
ATOM     79  C   UNL     1      -2.992  -3.894   2.018  1.00  0.00     0.068 C 
BRANCH  79  80
ATOM     80  C   UNL     1      -4.198  -4.230   2.862  1.00  0.00    -0.045 A 
ATOM     81  C   UNL     1      -4.235  -5.400   3.633  1.00  0.00     0.004 A 
ATOM     82  C   UNL     1      -5.317  -3.385   2.865  1.00  0.00     0.004 A 
ATOM     83  C   UNL     1      -5.360  -5.711   4.401  1.00  0.00     0.000 A 
ATOM     84  C   UNL     1      -6.441  -3.697   3.633  1.00  0.00     0.000 A 
ATOM     85  C   UNL     1      -6.462  -4.859   4.401  1.00  0.00     0.000 A 
ENDBRANCH  79  80
ENDBRANCH  76  79
ENDBRANCH  74  76
ENDBRANCH  72  74
ENDBRANCH  70  71
ENDBRANCH   1  69
TORSDOF 17
ENDMDL
MODEL 14
REMARK VINA RESULT:    -5.897      4.610      7.034
REMARK INTER + INTRA:         -25.936
REMARK INTER:                 -19.637
REMARK INTRA:                  -6.299
REMARK UNBOUND:                -8.320
REMARK SMILES C=C1C(=O)N[C@H](C)C(=O)N[C@@H](CC(C)C)C(=O)N[C@@H](C(=O)O)[C@H](C)C(=O)N[C@@H](CCCN=C(N)N)C(=O)N[C@@H](/C=C/C(C)=C/[C@H](C)[C@H](Cc2ccccc2)OC)[C@H](C)C(=O)N[C@@H](C(=O)O)CCC(=O)N1C
REMARK SMILES IDX 39 1 38 2 37 3 36 4 28 6 27 7 25 8 26 9 23 11 24 12 19 13
REMARK SMILES IDX 18 14 16 15 17 16 11 18 10 19 8 20 9 21 12 24 13 25 14 26
REMARK SMILES IDX 15 27 20 28 21 29 22 30 29 32 30 33 31 34 32 35 33 36 34 37
REMARK SMILES IDX 35 38 57 43 58 44 59 45 60 46 61 47 62 49 66 50 67 51 68 52
REMARK SMILES IDX 69 53 70 54 71 55 2 56 1 57 3 58 4 59 5 60 6 62 7 63 63 65
REMARK SMILES IDX 64 66 65 67 40 69 41 70 42 71 44 72 43 73 45 74 46 75 47 76
REMARK SMILES IDX 55 77 56 78 48 79 49 80 50 81 54 82 51 83 53 84 52 85
REMARK H PARENT 38 5 27 10 18 17 10 22 22 31 34 39 34 40 35 41 35 42 61 48
REMARK H PARENT 5 61 65 68
REMARK Flexibility Score:  369.900
ROOT
ATOM      1  C   UNL     1      -2.408  -6.075   0.932  1.00  0.00     0.117 C 
ENDROOT
BRANCH   1   2
ATOM      2  N   UNL     1      -2.372  -7.018  -0.187  1.00  0.00    -0.347 N 
ATOM      3  O   UNL     1      -4.024  -6.058  -1.459  1.00  0.00    -0.273 OA
ATOM      4  C   UNL     1      -3.122  -6.881  -1.339  1.00  0.00     0.243 C 
ATOM      5  H   UNL     1      -1.730  -7.796  -0.157  1.00  0.00     0.164 HD
BRANCH   4   6
ATOM      6  C   UNL     1      -2.832  -7.968  -2.404  1.00  0.00     0.171 C 
BRANCH   6   7
ATOM      7  N   UNL     1      -2.438  -7.347  -3.679  1.00  0.00    -0.344 N 
ATOM      8  C   UNL     1      -3.323  -7.282  -4.733  1.00  0.00     0.226 C 
ATOM      9  O   UNL     1      -4.455  -7.748  -4.674  1.00  0.00    -0.275 OA
ATOM     10  H   UNL     1      -1.489  -7.011  -3.788  1.00  0.00     0.164 HD
BRANCH   8  11
ATOM     11  C   UNL     1      -2.786  -6.563  -5.958  1.00  0.00     0.109 C 
ATOM     12  C   UNL     1      -1.364  -6.069  -5.696  1.00  0.00     0.021 C 
BRANCH  11  13
ATOM     13  C   UNL     1      -2.941  -7.464  -7.200  1.00  0.00     0.204 C 
BRANCH  13  14
ATOM     14  N   UNL     1      -2.953  -8.888  -6.851  1.00  0.00    -0.340 N 
ATOM     15  C   UNL     1      -2.556  -9.876  -7.725  1.00  0.00     0.243 C 
ATOM     16  O   UNL     1      -2.104  -9.628  -8.842  1.00  0.00    -0.273 OA
ATOM     17  H   UNL     1      -3.454  -9.171  -6.005  1.00  0.00     0.164 HD
BRANCH  15  18
ATOM     18  C   UNL     1      -2.851 -11.308  -7.216  1.00  0.00     0.171 C 
BRANCH  18  19
ATOM     19  N   UNL     1      -4.218 -11.624  -7.625  1.00  0.00    -0.343 N 
ATOM     20  C   UNL     1      -5.190 -11.978  -6.708  1.00  0.00     0.242 CG0
ATOM     21  O   UNL     1      -4.918 -12.172  -5.526  1.00  0.00    -0.273 OA
ATOM     22  H   UNL     1      -4.463 -11.591  -8.608  1.00  0.00     0.164 HD
ATOM     23  G   UNL     1      -6.590 -12.198  -7.317  1.00  0.00     0.000 G0
ENDBRANCH  18  19
BRANCH  18  24
ATOM     24  C   UNL     1      -1.845 -12.308  -7.798  1.00  0.00     0.038 C 
BRANCH  24  25
ATOM     25  C   UNL     1      -0.913 -12.965  -6.757  1.00  0.00    -0.015 C 
ATOM     26  C   UNL     1      -1.142 -12.427  -5.345  1.00  0.00     0.007 C 
ATOM     27  C   UNL     1       0.547 -12.745  -7.162  1.00  0.00     0.007 C 
ENDBRANCH  24  25
ENDBRANCH  18  24
ENDBRANCH  15  18
ENDBRANCH  13  14
BRANCH  13  28
ATOM     28  C   UNL     1      -4.218  -7.180  -7.996  1.00  0.00     0.327 C 
ATOM     29  O   UNL     1      -5.360  -7.437  -7.645  1.00  0.00    -0.250 OA
BRANCH  28  30
ATOM     30  O   UNL     1      -3.976  -6.701  -9.232  1.00  0.00    -0.480 OA
ATOM     31  H   UNL     1      -4.866  -6.544  -9.609  1.00  0.00     0.296 HD
ENDBRANCH  28  30
ENDBRANCH  13  28
ENDBRANCH  11  13
ENDBRANCH   8  11
ENDBRANCH   6   7
BRANCH   6  32
ATOM     32  C   UNL     1      -1.732  -8.901  -1.886  1.00  0.00     0.037 C 
BRANCH  32  33
ATOM     33  C   UNL     1      -2.286 -10.262  -1.443  1.00  0.00     0.026 C 
BRANCH  33  34
ATOM     34  C   UNL     1      -2.964 -11.018  -2.587  1.00  0.00     0.146 C 
BRANCH  34  35
ATOM     35  N   UNL     1      -4.176 -11.647  -2.081  1.00  0.00    -0.254 NA
ATOM     36  C   UNL     1      -5.310 -11.157  -2.420  1.00  0.00     0.185 C 
ATOM     37  N   UNL     1      -6.433 -11.732  -1.964  1.00  0.00    -0.370 N 
ATOM     38  N   UNL     1      -5.571 -10.098  -3.206  1.00  0.00    -0.370 N 
ATOM     39  H   UNL     1      -6.319 -12.545  -1.372  1.00  0.00     0.159 HD
ATOM     40  H   UNL     1      -7.350 -11.520  -2.318  1.00  0.00     0.159 HD
ATOM     41  H   UNL     1      -6.504  -9.726  -3.285  1.00  0.00     0.159 HD
ATOM     42  H   UNL     1      -4.820  -9.559  -3.607  1.00  0.00     0.159 HD
ENDBRANCH  34  35
ENDBRANCH  33  34
ENDBRANCH  32  33
ENDBRANCH   6  32
ENDBRANCH   4   6
ENDBRANCH   1   2
BRANCH   1  43
ATOM     43  C   UNL     1      -0.976  -5.507   1.148  1.00  0.00     0.102 C 
ATOM     44  C   UNL     1       0.136  -6.541   0.899  1.00  0.00     0.020 C 
BRANCH  43  45
ATOM     45  C   UNL     1      -0.866  -4.790   2.496  1.00  0.00     0.225 C 
ATOM     46  O   UNL     1      -1.508  -3.780   2.773  1.00  0.00    -0.275 OA
ATOM     47  N   UNL     1       0.077  -5.295   3.361  1.00  0.00    -0.342 N 
ATOM     48  H   UNL     1       0.482  -6.204   3.185  1.00  0.00     0.164 HD
BRANCH  47  49
ATOM     49  C   UNL     1       0.268  -4.732   4.701  1.00  0.00     0.192 C 
BRANCH  49  50
ATOM     50  C   UNL     1       1.724  -4.919   5.135  1.00  0.00     0.047 C 
BRANCH  50  51
ATOM     51  C   UNL     1       2.390  -3.593   5.528  1.00  0.00     0.103 C 
BRANCH  51  52
ATOM     52  C   UNL     1       3.880  -3.763   5.817  1.00  0.00     0.226 C 
ATOM     53  O   UNL     1       4.290  -4.816   6.307  1.00  0.00    -0.275 OA
BRANCH  52  54
ATOM     54  N   UNL     1       4.719  -2.704   5.423  1.00  0.00    -0.311 N 
ATOM     55  C   UNL     1       5.395  -2.719   4.119  1.00  0.00     0.153 C 
BRANCH  54  56
ATOM     56  C   UNL     1       4.938  -1.594   6.256  1.00  0.00     0.102 C 
ATOM     57  C   UNL     1       4.282  -0.425   6.167  1.00  0.00     0.043 C 
BRANCH  56  58
ATOM     58  C   UNL     1       5.937  -1.659   7.387  1.00  0.00     0.268 C 
ATOM     59  O   UNL     1       6.836  -2.488   7.440  1.00  0.00    -0.268 OA
ATOM     60  N   UNL     1       5.773  -0.655   8.311  1.00  0.00    -0.339 N 
ATOM     61  H   UNL     1       4.996  -0.013   8.201  1.00  0.00     0.164 HD
BRANCH  60  62
ATOM     62  C   UNL     1       6.671  -0.493   9.454  1.00  0.00     0.168 CG0
ATOM     63  C   UNL     1       6.579   0.916  10.027  1.00  0.00     0.041 C 
ATOM     64  G   UNL     1       8.117  -0.815   9.025  1.00  0.00     0.000 G0
ENDBRANCH  60  62
ENDBRANCH  56  58
ENDBRANCH  54  56
ENDBRANCH  52  54
ENDBRANCH  51  52
ENDBRANCH  50  51
ENDBRANCH  49  50
BRANCH  49  65
ATOM     65  C   UNL     1      -0.660  -5.394   5.732  1.00  0.00     0.326 C 
ATOM     66  O   UNL     1      -1.493  -4.815   6.413  1.00  0.00    -0.250 OA
BRANCH  65  67
ATOM     67  O   UNL     1      -0.459  -6.719   5.901  1.00  0.00    -0.480 OA
ATOM     68  H   UNL     1      -1.288  -7.123   5.565  1.00  0.00     0.296 HD
ENDBRANCH  65  67
ENDBRANCH  49  65
ENDBRANCH  47  49
ENDBRANCH  43  45
ENDBRANCH   1  43
BRANCH   1  69
ATOM     69  C   UNL     1      -3.089  -6.802   2.077  1.00  0.00    -0.001 C 
ATOM     70  C   UNL     1      -2.811  -8.032   2.545  1.00  0.00     0.001 C 
BRANCH  70  71
ATOM     71  C   UNL     1      -3.461  -8.715   3.665  1.00  0.00    -0.055 C 
ATOM     72  C   UNL     1      -4.808  -8.803   3.650  1.00  0.00    -0.018 C 
ATOM     73  C   UNL     1      -2.581  -9.278   4.751  1.00  0.00     0.044 C 
BRANCH  72  74
ATOM     74  C   UNL     1      -5.742  -9.449   4.663  1.00  0.00     0.038 C 
ATOM     75  C   UNL     1      -6.649 -10.414   3.891  1.00  0.00     0.015 C 
BRANCH  74  76
ATOM     76  C   UNL     1      -6.493  -8.326   5.439  1.00  0.00     0.128 C 
BRANCH  76  77
ATOM     77  O   UNL     1      -7.033  -8.852   6.663  1.00  0.00    -0.381 OA
ATOM     78  C   UNL     1      -6.182  -9.794   7.304  1.00  0.00     0.195 C 
ENDBRANCH  76  77
BRANCH  76  79
ATOM     79  C   UNL     1      -5.654  -7.042   5.657  1.00  0.00     0.068 C 
BRANCH  79  80
ATOM     80  C   UNL     1      -6.077  -5.789   4.928  1.00  0.00    -0.045 A 
ATOM     81  C   UNL     1      -5.207  -5.141   4.042  1.00  0.00     0.004 A 
ATOM     82  C   UNL     1      -7.347  -5.236   5.152  1.00  0.00     0.004 A 
ATOM     83  C   UNL     1      -5.601  -3.974   3.383  1.00  0.00     0.000 A 
ATOM     84  C   UNL     1      -7.740  -4.069   4.493  1.00  0.00     0.000 A 
ATOM     85  C   UNL     1      -6.868  -3.439   3.608  1.00  0.00     0.000 A 
ENDBRANCH  79  80
ENDBRANCH  76  79
ENDBRANCH  74  76
ENDBRANCH  72  74
ENDBRANCH  70  71
ENDBRANCH   1  69
TORSDOF 17
ENDMDL
MODEL 15
REMARK VINA RESULT:    -5.851      2.243     10.999
REMARK INTER + INTRA:         -25.801
REMARK INTER:                 -17.255
REMARK INTRA:                  -8.546
REMARK UNBOUND:                -8.320
REMARK SMILES C=C1C(=O)N[C@H](C)C(=O)N[C@@H](CC(C)C)C(=O)N[C@@H](C(=O)O)[C@H](C)C(=O)N[C@@H](CCCN=C(N)N)C(=O)N[C@@H](/C=C/C(C)=C/[C@H](C)[C@H](Cc2ccccc2)OC)[C@H](C)C(=O)N[C@@H](C(=O)O)CCC(=O)N1C
REMARK SMILES IDX 39 1 38 2 37 3 36 4 28 6 27 7 25 8 26 9 23 11 24 12 19 13
REMARK SMILES IDX 18 14 16 15 17 16 11 18 10 19 8 20 9 21 12 24 13 25 14 26
REMARK SMILES IDX 15 27 20 28 21 29 22 30 29 32 30 33 31 34 32 35 33 36 34 37
REMARK SMILES IDX 35 38 57 43 58 44 59 45 60 46 61 47 62 49 66 50 67 51 68 52
REMARK SMILES IDX 69 53 70 54 71 55 2 56 1 57 3 58 4 59 5 60 6 62 7 63 63 65
REMARK SMILES IDX 64 66 65 67 40 69 41 70 42 71 44 72 43 73 45 74 46 75 47 76
REMARK SMILES IDX 55 77 56 78 48 79 49 80 50 81 54 82 51 83 53 84 52 85
REMARK H PARENT 38 5 27 10 18 17 10 22 22 31 34 39 34 40 35 41 35 42 61 48
REMARK H PARENT 5 61 65 68
REMARK Flexibility Score:  369.900
ROOT
ATOM      1  C   UNL     1      -2.028  -6.045  -1.059  1.00  0.00     0.117 C 
ENDROOT
BRANCH   1   2
ATOM      2  N   UNL     1      -2.261  -7.485  -0.940  1.00  0.00    -0.347 N 
ATOM      3  O   UNL     1      -4.298  -7.561  -1.996  1.00  0.00    -0.273 OA
ATOM      4  C   UNL     1      -3.338  -8.143  -1.501  1.00  0.00     0.243 C 
ATOM      5  H   UNL     1      -1.580  -8.058  -0.466  1.00  0.00     0.164 HD
BRANCH   4   6
ATOM      6  C   UNL     1      -3.303  -9.680  -1.301  1.00  0.00     0.171 C 
BRANCH   6   7
ATOM      7  N   UNL     1      -2.478 -10.027  -0.133  1.00  0.00    -0.344 N 
ATOM      8  C   UNL     1      -1.521 -11.015  -0.217  1.00  0.00     0.226 C 
ATOM      9  O   UNL     1      -1.325 -11.659  -1.241  1.00  0.00    -0.275 OA
ATOM     10  H   UNL     1      -2.657  -9.564   0.750  1.00  0.00     0.164 HD
BRANCH   8  11
ATOM     11  C   UNL     1      -0.718 -11.218   1.056  1.00  0.00     0.109 C 
ATOM     12  C   UNL     1       0.778 -11.156   0.749  1.00  0.00     0.021 C 
BRANCH  11  13
ATOM     13  C   UNL     1      -1.199 -10.232   2.139  1.00  0.00     0.204 C 
BRANCH  13  14
ATOM     14  N   UNL     1      -1.878 -10.915   3.245  1.00  0.00    -0.340 N 
ATOM     15  C   UNL     1      -3.249 -11.025   3.328  1.00  0.00     0.243 C 
ATOM     16  O   UNL     1      -3.999 -10.609   2.447  1.00  0.00    -0.273 OA
ATOM     17  H   UNL     1      -1.328 -11.147   4.077  1.00  0.00     0.164 HD
BRANCH  15  18
ATOM     18  C   UNL     1      -3.743 -11.599   4.679  1.00  0.00     0.171 C 
BRANCH  18  19
ATOM     19  N   UNL     1      -3.141 -10.779   5.728  1.00  0.00    -0.343 N 
ATOM     20  C   UNL     1      -1.986 -11.163   6.382  1.00  0.00     0.242 CG0
ATOM     21  O   UNL     1      -1.486 -12.272   6.206  1.00  0.00    -0.273 OA
ATOM     22  H   UNL     1      -3.582  -9.905   5.990  1.00  0.00     0.164 HD
ATOM     23  G   UNL     1      -1.458 -10.133   7.400  1.00  0.00     0.000 G0
ENDBRANCH  18  19
BRANCH  18  24
ATOM     24  C   UNL     1      -5.274 -11.571   4.752  1.00  0.00     0.038 C 
BRANCH  24  25
ATOM     25  C   UNL     1      -5.868 -10.262   5.315  1.00  0.00    -0.015 C 
ATOM     26  C   UNL     1      -6.608 -10.475   6.636  1.00  0.00     0.007 C 
ATOM     27  C   UNL     1      -6.818  -9.644   4.286  1.00  0.00     0.007 C 
ENDBRANCH  24  25
ENDBRANCH  18  24
ENDBRANCH  15  18
ENDBRANCH  13  14
BRANCH  13  28
ATOM     28  C   UNL     1      -0.065  -9.402   2.747  1.00  0.00     0.327 C 
ATOM     29  O   UNL     1       0.696  -9.757   3.634  1.00  0.00    -0.250 OA
BRANCH  28  30
ATOM     30  O   UNL     1      -0.031  -8.135   2.285  1.00  0.00    -0.480 OA
ATOM     31  H   UNL     1       0.742  -7.735   2.735  1.00  0.00     0.296 HD
ENDBRANCH  28  30
ENDBRANCH  13  28
ENDBRANCH  11  13
ENDBRANCH   8  11
ENDBRANCH   6   7
BRANCH   6  32
ATOM     32  C   UNL     1      -4.735 -10.199  -1.134  1.00  0.00     0.037 C 
BRANCH  32  33
ATOM     33  C   UNL     1      -5.294 -10.785  -2.438  1.00  0.00     0.026 C 
BRANCH  33  34
ATOM     34  C   UNL     1      -4.296 -11.706  -3.141  1.00  0.00     0.146 C 
BRANCH  34  35
ATOM     35  N   UNL     1      -3.658 -10.969  -4.223  1.00  0.00    -0.254 NA
ATOM     36  C   UNL     1      -2.485 -11.322  -4.598  1.00  0.00     0.185 C 
ATOM     37  N   UNL     1      -1.889 -10.653  -5.597  1.00  0.00    -0.370 N 
ATOM     38  N   UNL     1      -1.709 -12.314  -4.125  1.00  0.00    -0.370 N 
ATOM     39  H   UNL     1      -2.415  -9.896  -6.014  1.00  0.00     0.159 HD
ATOM     40  H   UNL     1      -1.056 -10.972  -6.061  1.00  0.00     0.159 HD
ATOM     41  H   UNL     1      -0.747 -12.403  -4.409  1.00  0.00     0.159 HD
ATOM     42  H   UNL     1      -2.024 -12.890  -3.360  1.00  0.00     0.159 HD
ENDBRANCH  34  35
ENDBRANCH  33  34
ENDBRANCH  32  33
ENDBRANCH   6  32
ENDBRANCH   4   6
ENDBRANCH   1   2
BRANCH   1  43
ATOM     43  C   UNL     1      -0.865  -5.813  -2.065  1.00  0.00     0.102 C 
ATOM     44  C   UNL     1       0.146  -4.751  -1.598  1.00  0.00     0.020 C 
BRANCH  43  45
ATOM     45  C   UNL     1      -1.400  -5.580  -3.481  1.00  0.00     0.225 C 
ATOM     46  O   UNL     1      -1.354  -4.490  -4.045  1.00  0.00    -0.275 OA
ATOM     47  N   UNL     1      -2.030  -6.657  -4.061  1.00  0.00    -0.342 N 
ATOM     48  H   UNL     1      -1.926  -7.576  -3.654  1.00  0.00     0.164 HD
BRANCH  47  49
ATOM     49  C   UNL     1      -2.560  -6.591  -5.426  1.00  0.00     0.192 C 
BRANCH  49  50
ATOM     50  C   UNL     1      -3.737  -7.559  -5.568  1.00  0.00     0.047 C 
BRANCH  50  51
ATOM     51  C   UNL     1      -4.774  -7.069  -6.588  1.00  0.00     0.103 C 
BRANCH  51  52
ATOM     52  C   UNL     1      -5.282  -8.201  -7.479  1.00  0.00     0.226 C 
ATOM     53  O   UNL     1      -6.401  -8.678  -7.281  1.00  0.00    -0.275 OA
BRANCH  52  54
ATOM     54  N   UNL     1      -4.445  -8.585  -8.543  1.00  0.00    -0.311 N 
ATOM     55  C   UNL     1      -3.797  -9.903  -8.558  1.00  0.00     0.153 C 
BRANCH  54  56
ATOM     56  C   UNL     1      -4.203  -7.728  -9.630  1.00  0.00     0.102 C 
ATOM     57  C   UNL     1      -3.346  -6.694  -9.616  1.00  0.00     0.043 C 
BRANCH  56  58
ATOM     58  C   UNL     1      -4.886  -7.949 -10.959  1.00  0.00     0.268 C 
ATOM     59  O   UNL     1      -4.318  -8.425 -11.932  1.00  0.00    -0.268 OA
ATOM     60  N   UNL     1      -6.221  -7.624 -10.940  1.00  0.00    -0.339 N 
ATOM     61  H   UNL     1      -6.614  -7.225 -10.096  1.00  0.00     0.164 HD
BRANCH  60  62
ATOM     62  C   UNL     1      -7.087  -7.819 -12.103  1.00  0.00     0.168 CG0
ATOM     63  C   UNL     1      -7.956  -9.059 -11.935  1.00  0.00     0.041 C 
ATOM     64  G   UNL     1      -6.224  -7.926 -13.377  1.00  0.00     0.000 G0
ENDBRANCH  60  62
ENDBRANCH  56  58
ENDBRANCH  54  56
ENDBRANCH  52  54
ENDBRANCH  51  52
ENDBRANCH  50  51
ENDBRANCH  49  50
BRANCH  49  65
ATOM     65  C   UNL     1      -1.486  -6.939  -6.468  1.00  0.00     0.326 C 
ATOM     66  O   UNL     1      -1.353  -8.024  -7.017  1.00  0.00    -0.250 OA
BRANCH  65  67
ATOM     67  O   UNL     1      -0.606  -5.947  -6.724  1.00  0.00    -0.480 OA
ATOM     68  H   UNL     1      -0.030  -6.323  -7.424  1.00  0.00     0.296 HD
ENDBRANCH  65  67
ENDBRANCH  49  65
ENDBRANCH  47  49
ENDBRANCH  43  45
ENDBRANCH   1  43
BRANCH   1  69
ATOM     69  C   UNL     1      -1.889  -5.520   0.358  1.00  0.00    -0.001 C 
ATOM     70  C   UNL     1      -2.874  -5.134   1.188  1.00  0.00     0.001 C 
BRANCH  70  71
ATOM     71  C   UNL     1      -2.729  -4.649   2.562  1.00  0.00    -0.055 C 
ATOM     72  C   UNL     1      -2.046  -5.423   3.431  1.00  0.00    -0.018 C 
ATOM     73  C   UNL     1      -3.343  -3.317   2.905  1.00  0.00     0.044 C 
BRANCH  72  74
ATOM     74  C   UNL     1      -1.737  -5.178   4.901  1.00  0.00     0.038 C 
ATOM     75  C   UNL     1      -0.387  -4.452   4.965  1.00  0.00     0.015 C 
BRANCH  74  76
ATOM     76  C   UNL     1      -1.783  -6.539   5.657  1.00  0.00     0.128 C 
BRANCH  76  77
ATOM     77  O   UNL     1      -1.714  -6.315   7.075  1.00  0.00    -0.381 OA
ATOM     78  C   UNL     1      -1.457  -7.494   7.827  1.00  0.00     0.195 C 
ENDBRANCH  76  77
BRANCH  76  79
ATOM     79  C   UNL     1      -2.972  -7.445   5.249  1.00  0.00     0.068 C 
BRANCH  79  80
ATOM     80  C   UNL     1      -4.368  -6.966   5.569  1.00  0.00    -0.045 A 
ATOM     81  C   UNL     1      -4.910  -7.127   6.851  1.00  0.00     0.004 A 
ATOM     82  C   UNL     1      -5.158  -6.374   4.573  1.00  0.00     0.004 A 
ATOM     83  C   UNL     1      -6.207  -6.694   7.136  1.00  0.00     0.000 A 
ATOM     84  C   UNL     1      -6.456  -5.943   4.858  1.00  0.00     0.000 A 
ATOM     85  C   UNL     1      -6.979  -6.101   6.139  1.00  0.00     0.000 A 
ENDBRANCH  79  80
ENDBRANCH  76  79
ENDBRANCH  74  76
ENDBRANCH  72  74
ENDBRANCH  70  71
ENDBRANCH   1  69
TORSDOF 17
ENDMDL
MODEL 16
REMARK VINA RESULT:    -5.829      2.905      7.026
REMARK INTER + INTRA:         -25.734
REMARK INTER:                 -17.958
REMARK INTRA:                  -7.776
REMARK UNBOUND:                -8.320
REMARK SMILES C=C1C(=O)N[C@H](C)C(=O)N[C@@H](CC(C)C)C(=O)N[C@@H](C(=O)O)[C@H](C)C(=O)N[C@@H](CCCN=C(N)N)C(=O)N[C@@H](/C=C/C(C)=C/[C@H](C)[C@H](Cc2ccccc2)OC)[C@H](C)C(=O)N[C@@H](C(=O)O)CCC(=O)N1C
REMARK SMILES IDX 39 1 38 2 37 3 36 4 28 6 27 7 25 8 26 9 23 11 24 12 19 13
REMARK SMILES IDX 18 14 16 15 17 16 11 18 10 19 8 20 9 21 12 24 13 25 14 26
REMARK SMILES IDX 15 27 20 28 21 29 22 30 29 32 30 33 31 34 32 35 33 36 34 37
REMARK SMILES IDX 35 38 57 43 58 44 59 45 60 46 61 47 62 49 66 50 67 51 68 52
REMARK SMILES IDX 69 53 70 54 71 55 2 56 1 57 3 58 4 59 5 60 6 62 7 63 63 65
REMARK SMILES IDX 64 66 65 67 40 69 41 70 42 71 44 72 43 73 45 74 46 75 47 76
REMARK SMILES IDX 55 77 56 78 48 79 49 80 50 81 54 82 51 83 53 84 52 85
REMARK H PARENT 38 5 27 10 18 17 10 22 22 31 34 39 34 40 35 41 35 42 61 48
REMARK H PARENT 5 61 65 68
REMARK Flexibility Score:  369.900
ROOT
ATOM      1  C   UNL     1      -2.409  -8.848   5.720  1.00  0.00     0.117 C 
ENDROOT
BRANCH   1   2
ATOM      2  N   UNL     1      -1.699  -8.603   4.465  1.00  0.00    -0.347 N 
ATOM      3  O   UNL     1      -3.416  -7.589   3.328  1.00  0.00    -0.273 OA
ATOM      4  C   UNL     1      -2.234  -7.908   3.397  1.00  0.00     0.243 C 
ATOM      5  H   UNL     1      -0.742  -8.908   4.370  1.00  0.00     0.164 HD
BRANCH   4   6
ATOM      6  C   UNL     1      -1.243  -7.713   2.221  1.00  0.00     0.171 C 
BRANCH   6   7
ATOM      7  N   UNL     1      -1.960  -7.285   1.010  1.00  0.00    -0.344 N 
ATOM      8  C   UNL     1      -1.535  -7.687  -0.238  1.00  0.00     0.226 C 
ATOM      9  O   UNL     1      -0.545  -8.389  -0.403  1.00  0.00    -0.275 OA
ATOM     10  H   UNL     1      -2.743  -6.650   1.102  1.00  0.00     0.164 HD
BRANCH   8  11
ATOM     11  C   UNL     1      -2.411  -7.208  -1.382  1.00  0.00     0.109 C 
ATOM     12  C   UNL     1      -3.166  -5.944  -0.972  1.00  0.00     0.021 C 
BRANCH  11  13
ATOM     13  C   UNL     1      -1.566  -7.072  -2.664  1.00  0.00     0.204 C 
BRANCH  13  14
ATOM     14  N   UNL     1      -2.338  -7.389  -3.870  1.00  0.00    -0.340 N 
ATOM     15  C   UNL     1      -1.749  -7.715  -5.072  1.00  0.00     0.243 C 
ATOM     16  O   UNL     1      -0.530  -7.822  -5.203  1.00  0.00    -0.273 OA
ATOM     17  H   UNL     1      -3.339  -7.172  -3.871  1.00  0.00     0.164 HD
BRANCH  15  18
ATOM     18  C   UNL     1      -2.751  -7.804  -6.249  1.00  0.00     0.171 C 
BRANCH  18  19
ATOM     19  N   UNL     1      -1.963  -7.720  -7.477  1.00  0.00    -0.343 N 
ATOM     20  C   UNL     1      -2.474  -7.165  -8.635  1.00  0.00     0.242 CG0
ATOM     21  O   UNL     1      -3.656  -6.838  -8.724  1.00  0.00    -0.273 OA
ATOM     22  H   UNL     1      -1.017  -8.083  -7.487  1.00  0.00     0.164 HD
ATOM     23  G   UNL     1      -1.470  -7.092  -9.803  1.00  0.00     0.000 G0
ENDBRANCH  18  19
BRANCH  18  24
ATOM     24  C   UNL     1      -3.550  -9.111  -6.182  1.00  0.00     0.038 C 
BRANCH  24  25
ATOM     25  C   UNL     1      -5.047  -8.935  -5.850  1.00  0.00    -0.015 C 
ATOM     26  C   UNL     1      -5.957  -9.608  -6.877  1.00  0.00     0.007 C 
ATOM     27  C   UNL     1      -5.383  -7.443  -5.763  1.00  0.00     0.007 C 
ENDBRANCH  24  25
ENDBRANCH  18  24
ENDBRANCH  15  18
ENDBRANCH  13  14
BRANCH  13  28
ATOM     28  C   UNL     1      -0.981  -5.670  -2.856  1.00  0.00     0.327 C 
ATOM     29  O   UNL     1      -1.375  -4.824  -3.644  1.00  0.00    -0.250 OA
BRANCH  28  30
ATOM     30  O   UNL     1       0.136  -5.459  -2.130  1.00  0.00    -0.480 OA
ATOM     31  H   UNL     1      -0.108  -5.744  -1.225  1.00  0.00     0.296 HD
ENDBRANCH  28  30
ENDBRANCH  13  28
ENDBRANCH  11  13
ENDBRANCH   8  11
ENDBRANCH   6   7
BRANCH   6  32
ATOM     32  C   UNL     1      -0.182  -6.682   2.622  1.00  0.00     0.037 C 
BRANCH  32  33
ATOM     33  C   UNL     1      -0.696  -5.241   2.489  1.00  0.00     0.026 C 
BRANCH  33  34
ATOM     34  C   UNL     1      -0.767  -4.519   3.835  1.00  0.00     0.146 C 
BRANCH  34  35
ATOM     35  N   UNL     1      -2.164  -4.264   4.158  1.00  0.00    -0.254 NA
ATOM     36  C   UNL     1      -2.857  -3.539   3.361  1.00  0.00     0.185 C 
ATOM     37  N   UNL     1      -4.147  -3.302   3.647  1.00  0.00    -0.370 N 
ATOM     38  N   UNL     1      -2.478  -2.943   2.217  1.00  0.00    -0.370 N 
ATOM     39  H   UNL     1      -4.510  -3.727   4.491  1.00  0.00     0.159 HD
ATOM     40  H   UNL     1      -4.795  -2.896   2.995  1.00  0.00     0.159 HD
ATOM     41  H   UNL     1      -3.079  -2.283   1.750  1.00  0.00     0.159 HD
ATOM     42  H   UNL     1      -1.529  -3.023   1.887  1.00  0.00     0.159 HD
ENDBRANCH  34  35
ENDBRANCH  33  34
ENDBRANCH  32  33
ENDBRANCH   6  32
ENDBRANCH   4   6
ENDBRANCH   1   2
BRANCH   1  43
ATOM     43  C   UNL     1      -2.330  -7.562   6.593  1.00  0.00     0.102 C 
ATOM     44  C   UNL     1      -1.351  -7.682   7.773  1.00  0.00     0.020 C 
BRANCH  43  45
ATOM     45  C   UNL     1      -3.729  -7.083   6.992  1.00  0.00     0.225 C 
ATOM     46  O   UNL     1      -4.008  -6.697   8.124  1.00  0.00    -0.275 OA
ATOM     47  N   UNL     1      -4.695  -7.198   6.019  1.00  0.00    -0.342 N 
ATOM     48  H   UNL     1      -4.422  -7.369   5.061  1.00  0.00     0.164 HD
BRANCH  47  49
ATOM     49  C   UNL     1      -6.071  -6.745   6.248  1.00  0.00     0.192 C 
BRANCH  49  50
ATOM     50  C   UNL     1      -6.975  -7.954   6.498  1.00  0.00     0.047 C 
BRANCH  50  51
ATOM     51  C   UNL     1      -6.527  -9.190   5.707  1.00  0.00     0.103 C 
BRANCH  51  52
ATOM     52  C   UNL     1      -6.052 -10.317   6.623  1.00  0.00     0.226 C 
ATOM     53  O   UNL     1      -5.196 -10.087   7.480  1.00  0.00    -0.275 OA
BRANCH  52  54
ATOM     54  N   UNL     1      -6.696 -11.559   6.474  1.00  0.00    -0.311 N 
ATOM     55  C   UNL     1      -8.105 -11.637   6.068  1.00  0.00     0.153 C 
BRANCH  54  56
ATOM     56  C   UNL     1      -6.017 -12.768   6.702  1.00  0.00     0.102 C 
ATOM     57  C   UNL     1      -5.258 -13.406   5.796  1.00  0.00     0.043 C 
BRANCH  56  58
ATOM     58  C   UNL     1      -6.059 -13.437   8.055  1.00  0.00     0.268 C 
ATOM     59  O   UNL     1      -5.477 -12.999   9.038  1.00  0.00    -0.268 OA
ATOM     60  N   UNL     1      -6.868 -14.548   8.083  1.00  0.00    -0.339 N 
ATOM     61  H   UNL     1      -7.308 -14.853   7.223  1.00  0.00     0.164 HD
BRANCH  60  62
ATOM     62  C   UNL     1      -7.102 -15.311   9.309  1.00  0.00     0.168 CG0
ATOM     63  C   UNL     1      -8.583 -15.330   9.668  1.00  0.00     0.041 C 
ATOM     64  G   UNL     1      -6.269 -14.709  10.459  1.00  0.00     0.000 G0
ENDBRANCH  60  62
ENDBRANCH  56  58
ENDBRANCH  54  56
ENDBRANCH  52  54
ENDBRANCH  51  52
ENDBRANCH  50  51
ENDBRANCH  49  50
BRANCH  49  65
ATOM     65  C   UNL     1      -6.610  -5.945   5.051  1.00  0.00     0.326 C 
ATOM     66  O   UNL     1      -7.778  -5.628   4.877  1.00  0.00    -0.250 OA
BRANCH  65  67
ATOM     67  O   UNL     1      -5.685  -5.638   4.115  1.00  0.00    -0.480 OA
ATOM     68  H   UNL     1      -5.313  -6.511   3.863  1.00  0.00     0.296 HD
ENDBRANCH  65  67
ENDBRANCH  49  65
ENDBRANCH  47  49
ENDBRANCH  43  45
ENDBRANCH   1  43
BRANCH   1  69
ATOM     69  C   UNL     1      -1.851 -10.146   6.276  1.00  0.00    -0.001 C 
ATOM     70  C   UNL     1      -2.295 -11.394   6.038  1.00  0.00     0.001 C 
BRANCH  70  71
ATOM     71  C   UNL     1      -1.735 -12.641   6.563  1.00  0.00    -0.055 C 
ATOM     72  C   UNL     1      -2.161 -13.059   7.773  1.00  0.00    -0.018 C 
ATOM     73  C   UNL     1      -0.731 -13.373   5.712  1.00  0.00     0.044 C 
BRANCH  72  74
ATOM     74  C   UNL     1      -1.763 -14.301   8.558  1.00  0.00     0.038 C 
ATOM     75  C   UNL     1      -2.924 -15.297   8.448  1.00  0.00     0.015 C 
BRANCH  74  76
ATOM     76  C   UNL     1      -1.399 -13.880  10.012  1.00  0.00     0.128 C 
BRANCH  76  77
ATOM     77  O   UNL     1      -1.940 -14.827  10.948  1.00  0.00    -0.381 OA
ATOM     78  C   UNL     1      -2.964 -14.292  11.775  1.00  0.00     0.195 C 
ENDBRANCH  76  77
BRANCH  76  79
ATOM     79  C   UNL     1       0.112 -13.617  10.232  1.00  0.00     0.068 C 
BRANCH  79  80
ATOM     80  C   UNL     1       0.814 -12.686   9.273  1.00  0.00    -0.045 A 
ATOM     81  C   UNL     1       1.789 -13.163   8.387  1.00  0.00     0.004 A 
ATOM     82  C   UNL     1       0.520 -11.314   9.276  1.00  0.00     0.004 A 
ATOM     83  C   UNL     1       2.444 -12.293   7.513  1.00  0.00     0.000 A 
ATOM     84  C   UNL     1       1.176 -10.444   8.403  1.00  0.00     0.000 A 
ATOM     85  C   UNL     1       2.136 -10.934   7.520  1.00  0.00     0.000 A 
ENDBRANCH  79  80
ENDBRANCH  76  79
ENDBRANCH  74  76
ENDBRANCH  72  74
ENDBRANCH  70  71
ENDBRANCH   1  69
TORSDOF 17
ENDMDL
MODEL 17
REMARK VINA RESULT:    -5.818      2.109      3.036
REMARK INTER + INTRA:         -25.701
REMARK INTER:                 -18.887
REMARK INTRA:                  -6.814
REMARK UNBOUND:                -8.320
REMARK SMILES C=C1C(=O)N[C@H](C)C(=O)N[C@@H](CC(C)C)C(=O)N[C@@H](C(=O)O)[C@H](C)C(=O)N[C@@H](CCCN=C(N)N)C(=O)N[C@@H](/C=C/C(C)=C/[C@H](C)[C@H](Cc2ccccc2)OC)[C@H](C)C(=O)N[C@@H](C(=O)O)CCC(=O)N1C
REMARK SMILES IDX 39 1 38 2 37 3 36 4 28 6 27 7 25 8 26 9 23 11 24 12 19 13
REMARK SMILES IDX 18 14 16 15 17 16 11 18 10 19 8 20 9 21 12 24 13 25 14 26
REMARK SMILES IDX 15 27 20 28 21 29 22 30 29 32 30 33 31 34 32 35 33 36 34 37
REMARK SMILES IDX 35 38 57 43 58 44 59 45 60 46 61 47 62 49 66 50 67 51 68 52
REMARK SMILES IDX 69 53 70 54 71 55 2 56 1 57 3 58 4 59 5 60 6 62 7 63 63 65
REMARK SMILES IDX 64 66 65 67 40 69 41 70 42 71 44 72 43 73 45 74 46 75 47 76
REMARK SMILES IDX 55 77 56 78 48 79 49 80 50 81 54 82 51 83 53 84 52 85
REMARK H PARENT 38 5 27 10 18 17 10 22 22 31 34 39 34 40 35 41 35 42 61 48
REMARK H PARENT 5 61 65 68
REMARK Flexibility Score:  369.900
ROOT
ATOM      1  C   UNL     1      -1.241  -8.355  -0.813  1.00  0.00     0.117 C 
ENDROOT
BRANCH   1   2
ATOM      2  N   UNL     1      -1.579  -7.871  -2.152  1.00  0.00    -0.347 N 
ATOM      3  O   UNL     1       0.090  -6.307  -2.350  1.00  0.00    -0.273 OA
ATOM      4  C   UNL     1      -0.828  -6.947  -2.852  1.00  0.00     0.243 C 
ATOM      5  H   UNL     1      -2.377  -8.259  -2.631  1.00  0.00     0.164 HD
BRANCH   4   6
ATOM      6  C   UNL     1      -1.355  -6.671  -4.283  1.00  0.00     0.171 C 
BRANCH   6   7
ATOM      7  N   UNL     1      -1.873  -7.908  -4.888  1.00  0.00    -0.344 N 
ATOM      8  C   UNL     1      -1.811  -8.104  -6.251  1.00  0.00     0.226 C 
ATOM      9  O   UNL     1      -1.353  -7.266  -7.018  1.00  0.00    -0.275 OA
ATOM     10  H   UNL     1      -2.321  -8.595  -4.294  1.00  0.00     0.164 HD
BRANCH   8  11
ATOM     11  C   UNL     1      -2.336  -9.452  -6.714  1.00  0.00     0.109 C 
ATOM     12  C   UNL     1      -2.449 -10.408  -5.527  1.00  0.00     0.021 C 
BRANCH  11  13
ATOM     13  C   UNL     1      -3.638  -9.257  -7.516  1.00  0.00     0.204 C 
BRANCH  13  14
ATOM     14  N   UNL     1      -3.382  -8.757  -8.870  1.00  0.00    -0.340 N 
ATOM     15  C   UNL     1      -4.191  -7.830  -9.491  1.00  0.00     0.243 C 
ATOM     16  O   UNL     1      -5.152  -7.310  -8.928  1.00  0.00    -0.273 OA
ATOM     17  H   UNL     1      -2.697  -9.255  -9.445  1.00  0.00     0.164 HD
BRANCH  15  18
ATOM     18  C   UNL     1      -3.847  -7.611 -10.985  1.00  0.00     0.171 C 
BRANCH  18  19
ATOM     19  N   UNL     1      -3.525  -8.925 -11.538  1.00  0.00    -0.343 N 
ATOM     20  C   UNL     1      -2.622  -9.079 -12.572  1.00  0.00     0.242 CG0
ATOM     21  O   UNL     1      -2.150  -8.111 -13.164  1.00  0.00    -0.273 OA
ATOM     22  H   UNL     1      -3.978  -9.749 -11.159  1.00  0.00     0.164 HD
ATOM     23  G   UNL     1      -2.352 -10.546 -12.968  1.00  0.00     0.000 G0
ENDBRANCH  18  19
BRANCH  18  24
ATOM     24  C   UNL     1      -5.026  -6.965 -11.723  1.00  0.00     0.038 C 
BRANCH  24  25
ATOM     25  C   UNL     1      -5.916  -7.953 -12.507  1.00  0.00    -0.015 C 
ATOM     26  C   UNL     1      -6.229  -7.463 -13.921  1.00  0.00     0.007 C 
ATOM     27  C   UNL     1      -7.221  -8.189 -11.742  1.00  0.00     0.007 C 
ENDBRANCH  24  25
ENDBRANCH  18  24
ENDBRANCH  15  18
ENDBRANCH  13  14
BRANCH  13  28
ATOM     28  C   UNL     1      -4.460 -10.542  -7.654  1.00  0.00     0.327 C 
ATOM     29  O   UNL     1      -5.463 -10.830  -7.019  1.00  0.00    -0.250 OA
BRANCH  28  30
ATOM     30  O   UNL     1      -3.904 -11.437  -8.495  1.00  0.00    -0.480 OA
ATOM     31  H   UNL     1      -4.660 -11.977  -8.808  1.00  0.00     0.296 HD
ENDBRANCH  28  30
ENDBRANCH  13  28
ENDBRANCH  11  13
ENDBRANCH   8  11
ENDBRANCH   6   7
BRANCH   6  32
ATOM     32  C   UNL     1      -2.445  -5.595  -4.219  1.00  0.00     0.037 C 
BRANCH  32  33
ATOM     33  C   UNL     1      -3.155  -5.571  -2.859  1.00  0.00     0.026 C 
BRANCH  33  34
ATOM     34  C   UNL     1      -4.590  -6.096  -2.938  1.00  0.00     0.146 C 
BRANCH  34  35
ATOM     35  N   UNL     1      -4.571  -7.423  -3.538  1.00  0.00    -0.254 NA
ATOM     36  C   UNL     1      -5.682  -7.948  -3.900  1.00  0.00     0.185 C 
ATOM     37  N   UNL     1      -5.676  -9.169  -4.459  1.00  0.00    -0.370 N 
ATOM     38  N   UNL     1      -6.925  -7.444  -3.807  1.00  0.00    -0.370 N 
ATOM     39  H   UNL     1      -4.774  -9.612  -4.573  1.00  0.00     0.159 HD
ATOM     40  H   UNL     1      -6.472  -9.571  -4.923  1.00  0.00     0.159 HD
ATOM     41  H   UNL     1      -7.734  -8.013  -4.000  1.00  0.00     0.159 HD
ATOM     42  H   UNL     1      -7.082  -6.539  -3.392  1.00  0.00     0.159 HD
ENDBRANCH  34  35
ENDBRANCH  33  34
ENDBRANCH  32  33
ENDBRANCH   6  32
ENDBRANCH   4   6
ENDBRANCH   1   2
BRANCH   1  43
ATOM     43  C   UNL     1      -2.033  -9.667  -0.546  1.00  0.00     0.102 C 
ATOM     44  C   UNL     1      -2.110 -10.595  -1.771  1.00  0.00     0.020 C 
BRANCH  43  45
ATOM     45  C   UNL     1      -3.393  -9.369   0.093  1.00  0.00     0.225 C 
ATOM     46  O   UNL     1      -4.328  -8.865  -0.522  1.00  0.00    -0.275 OA
ATOM     47  N   UNL     1      -3.479  -9.616   1.444  1.00  0.00    -0.342 N 
ATOM     48  H   UNL     1      -2.763 -10.166   1.899  1.00  0.00     0.164 HD
BRANCH  47  49
ATOM     49  C   UNL     1      -4.728  -9.412   2.183  1.00  0.00     0.192 C 
BRANCH  49  50
ATOM     50  C   UNL     1      -4.483  -8.460   3.356  1.00  0.00     0.047 C 
BRANCH  50  51
ATOM     51  C   UNL     1      -3.337  -8.934   4.260  1.00  0.00     0.103 C 
BRANCH  51  52
ATOM     52  C   UNL     1      -3.787  -9.120   5.707  1.00  0.00     0.226 C 
ATOM     53  O   UNL     1      -4.687  -8.412   6.162  1.00  0.00    -0.275 OA
BRANCH  52  54
ATOM     54  N   UNL     1      -3.179 -10.168   6.423  1.00  0.00    -0.311 N 
ATOM     55  C   UNL     1      -1.830 -10.018   6.983  1.00  0.00     0.153 C 
BRANCH  54  56
ATOM     56  C   UNL     1      -3.839 -11.391   6.634  1.00  0.00     0.102 C 
ATOM     57  C   UNL     1      -3.900 -12.394   5.743  1.00  0.00     0.043 C 
BRANCH  56  58
ATOM     58  C   UNL     1      -4.515 -11.689   7.951  1.00  0.00     0.268 C 
ATOM     59  O   UNL     1      -5.102 -10.842   8.610  1.00  0.00    -0.268 OA
ATOM     60  N   UNL     1      -4.460 -13.018   8.297  1.00  0.00    -0.339 N 
ATOM     61  H   UNL     1      -3.945 -13.656   7.702  1.00  0.00     0.164 HD
BRANCH  60  62
ATOM     62  C   UNL     1      -5.105 -13.537   9.503  1.00  0.00     0.168 CG0
ATOM     63  C   UNL     1      -4.154 -13.496  10.692  1.00  0.00     0.041 C 
ATOM     64  G   UNL     1      -5.598 -14.976   9.247  1.00  0.00     0.000 G0
ENDBRANCH  60  62
ENDBRANCH  56  58
ENDBRANCH  54  56
ENDBRANCH  52  54
ENDBRANCH  51  52
ENDBRANCH  50  51
ENDBRANCH  49  50
BRANCH  49  65
ATOM     65  C   UNL     1      -5.297 -10.737   2.713  1.00  0.00     0.326 C 
ATOM     66  O   UNL     1      -4.918 -11.853   2.388  1.00  0.00    -0.250 OA
BRANCH  65  67
ATOM     67  O   UNL     1      -6.337 -10.604   3.565  1.00  0.00    -0.480 OA
ATOM     68  H   UNL     1      -5.906 -10.444   4.433  1.00  0.00     0.296 HD
ENDBRANCH  65  67
ENDBRANCH  49  65
ENDBRANCH  47  49
ENDBRANCH  43  45
ENDBRANCH   1  43
BRANCH   1  69
ATOM     69  C   UNL     1      -1.436  -7.177   0.125  1.00  0.00    -0.001 C 
ATOM     70  C   UNL     1      -0.543  -6.666   0.991  1.00  0.00     0.001 C 
BRANCH  70  71
ATOM     71  C   UNL     1      -0.736  -5.515   1.876  1.00  0.00    -0.055 C 
ATOM     72  C   UNL     1      -0.164  -5.561   3.098  1.00  0.00    -0.018 C 
ATOM     73  C   UNL     1      -1.551  -4.359   1.357  1.00  0.00     0.044 C 
BRANCH  72  74
ATOM     74  C   UNL     1      -0.191  -4.525   4.213  1.00  0.00     0.038 C 
ATOM     75  C   UNL     1       1.001  -4.819   5.132  1.00  0.00     0.015 C 
BRANCH  74  76
ATOM     76  C   UNL     1      -1.582  -4.576   4.910  1.00  0.00     0.128 C 
BRANCH  76  77
ATOM     77  O   UNL     1      -1.417  -4.817   6.318  1.00  0.00    -0.381 OA
ATOM     78  C   UNL     1      -1.949  -6.062   6.750  1.00  0.00     0.195 C 
ENDBRANCH  76  77
BRANCH  76  79
ATOM     79  C   UNL     1      -2.480  -3.348   4.613  1.00  0.00     0.068 C 
BRANCH  79  80
ATOM     80  C   UNL     1      -3.897  -3.602   4.160  1.00  0.00    -0.045 A 
ATOM     81  C   UNL     1      -4.534  -4.820   4.429  1.00  0.00     0.004 A 
ATOM     82  C   UNL     1      -4.592  -2.624   3.432  1.00  0.00     0.004 A 
ATOM     83  C   UNL     1      -5.841  -5.052   3.994  1.00  0.00     0.000 A 
ATOM     84  C   UNL     1      -5.899  -2.858   2.996  1.00  0.00     0.000 A 
ATOM     85  C   UNL     1      -6.523  -4.071   3.279  1.00  0.00     0.000 A 
ENDBRANCH  79  80
ENDBRANCH  76  79
ENDBRANCH  74  76
ENDBRANCH  72  74
ENDBRANCH  70  71
ENDBRANCH   1  69
TORSDOF 17
ENDMDL
MODEL 18
REMARK VINA RESULT:    -5.805      2.694     12.633
REMARK INTER + INTRA:         -25.661
REMARK INTER:                 -17.646
REMARK INTRA:                  -8.016
REMARK UNBOUND:                -8.320
REMARK SMILES C=C1C(=O)N[C@H](C)C(=O)N[C@@H](CC(C)C)C(=O)N[C@@H](C(=O)O)[C@H](C)C(=O)N[C@@H](CCCN=C(N)N)C(=O)N[C@@H](/C=C/C(C)=C/[C@H](C)[C@H](Cc2ccccc2)OC)[C@H](C)C(=O)N[C@@H](C(=O)O)CCC(=O)N1C
REMARK SMILES IDX 39 1 38 2 37 3 36 4 28 6 27 7 25 8 26 9 23 11 24 12 19 13
REMARK SMILES IDX 18 14 16 15 17 16 11 18 10 19 8 20 9 21 12 24 13 25 14 26
REMARK SMILES IDX 15 27 20 28 21 29 22 30 29 32 30 33 31 34 32 35 33 36 34 37
REMARK SMILES IDX 35 38 57 43 58 44 59 45 60 46 61 47 62 49 66 50 67 51 68 52
REMARK SMILES IDX 69 53 70 54 71 55 2 56 1 57 3 58 4 59 5 60 6 62 7 63 63 65
REMARK SMILES IDX 64 66 65 67 40 69 41 70 42 71 44 72 43 73 45 74 46 75 47 76
REMARK SMILES IDX 55 77 56 78 48 79 49 80 50 81 54 82 51 83 53 84 52 85
REMARK H PARENT 38 5 27 10 18 17 10 22 22 31 34 39 34 40 35 41 35 42 61 48
REMARK H PARENT 5 61 65 68
REMARK Flexibility Score:  369.900
ROOT
ATOM      1  C   UNL     1      -4.847 -10.433   1.316  1.00  0.00     0.117 C 
ENDROOT
BRANCH   1   2
ATOM      2  N   UNL     1      -4.863 -11.037   2.648  1.00  0.00    -0.347 N 
ATOM      3  O   UNL     1      -6.987 -10.410   3.252  1.00  0.00    -0.273 OA
ATOM      4  C   UNL     1      -5.969 -11.055   3.476  1.00  0.00     0.243 C 
ATOM      5  H   UNL     1      -4.041 -11.517   2.983  1.00  0.00     0.164 HD
BRANCH   4   6
ATOM      6  C   UNL     1      -5.745 -11.833   4.798  1.00  0.00     0.171 C 
BRANCH   6   7
ATOM      7  N   UNL     1      -4.317 -11.843   5.154  1.00  0.00    -0.344 N 
ATOM      8  C   UNL     1      -3.624 -13.031   5.245  1.00  0.00     0.226 C 
ATOM      9  O   UNL     1      -4.153 -14.120   5.061  1.00  0.00    -0.275 OA
ATOM     10  H   UNL     1      -3.861 -10.968   5.379  1.00  0.00     0.164 HD
BRANCH   8  11
ATOM     11  C   UNL     1      -2.148 -12.871   5.566  1.00  0.00     0.109 C 
ATOM     12  C   UNL     1      -1.777 -11.388   5.610  1.00  0.00     0.021 C 
BRANCH  11  13
ATOM     13  C   UNL     1      -1.804 -13.664   6.843  1.00  0.00     0.204 C 
BRANCH  13  14
ATOM     14  N   UNL     1      -2.980 -13.884   7.689  1.00  0.00    -0.340 N 
ATOM     15  C   UNL     1      -2.925 -13.874   9.066  1.00  0.00     0.243 C 
ATOM     16  O   UNL     1      -1.892 -13.617   9.683  1.00  0.00    -0.273 OA
ATOM     17  H   UNL     1      -3.828 -14.250   7.247  1.00  0.00     0.164 HD
BRANCH  15  18
ATOM     18  C   UNL     1      -4.239 -14.336   9.742  1.00  0.00     0.171 C 
BRANCH  18  19
ATOM     19  N   UNL     1      -4.881 -13.135  10.273  1.00  0.00    -0.343 N 
ATOM     20  C   UNL     1      -4.728 -12.747  11.590  1.00  0.00     0.242 CG0
ATOM     21  O   UNL     1      -4.156 -13.463  12.408  1.00  0.00    -0.273 OA
ATOM     22  H   UNL     1      -5.461 -12.570   9.662  1.00  0.00     0.164 HD
ATOM     23  G   UNL     1      -5.415 -11.413  11.945  1.00  0.00     0.000 G0
ENDBRANCH  18  19
BRANCH  18  24
ATOM     24  C   UNL     1      -5.142 -15.057   8.734  1.00  0.00     0.038 C 
BRANCH  24  25
ATOM     25  C   UNL     1      -6.606 -14.570   8.717  1.00  0.00    -0.015 C 
ATOM     26  C   UNL     1      -7.523 -15.442   9.576  1.00  0.00     0.007 C 
ATOM     27  C   UNL     1      -7.123 -14.543   7.276  1.00  0.00     0.007 C 
ENDBRANCH  24  25
ENDBRANCH  18  24
ENDBRANCH  15  18
ENDBRANCH  13  14
BRANCH  13  28
ATOM     28  C   UNL     1      -1.189 -15.036   6.554  1.00  0.00     0.327 C 
ATOM     29  O   UNL     1      -0.000 -15.280   6.411  1.00  0.00    -0.250 OA
BRANCH  28  30
ATOM     30  O   UNL     1      -2.112 -15.996   6.343  1.00  0.00    -0.480 OA
ATOM     31  H   UNL     1      -2.720 -15.917   7.107  1.00  0.00     0.296 HD
ENDBRANCH  28  30
ENDBRANCH  13  28
ENDBRANCH  11  13
ENDBRANCH   8  11
ENDBRANCH   6   7
BRANCH   6  32
ATOM     32  C   UNL     1      -6.581 -11.189   5.909  1.00  0.00     0.037 C 
BRANCH  32  33
ATOM     33  C   UNL     1      -5.761 -10.946   7.184  1.00  0.00     0.026 C 
BRANCH  33  34
ATOM     34  C   UNL     1      -5.424  -9.469   7.390  1.00  0.00     0.146 C 
BRANCH  34  35
ATOM     35  N   UNL     1      -5.876  -8.717   6.228  1.00  0.00    -0.254 NA
ATOM     36  C   UNL     1      -6.931  -7.998   6.333  1.00  0.00     0.185 C 
ATOM     37  N   UNL     1      -7.354  -7.297   5.270  1.00  0.00    -0.370 N 
ATOM     38  N   UNL     1      -7.730  -7.822   7.401  1.00  0.00    -0.370 N 
ATOM     39  H   UNL     1      -6.797  -7.370   4.428  1.00  0.00     0.159 HD
ATOM     40  H   UNL     1      -8.061  -6.584   5.319  1.00  0.00     0.159 HD
ATOM     41  H   UNL     1      -8.611  -7.341   7.318  1.00  0.00     0.159 HD
ATOM     42  H   UNL     1      -7.541  -8.302   8.267  1.00  0.00     0.159 HD
ENDBRANCH  34  35
ENDBRANCH  33  34
ENDBRANCH  32  33
ENDBRANCH   6  32
ENDBRANCH   4   6
ENDBRANCH   1   2
BRANCH   1  43
ATOM     43  C   UNL     1      -4.698 -11.567   0.260  1.00  0.00     0.102 C 
ATOM     44  C   UNL     1      -3.523 -12.518   0.546  1.00  0.00     0.020 C 
BRANCH  43  45
ATOM     45  C   UNL     1      -4.707 -10.999  -1.162  1.00  0.00     0.225 C 
ATOM     46  O   UNL     1      -3.818 -11.223  -1.979  1.00  0.00    -0.275 OA
ATOM     47  N   UNL     1      -5.737 -10.133  -1.448  1.00  0.00    -0.342 N 
ATOM     48  H   UNL     1      -6.532 -10.079  -0.827  1.00  0.00     0.164 HD
BRANCH  47  49
ATOM     49  C   UNL     1      -5.893  -9.540  -2.780  1.00  0.00     0.192 C 
BRANCH  49  50
ATOM     50  C   UNL     1      -6.230  -8.053  -2.645  1.00  0.00     0.047 C 
BRANCH  50  51
ATOM     51  C   UNL     1      -5.157  -7.154  -3.275  1.00  0.00     0.103 C 
BRANCH  51  52
ATOM     52  C   UNL     1      -4.893  -7.512  -4.736  1.00  0.00     0.226 C 
ATOM     53  O   UNL     1      -5.812  -7.445  -5.555  1.00  0.00    -0.275 OA
BRANCH  52  54
ATOM     54  N   UNL     1      -3.565  -7.831  -5.074  1.00  0.00    -0.311 N 
ATOM     55  C   UNL     1      -2.964  -9.105  -4.659  1.00  0.00     0.153 C 
BRANCH  54  56
ATOM     56  C   UNL     1      -2.768  -6.948  -5.822  1.00  0.00     0.102 C 
ATOM     57  C   UNL     1      -2.006  -5.972  -5.302  1.00  0.00     0.043 C 
BRANCH  56  58
ATOM     58  C   UNL     1      -2.674  -7.073  -7.325  1.00  0.00     0.268 C 
ATOM     59  O   UNL     1      -1.732  -6.642  -7.975  1.00  0.00    -0.268 OA
ATOM     60  N   UNL     1      -3.721  -7.774  -7.874  1.00  0.00    -0.339 N 
ATOM     61  H   UNL     1      -4.469  -8.089  -7.268  1.00  0.00     0.164 HD
BRANCH  60  62
ATOM     62  C   UNL     1      -3.797  -8.066  -9.305  1.00  0.00     0.168 CG0
ATOM     63  C   UNL     1      -5.044  -7.446  -9.924  1.00  0.00     0.041 C 
ATOM     64  G   UNL     1      -3.780  -9.593  -9.524  1.00  0.00     0.000 G0
ENDBRANCH  60  62
ENDBRANCH  56  58
ENDBRANCH  54  56
ENDBRANCH  52  54
ENDBRANCH  51  52
ENDBRANCH  50  51
ENDBRANCH  49  50
BRANCH  49  65
ATOM     65  C   UNL     1      -6.997 -10.241  -3.586  1.00  0.00     0.326 C 
ATOM     66  O   UNL     1      -6.831 -10.871  -4.621  1.00  0.00    -0.250 OA
BRANCH  65  67
ATOM     67  O   UNL     1      -8.246 -10.072  -3.098  1.00  0.00    -0.480 OA
ATOM     68  H   UNL     1      -8.767 -10.772  -3.548  1.00  0.00     0.296 HD
ENDBRANCH  65  67
ENDBRANCH  49  65
ENDBRANCH  47  49
ENDBRANCH  43  45
ENDBRANCH   1  43
BRANCH   1  69
ATOM     69  C   UNL     1      -3.804  -9.331   1.361  1.00  0.00    -0.001 C 
ATOM     70  C   UNL     1      -2.713  -9.272   2.144  1.00  0.00     0.001 C 
BRANCH  70  71
ATOM     71  C   UNL     1      -1.701  -8.213   2.163  1.00  0.00    -0.055 C 
ATOM     72  C   UNL     1      -2.003  -7.069   2.814  1.00  0.00    -0.018 C 
ATOM     73  C   UNL     1      -0.394  -8.478   1.464  1.00  0.00     0.044 C 
BRANCH  72  74
ATOM     74  C   UNL     1      -1.159  -5.816   3.000  1.00  0.00     0.038 C 
ATOM     75  C   UNL     1      -0.691  -5.798   4.460  1.00  0.00     0.015 C 
BRANCH  74  76
ATOM     76  C   UNL     1      -1.998  -4.578   2.567  1.00  0.00     0.128 C 
BRANCH  76  77
ATOM     77  O   UNL     1      -1.899  -3.546   3.563  1.00  0.00    -0.381 OA
ATOM     78  C   UNL     1      -3.147  -2.954   3.898  1.00  0.00     0.195 C 
ENDBRANCH  76  77
BRANCH  76  79
ATOM     79  C   UNL     1      -1.677  -4.067   1.140  1.00  0.00     0.068 C 
BRANCH  79  80
ATOM     80  C   UNL     1      -1.496  -5.092   0.046  1.00  0.00    -0.045 A 
ATOM     81  C   UNL     1      -2.576  -5.860  -0.409  1.00  0.00     0.004 A 
ATOM     82  C   UNL     1      -0.229  -5.311  -0.515  1.00  0.00     0.004 A 
ATOM     83  C   UNL     1      -2.398  -6.816  -1.411  1.00  0.00     0.000 A 
ATOM     84  C   UNL     1      -0.052  -6.267  -1.517  1.00  0.00     0.000 A 
ATOM     85  C   UNL     1      -1.136  -7.018  -1.966  1.00  0.00     0.000 A 
ENDBRANCH  79  80
ENDBRANCH  76  79
ENDBRANCH  74  76
ENDBRANCH  72  74
ENDBRANCH  70  71
ENDBRANCH   1  69
TORSDOF 17
ENDMDL
MODEL 19
REMARK VINA RESULT:    -5.758      2.586      3.929
REMARK INTER + INTRA:         -25.523
REMARK INTER:                 -17.667
REMARK INTRA:                  -7.856
REMARK UNBOUND:                -8.320
REMARK SMILES C=C1C(=O)N[C@H](C)C(=O)N[C@@H](CC(C)C)C(=O)N[C@@H](C(=O)O)[C@H](C)C(=O)N[C@@H](CCCN=C(N)N)C(=O)N[C@@H](/C=C/C(C)=C/[C@H](C)[C@H](Cc2ccccc2)OC)[C@H](C)C(=O)N[C@@H](C(=O)O)CCC(=O)N1C
REMARK SMILES IDX 39 1 38 2 37 3 36 4 28 6 27 7 25 8 26 9 23 11 24 12 19 13
REMARK SMILES IDX 18 14 16 15 17 16 11 18 10 19 8 20 9 21 12 24 13 25 14 26
REMARK SMILES IDX 15 27 20 28 21 29 22 30 29 32 30 33 31 34 32 35 33 36 34 37
REMARK SMILES IDX 35 38 57 43 58 44 59 45 60 46 61 47 62 49 66 50 67 51 68 52
REMARK SMILES IDX 69 53 70 54 71 55 2 56 1 57 3 58 4 59 5 60 6 62 7 63 63 65
REMARK SMILES IDX 64 66 65 67 40 69 41 70 42 71 44 72 43 73 45 74 46 75 47 76
REMARK SMILES IDX 55 77 56 78 48 79 49 80 50 81 54 82 51 83 53 84 52 85
REMARK H PARENT 38 5 27 10 18 17 10 22 22 31 34 39 34 40 35 41 35 42 61 48
REMARK H PARENT 5 61 65 68
REMARK Flexibility Score:  369.900
ROOT
ATOM      1  C   UNL     1      -2.167  -9.252  -0.177  1.00  0.00     0.117 C 
ENDROOT
BRANCH   1   2
ATOM      2  N   UNL     1      -2.822  -9.095  -1.476  1.00  0.00    -0.347 N 
ATOM      3  O   UNL     1      -1.274  -7.700  -2.440  1.00  0.00    -0.273 OA
ATOM      4  C   UNL     1      -2.275  -8.402  -2.539  1.00  0.00     0.243 C 
ATOM      5  H   UNL     1      -3.705  -9.553  -1.643  1.00  0.00     0.164 HD
BRANCH   4   6
ATOM      6  C   UNL     1      -3.133  -8.460  -3.828  1.00  0.00     0.171 C 
BRANCH   6   7
ATOM      7  N   UNL     1      -2.382  -7.917  -4.971  1.00  0.00    -0.344 N 
ATOM      8  C   UNL     1      -3.011  -7.142  -5.921  1.00  0.00     0.226 C 
ATOM      9  O   UNL     1      -4.209  -6.889  -5.879  1.00  0.00    -0.275 OA
ATOM     10  H   UNL     1      -1.405  -8.160  -5.076  1.00  0.00     0.164 HD
BRANCH   8  11
ATOM     11  C   UNL     1      -2.090  -6.612  -7.006  1.00  0.00     0.109 C 
ATOM     12  C   UNL     1      -0.634  -6.698  -6.548  1.00  0.00     0.021 C 
BRANCH  11  13
ATOM     13  C   UNL     1      -2.393  -7.322  -8.341  1.00  0.00     0.204 C 
BRANCH  13  14
ATOM     14  N   UNL     1      -3.495  -8.282  -8.217  1.00  0.00    -0.340 N 
ATOM     15  C   UNL     1      -3.490  -9.511  -8.839  1.00  0.00     0.243 C 
ATOM     16  O   UNL     1      -2.532  -9.916  -9.495  1.00  0.00    -0.273 OA
ATOM     17  H   UNL     1      -4.377  -7.951  -7.817  1.00  0.00     0.164 HD
BRANCH  15  18
ATOM     18  C   UNL     1      -4.841 -10.262  -8.737  1.00  0.00     0.171 C 
BRANCH  18  19
ATOM     19  N   UNL     1      -5.601  -9.922  -9.938  1.00  0.00    -0.343 N 
ATOM     20  C   UNL     1      -6.388  -8.789 -10.007  1.00  0.00     0.242 CG0
ATOM     21  O   UNL     1      -6.591  -8.086  -9.020  1.00  0.00    -0.273 OA
ATOM     22  H   UNL     1      -5.557 -10.536 -10.744  1.00  0.00     0.164 HD
ATOM     23  G   UNL     1      -7.050  -8.556 -11.381  1.00  0.00     0.000 G0
ENDBRANCH  18  19
BRANCH  18  24
ATOM     24  C   UNL     1      -4.613 -11.774  -8.625  1.00  0.00     0.038 C 
BRANCH  24  25
ATOM     25  C   UNL     1      -3.999 -12.236  -7.286  1.00  0.00    -0.015 C 
ATOM     26  C   UNL     1      -2.638 -12.909  -7.467  1.00  0.00     0.007 C 
ATOM     27  C   UNL     1      -4.961 -13.198  -6.584  1.00  0.00     0.007 C 
ENDBRANCH  24  25
ENDBRANCH  18  24
ENDBRANCH  15  18
ENDBRANCH  13  14
BRANCH  13  28
ATOM     28  C   UNL     1      -2.759  -6.354  -9.470  1.00  0.00     0.327 C 
ATOM     29  O   UNL     1      -3.818  -6.320 -10.078  1.00  0.00    -0.250 OA
BRANCH  28  30
ATOM     30  O   UNL     1      -1.730  -5.567  -9.846  1.00  0.00    -0.480 OA
ATOM     31  H   UNL     1      -2.140  -4.690  -9.995  1.00  0.00     0.296 HD
ENDBRANCH  28  30
ENDBRANCH  13  28
ENDBRANCH  11  13
ENDBRANCH   8  11
ENDBRANCH   6   7
BRANCH   6  32
ATOM     32  C   UNL     1      -3.552  -9.911  -4.089  1.00  0.00     0.037 C 
BRANCH  32  33
ATOM     33  C   UNL     1      -5.024 -10.022  -4.513  1.00  0.00     0.026 C 
BRANCH  33  34
ATOM     34  C   UNL     1      -5.973  -9.373  -3.505  1.00  0.00     0.146 C 
BRANCH  34  35
ATOM     35  N   UNL     1      -7.343  -9.723  -3.857  1.00  0.00    -0.254 NA
ATOM     36  C   UNL     1      -7.880 -10.742  -3.297  1.00  0.00     0.185 C 
ATOM     37  N   UNL     1      -9.142 -11.071  -3.610  1.00  0.00    -0.370 N 
ATOM     38  N   UNL     1      -7.351 -11.584  -2.391  1.00  0.00    -0.370 N 
ATOM     39  H   UNL     1      -9.614 -10.476  -4.280  1.00  0.00     0.159 HD
ATOM     40  H   UNL     1      -9.687 -11.740  -3.093  1.00  0.00     0.159 HD
ATOM     41  H   UNL     1      -7.827 -12.432  -2.128  1.00  0.00     0.159 HD
ATOM     42  H   UNL     1      -6.401 -11.467  -2.074  1.00  0.00     0.159 HD
ENDBRANCH  34  35
ENDBRANCH  33  34
ENDBRANCH  32  33
ENDBRANCH   6  32
ENDBRANCH   4   6
ENDBRANCH   1   2
BRANCH   1  43
ATOM     43  C   UNL     1      -2.764 -10.503   0.531  1.00  0.00     0.102 C 
ATOM     44  C   UNL     1      -2.577 -11.805  -0.266  1.00  0.00     0.020 C 
BRANCH  43  45
ATOM     45  C   UNL     1      -4.208 -10.247   0.972  1.00  0.00     0.225 C 
ATOM     46  O   UNL     1      -5.073  -9.809   0.219  1.00  0.00    -0.275 OA
ATOM     47  N   UNL     1      -4.464 -10.451   2.309  1.00  0.00    -0.342 N 
ATOM     48  H   UNL     1      -3.793 -10.950   2.876  1.00  0.00     0.164 HD
BRANCH  47  49
ATOM     49  C   UNL     1      -5.809 -10.280   2.867  1.00  0.00     0.192 C 
BRANCH  49  50
ATOM     50  C   UNL     1      -5.707  -9.786   4.312  1.00  0.00     0.047 C 
BRANCH  50  51
ATOM     51  C   UNL     1      -4.255  -9.529   4.739  1.00  0.00     0.103 C 
BRANCH  51  52
ATOM     52  C   UNL     1      -3.686 -10.686   5.558  1.00  0.00     0.226 C 
ATOM     53  O   UNL     1      -3.447 -11.763   5.009  1.00  0.00    -0.275 OA
BRANCH  52  54
ATOM     54  N   UNL     1      -3.393 -10.413   6.908  1.00  0.00    -0.311 N 
ATOM     55  C   UNL     1      -4.440 -10.475   7.936  1.00  0.00     0.153 C 
BRANCH  54  56
ATOM     56  C   UNL     1      -2.093 -10.079   7.322  1.00  0.00     0.102 C 
ATOM     57  C   UNL     1      -1.620  -8.827   7.434  1.00  0.00     0.043 C 
BRANCH  56  58
ATOM     58  C   UNL     1      -1.109 -11.151   7.729  1.00  0.00     0.268 C 
ATOM     59  O   UNL     1      -1.065 -12.254   7.202  1.00  0.00    -0.268 OA
ATOM     60  N   UNL     1      -0.231 -10.736   8.702  1.00  0.00    -0.339 N 
ATOM     61  H   UNL     1      -0.341  -9.809   9.095  1.00  0.00     0.164 HD
BRANCH  60  62
ATOM     62  C   UNL     1       0.843 -11.595   9.199  1.00  0.00     0.168 CG0
ATOM     63  C   UNL     1       1.779 -10.823  10.120  1.00  0.00     0.041 C 
ATOM     64  G   UNL     1       1.620 -12.193   8.008  1.00  0.00     0.000 G0
ENDBRANCH  60  62
ENDBRANCH  56  58
ENDBRANCH  54  56
ENDBRANCH  52  54
ENDBRANCH  51  52
ENDBRANCH  50  51
ENDBRANCH  49  50
BRANCH  49  65
ATOM     65  C   UNL     1      -6.608 -11.592   2.833  1.00  0.00     0.326 C 
ATOM     66  O   UNL     1      -7.209 -12.083   3.777  1.00  0.00    -0.250 OA
BRANCH  65  67
ATOM     67  O   UNL     1      -6.564 -12.248   1.652  1.00  0.00    -0.480 OA
ATOM     68  H   UNL     1      -5.641 -12.577   1.604  1.00  0.00     0.296 HD
ENDBRANCH  65  67
ENDBRANCH  49  65
ENDBRANCH  47  49
ENDBRANCH  43  45
ENDBRANCH   1  43
BRANCH   1  69
ATOM     69  C   UNL     1      -2.262  -7.904   0.513  1.00  0.00    -0.001 C 
ATOM     70  C   UNL     1      -1.250  -7.146   0.970  1.00  0.00     0.001 C 
BRANCH  70  71
ATOM     71  C   UNL     1      -1.353  -5.836   1.615  1.00  0.00    -0.055 C 
ATOM     72  C   UNL     1      -1.428  -5.803   2.962  1.00  0.00    -0.018 C 
ATOM     73  C   UNL     1      -1.361  -4.616   0.730  1.00  0.00     0.044 C 
BRANCH  72  74
ATOM     74  C   UNL     1      -1.538  -4.604   3.892  1.00  0.00     0.038 C 
ATOM     75  C   UNL     1      -0.832  -4.979   5.201  1.00  0.00     0.015 C 
BRANCH  74  76
ATOM     76  C   UNL     1      -3.040  -4.225   4.045  1.00  0.00     0.128 C 
BRANCH  76  77
ATOM     77  O   UNL     1      -3.332  -3.051   3.267  1.00  0.00    -0.381 OA
ATOM     78  C   UNL     1      -4.543  -3.142   2.530  1.00  0.00     0.195 C 
ENDBRANCH  76  77
BRANCH  76  79
ATOM     79  C   UNL     1      -4.016  -5.393   3.757  1.00  0.00     0.068 C 
BRANCH  79  80
ATOM     80  C   UNL     1      -4.826  -5.938   4.909  1.00  0.00    -0.045 A 
ATOM     81  C   UNL     1      -4.201  -6.435   6.060  1.00  0.00     0.004 A 
ATOM     82  C   UNL     1      -6.227  -5.980   4.831  1.00  0.00     0.004 A 
ATOM     83  C   UNL     1      -4.957  -6.950   7.115  1.00  0.00     0.000 A 
ATOM     84  C   UNL     1      -6.981  -6.496   5.887  1.00  0.00     0.000 A 
ATOM     85  C   UNL     1      -6.347  -6.979   7.029  1.00  0.00     0.000 A 
ENDBRANCH  79  80
ENDBRANCH  76  79
ENDBRANCH  74  76
ENDBRANCH  72  74
ENDBRANCH  70  71
ENDBRANCH   1  69
TORSDOF 17
ENDMDL
MODEL 20
REMARK VINA RESULT:    -5.720      4.657      7.603
REMARK INTER + INTRA:         -25.409
REMARK INTER:                 -19.777
REMARK INTRA:                  -5.632
REMARK UNBOUND:                -8.320
REMARK SMILES C=C1C(=O)N[C@H](C)C(=O)N[C@@H](CC(C)C)C(=O)N[C@@H](C(=O)O)[C@H](C)C(=O)N[C@@H](CCCN=C(N)N)C(=O)N[C@@H](/C=C/C(C)=C/[C@H](C)[C@H](Cc2ccccc2)OC)[C@H](C)C(=O)N[C@@H](C(=O)O)CCC(=O)N1C
REMARK SMILES IDX 39 1 38 2 37 3 36 4 28 6 27 7 25 8 26 9 23 11 24 12 19 13
REMARK SMILES IDX 18 14 16 15 17 16 11 18 10 19 8 20 9 21 12 24 13 25 14 26
REMARK SMILES IDX 15 27 20 28 21 29 22 30 29 32 30 33 31 34 32 35 33 36 34 37
REMARK SMILES IDX 35 38 57 43 58 44 59 45 60 46 61 47 62 49 66 50 67 51 68 52
REMARK SMILES IDX 69 53 70 54 71 55 2 56 1 57 3 58 4 59 5 60 6 62 7 63 63 65
REMARK SMILES IDX 64 66 65 67 40 69 41 70 42 71 44 72 43 73 45 74 46 75 47 76
REMARK SMILES IDX 55 77 56 78 48 79 49 80 50 81 54 82 51 83 53 84 52 85
REMARK H PARENT 38 5 27 10 18 17 10 22 22 31 34 39 34 40 35 41 35 42 61 48
REMARK H PARENT 5 61 65 68
REMARK Flexibility Score:  369.900
ROOT
ATOM      1  C   UNL     1      -3.424  -4.607   1.821  1.00  0.00     0.117 C 
ENDROOT
BRANCH   1   2
ATOM      2  N   UNL     1      -3.238  -5.587   0.750  1.00  0.00    -0.347 N 
ATOM      3  O   UNL     1      -2.244  -7.235   2.002  1.00  0.00    -0.273 OA
ATOM      4  C   UNL     1      -2.745  -6.862   0.946  1.00  0.00     0.243 C 
ATOM      5  H   UNL     1      -3.528  -5.355  -0.188  1.00  0.00     0.164 HD
BRANCH   4   6
ATOM      6  C   UNL     1      -2.730  -7.729  -0.339  1.00  0.00     0.171 C 
BRANCH   6   7
ATOM      7  N   UNL     1      -3.958  -7.511  -1.121  1.00  0.00    -0.344 N 
ATOM      8  C   UNL     1      -4.570  -8.559  -1.774  1.00  0.00     0.226 C 
ATOM      9  O   UNL     1      -4.122  -9.699  -1.758  1.00  0.00    -0.275 OA
ATOM     10  H   UNL     1      -4.320  -6.571  -1.213  1.00  0.00     0.164 HD
BRANCH   8  11
ATOM     11  C   UNL     1      -5.855  -8.184  -2.490  1.00  0.00     0.109 C 
ATOM     12  C   UNL     1      -5.934  -6.668  -2.671  1.00  0.00     0.021 C 
BRANCH  11  13
ATOM     13  C   UNL     1      -5.984  -8.999  -3.792  1.00  0.00     0.204 C 
BRANCH  13  14
ATOM     14  N   UNL     1      -4.895  -8.713  -4.732  1.00  0.00    -0.340 N 
ATOM     15  C   UNL     1      -5.110  -8.183  -5.986  1.00  0.00     0.243 C 
ATOM     16  O   UNL     1      -6.227  -7.856  -6.383  1.00  0.00    -0.273 OA
ATOM     17  H   UNL     1      -3.970  -9.098  -4.527  1.00  0.00     0.164 HD
BRANCH  15  18
ATOM     18  C   UNL     1      -3.841  -8.163  -6.874  1.00  0.00     0.171 C 
BRANCH  18  19
ATOM     19  N   UNL     1      -3.736  -9.487  -7.484  1.00  0.00    -0.343 N 
ATOM     20  C   UNL     1      -3.054 -10.520  -6.870  1.00  0.00     0.242 CG0
ATOM     21  O   UNL     1      -2.394 -10.338  -5.850  1.00  0.00    -0.273 OA
ATOM     22  H   UNL     1      -4.168  -9.655  -8.386  1.00  0.00     0.164 HD
ATOM     23  G   UNL     1      -3.118 -11.863  -7.626  1.00  0.00     0.000 G0
ENDBRANCH  18  19
BRANCH  18  24
ATOM     24  C   UNL     1      -3.941  -7.061  -7.936  1.00  0.00     0.038 C 
BRANCH  24  25
ATOM     25  C   UNL     1      -3.818  -7.557  -9.393  1.00  0.00    -0.015 C 
ATOM     26  C   UNL     1      -2.858  -6.703 -10.222  1.00  0.00     0.007 C 
ATOM     27  C   UNL     1      -5.200  -7.566 -10.052  1.00  0.00     0.007 C 
ENDBRANCH  24  25
ENDBRANCH  18  24
ENDBRANCH  15  18
ENDBRANCH  13  14
BRANCH  13  28
ATOM     28  C   UNL     1      -5.994 -10.513  -3.558  1.00  0.00     0.327 C 
ATOM     29  O   UNL     1      -6.829 -11.140  -2.924  1.00  0.00    -0.250 OA
BRANCH  28  30
ATOM     30  O   UNL     1      -4.893 -11.129  -4.034  1.00  0.00    -0.480 OA
ATOM     31  H   UNL     1      -5.023 -11.138  -5.005  1.00  0.00     0.296 HD
ENDBRANCH  28  30
ENDBRANCH  13  28
ENDBRANCH  11  13
ENDBRANCH   8  11
ENDBRANCH   6   7
BRANCH   6  32
ATOM     32  C   UNL     1      -1.486  -7.382  -1.166  1.00  0.00     0.037 C 
BRANCH  32  33
ATOM     33  C   UNL     1      -1.828  -6.530  -2.396  1.00  0.00     0.026 C 
BRANCH  33  34
ATOM     34  C   UNL     1      -1.710  -7.315  -3.703  1.00  0.00     0.146 C 
BRANCH  34  35
ATOM     35  N   UNL     1      -1.473  -6.379  -4.793  1.00  0.00    -0.254 NA
ATOM     36  C   UNL     1      -0.857  -6.795  -5.837  1.00  0.00     0.185 C 
ATOM     37  N   UNL     1      -0.638  -5.942  -6.850  1.00  0.00    -0.370 N 
ATOM     38  N   UNL     1      -0.367  -8.020  -6.097  1.00  0.00    -0.370 N 
ATOM     39  H   UNL     1      -0.988  -4.999  -6.734  1.00  0.00     0.159 HD
ATOM     40  H   UNL     1      -0.324  -6.229  -7.761  1.00  0.00     0.159 HD
ATOM     41  H   UNL     1       0.221  -8.186  -6.897  1.00  0.00     0.159 HD
ATOM     42  H   UNL     1      -0.446  -8.759  -5.416  1.00  0.00     0.159 HD
ENDBRANCH  34  35
ENDBRANCH  33  34
ENDBRANCH  32  33
ENDBRANCH   6  32
ENDBRANCH   4   6
ENDBRANCH   1   2
BRANCH   1  43
ATOM     43  C   UNL     1      -2.101  -3.807   1.995  1.00  0.00     0.102 C 
ATOM     44  C   UNL     1      -0.982  -4.261   1.043  1.00  0.00     0.020 C 
BRANCH  43  45
ATOM     45  C   UNL     1      -1.681  -3.753   3.467  1.00  0.00     0.225 C 
ATOM     46  O   UNL     1      -2.253  -3.060   4.303  1.00  0.00    -0.275 OA
ATOM     47  N   UNL     1      -0.548  -4.466   3.786  1.00  0.00    -0.342 N 
ATOM     48  H   UNL     1      -0.182  -5.143   3.132  1.00  0.00     0.164 HD
BRANCH  47  49
ATOM     49  C   UNL     1      -0.048  -4.535   5.163  1.00  0.00     0.192 C 
BRANCH  49  50
ATOM     50  C   UNL     1       1.481  -4.616   5.152  1.00  0.00     0.047 C 
BRANCH  50  51
ATOM     51  C   UNL     1       2.137  -3.229   5.139  1.00  0.00     0.103 C 
BRANCH  51  52
ATOM     52  C   UNL     1       3.518  -3.242   5.792  1.00  0.00     0.226 C 
ATOM     53  O   UNL     1       3.790  -4.107   6.628  1.00  0.00    -0.275 OA
BRANCH  52  54
ATOM     54  N   UNL     1       4.440  -2.285   5.328  1.00  0.00    -0.311 N 
ATOM     55  C   UNL     1       5.223  -2.519   4.108  1.00  0.00     0.153 C 
BRANCH  54  56
ATOM     56  C   UNL     1       4.641  -1.073   6.009  1.00  0.00     0.102 C 
ATOM     57  C   UNL     1       3.896   0.032   5.846  1.00  0.00     0.043 C 
BRANCH  56  58
ATOM     58  C   UNL     1       5.730  -0.939   7.048  1.00  0.00     0.268 C 
ATOM     59  O   UNL     1       6.352  -1.894   7.493  1.00  0.00    -0.268 OA
ATOM     60  N   UNL     1       5.992   0.366   7.390  1.00  0.00    -0.339 N 
ATOM     61  H   UNL     1       5.424   1.100   6.983  1.00  0.00     0.164 HD
BRANCH  60  62
ATOM     62  C   UNL     1       7.051   0.727   8.332  1.00  0.00     0.168 CG0
ATOM     63  C   UNL     1       6.525   0.754   9.762  1.00  0.00     0.041 C 
ATOM     64  G   UNL     1       7.644   2.097   7.943  1.00  0.00     0.000 G0
ENDBRANCH  60  62
ENDBRANCH  56  58
ENDBRANCH  54  56
ENDBRANCH  52  54
ENDBRANCH  51  52
ENDBRANCH  50  51
ENDBRANCH  49  50
BRANCH  49  65
ATOM     65  C   UNL     1      -0.617  -5.750   5.912  1.00  0.00     0.326 C 
ATOM     66  O   UNL     1      -1.416  -5.704   6.836  1.00  0.00    -0.250 OA
BRANCH  65  67
ATOM     67  O   UNL     1      -0.119  -6.941   5.514  1.00  0.00    -0.480 OA
ATOM     68  H   UNL     1      -0.872  -7.559   5.637  1.00  0.00     0.296 HD
ENDBRANCH  65  67
ENDBRANCH  49  65
ENDBRANCH  47  49
ENDBRANCH  43  45
ENDBRANCH   1  43
BRANCH   1  69
ATOM     69  C   UNL     1      -3.978  -5.375   3.007  1.00  0.00    -0.001 C 
ATOM     70  C   UNL     1      -5.126  -5.142   3.667  1.00  0.00     0.001 C 
BRANCH  70  71
ATOM     71  C   UNL     1      -5.661  -5.904   4.797  1.00  0.00    -0.055 C 
ATOM     72  C   UNL     1      -4.846  -6.799   5.393  1.00  0.00    -0.018 C 
ATOM     73  C   UNL     1      -7.081  -5.629   5.221  1.00  0.00     0.044 C 
BRANCH  72  74
ATOM     74  C   UNL     1      -5.124  -7.718   6.574  1.00  0.00     0.038 C 
ATOM     75  C   UNL     1      -4.517  -7.054   7.816  1.00  0.00     0.015 C 
BRANCH  74  76
ATOM     76  C   UNL     1      -4.562  -9.134   6.250  1.00  0.00     0.128 C 
BRANCH  76  77
ATOM     77  O   UNL     1      -5.646 -10.057   6.051  1.00  0.00    -0.381 OA
ATOM     78  C   UNL     1      -5.708 -11.085   7.030  1.00  0.00     0.195 C 
ENDBRANCH  76  77
BRANCH  76  79
ATOM     79  C   UNL     1      -3.536  -9.154   5.090  1.00  0.00     0.068 C 
BRANCH  79  80
ATOM     80  C   UNL     1      -3.899  -9.914   3.837  1.00  0.00    -0.045 A 
ATOM     81  C   UNL     1      -4.747  -9.353   2.873  1.00  0.00     0.004 A 
ATOM     82  C   UNL     1      -3.413 -11.214   3.632  1.00  0.00     0.004 A 
ATOM     83  C   UNL     1      -5.090 -10.068   1.723  1.00  0.00     0.000 A 
ATOM     84  C   UNL     1      -3.757 -11.928   2.483  1.00  0.00     0.000 A 
ATOM     85  C   UNL     1      -4.594 -11.355   1.528  1.00  0.00     0.000 A 
ENDBRANCH  79  80
ENDBRANCH  76  79
ENDBRANCH  74  76
ENDBRANCH  72  74
ENDBRANCH  70  71
ENDBRANCH   1  69
TORSDOF 17
ENDMDL
MODEL 21
REMARK VINA RESULT:    -5.686      2.728     11.897
REMARK INTER + INTRA:         -25.307
REMARK INTER:                 -18.971
REMARK INTRA:                  -6.336
REMARK UNBOUND:                -8.320
REMARK SMILES C=C1C(=O)N[C@H](C)C(=O)N[C@@H](CC(C)C)C(=O)N[C@@H](C(=O)O)[C@H](C)C(=O)N[C@@H](CCCN=C(N)N)C(=O)N[C@@H](/C=C/C(C)=C/[C@H](C)[C@H](Cc2ccccc2)OC)[C@H](C)C(=O)N[C@@H](C(=O)O)CCC(=O)N1C
REMARK SMILES IDX 39 1 38 2 37 3 36 4 28 6 27 7 25 8 26 9 23 11 24 12 19 13
REMARK SMILES IDX 18 14 16 15 17 16 11 18 10 19 8 20 9 21 12 24 13 25 14 26
REMARK SMILES IDX 15 27 20 28 21 29 22 30 29 32 30 33 31 34 32 35 33 36 34 37
REMARK SMILES IDX 35 38 57 43 58 44 59 45 60 46 61 47 62 49 66 50 67 51 68 52
REMARK SMILES IDX 69 53 70 54 71 55 2 56 1 57 3 58 4 59 5 60 6 62 7 63 63 65
REMARK SMILES IDX 64 66 65 67 40 69 41 70 42 71 44 72 43 73 45 74 46 75 47 76
REMARK SMILES IDX 55 77 56 78 48 79 49 80 50 81 54 82 51 83 53 84 52 85
REMARK H PARENT 38 5 27 10 18 17 10 22 22 31 34 39 34 40 35 41 35 42 61 48
REMARK H PARENT 5 61 65 68
REMARK Flexibility Score:  369.900
ROOT
ATOM      1  C   UNL     1      -6.174  -8.470  -3.156  1.00  0.00     0.117 C 
ENDROOT
BRANCH   1   2
ATOM      2  N   UNL     1      -6.192  -9.798  -2.542  1.00  0.00    -0.347 N 
ATOM      3  O   UNL     1      -4.145 -10.518  -3.290  1.00  0.00    -0.273 OA
ATOM      4  C   UNL     1      -5.133 -10.684  -2.582  1.00  0.00     0.243 C 
ATOM      5  H   UNL     1      -7.000 -10.085  -2.009  1.00  0.00     0.164 HD
BRANCH   4   6
ATOM      6  C   UNL     1      -5.378 -11.986  -1.779  1.00  0.00     0.171 C 
BRANCH   6   7
ATOM      7  N   UNL     1      -5.183 -11.748  -0.340  1.00  0.00    -0.344 N 
ATOM      8  C   UNL     1      -3.971 -12.013   0.258  1.00  0.00     0.226 C 
ATOM      9  O   UNL     1      -3.017 -12.474  -0.358  1.00  0.00    -0.275 OA
ATOM     10  H   UNL     1      -5.968 -11.431   0.216  1.00  0.00     0.164 HD
BRANCH   8  11
ATOM     11  C   UNL     1      -3.912 -11.663   1.735  1.00  0.00     0.109 C 
ATOM     12  C   UNL     1      -2.471 -11.751   2.239  1.00  0.00     0.021 C 
BRANCH  11  13
ATOM     13  C   UNL     1      -4.602 -10.307   1.977  1.00  0.00     0.204 C 
BRANCH  13  14
ATOM     14  N   UNL     1      -4.754 -10.012   3.405  1.00  0.00    -0.340 N 
ATOM     15  C   UNL     1      -5.983  -9.885   4.017  1.00  0.00     0.243 C 
ATOM     16  O   UNL     1      -7.041 -10.071   3.418  1.00  0.00    -0.273 OA
ATOM     17  H   UNL     1      -3.928  -9.699   3.922  1.00  0.00     0.164 HD
BRANCH  15  18
ATOM     18  C   UNL     1      -5.898  -9.369   5.474  1.00  0.00     0.171 C 
BRANCH  18  19
ATOM     19  N   UNL     1      -5.643 -10.536   6.317  1.00  0.00    -0.343 N 
ATOM     20  C   UNL     1      -6.640 -11.439   6.632  1.00  0.00     0.242 CG0
ATOM     21  O   UNL     1      -7.813 -11.234   6.329  1.00  0.00    -0.273 OA
ATOM     22  H   UNL     1      -4.712 -10.688   6.689  1.00  0.00     0.164 HD
ATOM     23  G   UNL     1      -6.165 -12.647   7.465  1.00  0.00     0.000 G0
ENDBRANCH  18  19
BRANCH  18  24
ATOM     24  C   UNL     1      -4.787  -8.322   5.614  1.00  0.00     0.038 C 
BRANCH  24  25
ATOM     25  C   UNL     1      -5.285  -6.885   5.876  1.00  0.00    -0.015 C 
ATOM     26  C   UNL     1      -6.583  -6.853   6.684  1.00  0.00     0.007 C 
ATOM     27  C   UNL     1      -5.491  -6.160   4.543  1.00  0.00     0.007 C 
ENDBRANCH  24  25
ENDBRANCH  18  24
ENDBRANCH  15  18
ENDBRANCH  13  14
BRANCH  13  28
ATOM     28  C   UNL     1      -3.854  -9.127   1.348  1.00  0.00     0.327 C 
ATOM     29  O   UNL     1      -3.460  -9.055   0.194  1.00  0.00    -0.250 OA
BRANCH  28  30
ATOM     30  O   UNL     1      -3.543  -8.163   2.238  1.00  0.00    -0.480 OA
ATOM     31  H   UNL     1      -3.413  -7.362   1.689  1.00  0.00     0.296 HD
ENDBRANCH  28  30
ENDBRANCH  13  28
ENDBRANCH  11  13
ENDBRANCH   8  11
ENDBRANCH   6   7
BRANCH   6  32
ATOM     32  C   UNL     1      -6.797 -12.493  -2.063  1.00  0.00     0.037 C 
BRANCH  32  33
ATOM     33  C   UNL     1      -7.078 -13.839  -1.381  1.00  0.00     0.026 C 
BRANCH  33  34
ATOM     34  C   UNL     1      -8.393 -13.836  -0.601  1.00  0.00     0.146 C 
BRANCH  34  35
ATOM     35  N   UNL     1      -9.425 -13.219  -1.421  1.00  0.00    -0.254 NA
ATOM     36  C   UNL     1     -10.458 -12.728  -0.843  1.00  0.00     0.185 C 
ATOM     37  N   UNL     1     -11.413 -12.152  -1.590  1.00  0.00    -0.370 N 
ATOM     38  N   UNL     1     -10.757 -12.694   0.467  1.00  0.00    -0.370 N 
ATOM     39  H   UNL     1     -11.256 -12.128  -2.589  1.00  0.00     0.159 HD
ATOM     40  H   UNL     1     -12.159 -11.596  -1.207  1.00  0.00     0.159 HD
ATOM     41  H   UNL     1     -11.666 -12.405   0.787  1.00  0.00     0.159 HD
ATOM     42  H   UNL     1     -10.135 -13.106   1.145  1.00  0.00     0.159 HD
ENDBRANCH  34  35
ENDBRANCH  33  34
ENDBRANCH  32  33
ENDBRANCH   6  32
ENDBRANCH   4   6
ENDBRANCH   1   2
BRANCH   1  43
ATOM     43  C   UNL     1      -6.568  -8.612  -4.655  1.00  0.00     0.102 C 
ATOM     44  C   UNL     1      -7.079 -10.016  -5.023  1.00  0.00     0.020 C 
BRANCH  43  45
ATOM     45  C   UNL     1      -5.452  -8.098  -5.568  1.00  0.00     0.225 C 
ATOM     46  O   UNL     1      -5.479  -6.994  -6.105  1.00  0.00    -0.275 OA
ATOM     47  N   UNL     1      -4.442  -8.996  -5.833  1.00  0.00    -0.342 N 
ATOM     48  H   UNL     1      -4.356  -9.831  -5.272  1.00  0.00     0.164 HD
BRANCH  47  49
ATOM     49  C   UNL     1      -3.290  -8.630  -6.662  1.00  0.00     0.192 C 
BRANCH  49  50
ATOM     50  C   UNL     1      -3.049  -9.715  -7.715  1.00  0.00     0.047 C 
BRANCH  50  51
ATOM     51  C   UNL     1      -2.498  -9.140  -9.027  1.00  0.00     0.103 C 
BRANCH  51  52
ATOM     52  C   UNL     1      -3.546  -9.141 -10.139  1.00  0.00     0.226 C 
ATOM     53  O   UNL     1      -3.526 -10.027 -10.995  1.00  0.00    -0.275 OA
BRANCH  52  54
ATOM     54  N   UNL     1      -4.537  -8.145 -10.066  1.00  0.00    -0.311 N 
ATOM     55  C   UNL     1      -4.176  -6.724  -9.980  1.00  0.00     0.153 C 
BRANCH  54  56
ATOM     56  C   UNL     1      -5.904  -8.470 -10.079  1.00  0.00     0.102 C 
ATOM     57  C   UNL     1      -6.665  -8.635  -8.984  1.00  0.00     0.043 C 
BRANCH  56  58
ATOM     58  C   UNL     1      -6.653  -8.618 -11.382  1.00  0.00     0.268 C 
ATOM     59  O   UNL     1      -6.664  -9.653 -12.034  1.00  0.00    -0.268 OA
ATOM     60  N   UNL     1      -7.371  -7.496 -11.723  1.00  0.00    -0.339 N 
ATOM     61  H   UNL     1      -7.300  -6.675 -11.134  1.00  0.00     0.164 HD
BRANCH  60  62
ATOM     62  C   UNL     1      -8.218  -7.446 -12.914  1.00  0.00     0.168 CG0
ATOM     63  C   UNL     1      -9.607  -6.919 -12.576  1.00  0.00     0.041 C 
ATOM     64  G   UNL     1      -8.305  -8.850 -13.546  1.00  0.00     0.000 G0
ENDBRANCH  60  62
ENDBRANCH  56  58
ENDBRANCH  54  56
ENDBRANCH  52  54
ENDBRANCH  51  52
ENDBRANCH  50  51
ENDBRANCH  49  50
BRANCH  49  65
ATOM     65  C   UNL     1      -2.019  -8.449  -5.818  1.00  0.00     0.326 C 
ATOM     66  O   UNL     1      -1.905  -8.736  -4.635  1.00  0.00    -0.250 OA
BRANCH  65  67
ATOM     67  O   UNL     1      -0.987  -7.869  -6.470  1.00  0.00    -0.480 OA
ATOM     68  H   UNL     1      -1.125  -6.910  -6.315  1.00  0.00     0.296 HD
ENDBRANCH  65  67
ENDBRANCH  49  65
ENDBRANCH  47  49
ENDBRANCH  43  45
ENDBRANCH   1  43
BRANCH   1  69
ATOM     69  C   UNL     1      -4.829  -7.860  -2.806  1.00  0.00    -0.001 C 
ATOM     70  C   UNL     1      -4.581  -6.594  -2.426  1.00  0.00     0.001 C 
BRANCH  70  71
ATOM     71  C   UNL     1      -3.281  -6.022  -2.070  1.00  0.00    -0.055 C 
ATOM     72  C   UNL     1      -2.967  -5.944  -0.760  1.00  0.00    -0.018 C 
ATOM     73  C   UNL     1      -2.382  -5.568  -3.191  1.00  0.00     0.044 C 
BRANCH  72  74
ATOM     74  C   UNL     1      -1.704  -5.407  -0.102  1.00  0.00     0.038 C 
ATOM     75  C   UNL     1      -0.797  -6.609   0.187  1.00  0.00     0.015 C 
BRANCH  74  76
ATOM     76  C   UNL     1      -2.106  -4.576   1.152  1.00  0.00     0.128 C 
BRANCH  76  77
ATOM     77  O   UNL     1      -3.330  -5.087   1.707  1.00  0.00    -0.381 OA
ATOM     78  C   UNL     1      -4.224  -4.074   2.148  1.00  0.00     0.195 C 
ENDBRANCH  76  77
BRANCH  76  79
ATOM     79  C   UNL     1      -0.979  -4.444   2.208  1.00  0.00     0.068 C 
BRANCH  79  80
ATOM     80  C   UNL     1      -1.184  -5.107   3.548  1.00  0.00    -0.045 A 
ATOM     81  C   UNL     1      -1.590  -4.366   4.666  1.00  0.00     0.004 A 
ATOM     82  C   UNL     1      -0.941  -6.480   3.702  1.00  0.00     0.004 A 
ATOM     83  C   UNL     1      -1.764  -4.985   5.905  1.00  0.00     0.000 A 
ATOM     84  C   UNL     1      -1.114  -7.098   4.942  1.00  0.00     0.000 A 
ATOM     85  C   UNL     1      -1.527  -6.351   6.043  1.00  0.00     0.000 A 
ENDBRANCH  79  80
ENDBRANCH  76  79
ENDBRANCH  74  76
ENDBRANCH  72  74
ENDBRANCH  70  71
ENDBRANCH   1  69
TORSDOF 17
ENDMDL
MODEL 22
REMARK VINA RESULT:    -5.664     11.182     15.453
REMARK INTER + INTRA:         -25.241
REMARK INTER:                 -16.308
REMARK INTRA:                  -8.933
REMARK UNBOUND:                -8.320
REMARK SMILES C=C1C(=O)N[C@H](C)C(=O)N[C@@H](CC(C)C)C(=O)N[C@@H](C(=O)O)[C@H](C)C(=O)N[C@@H](CCCN=C(N)N)C(=O)N[C@@H](/C=C/C(C)=C/[C@H](C)[C@H](Cc2ccccc2)OC)[C@H](C)C(=O)N[C@@H](C(=O)O)CCC(=O)N1C
REMARK SMILES IDX 39 1 38 2 37 3 36 4 28 6 27 7 25 8 26 9 23 11 24 12 19 13
REMARK SMILES IDX 18 14 16 15 17 16 11 18 10 19 8 20 9 21 12 24 13 25 14 26
REMARK SMILES IDX 15 27 20 28 21 29 22 30 29 32 30 33 31 34 32 35 33 36 34 37
REMARK SMILES IDX 35 38 57 43 58 44 59 45 60 46 61 47 62 49 66 50 67 51 68 52
REMARK SMILES IDX 69 53 70 54 71 55 2 56 1 57 3 58 4 59 5 60 6 62 7 63 63 65
REMARK SMILES IDX 64 66 65 67 40 69 41 70 42 71 44 72 43 73 45 74 46 75 47 76
REMARK SMILES IDX 55 77 56 78 48 79 49 80 50 81 54 82 51 83 53 84 52 85
REMARK H PARENT 38 5 27 10 18 17 10 22 22 31 34 39 34 40 35 41 35 42 61 48
REMARK H PARENT 5 61 65 68
REMARK Flexibility Score:  369.900
ROOT
ATOM      1  C   UNL     1       9.938  -3.744   3.897  1.00  0.00     0.117 C 
ENDROOT
BRANCH   1   2
ATOM      2  N   UNL     1       8.638  -3.560   4.544  1.00  0.00    -0.347 N 
ATOM      3  O   UNL     1       7.327  -4.384   2.849  1.00  0.00    -0.273 OA
ATOM      4  C   UNL     1       7.439  -3.981   4.002  1.00  0.00     0.243 C 
ATOM      5  H   UNL     1       8.597  -3.148   5.463  1.00  0.00     0.164 HD
BRANCH   4   6
ATOM      6  C   UNL     1       6.219  -3.743   4.928  1.00  0.00     0.171 C 
BRANCH   6   7
ATOM      7  N   UNL     1       6.533  -4.153   6.307  1.00  0.00    -0.344 N 
ATOM      8  C   UNL     1       5.689  -4.995   6.998  1.00  0.00     0.226 C 
ATOM      9  O   UNL     1       4.643  -5.420   6.521  1.00  0.00    -0.275 OA
ATOM     10  H   UNL     1       7.353  -3.769   6.758  1.00  0.00     0.164 HD
BRANCH   8  11
ATOM     11  C   UNL     1       6.178  -5.368   8.387  1.00  0.00     0.109 C 
ATOM     12  C   UNL     1       5.061  -5.162   9.411  1.00  0.00     0.021 C 
BRANCH  11  13
ATOM     13  C   UNL     1       6.782  -6.786   8.363  1.00  0.00     0.204 C 
BRANCH  13  14
ATOM     14  N   UNL     1       5.893  -7.754   7.712  1.00  0.00    -0.340 N 
ATOM     15  C   UNL     1       5.225  -8.740   8.405  1.00  0.00     0.243 C 
ATOM     16  O   UNL     1       5.280  -8.840   9.630  1.00  0.00    -0.273 OA
ATOM     17  H   UNL     1       5.923  -7.822   6.692  1.00  0.00     0.164 HD
BRANCH  15  18
ATOM     18  C   UNL     1       4.515  -9.767   7.489  1.00  0.00     0.171 C 
BRANCH  18  19
ATOM     19  N   UNL     1       5.561 -10.623   6.932  1.00  0.00    -0.343 N 
ATOM     20  C   UNL     1       5.871 -10.612   5.586  1.00  0.00     0.242 CG0
ATOM     21  O   UNL     1       5.196  -9.982   4.775  1.00  0.00    -0.273 OA
ATOM     22  H   UNL     1       6.071 -11.249   7.545  1.00  0.00     0.164 HD
ATOM     23  G   UNL     1       7.054 -11.524   5.197  1.00  0.00     0.000 G0
ENDBRANCH  18  19
BRANCH  18  24
ATOM     24  C   UNL     1       3.487 -10.581   8.284  1.00  0.00     0.038 C 
BRANCH  24  25
ATOM     25  C   UNL     1       2.089 -10.661   7.635  1.00  0.00    -0.015 C 
ATOM     26  C   UNL     1       0.992 -10.996   8.646  1.00  0.00     0.007 C 
ATOM     27  C   UNL     1       2.098 -11.710   6.519  1.00  0.00     0.007 C 
ENDBRANCH  24  25
ENDBRANCH  18  24
ENDBRANCH  15  18
ENDBRANCH  13  14
BRANCH  13  28
ATOM     28  C   UNL     1       8.133  -6.855   7.644  1.00  0.00     0.327 C 
ATOM     29  O   UNL     1       8.980  -5.976   7.612  1.00  0.00    -0.250 OA
BRANCH  28  30
ATOM     30  O   UNL     1       8.285  -7.976   6.911  1.00  0.00    -0.480 OA
ATOM     31  H   UNL     1       9.241  -7.998   6.698  1.00  0.00     0.296 HD
ENDBRANCH  28  30
ENDBRANCH  13  28
ENDBRANCH  11  13
ENDBRANCH   8  11
ENDBRANCH   6   7
BRANCH   6  32
ATOM     32  C   UNL     1       5.827  -2.263   4.873  1.00  0.00     0.037 C 
BRANCH  32  33
ATOM     33  C   UNL     1       6.519  -1.439   5.968  1.00  0.00     0.026 C 
BRANCH  33  34
ATOM     34  C   UNL     1       5.525  -0.828   6.957  1.00  0.00     0.146 C 
BRANCH  34  35
ATOM     35  N   UNL     1       6.178   0.265   7.664  1.00  0.00    -0.254 NA
ATOM     36  C   UNL     1       6.419   0.131   8.915  1.00  0.00     0.185 C 
ATOM     37  N   UNL     1       7.025   1.130   9.576  1.00  0.00    -0.370 N 
ATOM     38  N   UNL     1       6.148  -0.912   9.721  1.00  0.00    -0.370 N 
ATOM     39  H   UNL     1       7.271   1.948   9.034  1.00  0.00     0.159 HD
ATOM     40  H   UNL     1       7.401   1.036  10.503  1.00  0.00     0.159 HD
ATOM     41  H   UNL     1       6.261  -0.842  10.719  1.00  0.00     0.159 HD
ATOM     42  H   UNL     1       5.679  -1.729   9.362  1.00  0.00     0.159 HD
ENDBRANCH  34  35
ENDBRANCH  33  34
ENDBRANCH  32  33
ENDBRANCH   6  32
ENDBRANCH   4   6
ENDBRANCH   1   2
BRANCH   1  43
ATOM     43  C   UNL     1      10.753  -4.789   4.713  1.00  0.00     0.102 C 
ATOM     44  C   UNL     1      12.264  -4.502   4.738  1.00  0.00     0.020 C 
BRANCH  43  45
ATOM     45  C   UNL     1      10.399  -6.217   4.287  1.00  0.00     0.225 C 
ATOM     46  O   UNL     1      10.556  -7.193   5.015  1.00  0.00    -0.275 OA
ATOM     47  N   UNL     1       9.975  -6.359   2.985  1.00  0.00    -0.342 N 
ATOM     48  H   UNL     1       9.708  -5.542   2.454  1.00  0.00     0.164 HD
BRANCH  47  49
ATOM     49  C   UNL     1       9.567  -7.662   2.450  1.00  0.00     0.192 C 
BRANCH  49  50
ATOM     50  C   UNL     1       9.914  -7.737   0.961  1.00  0.00     0.047 C 
BRANCH  50  51
ATOM     51  C   UNL     1      10.370  -9.140   0.539  1.00  0.00     0.103 C 
BRANCH  51  52
ATOM     52  C   UNL     1       9.205 -10.000   0.053  1.00  0.00     0.226 C 
ATOM     53  O   UNL     1       8.472  -9.582  -0.846  1.00  0.00    -0.275 OA
BRANCH  52  54
ATOM     54  N   UNL     1       9.088 -11.279   0.627  1.00  0.00    -0.311 N 
ATOM     55  C   UNL     1      10.050 -12.343   0.308  1.00  0.00     0.153 C 
BRANCH  54  56
ATOM     56  C   UNL     1       8.054 -11.586   1.528  1.00  0.00     0.102 C 
ATOM     57  C   UNL     1       6.849 -12.064   1.181  1.00  0.00     0.043 C 
BRANCH  56  58
ATOM     58  C   UNL     1       8.254 -11.433   3.018  1.00  0.00     0.268 C 
ATOM     59  O   UNL     1       9.313 -11.079   3.518  1.00  0.00    -0.268 OA
ATOM     60  N   UNL     1       7.111 -11.669   3.743  1.00  0.00    -0.339 N 
ATOM     61  H   UNL     1       6.277 -11.969   3.253  1.00  0.00     0.164 HD
BRANCH  60  62
ATOM     62  C   UNL     1       7.065 -11.516   5.197  1.00  0.00     0.168 CG0
ATOM     63  C   UNL     1       6.946 -12.870   5.885  1.00  0.00     0.041 C 
ATOM     64  G   UNL     1       5.886 -10.601   5.584  1.00  0.00     0.000 G0
ENDBRANCH  60  62
ENDBRANCH  56  58
ENDBRANCH  54  56
ENDBRANCH  52  54
ENDBRANCH  51  52
ENDBRANCH  50  51
ENDBRANCH  49  50
BRANCH  49  65
ATOM     65  C   UNL     1       8.061  -7.905   2.635  1.00  0.00     0.326 C 
ATOM     66  O   UNL     1       7.200  -7.704   1.792  1.00  0.00    -0.250 OA
BRANCH  65  67
ATOM     67  O   UNL     1       7.706  -8.324   3.870  1.00  0.00    -0.480 OA
ATOM     68  H   UNL     1       8.243  -9.135   4.003  1.00  0.00     0.296 HD
ENDBRANCH  65  67
ENDBRANCH  49  65
ENDBRANCH  47  49
ENDBRANCH  43  45
ENDBRANCH   1  43
BRANCH   1  69
ATOM     69  C   UNL     1      10.515  -2.354   3.702  1.00  0.00    -0.001 C 
ATOM     70  C   UNL     1      11.298  -1.928   2.695  1.00  0.00     0.001 C 
BRANCH  70  71
ATOM     71  C   UNL     1      11.831  -0.578   2.506  1.00  0.00    -0.055 C 
ATOM     72  C   UNL     1      11.640   0.317   3.499  1.00  0.00    -0.018 C 
ATOM     73  C   UNL     1      12.563  -0.285   1.223  1.00  0.00     0.044 C 
BRANCH  72  74
ATOM     74  C   UNL     1      12.078   1.772   3.581  1.00  0.00     0.038 C 
ATOM     75  C   UNL     1      13.370   1.809   4.407  1.00  0.00     0.015 C 
BRANCH  74  76
ATOM     76  C   UNL     1      10.907   2.616   4.163  1.00  0.00     0.128 C 
BRANCH  76  77
ATOM     77  O   UNL     1      10.317   3.418   3.126  1.00  0.00    -0.381 OA
ATOM     78  C   UNL     1      10.750   3.069   1.818  1.00  0.00     0.195 C 
ENDBRANCH  76  77
BRANCH  76  79
ATOM     79  C   UNL     1       9.860   1.785   4.946  1.00  0.00     0.068 C 
BRANCH  79  80
ATOM     80  C   UNL     1       8.446   1.749   4.418  1.00  0.00    -0.045 A 
ATOM     81  C   UNL     1       7.454   2.580   4.954  1.00  0.00     0.004 A 
ATOM     82  C   UNL     1       8.096   0.857   3.393  1.00  0.00     0.004 A 
ATOM     83  C   UNL     1       6.145   2.531   4.470  1.00  0.00     0.000 A 
ATOM     84  C   UNL     1       6.787   0.808   2.909  1.00  0.00     0.000 A 
ATOM     85  C   UNL     1       5.813   1.646   3.446  1.00  0.00     0.000 A 
ENDBRANCH  79  80
ENDBRANCH  76  79
ENDBRANCH  74  76
ENDBRANCH  72  74
ENDBRANCH  70  71
ENDBRANCH   1  69
TORSDOF 17
ENDMDL
MODEL 23
REMARK VINA RESULT:    -5.653      3.147      7.024
REMARK INTER + INTRA:         -25.210
REMARK INTER:                 -18.727
REMARK INTRA:                  -6.483
REMARK UNBOUND:                -8.320
REMARK SMILES C=C1C(=O)N[C@H](C)C(=O)N[C@@H](CC(C)C)C(=O)N[C@@H](C(=O)O)[C@H](C)C(=O)N[C@@H](CCCN=C(N)N)C(=O)N[C@@H](/C=C/C(C)=C/[C@H](C)[C@H](Cc2ccccc2)OC)[C@H](C)C(=O)N[C@@H](C(=O)O)CCC(=O)N1C
REMARK SMILES IDX 39 1 38 2 37 3 36 4 28 6 27 7 25 8 26 9 23 11 24 12 19 13
REMARK SMILES IDX 18 14 16 15 17 16 11 18 10 19 8 20 9 21 12 24 13 25 14 26
REMARK SMILES IDX 15 27 20 28 21 29 22 30 29 32 30 33 31 34 32 35 33 36 34 37
REMARK SMILES IDX 35 38 57 43 58 44 59 45 60 46 61 47 62 49 66 50 67 51 68 52
REMARK SMILES IDX 69 53 70 54 71 55 2 56 1 57 3 58 4 59 5 60 6 62 7 63 63 65
REMARK SMILES IDX 64 66 65 67 40 69 41 70 42 71 44 72 43 73 45 74 46 75 47 76
REMARK SMILES IDX 55 77 56 78 48 79 49 80 50 81 54 82 51 83 53 84 52 85
REMARK H PARENT 38 5 27 10 18 17 10 22 22 31 34 39 34 40 35 41 35 42 61 48
REMARK H PARENT 5 61 65 68
REMARK Flexibility Score:  369.900
ROOT
ATOM      1  C   UNL     1      -3.625  -9.221   2.994  1.00  0.00     0.117 C 
ENDROOT
BRANCH   1   2
ATOM      2  N   UNL     1      -2.652  -8.486   2.185  1.00  0.00    -0.347 N 
ATOM      3  O   UNL     1      -1.048 -10.124   2.060  1.00  0.00    -0.273 OA
ATOM      4  C   UNL     1      -1.477  -9.031   1.704  1.00  0.00     0.243 C 
ATOM      5  H   UNL     1      -2.855  -7.537   1.908  1.00  0.00     0.164 HD
BRANCH   4   6
ATOM      6  C   UNL     1      -0.666  -8.067   0.802  1.00  0.00     0.171 C 
BRANCH   6   7
ATOM      7  N   UNL     1      -1.531  -7.485  -0.237  1.00  0.00    -0.344 N 
ATOM      8  C   UNL     1      -2.007  -8.261  -1.271  1.00  0.00     0.226 C 
ATOM      9  O   UNL     1      -1.723  -9.447  -1.392  1.00  0.00    -0.275 OA
ATOM     10  H   UNL     1      -1.733  -6.493  -0.208  1.00  0.00     0.164 HD
BRANCH   8  11
ATOM     11  C   UNL     1      -2.930  -7.529  -2.229  1.00  0.00     0.109 C 
ATOM     12  C   UNL     1      -3.542  -6.308  -1.541  1.00  0.00     0.021 C 
BRANCH  11  13
ATOM     13  C   UNL     1      -2.183  -7.225  -3.544  1.00  0.00     0.204 C 
BRANCH  13  14
ATOM     14  N   UNL     1      -3.099  -7.088  -4.680  1.00  0.00    -0.340 N 
ATOM     15  C   UNL     1      -2.945  -7.793  -5.855  1.00  0.00     0.243 C 
ATOM     16  O   UNL     1      -2.061  -8.633  -6.010  1.00  0.00    -0.273 OA
ATOM     17  H   UNL     1      -3.758  -6.305  -4.675  1.00  0.00     0.164 HD
BRANCH  15  18
ATOM     18  C   UNL     1      -3.903  -7.333  -6.982  1.00  0.00     0.171 C 
BRANCH  18  19
ATOM     19  N   UNL     1      -3.622  -8.179  -8.140  1.00  0.00    -0.343 N 
ATOM     20  C   UNL     1      -3.660  -7.685  -9.430  1.00  0.00     0.242 CG0
ATOM     21  O   UNL     1      -4.059  -6.548  -9.672  1.00  0.00    -0.273 OA
ATOM     22  H   UNL     1      -3.400  -9.158  -7.999  1.00  0.00     0.164 HD
ATOM     23  G   UNL     1      -3.259  -8.705 -10.514  1.00  0.00     0.000 G0
ENDBRANCH  18  19
BRANCH  18  24
ATOM     24  C   UNL     1      -5.364  -7.458  -6.535  1.00  0.00     0.038 C 
BRANCH  24  25
ATOM     25  C   UNL     1      -5.735  -8.824  -5.919  1.00  0.00    -0.015 C 
ATOM     26  C   UNL     1      -6.603  -9.670  -6.851  1.00  0.00     0.007 C 
ATOM     27  C   UNL     1      -6.465  -8.608  -4.590  1.00  0.00     0.007 C 
ENDBRANCH  24  25
ENDBRANCH  18  24
ENDBRANCH  15  18
ENDBRANCH  13  14
BRANCH  13  28
ATOM     28  C   UNL     1      -1.345  -5.945  -3.480  1.00  0.00     0.327 C 
ATOM     29  O   UNL     1      -1.547  -4.917  -4.107  1.00  0.00    -0.250 OA
BRANCH  28  30
ATOM     30  O   UNL     1      -0.236  -6.076  -2.723  1.00  0.00    -0.480 OA
ATOM     31  H   UNL     1      -0.364  -5.432  -1.995  1.00  0.00     0.296 HD
ENDBRANCH  28  30
ENDBRANCH  13  28
ENDBRANCH  11  13
ENDBRANCH   8  11
ENDBRANCH   6   7
BRANCH   6  32
ATOM     32  C   UNL     1      -0.040  -6.970   1.671  1.00  0.00     0.037 C 
BRANCH  32  33
ATOM     33  C   UNL     1      -0.679  -5.597   1.420  1.00  0.00     0.026 C 
BRANCH  33  34
ATOM     34  C   UNL     1      -1.231  -4.966   2.698  1.00  0.00     0.146 C 
BRANCH  34  35
ATOM     35  N   UNL     1      -2.652  -5.269   2.797  1.00  0.00    -0.254 NA
ATOM     36  C   UNL     1      -3.170  -5.418   3.959  1.00  0.00     0.185 C 
ATOM     37  N   UNL     1      -4.480  -5.692   4.061  1.00  0.00    -0.370 N 
ATOM     38  N   UNL     1      -2.578  -5.337   5.164  1.00  0.00    -0.370 N 
ATOM     39  H   UNL     1      -4.999  -5.758   3.195  1.00  0.00     0.159 HD
ATOM     40  H   UNL     1      -4.990  -5.651   4.926  1.00  0.00     0.159 HD
ATOM     41  H   UNL     1      -3.063  -5.612   6.002  1.00  0.00     0.159 HD
ATOM     42  H   UNL     1      -1.590  -5.152   5.238  1.00  0.00     0.159 HD
ENDBRANCH  34  35
ENDBRANCH  33  34
ENDBRANCH  32  33
ENDBRANCH   6  32
ENDBRANCH   4   6
ENDBRANCH   1   2
BRANCH   1  43
ATOM     43  C   UNL     1      -3.052  -9.384   4.431  1.00  0.00     0.102 C 
ATOM     44  C   UNL     1      -2.565 -10.811   4.737  1.00  0.00     0.020 C 
BRANCH  43  45
ATOM     45  C   UNL     1      -4.019  -8.820   5.476  1.00  0.00     0.225 C 
ATOM     46  O   UNL     1      -3.702  -7.949   6.281  1.00  0.00    -0.275 OA
ATOM     47  N   UNL     1      -5.256  -9.421   5.524  1.00  0.00    -0.342 N 
ATOM     48  H   UNL     1      -5.550 -10.021   4.766  1.00  0.00     0.164 HD
BRANCH  47  49
ATOM     49  C   UNL     1      -6.295  -8.961   6.450  1.00  0.00     0.192 C 
BRANCH  49  50
ATOM     50  C   UNL     1      -7.364 -10.046   6.604  1.00  0.00     0.047 C 
BRANCH  50  51
ATOM     51  C   UNL     1      -6.821 -11.447   6.288  1.00  0.00     0.103 C 
BRANCH  51  52
ATOM     52  C   UNL     1      -7.926 -12.501   6.273  1.00  0.00     0.226 C 
ATOM     53  O   UNL     1      -9.095 -12.156   6.090  1.00  0.00    -0.275 OA
BRANCH  52  54
ATOM     54  N   UNL     1      -7.516 -13.841   6.398  1.00  0.00    -0.311 N 
ATOM     55  C   UNL     1      -7.027 -14.594   5.236  1.00  0.00     0.153 C 
BRANCH  54  56
ATOM     56  C   UNL     1      -7.552 -14.506   7.636  1.00  0.00     0.102 C 
ATOM     57  C   UNL     1      -8.666 -14.972   8.225  1.00  0.00     0.043 C 
BRANCH  56  58
ATOM     58  C   UNL     1      -6.281 -14.793   8.399  1.00  0.00     0.268 C 
ATOM     59  O   UNL     1      -5.582 -15.776   8.190  1.00  0.00    -0.268 OA
ATOM     60  N   UNL     1      -5.958 -13.808   9.301  1.00  0.00    -0.339 N 
ATOM     61  H   UNL     1      -6.595 -13.030   9.422  1.00  0.00     0.164 HD
BRANCH  60  62
ATOM     62  C   UNL     1      -4.734 -13.855  10.101  1.00  0.00     0.168 CG0
ATOM     63  C   UNL     1      -5.009 -14.423  11.487  1.00  0.00     0.041 C 
ATOM     64  G   UNL     1      -4.128 -12.440  10.201  1.00  0.00     0.000 G0
ENDBRANCH  60  62
ENDBRANCH  56  58
ENDBRANCH  54  56
ENDBRANCH  52  54
ENDBRANCH  51  52
ENDBRANCH  50  51
ENDBRANCH  49  50
BRANCH  49  65
ATOM     65  C   UNL     1      -6.956  -7.662   5.961  1.00  0.00     0.326 C 
ATOM     66  O   UNL     1      -7.092  -7.330   4.793  1.00  0.00    -0.250 OA
BRANCH  65  67
ATOM     67  O   UNL     1      -7.353  -6.827   6.946  1.00  0.00    -0.480 OA
ATOM     68  H   UNL     1      -7.995  -6.233   6.501  1.00  0.00     0.296 HD
ENDBRANCH  65  67
ENDBRANCH  49  65
ENDBRANCH  47  49
ENDBRANCH  43  45
ENDBRANCH   1  43
BRANCH   1  69
ATOM     69  C   UNL     1      -3.982 -10.465   2.201  1.00  0.00    -0.001 C 
ATOM     70  C   UNL     1      -4.668 -10.528   1.045  1.00  0.00     0.001 C 
BRANCH  70  71
ATOM     71  C   UNL     1      -4.988 -11.734   0.278  1.00  0.00    -0.055 C 
ATOM     72  C   UNL     1      -4.991 -11.638  -1.069  1.00  0.00    -0.018 C 
ATOM     73  C   UNL     1      -5.282 -12.997   1.044  1.00  0.00     0.044 C 
BRANCH  72  74
ATOM     74  C   UNL     1      -5.280 -12.710  -2.110  1.00  0.00     0.038 C 
ATOM     75  C   UNL     1      -3.989 -13.514  -2.303  1.00  0.00     0.015 C 
BRANCH  74  76
ATOM     76  C   UNL     1      -5.821 -12.023  -3.399  1.00  0.00     0.128 C 
BRANCH  76  77
ATOM     77  O   UNL     1      -4.783 -11.956  -4.391  1.00  0.00    -0.381 OA
ATOM     78  C   UNL     1      -5.082 -12.676  -5.580  1.00  0.00     0.195 C 
ENDBRANCH  76  77
BRANCH  76  79
ATOM     79  C   UNL     1      -7.131 -12.648  -3.942  1.00  0.00     0.068 C 
BRANCH  79  80
ATOM     80  C   UNL     1      -8.424 -12.294  -3.248  1.00  0.00    -0.045 A 
ATOM     81  C   UNL     1      -8.951 -13.114  -2.242  1.00  0.00     0.004 A 
ATOM     82  C   UNL     1      -9.136 -11.145  -3.623  1.00  0.00     0.004 A 
ATOM     83  C   UNL     1     -10.155 -12.788  -1.615  1.00  0.00     0.000 A 
ATOM     84  C   UNL     1     -10.341 -10.819  -2.996  1.00  0.00     0.000 A 
ATOM     85  C   UNL     1     -10.849 -11.640  -1.991  1.00  0.00     0.000 A 
ENDBRANCH  79  80
ENDBRANCH  76  79
ENDBRANCH  74  76
ENDBRANCH  72  74
ENDBRANCH  70  71
ENDBRANCH   1  69
TORSDOF 17
ENDMDL
MODEL 24
REMARK VINA RESULT:    -5.645      2.826     11.469
REMARK INTER + INTRA:         -25.186
REMARK INTER:                 -18.647
REMARK INTRA:                  -6.539
REMARK UNBOUND:                -8.320
REMARK SMILES C=C1C(=O)N[C@H](C)C(=O)N[C@@H](CC(C)C)C(=O)N[C@@H](C(=O)O)[C@H](C)C(=O)N[C@@H](CCCN=C(N)N)C(=O)N[C@@H](/C=C/C(C)=C/[C@H](C)[C@H](Cc2ccccc2)OC)[C@H](C)C(=O)N[C@@H](C(=O)O)CCC(=O)N1C
REMARK SMILES IDX 39 1 38 2 37 3 36 4 28 6 27 7 25 8 26 9 23 11 24 12 19 13
REMARK SMILES IDX 18 14 16 15 17 16 11 18 10 19 8 20 9 21 12 24 13 25 14 26
REMARK SMILES IDX 15 27 20 28 21 29 22 30 29 32 30 33 31 34 32 35 33 36 34 37
REMARK SMILES IDX 35 38 57 43 58 44 59 45 60 46 61 47 62 49 66 50 67 51 68 52
REMARK SMILES IDX 69 53 70 54 71 55 2 56 1 57 3 58 4 59 5 60 6 62 7 63 63 65
REMARK SMILES IDX 64 66 65 67 40 69 41 70 42 71 44 72 43 73 45 74 46 75 47 76
REMARK SMILES IDX 55 77 56 78 48 79 49 80 50 81 54 82 51 83 53 84 52 85
REMARK H PARENT 38 5 27 10 18 17 10 22 22 31 34 39 34 40 35 41 35 42 61 48
REMARK H PARENT 5 61 65 68
REMARK Flexibility Score:  369.900
ROOT
ATOM      1  C   UNL     1      -5.081  -7.496  -1.848  1.00  0.00     0.117 C 
ENDROOT
BRANCH   1   2
ATOM      2  N   UNL     1      -5.297  -8.938  -1.723  1.00  0.00    -0.347 N 
ATOM      3  O   UNL     1      -3.344  -9.634  -2.707  1.00  0.00    -0.273 OA
ATOM      4  C   UNL     1      -4.366  -9.893  -2.082  1.00  0.00     0.243 C 
ATOM      5  H   UNL     1      -6.152  -9.275  -1.307  1.00  0.00     0.164 HD
BRANCH   4   6
ATOM      6  C   UNL     1      -4.810 -11.345  -1.767  1.00  0.00     0.171 C 
BRANCH   6   7
ATOM      7  N   UNL     1      -4.965 -11.531  -0.315  1.00  0.00    -0.344 N 
ATOM      8  C   UNL     1      -3.952 -12.091   0.434  1.00  0.00     0.226 C 
ATOM      9  O   UNL     1      -2.900 -12.475  -0.062  1.00  0.00    -0.275 OA
ATOM     10  H   UNL     1      -5.847 -11.288   0.119  1.00  0.00     0.164 HD
BRANCH   8  11
ATOM     11  C   UNL     1      -4.243 -12.165   1.922  1.00  0.00     0.109 C 
ATOM     12  C   UNL     1      -3.022 -12.700   2.671  1.00  0.00     0.021 C 
BRANCH  11  13
ATOM     13  C   UNL     1      -4.764 -10.802   2.421  1.00  0.00     0.204 C 
BRANCH  13  14
ATOM     14  N   UNL     1      -5.277 -10.876   3.792  1.00  0.00    -0.340 N 
ATOM     15  C   UNL     1      -6.542 -10.455   4.142  1.00  0.00     0.243 C 
ATOM     16  O   UNL     1      -7.352 -10.042   3.315  1.00  0.00    -0.273 OA
ATOM     17  H   UNL     1      -4.610 -11.064   4.546  1.00  0.00     0.164 HD
BRANCH  15  18
ATOM     18  C   UNL     1      -6.786 -10.434   5.671  1.00  0.00     0.171 C 
BRANCH  18  19
ATOM     19  N   UNL     1      -6.867 -11.828   6.101  1.00  0.00    -0.343 N 
ATOM     20  C   UNL     1      -8.064 -12.516   6.122  1.00  0.00     0.242 CG0
ATOM     21  O   UNL     1      -9.135 -11.952   5.909  1.00  0.00    -0.273 OA
ATOM     22  H   UNL     1      -6.024 -12.306   6.399  1.00  0.00     0.164 HD
ATOM     23  G   UNL     1      -7.940 -13.999   6.529  1.00  0.00     0.000 G0
ENDBRANCH  18  19
BRANCH  18  24
ATOM     24  C   UNL     1      -5.655  -9.688   6.390  1.00  0.00     0.038 C 
BRANCH  24  25
ATOM     25  C   UNL     1      -5.651  -8.160   6.172  1.00  0.00    -0.015 C 
ATOM     26  C   UNL     1      -4.489  -7.470   6.888  1.00  0.00     0.007 C 
ATOM     27  C   UNL     1      -6.978  -7.567   6.654  1.00  0.00     0.007 C 
ENDBRANCH  24  25
ENDBRANCH  18  24
ENDBRANCH  15  18
ENDBRANCH  13  14
BRANCH  13  28
ATOM     28  C   UNL     1      -3.698  -9.703   2.394  1.00  0.00     0.327 C 
ATOM     29  O   UNL     1      -3.456  -8.908   3.289  1.00  0.00    -0.250 OA
BRANCH  28  30
ATOM     30  O   UNL     1      -3.083  -9.592   1.199  1.00  0.00    -0.480 OA
ATOM     31  H   UNL     1      -2.938  -8.629   1.090  1.00  0.00     0.296 HD
ENDBRANCH  28  30
ENDBRANCH  13  28
ENDBRANCH  11  13
ENDBRANCH   8  11
ENDBRANCH   6   7
BRANCH   6  32
ATOM     32  C   UNL     1      -6.123 -11.640  -2.500  1.00  0.00     0.037 C 
BRANCH  32  33
ATOM     33  C   UNL     1      -6.796 -12.921  -1.989  1.00  0.00     0.026 C 
BRANCH  33  34
ATOM     34  C   UNL     1      -8.265 -13.016  -2.404  1.00  0.00     0.146 C 
BRANCH  34  35
ATOM     35  N   UNL     1      -9.058 -13.388  -1.241  1.00  0.00    -0.254 NA
ATOM     36  C   UNL     1     -10.099 -12.696  -0.960  1.00  0.00     0.185 C 
ATOM     37  N   UNL     1     -10.840 -13.033   0.107  1.00  0.00    -0.370 N 
ATOM     38  N   UNL     1     -10.598 -11.623  -1.599  1.00  0.00    -0.370 N 
ATOM     39  H   UNL     1     -10.534 -13.839   0.636  1.00  0.00     0.159 HD
ATOM     40  H   UNL     1     -11.754 -12.655   0.291  1.00  0.00     0.159 HD
ATOM     41  H   UNL     1     -11.345 -11.080  -1.200  1.00  0.00     0.159 HD
ATOM     42  H   UNL     1     -10.133 -11.248  -2.411  1.00  0.00     0.159 HD
ENDBRANCH  34  35
ENDBRANCH  33  34
ENDBRANCH  32  33
ENDBRANCH   6  32
ENDBRANCH   4   6
ENDBRANCH   1   2
BRANCH   1  43
ATOM     43  C   UNL     1      -5.405  -7.071  -3.310  1.00  0.00     0.102 C 
ATOM     44  C   UNL     1      -6.199  -8.131  -4.093  1.00  0.00     0.020 C 
BRANCH  43  45
ATOM     45  C   UNL     1      -4.148  -6.579  -4.031  1.00  0.00     0.225 C 
ATOM     46  O   UNL     1      -3.619  -5.496  -3.795  1.00  0.00    -0.275 OA
ATOM     47  N   UNL     1      -3.688  -7.391  -5.043  1.00  0.00    -0.342 N 
ATOM     48  H   UNL     1      -4.036  -8.336  -5.122  1.00  0.00     0.164 HD
BRANCH  47  49
ATOM     49  C   UNL     1      -2.474  -7.064  -5.796  1.00  0.00     0.192 C 
BRANCH  49  50
ATOM     50  C   UNL     1      -2.782  -7.066  -7.296  1.00  0.00     0.047 C 
BRANCH  50  51
ATOM     51  C   UNL     1      -4.149  -7.690  -7.608  1.00  0.00     0.103 C 
BRANCH  51  52
ATOM     52  C   UNL     1      -4.068  -9.209  -7.745  1.00  0.00     0.226 C 
ATOM     53  O   UNL     1      -4.374  -9.925  -6.789  1.00  0.00    -0.275 OA
BRANCH  52  54
ATOM     54  N   UNL     1      -3.712  -9.706  -9.012  1.00  0.00    -0.311 N 
ATOM     55  C   UNL     1      -2.383 -10.286  -9.251  1.00  0.00     0.153 C 
BRANCH  54  56
ATOM     56  C   UNL     1      -4.610  -9.672 -10.091  1.00  0.00     0.102 C 
ATOM     57  C   UNL     1      -5.368 -10.706 -10.494  1.00  0.00     0.043 C 
BRANCH  56  58
ATOM     58  C   UNL     1      -4.828  -8.401 -10.879  1.00  0.00     0.268 C 
ATOM     59  O   UNL     1      -5.901  -7.815 -10.920  1.00  0.00    -0.268 OA
ATOM     60  N   UNL     1      -3.685  -7.940 -11.487  1.00  0.00    -0.339 N 
ATOM     61  H   UNL     1      -2.838  -8.490 -11.413  1.00  0.00     0.164 HD
BRANCH  60  62
ATOM     62  C   UNL     1      -3.657  -6.692 -12.248  1.00  0.00     0.168 CG0
ATOM     63  C   UNL     1      -3.982  -6.939 -13.716  1.00  0.00     0.041 C 
ATOM     64  G   UNL     1      -2.273  -6.027 -12.100  1.00  0.00     0.000 G0
ENDBRANCH  60  62
ENDBRANCH  56  58
ENDBRANCH  54  56
ENDBRANCH  52  54
ENDBRANCH  51  52
ENDBRANCH  50  51
ENDBRANCH  49  50
BRANCH  49  65
ATOM     65  C   UNL     1      -1.342  -8.063  -5.508  1.00  0.00     0.326 C 
ATOM     66  O   UNL     1      -0.146  -7.822  -5.582  1.00  0.00    -0.250 OA
BRANCH  65  67
ATOM     67  O   UNL     1      -1.757  -9.313  -5.205  1.00  0.00    -0.480 OA
ATOM     68  H   UNL     1      -2.424  -9.170  -4.500  1.00  0.00     0.296 HD
ENDBRANCH  65  67
ENDBRANCH  49  65
ENDBRANCH  47  49
ENDBRANCH  43  45
ENDBRANCH   1  43
BRANCH   1  69
ATOM     69  C   UNL     1      -3.693  -7.226  -1.297  1.00  0.00    -0.001 C 
ATOM     70  C   UNL     1      -3.299  -6.177  -0.554  1.00  0.00     0.001 C 
BRANCH  70  71
ATOM     71  C   UNL     1      -1.961  -5.938  -0.010  1.00  0.00    -0.055 C 
ATOM     72  C   UNL     1      -1.644  -6.532   1.160  1.00  0.00    -0.018 C 
ATOM     73  C   UNL     1      -1.030  -5.053  -0.797  1.00  0.00     0.044 C 
BRANCH  72  74
ATOM     74  C   UNL     1      -0.346  -6.469   1.952  1.00  0.00     0.038 C 
ATOM     75  C   UNL     1       0.206  -7.897   2.032  1.00  0.00     0.015 C 
BRANCH  74  76
ATOM     76  C   UNL     1      -0.631  -5.800   3.329  1.00  0.00     0.128 C 
BRANCH  76  77
ATOM     77  O   UNL     1       0.556  -5.823   4.141  1.00  0.00    -0.381 OA
ATOM     78  C   UNL     1       0.572  -4.828   5.156  1.00  0.00     0.195 C 
ENDBRANCH  76  77
BRANCH  76  79
ATOM     79  C   UNL     1      -1.260  -4.388   3.225  1.00  0.00     0.068 C 
BRANCH  79  80
ATOM     80  C   UNL     1      -2.765  -4.279   3.273  1.00  0.00    -0.045 A 
ATOM     81  C   UNL     1      -3.532  -5.194   4.007  1.00  0.00     0.004 A 
ATOM     82  C   UNL     1      -3.424  -3.270   2.555  1.00  0.00     0.004 A 
ATOM     83  C   UNL     1      -4.924  -5.094   4.035  1.00  0.00     0.000 A 
ATOM     84  C   UNL     1      -4.817  -3.172   2.583  1.00  0.00     0.000 A 
ATOM     85  C   UNL     1      -5.566  -4.083   3.324  1.00  0.00     0.000 A 
ENDBRANCH  79  80
ENDBRANCH  76  79
ENDBRANCH  74  76
ENDBRANCH  72  74
ENDBRANCH  70  71
ENDBRANCH   1  69
TORSDOF 17
ENDMDL
MODEL 25
REMARK VINA RESULT:    -5.509      2.628     11.644
REMARK INTER + INTRA:         -24.780
REMARK INTER:                 -16.015
REMARK INTRA:                  -8.765
REMARK UNBOUND:                -8.320
REMARK SMILES C=C1C(=O)N[C@H](C)C(=O)N[C@@H](CC(C)C)C(=O)N[C@@H](C(=O)O)[C@H](C)C(=O)N[C@@H](CCCN=C(N)N)C(=O)N[C@@H](/C=C/C(C)=C/[C@H](C)[C@H](Cc2ccccc2)OC)[C@H](C)C(=O)N[C@@H](C(=O)O)CCC(=O)N1C
REMARK SMILES IDX 39 1 38 2 37 3 36 4 28 6 27 7 25 8 26 9 23 11 24 12 19 13
REMARK SMILES IDX 18 14 16 15 17 16 11 18 10 19 8 20 9 21 12 24 13 25 14 26
REMARK SMILES IDX 15 27 20 28 21 29 22 30 29 32 30 33 31 34 32 35 33 36 34 37
REMARK SMILES IDX 35 38 57 43 58 44 59 45 60 46 61 47 62 49 66 50 67 51 68 52
REMARK SMILES IDX 69 53 70 54 71 55 2 56 1 57 3 58 4 59 5 60 6 62 7 63 63 65
REMARK SMILES IDX 64 66 65 67 40 69 41 70 42 71 44 72 43 73 45 74 46 75 47 76
REMARK SMILES IDX 55 77 56 78 48 79 49 80 50 81 54 82 51 83 53 84 52 85
REMARK H PARENT 38 5 27 10 18 17 10 22 22 31 34 39 34 40 35 41 35 42 61 48
REMARK H PARENT 5 61 65 68
REMARK Flexibility Score:  369.900
ROOT
ATOM      1  C   UNL     1      -4.456 -10.823  -1.419  1.00  0.00     0.117 C 
ENDROOT
BRANCH   1   2
ATOM      2  N   UNL     1      -4.110 -11.280  -0.073  1.00  0.00    -0.347 N 
ATOM      3  O   UNL     1      -5.858 -12.738   0.222  1.00  0.00    -0.273 OA
ATOM      4  C   UNL     1      -4.790 -12.273   0.606  1.00  0.00     0.243 C 
ATOM      5  H   UNL     1      -3.299 -10.895   0.386  1.00  0.00     0.164 HD
BRANCH   4   6
ATOM      6  C   UNL     1      -4.167 -12.628   1.980  1.00  0.00     0.171 C 
BRANCH   6   7
ATOM      7  N   UNL     1      -3.020 -11.751   2.266  1.00  0.00    -0.344 N 
ATOM      8  C   UNL     1      -1.776 -12.283   2.524  1.00  0.00     0.226 C 
ATOM      9  O   UNL     1      -1.566 -13.490   2.551  1.00  0.00    -0.275 OA
ATOM     10  H   UNL     1      -3.169 -10.751   2.320  1.00  0.00     0.164 HD
BRANCH   8  11
ATOM     11  C   UNL     1      -0.687 -11.248   2.747  1.00  0.00     0.109 C 
ATOM     12  C   UNL     1       0.492 -11.515   1.810  1.00  0.00     0.021 C 
BRANCH  11  13
ATOM     13  C   UNL     1      -1.286  -9.831   2.647  1.00  0.00     0.204 C 
BRANCH  13  14
ATOM     14  N   UNL     1      -1.352  -9.168   3.953  1.00  0.00    -0.340 N 
ATOM     15  C   UNL     1      -2.541  -8.895   4.594  1.00  0.00     0.243 C 
ATOM     16  O   UNL     1      -3.630  -9.245   4.143  1.00  0.00    -0.273 OA
ATOM     17  H   UNL     1      -0.503  -8.719   4.308  1.00  0.00     0.164 HD
BRANCH  15  18
ATOM     18  C   UNL     1      -2.376  -8.008   5.853  1.00  0.00     0.171 C 
BRANCH  18  19
ATOM     19  N   UNL     1      -2.497  -8.894   7.009  1.00  0.00    -0.343 N 
ATOM     20  C   UNL     1      -3.704  -9.091   7.653  1.00  0.00     0.242 CG0
ATOM     21  O   UNL     1      -4.700  -8.431   7.368  1.00  0.00    -0.273 OA
ATOM     22  H   UNL     1      -1.675  -9.375   7.355  1.00  0.00     0.164 HD
ATOM     23  G   UNL     1      -3.652 -10.120   8.801  1.00  0.00     0.000 G0
ENDBRANCH  18  19
BRANCH  18  24
ATOM     24  C   UNL     1      -1.021  -7.289   5.835  1.00  0.00     0.038 C 
BRANCH  24  25
ATOM     25  C   UNL     1      -1.030  -5.915   5.133  1.00  0.00    -0.015 C 
ATOM     26  C   UNL     1       0.298  -5.601   4.444  1.00  0.00     0.007 C 
ATOM     27  C   UNL     1      -1.354  -4.819   6.151  1.00  0.00     0.007 C 
ENDBRANCH  24  25
ENDBRANCH  18  24
ENDBRANCH  15  18
ENDBRANCH  13  14
BRANCH  13  28
ATOM     28  C   UNL     1      -0.501  -8.909   1.709  1.00  0.00     0.327 C 
ATOM     29  O   UNL     1       0.432  -8.185   2.021  1.00  0.00    -0.250 OA
BRANCH  28  30
ATOM     30  O   UNL     1      -1.014  -8.863   0.463  1.00  0.00    -0.480 OA
ATOM     31  H   UNL     1      -0.229  -8.780  -0.118  1.00  0.00     0.296 HD
ENDBRANCH  28  30
ENDBRANCH  13  28
ENDBRANCH  11  13
ENDBRANCH   8  11
ENDBRANCH   6   7
BRANCH   6  32
ATOM     32  C   UNL     1      -5.239 -12.500   3.067  1.00  0.00     0.037 C 
BRANCH  32  33
ATOM     33  C   UNL     1      -4.802 -13.142   4.391  1.00  0.00     0.026 C 
BRANCH  33  34
ATOM     34  C   UNL     1      -4.843 -12.159   5.561  1.00  0.00     0.146 C 
BRANCH  34  35
ATOM     35  N   UNL     1      -6.218 -12.043   6.029  1.00  0.00    -0.254 NA
ATOM     36  C   UNL     1      -6.835 -10.935   5.854  1.00  0.00     0.185 C 
ATOM     37  N   UNL     1      -8.103 -10.819   6.277  1.00  0.00    -0.370 N 
ATOM     38  N   UNL     1      -6.391  -9.802   5.281  1.00  0.00    -0.370 N 
ATOM     39  H   UNL     1      -8.514 -11.636   6.712  1.00  0.00     0.159 HD
ATOM     40  H   UNL     1      -8.706 -10.054   6.026  1.00  0.00     0.159 HD
ATOM     41  H   UNL     1      -6.926  -8.950   5.329  1.00  0.00     0.159 HD
ATOM     42  H   UNL     1      -5.448  -9.740   4.931  1.00  0.00     0.159 HD
ENDBRANCH  34  35
ENDBRANCH  33  34
ENDBRANCH  32  33
ENDBRANCH   6  32
ENDBRANCH   4   6
ENDBRANCH   1   2
BRANCH   1  43
ATOM     43  C   UNL     1      -3.970 -11.888  -2.444  1.00  0.00     0.102 C 
ATOM     44  C   UNL     1      -2.596 -11.566  -3.056  1.00  0.00     0.020 C 
BRANCH  43  45
ATOM     45  C   UNL     1      -5.057 -12.191  -3.480  1.00  0.00     0.225 C 
ATOM     46  O   UNL     1      -5.067 -13.212  -4.163  1.00  0.00    -0.275 OA
ATOM     47  N   UNL     1      -5.986 -11.195  -3.673  1.00  0.00    -0.342 N 
ATOM     48  H   UNL     1      -6.053 -10.438  -3.007  1.00  0.00     0.164 HD
BRANCH  47  49
ATOM     49  C   UNL     1      -7.104 -11.360  -4.607  1.00  0.00     0.192 C 
BRANCH  49  50
ATOM     50  C   UNL     1      -6.961 -10.363  -5.760  1.00  0.00     0.047 C 
BRANCH  50  51
ATOM     51  C   UNL     1      -5.516  -9.879  -5.936  1.00  0.00     0.103 C 
BRANCH  51  52
ATOM     52  C   UNL     1      -5.402  -8.360  -5.824  1.00  0.00     0.226 C 
ATOM     53  O   UNL     1      -6.229  -7.734  -5.158  1.00  0.00    -0.275 OA
BRANCH  52  54
ATOM     54  N   UNL     1      -4.287  -7.767  -6.446  1.00  0.00    -0.311 N 
ATOM     55  C   UNL     1      -3.395  -6.870  -5.700  1.00  0.00     0.153 C 
BRANCH  54  56
ATOM     56  C   UNL     1      -3.984  -8.014  -7.795  1.00  0.00     0.102 C 
ATOM     57  C   UNL     1      -2.866  -8.616  -8.233  1.00  0.00     0.043 C 
BRANCH  56  58
ATOM     58  C   UNL     1      -4.957  -7.643  -8.889  1.00  0.00     0.268 C 
ATOM     59  O   UNL     1      -6.147  -7.444  -8.687  1.00  0.00    -0.268 OA
ATOM     60  N   UNL     1      -4.356  -7.488 -10.116  1.00  0.00    -0.339 N 
ATOM     61  H   UNL     1      -3.366  -7.681 -10.201  1.00  0.00     0.164 HD
BRANCH  60  62
ATOM     62  C   UNL     1      -5.103  -7.069 -11.301  1.00  0.00     0.168 CG0
ATOM     63  C   UNL     1      -5.573  -8.275 -12.106  1.00  0.00     0.041 C 
ATOM     64  G   UNL     1      -4.223  -6.144 -12.167  1.00  0.00     0.000 G0
ENDBRANCH  60  62
ENDBRANCH  56  58
ENDBRANCH  54  56
ENDBRANCH  52  54
ENDBRANCH  51  52
ENDBRANCH  50  51
ENDBRANCH  49  50
BRANCH  49  65
ATOM     65  C   UNL     1      -8.458 -11.146  -3.913  1.00  0.00     0.326 C 
ATOM     66  O   UNL     1      -9.459 -11.826  -4.084  1.00  0.00    -0.250 OA
BRANCH  65  67
ATOM     67  O   UNL     1      -8.510 -10.069  -3.098  1.00  0.00    -0.480 OA
ATOM     68  H   UNL     1      -9.321 -10.221  -2.566  1.00  0.00     0.296 HD
ENDBRANCH  65  67
ENDBRANCH  49  65
ENDBRANCH  47  49
ENDBRANCH  43  45
ENDBRANCH   1  43
BRANCH   1  69
ATOM     69  C   UNL     1      -3.933  -9.403  -1.533  1.00  0.00    -0.001 C 
ATOM     70  C   UNL     1      -4.615  -8.310  -1.917  1.00  0.00     0.001 C 
BRANCH  70  71
ATOM     71  C   UNL     1      -4.104  -6.940  -2.002  1.00  0.00    -0.055 C 
ATOM     72  C   UNL     1      -2.788  -6.745  -1.773  1.00  0.00    -0.018 C 
ATOM     73  C   UNL     1      -5.081  -5.846  -2.348  1.00  0.00     0.044 C 
BRANCH  72  74
ATOM     74  C   UNL     1      -1.988  -5.451  -1.795  1.00  0.00     0.038 C 
ATOM     75  C   UNL     1      -1.480  -5.257  -3.229  1.00  0.00     0.015 C 
BRANCH  74  76
ATOM     76  C   UNL     1      -0.872  -5.533  -0.712  1.00  0.00     0.128 C 
BRANCH  76  77
ATOM     77  O   UNL     1       0.421  -5.564  -1.341  1.00  0.00    -0.381 OA
ATOM     78  C   UNL     1       1.172  -6.734  -1.044  1.00  0.00     0.195 C 
ENDBRANCH  76  77
BRANCH  76  79
ATOM     79  C   UNL     1      -0.979  -4.445   0.386  1.00  0.00     0.068 C 
BRANCH  79  80
ATOM     80  C   UNL     1      -2.045  -4.609   1.442  1.00  0.00    -0.045 A 
ATOM     81  C   UNL     1      -2.605  -5.864   1.714  1.00  0.00     0.004 A 
ATOM     82  C   UNL     1      -2.514  -3.493   2.152  1.00  0.00     0.004 A 
ATOM     83  C   UNL     1      -3.601  -6.004   2.683  1.00  0.00     0.000 A 
ATOM     84  C   UNL     1      -3.511  -3.635   3.120  1.00  0.00     0.000 A 
ATOM     85  C   UNL     1      -4.052  -4.890   3.387  1.00  0.00     0.000 A 
ENDBRANCH  79  80
ENDBRANCH  76  79
ENDBRANCH  74  76
ENDBRANCH  72  74
ENDBRANCH  70  71
ENDBRANCH   1  69
TORSDOF 17
ENDMDL
MODEL 26
REMARK VINA RESULT:    -5.501      4.884      8.567
REMARK INTER + INTRA:         -24.755
REMARK INTER:                 -17.743
REMARK INTRA:                  -7.013
REMARK UNBOUND:                -8.320
REMARK SMILES C=C1C(=O)N[C@H](C)C(=O)N[C@@H](CC(C)C)C(=O)N[C@@H](C(=O)O)[C@H](C)C(=O)N[C@@H](CCCN=C(N)N)C(=O)N[C@@H](/C=C/C(C)=C/[C@H](C)[C@H](Cc2ccccc2)OC)[C@H](C)C(=O)N[C@@H](C(=O)O)CCC(=O)N1C
REMARK SMILES IDX 39 1 38 2 37 3 36 4 28 6 27 7 25 8 26 9 23 11 24 12 19 13
REMARK SMILES IDX 18 14 16 15 17 16 11 18 10 19 8 20 9 21 12 24 13 25 14 26
REMARK SMILES IDX 15 27 20 28 21 29 22 30 29 32 30 33 31 34 32 35 33 36 34 37
REMARK SMILES IDX 35 38 57 43 58 44 59 45 60 46 61 47 62 49 66 50 67 51 68 52
REMARK SMILES IDX 69 53 70 54 71 55 2 56 1 57 3 58 4 59 5 60 6 62 7 63 63 65
REMARK SMILES IDX 64 66 65 67 40 69 41 70 42 71 44 72 43 73 45 74 46 75 47 76
REMARK SMILES IDX 55 77 56 78 48 79 49 80 50 81 54 82 51 83 53 84 52 85
REMARK H PARENT 38 5 27 10 18 17 10 22 22 31 34 39 34 40 35 41 35 42 61 48
REMARK H PARENT 5 61 65 68
REMARK Flexibility Score:  369.900
ROOT
ATOM      1  C   UNL     1      -3.633  -4.815   1.975  1.00  0.00     0.117 C 
ENDROOT
BRANCH   1   2
ATOM      2  N   UNL     1      -3.343  -5.804   0.936  1.00  0.00    -0.347 N 
ATOM      3  O   UNL     1      -2.088  -7.241   2.213  1.00  0.00    -0.273 OA
ATOM      4  C   UNL     1      -2.667  -6.988   1.162  1.00  0.00     0.243 C 
ATOM      5  H   UNL     1      -3.690  -5.655   0.001  1.00  0.00     0.164 HD
BRANCH   4   6
ATOM      6  C   UNL     1      -2.568  -7.897  -0.089  1.00  0.00     0.171 C 
BRANCH   6   7
ATOM      7  N   UNL     1      -3.831  -7.872  -0.844  1.00  0.00    -0.344 N 
ATOM      8  C   UNL     1      -4.422  -9.044  -1.264  1.00  0.00     0.226 C 
ATOM      9  O   UNL     1      -3.927 -10.145  -1.055  1.00  0.00    -0.275 OA
ATOM     10  H   UNL     1      -4.236  -6.978  -1.095  1.00  0.00     0.164 HD
BRANCH   8  11
ATOM     11  C   UNL     1      -5.747  -8.854  -1.983  1.00  0.00     0.109 C 
ATOM     12  C   UNL     1      -5.854  -7.427  -2.520  1.00  0.00     0.021 C 
BRANCH  11  13
ATOM     13  C   UNL     1      -5.929  -9.960  -3.041  1.00  0.00     0.204 C 
BRANCH  13  14
ATOM     14  N   UNL     1      -6.400 -11.217  -2.450  1.00  0.00    -0.340 N 
ATOM     15  C   UNL     1      -5.826 -12.438  -2.732  1.00  0.00     0.243 C 
ATOM     16  O   UNL     1      -4.838 -12.552  -3.454  1.00  0.00    -0.273 OA
ATOM     17  H   UNL     1      -7.303 -11.212  -1.967  1.00  0.00     0.164 HD
BRANCH  15  18
ATOM     18  C   UNL     1      -6.617 -13.640  -2.160  1.00  0.00     0.171 C 
BRANCH  18  19
ATOM     19  N   UNL     1      -5.726 -14.796  -2.226  1.00  0.00    -0.343 N 
ATOM     20  C   UNL     1      -5.979 -15.865  -3.064  1.00  0.00     0.242 CG0
ATOM     21  O   UNL     1      -7.031 -15.953  -3.694  1.00  0.00    -0.273 OA
ATOM     22  H   UNL     1      -4.902 -14.823  -1.637  1.00  0.00     0.164 HD
ATOM     23  G   UNL     1      -4.888 -16.955  -3.054  1.00  0.00     0.000 G0
ENDBRANCH  18  19
BRANCH  18  24
ATOM     24  C   UNL     1      -7.067 -13.357  -0.722  1.00  0.00     0.038 C 
BRANCH  24  25
ATOM     25  C   UNL     1      -8.479 -13.875  -0.374  1.00  0.00    -0.015 C 
ATOM     26  C   UNL     1      -9.542 -13.376  -1.353  1.00  0.00     0.007 C 
ATOM     27  C   UNL     1      -8.848 -13.448   1.049  1.00  0.00     0.007 C 
ENDBRANCH  24  25
ENDBRANCH  18  24
ENDBRANCH  15  18
ENDBRANCH  13  14
BRANCH  13  28
ATOM     28  C   UNL     1      -6.918  -9.580  -4.147  1.00  0.00     0.327 C 
ATOM     29  O   UNL     1      -6.636  -9.115  -5.241  1.00  0.00    -0.250 OA
BRANCH  28  30
ATOM     30  O   UNL     1      -8.207  -9.696  -3.767  1.00  0.00    -0.480 OA
ATOM     31  H   UNL     1      -8.288 -10.627  -3.471  1.00  0.00     0.296 HD
ENDBRANCH  28  30
ENDBRANCH  13  28
ENDBRANCH  11  13
ENDBRANCH   8  11
ENDBRANCH   6   7
BRANCH   6  32
ATOM     32  C   UNL     1      -1.399  -7.428  -0.962  1.00  0.00     0.037 C 
BRANCH  32  33
ATOM     33  C   UNL     1      -1.821  -6.340  -1.959  1.00  0.00     0.026 C 
BRANCH  33  34
ATOM     34  C   UNL     1      -1.831  -6.842  -3.403  1.00  0.00     0.146 C 
BRANCH  34  35
ATOM     35  N   UNL     1      -1.876  -8.298  -3.394  1.00  0.00    -0.254 NA
ATOM     36  C   UNL     1      -2.653  -8.893  -4.220  1.00  0.00     0.185 C 
ATOM     37  N   UNL     1      -2.699 -10.235  -4.224  1.00  0.00    -0.370 N 
ATOM     38  N   UNL     1      -3.478  -8.360  -5.139  1.00  0.00    -0.370 N 
ATOM     39  H   UNL     1      -2.096 -10.711  -3.565  1.00  0.00     0.159 HD
ATOM     40  H   UNL     1      -3.143 -10.774  -4.947  1.00  0.00     0.159 HD
ATOM     41  H   UNL     1      -4.143  -8.930  -5.636  1.00  0.00     0.159 HD
ATOM     42  H   UNL     1      -3.558  -7.360  -5.238  1.00  0.00     0.159 HD
ENDBRANCH  34  35
ENDBRANCH  33  34
ENDBRANCH  32  33
ENDBRANCH   6  32
ENDBRANCH   4   6
ENDBRANCH   1   2
BRANCH   1  43
ATOM     43  C   UNL     1      -2.418  -3.850   2.094  1.00  0.00     0.102 C 
ATOM     44  C   UNL     1      -1.354  -4.070   1.006  1.00  0.00     0.020 C 
BRANCH  43  45
ATOM     45  C   UNL     1      -1.858  -3.845   3.519  1.00  0.00     0.225 C 
ATOM     46  O   UNL     1      -2.259  -3.083   4.395  1.00  0.00    -0.275 OA
ATOM     47  N   UNL     1      -0.797  -4.692   3.742  1.00  0.00    -0.342 N 
ATOM     48  H   UNL     1      -0.581  -5.412   3.066  1.00  0.00     0.164 HD
BRANCH  47  49
ATOM     49  C   UNL     1      -0.182  -4.819   5.067  1.00  0.00     0.192 C 
BRANCH  49  50
ATOM     50  C   UNL     1       1.328  -5.025   4.916  1.00  0.00     0.047 C 
BRANCH  50  51
ATOM     51  C   UNL     1       2.136  -3.871   5.526  1.00  0.00     0.103 C 
BRANCH  51  52
ATOM     52  C   UNL     1       3.617  -4.219   5.663  1.00  0.00     0.226 C 
ATOM     53  O   UNL     1       3.979  -5.393   5.568  1.00  0.00    -0.275 OA
BRANCH  52  54
ATOM     54  N   UNL     1       4.503  -3.137   5.820  1.00  0.00    -0.311 N 
ATOM     55  C   UNL     1       4.943  -2.707   7.154  1.00  0.00     0.153 C 
BRANCH  54  56
ATOM     56  C   UNL     1       5.003  -2.434   4.712  1.00  0.00     0.102 C 
ATOM     57  C   UNL     1       5.861  -2.934   3.807  1.00  0.00     0.043 C 
BRANCH  56  58
ATOM     58  C   UNL     1       4.555  -1.020   4.425  1.00  0.00     0.268 C 
ATOM     59  O   UNL     1       3.379  -0.685   4.383  1.00  0.00    -0.268 OA
ATOM     60  N   UNL     1       5.602  -0.140   4.282  1.00  0.00    -0.339 N 
ATOM     61  H   UNL     1       6.549  -0.499   4.320  1.00  0.00     0.164 HD
BRANCH  60  62
ATOM     62  C   UNL     1       5.393   1.290   4.062  1.00  0.00     0.168 CG0
ATOM     63  C   UNL     1       6.250   1.797   2.908  1.00  0.00     0.041 C 
ATOM     64  G   UNL     1       5.708   2.065   5.358  1.00  0.00     0.000 G0
ENDBRANCH  60  62
ENDBRANCH  56  58
ENDBRANCH  54  56
ENDBRANCH  52  54
ENDBRANCH  51  52
ENDBRANCH  50  51
ENDBRANCH  49  50
BRANCH  49  65
ATOM     65  C   UNL     1      -0.779  -5.992   5.859  1.00  0.00     0.326 C 
ATOM     66  O   UNL     1      -0.689  -7.173   5.555  1.00  0.00    -0.250 OA
BRANCH  65  67
ATOM     67  O   UNL     1      -1.500  -5.632   6.943  1.00  0.00    -0.480 OA
ATOM     68  H   UNL     1      -1.210  -4.711   7.119  1.00  0.00     0.296 HD
ENDBRANCH  65  67
ENDBRANCH  49  65
ENDBRANCH  47  49
ENDBRANCH  43  45
ENDBRANCH   1  43
BRANCH   1  69
ATOM     69  C   UNL     1      -4.068  -5.601   3.198  1.00  0.00    -0.001 C 
ATOM     70  C   UNL     1      -5.180  -5.421   3.932  1.00  0.00     0.001 C 
BRANCH  70  71
ATOM     71  C   UNL     1      -5.600  -6.201   5.099  1.00  0.00    -0.055 C 
ATOM     72  C   UNL     1      -4.708  -7.062   5.632  1.00  0.00    -0.018 C 
ATOM     73  C   UNL     1      -6.993  -5.980   5.626  1.00  0.00     0.044 C 
BRANCH  72  74
ATOM     74  C   UNL     1      -4.861  -7.988   6.830  1.00  0.00     0.038 C 
ATOM     75  C   UNL     1      -4.353  -7.225   8.060  1.00  0.00     0.015 C 
BRANCH  74  76
ATOM     76  C   UNL     1      -4.112  -9.320   6.533  1.00  0.00     0.128 C 
BRANCH  76  77
ATOM     77  O   UNL     1      -5.005 -10.434   6.703  1.00  0.00    -0.381 OA
ATOM     78  C   UNL     1      -5.062 -10.921   8.037  1.00  0.00     0.195 C 
ENDBRANCH  76  77
BRANCH  76  79
ATOM     79  C   UNL     1      -3.382  -9.341   5.166  1.00  0.00     0.068 C 
BRANCH  79  80
ATOM     80  C   UNL     1      -3.980 -10.173   4.058  1.00  0.00    -0.045 A 
ATOM     81  C   UNL     1      -3.581 -11.501   3.856  1.00  0.00     0.004 A 
ATOM     82  C   UNL     1      -4.931  -9.615   3.189  1.00  0.00     0.004 A 
ATOM     83  C   UNL     1      -4.129 -12.259   2.819  1.00  0.00     0.000 A 
ATOM     84  C   UNL     1      -5.477 -10.375   2.152  1.00  0.00     0.000 A 
ATOM     85  C   UNL     1      -5.078 -11.696   1.969  1.00  0.00     0.000 A 
ENDBRANCH  79  80
ENDBRANCH  76  79
ENDBRANCH  74  76
ENDBRANCH  72  74
ENDBRANCH  70  71
ENDBRANCH   1  69
TORSDOF 17
ENDMDL
MODEL 27
REMARK VINA RESULT:    -5.488      4.056     12.673
REMARK INTER + INTRA:         -24.715
REMARK INTER:                 -16.680
REMARK INTRA:                  -8.035
REMARK UNBOUND:                -8.320
REMARK SMILES C=C1C(=O)N[C@H](C)C(=O)N[C@@H](CC(C)C)C(=O)N[C@@H](C(=O)O)[C@H](C)C(=O)N[C@@H](CCCN=C(N)N)C(=O)N[C@@H](/C=C/C(C)=C/[C@H](C)[C@H](Cc2ccccc2)OC)[C@H](C)C(=O)N[C@@H](C(=O)O)CCC(=O)N1C
REMARK SMILES IDX 39 1 38 2 37 3 36 4 28 6 27 7 25 8 26 9 23 11 24 12 19 13
REMARK SMILES IDX 18 14 16 15 17 16 11 18 10 19 8 20 9 21 12 24 13 25 14 26
REMARK SMILES IDX 15 27 20 28 21 29 22 30 29 32 30 33 31 34 32 35 33 36 34 37
REMARK SMILES IDX 35 38 57 43 58 44 59 45 60 46 61 47 62 49 66 50 67 51 68 52
REMARK SMILES IDX 69 53 70 54 71 55 2 56 1 57 3 58 4 59 5 60 6 62 7 63 63 65
REMARK SMILES IDX 64 66 65 67 40 69 41 70 42 71 44 72 43 73 45 74 46 75 47 76
REMARK SMILES IDX 55 77 56 78 48 79 49 80 50 81 54 82 51 83 53 84 52 85
REMARK H PARENT 38 5 27 10 18 17 10 22 22 31 34 39 34 40 35 41 35 42 61 48
REMARK H PARENT 5 61 65 68
REMARK Flexibility Score:  369.900
ROOT
ATOM      1  C   UNL     1      -3.817 -12.232  -1.971  1.00  0.00     0.117 C 
ENDROOT
BRANCH   1   2
ATOM      2  N   UNL     1      -3.456 -11.106  -1.110  1.00  0.00    -0.347 N 
ATOM      3  O   UNL     1      -5.104 -11.374   0.464  1.00  0.00    -0.273 OA
ATOM      4  C   UNL     1      -4.075 -10.821   0.091  1.00  0.00     0.243 C 
ATOM      5  H   UNL     1      -2.678 -10.517  -1.367  1.00  0.00     0.164 HD
BRANCH   4   6
ATOM      6  C   UNL     1      -3.445  -9.625   0.850  1.00  0.00     0.171 C 
BRANCH   6   7
ATOM      7  N   UNL     1      -3.340  -8.453  -0.034  1.00  0.00    -0.344 N 
ATOM      8  C   UNL     1      -2.110  -8.013  -0.474  1.00  0.00     0.226 C 
ATOM      9  O   UNL     1      -1.059  -8.547  -0.140  1.00  0.00    -0.275 OA
ATOM     10  H   UNL     1      -4.181  -7.945  -0.277  1.00  0.00     0.164 HD
BRANCH   8  11
ATOM     11  C   UNL     1      -2.173  -6.828  -1.422  1.00  0.00     0.109 C 
ATOM     12  C   UNL     1      -3.617  -6.579  -1.858  1.00  0.00     0.021 C 
BRANCH  11  13
ATOM     13  C   UNL     1      -1.469  -5.613  -0.786  1.00  0.00     0.204 C 
BRANCH  13  14
ATOM     14  N   UNL     1      -1.333  -5.753   0.668  1.00  0.00    -0.340 N 
ATOM     15  C   UNL     1      -2.289  -5.308   1.555  1.00  0.00     0.243 C 
ATOM     16  O   UNL     1      -3.354  -4.816   1.187  1.00  0.00    -0.273 OA
ATOM     17  H   UNL     1      -0.415  -6.011   1.042  1.00  0.00     0.164 HD
BRANCH  15  18
ATOM     18  C   UNL     1      -1.837  -5.373   3.035  1.00  0.00     0.171 C 
BRANCH  18  19
ATOM     19  N   UNL     1      -1.392  -4.029   3.396  1.00  0.00    -0.343 N 
ATOM     20  C   UNL     1      -0.183  -3.806   4.028  1.00  0.00     0.242 CG0
ATOM     21  O   UNL     1       0.510  -4.736   4.434  1.00  0.00    -0.273 OA
ATOM     22  H   UNL     1      -1.985  -3.235   3.184  1.00  0.00     0.164 HD
ATOM     23  G   UNL     1       0.151  -2.318   4.257  1.00  0.00     0.000 G0
ENDBRANCH  18  19
BRANCH  18  24
ATOM     24  C   UNL     1      -2.988  -5.844   3.932  1.00  0.00     0.038 C 
BRANCH  24  25
ATOM     25  C   UNL     1      -2.572  -6.812   5.060  1.00  0.00    -0.015 C 
ATOM     26  C   UNL     1      -2.141  -6.079   6.330  1.00  0.00     0.007 C 
ATOM     27  C   UNL     1      -1.433  -7.711   4.572  1.00  0.00     0.007 C 
ENDBRANCH  24  25
ENDBRANCH  18  24
ENDBRANCH  15  18
ENDBRANCH  13  14
BRANCH  13  28
ATOM     28  C   UNL     1      -0.067  -5.363  -1.351  1.00  0.00     0.327 C 
ATOM     29  O   UNL     1       0.832  -6.185  -1.442  1.00  0.00    -0.250 OA
BRANCH  28  30
ATOM     30  O   UNL     1       0.157  -4.069  -1.656  1.00  0.00    -0.480 OA
ATOM     31  H   UNL     1       0.562  -3.697  -0.845  1.00  0.00     0.296 HD
ENDBRANCH  28  30
ENDBRANCH  13  28
ENDBRANCH  11  13
ENDBRANCH   8  11
ENDBRANCH   6   7
BRANCH   6  32
ATOM     32  C   UNL     1      -4.297  -9.306   2.083  1.00  0.00     0.037 C 
BRANCH  32  33
ATOM     33  C   UNL     1      -3.902 -10.158   3.297  1.00  0.00     0.026 C 
BRANCH  33  34
ATOM     34  C   UNL     1      -4.727  -9.824   4.540  1.00  0.00     0.146 C 
BRANCH  34  35
ATOM     35  N   UNL     1      -5.617  -8.713   4.229  1.00  0.00    -0.254 NA
ATOM     36  C   UNL     1      -6.542  -8.416   5.063  1.00  0.00     0.185 C 
ATOM     37  N   UNL     1      -7.365  -7.391   4.788  1.00  0.00    -0.370 N 
ATOM     38  N   UNL     1      -6.840  -8.998   6.238  1.00  0.00    -0.370 N 
ATOM     39  H   UNL     1      -7.197  -6.893   3.923  1.00  0.00     0.159 HD
ATOM     40  H   UNL     1      -7.995  -6.988   5.461  1.00  0.00     0.159 HD
ATOM     41  H   UNL     1      -7.681  -8.761   6.738  1.00  0.00     0.159 HD
ATOM     42  H   UNL     1      -6.314  -9.793   6.564  1.00  0.00     0.159 HD
ENDBRANCH  34  35
ENDBRANCH  33  34
ENDBRANCH  32  33
ENDBRANCH   6  32
ENDBRANCH   4   6
ENDBRANCH   1   2
BRANCH   1  43
ATOM     43  C   UNL     1      -2.513 -12.967  -2.398  1.00  0.00     0.102 C 
ATOM     44  C   UNL     1      -1.243 -12.381  -1.758  1.00  0.00     0.020 C 
BRANCH  43  45
ATOM     45  C   UNL     1      -2.434 -13.107  -3.921  1.00  0.00     0.225 C 
ATOM     46  O   UNL     1      -3.127 -13.894  -4.559  1.00  0.00    -0.275 OA
ATOM     47  N   UNL     1      -1.459 -12.355  -4.535  1.00  0.00    -0.342 N 
ATOM     48  H   UNL     1      -1.006 -11.610  -4.024  1.00  0.00     0.164 HD
BRANCH  47  49
ATOM     49  C   UNL     1      -1.290 -12.361  -5.991  1.00  0.00     0.192 C 
BRANCH  49  50
ATOM     50  C   UNL     1       0.198 -12.466  -6.336  1.00  0.00     0.047 C 
BRANCH  50  51
ATOM     51  C   UNL     1       0.480 -13.569  -7.365  1.00  0.00     0.103 C 
BRANCH  51  52
ATOM     52  C   UNL     1       0.594 -13.014  -8.784  1.00  0.00     0.226 C 
ATOM     53  O   UNL     1       1.633 -12.456  -9.139  1.00  0.00    -0.275 OA
BRANCH  52  54
ATOM     54  N   UNL     1      -0.500 -13.249  -9.638  1.00  0.00    -0.311 N 
ATOM     55  C   UNL     1      -1.496 -14.283  -9.324  1.00  0.00     0.153 C 
BRANCH  54  56
ATOM     56  C   UNL     1      -0.683 -12.505 -10.815  1.00  0.00     0.102 C 
ATOM     57  C   UNL     1      -1.350 -11.342 -10.892  1.00  0.00     0.043 C 
BRANCH  56  58
ATOM     58  C   UNL     1      -0.078 -12.960 -12.122  1.00  0.00     0.268 C 
ATOM     59  O   UNL     1      -0.695 -13.608 -12.956  1.00  0.00    -0.268 OA
ATOM     60  N   UNL     1       1.210 -12.515 -12.304  1.00  0.00    -0.339 N 
ATOM     61  H   UNL     1       1.655 -11.991 -11.560  1.00  0.00     0.164 HD
BRANCH  60  62
ATOM     62  C   UNL     1       1.962 -12.788 -13.528  1.00  0.00     0.168 CG0
ATOM     63  C   UNL     1       3.299 -13.447 -13.213  1.00  0.00     0.041 C 
ATOM     64  G   UNL     1       2.172 -11.475 -14.310  1.00  0.00     0.000 G0
ENDBRANCH  60  62
ENDBRANCH  56  58
ENDBRANCH  54  56
ENDBRANCH  52  54
ENDBRANCH  51  52
ENDBRANCH  50  51
ENDBRANCH  49  50
BRANCH  49  65
ATOM     65  C   UNL     1      -1.873 -11.093  -6.634  1.00  0.00     0.326 C 
ATOM     66  O   UNL     1      -1.757  -9.957  -6.198  1.00  0.00    -0.250 OA
BRANCH  65  67
ATOM     67  O   UNL     1      -2.614 -11.313  -7.743  1.00  0.00    -0.480 OA
ATOM     68  H   UNL     1      -3.449 -10.829  -7.563  1.00  0.00     0.296 HD
ENDBRANCH  65  67
ENDBRANCH  49  65
ENDBRANCH  47  49
ENDBRANCH  43  45
ENDBRANCH   1  43
BRANCH   1  69
ATOM     69  C   UNL     1      -4.726 -11.669  -3.048  1.00  0.00    -0.001 C 
ATOM     70  C   UNL     1      -4.758 -10.408  -3.513  1.00  0.00     0.001 C 
BRANCH  70  71
ATOM     71  C   UNL     1      -5.626  -9.881  -4.568  1.00  0.00    -0.055 C 
ATOM     72  C   UNL     1      -5.536 -10.440  -5.793  1.00  0.00    -0.018 C 
ATOM     73  C   UNL     1      -6.564  -8.758  -4.209  1.00  0.00     0.044 C 
BRANCH  72  74
ATOM     74  C   UNL     1      -6.305 -10.105  -7.063  1.00  0.00     0.038 C 
ATOM     75  C   UNL     1      -6.852 -11.424  -7.622  1.00  0.00     0.015 C 
BRANCH  74  76
ATOM     76  C   UNL     1      -5.362  -9.328  -8.029  1.00  0.00     0.128 C 
BRANCH  76  77
ATOM     77  O   UNL     1      -5.752  -9.566  -9.392  1.00  0.00    -0.381 OA
ATOM     78  C   UNL     1      -5.992  -8.377 -10.133  1.00  0.00     0.195 C 
ENDBRANCH  76  77
BRANCH  76  79
ATOM     79  C   UNL     1      -5.226  -7.821  -7.698  1.00  0.00     0.068 C 
BRANCH  79  80
ATOM     80  C   UNL     1      -3.892  -7.325  -7.193  1.00  0.00    -0.045 A 
ATOM     81  C   UNL     1      -2.813  -7.139  -8.068  1.00  0.00     0.004 A 
ATOM     82  C   UNL     1      -3.705  -7.068  -5.827  1.00  0.00     0.004 A 
ATOM     83  C   UNL     1      -1.579  -6.694  -7.590  1.00  0.00     0.000 A 
ATOM     84  C   UNL     1      -2.469  -6.624  -5.351  1.00  0.00     0.000 A 
ATOM     85  C   UNL     1      -1.408  -6.435  -6.232  1.00  0.00     0.000 A 
ENDBRANCH  79  80
ENDBRANCH  76  79
ENDBRANCH  74  76
ENDBRANCH  72  74
ENDBRANCH  70  71
ENDBRANCH   1  69
TORSDOF 17
ENDMDL
MODEL 28
REMARK VINA RESULT:    -5.426     12.223     15.952
REMARK INTER + INTRA:         -24.531
REMARK INTER:                 -15.002
REMARK INTRA:                  -9.529
REMARK UNBOUND:                -8.320
REMARK SMILES C=C1C(=O)N[C@H](C)C(=O)N[C@@H](CC(C)C)C(=O)N[C@@H](C(=O)O)[C@H](C)C(=O)N[C@@H](CCCN=C(N)N)C(=O)N[C@@H](/C=C/C(C)=C/[C@H](C)[C@H](Cc2ccccc2)OC)[C@H](C)C(=O)N[C@@H](C(=O)O)CCC(=O)N1C
REMARK SMILES IDX 39 1 38 2 37 3 36 4 28 6 27 7 25 8 26 9 23 11 24 12 19 13
REMARK SMILES IDX 18 14 16 15 17 16 11 18 10 19 8 20 9 21 12 24 13 25 14 26
REMARK SMILES IDX 15 27 20 28 21 29 22 30 29 32 30 33 31 34 32 35 33 36 34 37
REMARK SMILES IDX 35 38 57 43 58 44 59 45 60 46 61 47 62 49 66 50 67 51 68 52
REMARK SMILES IDX 69 53 70 54 71 55 2 56 1 57 3 58 4 59 5 60 6 62 7 63 63 65
REMARK SMILES IDX 64 66 65 67 40 69 41 70 42 71 44 72 43 73 45 74 46 75 47 76
REMARK SMILES IDX 55 77 56 78 48 79 49 80 50 81 54 82 51 83 53 84 52 85
REMARK H PARENT 38 5 27 10 18 17 10 22 22 31 34 39 34 40 35 41 35 42 61 48
REMARK H PARENT 5 61 65 68
REMARK Flexibility Score:  369.900
ROOT
ATOM      1  C   UNL     1      10.831  -5.382   1.243  1.00  0.00     0.117 C 
ENDROOT
BRANCH   1   2
ATOM      2  N   UNL     1       9.700  -5.298   2.168  1.00  0.00    -0.347 N 
ATOM      3  O   UNL     1       8.020  -5.257   0.604  1.00  0.00    -0.273 OA
ATOM      4  C   UNL     1       8.376  -5.335   1.775  1.00  0.00     0.243 C 
ATOM      5  H   UNL     1       9.875  -5.261   3.160  1.00  0.00     0.164 HD
BRANCH   4   6
ATOM      6  C   UNL     1       7.375  -5.317   2.958  1.00  0.00     0.171 C 
BRANCH   6   7
ATOM      7  N   UNL     1       8.094  -5.367   4.241  1.00  0.00    -0.344 N 
ATOM      8  C   UNL     1       7.666  -6.197   5.255  1.00  0.00     0.226 C 
ATOM      9  O   UNL     1       6.672  -6.906   5.152  1.00  0.00    -0.275 OA
ATOM     10  H   UNL     1       8.880  -4.747   4.388  1.00  0.00     0.164 HD
BRANCH   8  11
ATOM     11  C   UNL     1       8.544  -6.176   6.494  1.00  0.00     0.109 C 
ATOM     12  C   UNL     1       7.686  -6.338   7.749  1.00  0.00     0.021 C 
BRANCH  11  13
ATOM     13  C   UNL     1       9.679  -7.208   6.346  1.00  0.00     0.204 C 
BRANCH  13  14
ATOM     14  N   UNL     1       9.282  -8.350   5.517  1.00  0.00    -0.340 N 
ATOM     15  C   UNL     1       8.856  -9.549   6.048  1.00  0.00     0.243 C 
ATOM     16  O   UNL     1       8.721  -9.724   7.257  1.00  0.00    -0.273 OA
ATOM     17  H   UNL     1       9.513  -8.323   4.520  1.00  0.00     0.164 HD
BRANCH  15  18
ATOM     18  C   UNL     1       8.692 -10.669   4.992  1.00  0.00     0.171 C 
BRANCH  18  19
ATOM     19  N   UNL     1       9.968 -10.770   4.287  1.00  0.00    -0.343 N 
ATOM     20  C   UNL     1      11.111 -11.233   4.910  1.00  0.00     0.242 CG0
ATOM     21  O   UNL     1      11.139 -11.454   6.119  1.00  0.00    -0.273 OA
ATOM     22  H   UNL     1      10.023 -10.489   3.314  1.00  0.00     0.164 HD
ATOM     23  G   UNL     1      12.341 -11.344   3.986  1.00  0.00     0.000 G0
ENDBRANCH  18  19
BRANCH  18  24
ATOM     24  C   UNL     1       8.315 -11.995   5.664  1.00  0.00     0.038 C 
BRANCH  24  25
ATOM     25  C   UNL     1       6.908 -12.521   5.307  1.00  0.00    -0.015 C 
ATOM     26  C   UNL     1       6.895 -14.028   5.048  1.00  0.00     0.007 C 
ATOM     27  C   UNL     1       6.380 -11.783   4.074  1.00  0.00     0.007 C 
ENDBRANCH  24  25
ENDBRANCH  18  24
ENDBRANCH  15  18
ENDBRANCH  13  14
BRANCH  13  28
ATOM     28  C   UNL     1      10.953  -6.621   5.730  1.00  0.00     0.327 C 
ATOM     29  O   UNL     1      11.027  -5.605   5.056  1.00  0.00    -0.250 OA
BRANCH  28  30
ATOM     30  O   UNL     1      12.034  -7.409   5.899  1.00  0.00    -0.480 OA
ATOM     31  H   UNL     1      11.692  -8.186   6.389  1.00  0.00     0.296 HD
ENDBRANCH  28  30
ENDBRANCH  13  28
ENDBRANCH  11  13
ENDBRANCH   8  11
ENDBRANCH   6   7
BRANCH   6  32
ATOM     32  C   UNL     1       6.509  -4.056   2.865  1.00  0.00     0.037 C 
BRANCH  32  33
ATOM     33  C   UNL     1       7.091  -2.892   3.679  1.00  0.00     0.026 C 
BRANCH  33  34
ATOM     34  C   UNL     1       6.013  -2.095   4.414  1.00  0.00     0.146 C 
BRANCH  34  35
ATOM     35  N   UNL     1       5.956  -2.547   5.798  1.00  0.00    -0.254 NA
ATOM     36  C   UNL     1       5.125  -1.985   6.594  1.00  0.00     0.185 C 
ATOM     37  N   UNL     1       5.061  -2.397   7.870  1.00  0.00    -0.370 N 
ATOM     38  N   UNL     1       4.255  -0.990   6.343  1.00  0.00    -0.370 N 
ATOM     39  H   UNL     1       5.680  -3.152   8.135  1.00  0.00     0.159 HD
ATOM     40  H   UNL     1       4.327  -2.132   8.503  1.00  0.00     0.159 HD
ATOM     41  H   UNL     1       3.752  -0.538   7.089  1.00  0.00     0.159 HD
ATOM     42  H   UNL     1       4.205  -0.572   5.428  1.00  0.00     0.159 HD
ENDBRANCH  34  35
ENDBRANCH  33  34
ENDBRANCH  32  33
ENDBRANCH   6  32
ENDBRANCH   4   6
ENDBRANCH   1   2
BRANCH   1  43
ATOM     43  C   UNL     1      11.530  -6.758   1.439  1.00  0.00     0.102 C 
ATOM     44  C   UNL     1      12.477  -7.134   0.286  1.00  0.00     0.020 C 
BRANCH  43  45
ATOM     45  C   UNL     1      10.512  -7.848   1.787  1.00  0.00     0.225 C 
ATOM     46  O   UNL     1      10.395  -8.322   2.913  1.00  0.00    -0.275 OA
ATOM     47  N   UNL     1       9.786  -8.341   0.726  1.00  0.00    -0.342 N 
ATOM     48  H   UNL     1       9.784  -7.843  -0.153  1.00  0.00     0.164 HD
BRANCH  47  49
ATOM     49  C   UNL     1       8.751  -9.361   0.915  1.00  0.00     0.192 C 
BRANCH  49  50
ATOM     50  C   UNL     1       8.586 -10.171  -0.373  1.00  0.00     0.047 C 
BRANCH  50  51
ATOM     51  C   UNL     1       8.370 -11.666  -0.098  1.00  0.00     0.103 C 
BRANCH  51  52
ATOM     52  C   UNL     1       9.443 -12.240   0.824  1.00  0.00     0.226 C 
ATOM     53  O   UNL     1       9.156 -12.530   1.987  1.00  0.00    -0.275 OA
BRANCH  52  54
ATOM     54  N   UNL     1      10.705 -12.476   0.247  1.00  0.00    -0.311 N 
ATOM     55  C   UNL     1      11.022 -13.769  -0.373  1.00  0.00     0.153 C 
BRANCH  54  56
ATOM     56  C   UNL     1      11.702 -11.487   0.237  1.00  0.00     0.102 C 
ATOM     57  C   UNL     1      12.111 -10.819  -0.854  1.00  0.00     0.043 C 
BRANCH  56  58
ATOM     58  C   UNL     1      12.380 -11.057   1.517  1.00  0.00     0.268 C 
ATOM     59  O   UNL     1      13.259 -10.206   1.556  1.00  0.00    -0.268 OA
ATOM     60  N   UNL     1      11.864 -11.669   2.634  1.00  0.00    -0.339 N 
ATOM     61  H   UNL     1      11.143 -12.371   2.516  1.00  0.00     0.164 HD
BRANCH  60  62
ATOM     62  C   UNL     1      12.333 -11.352   3.982  1.00  0.00     0.168 CG0
ATOM     63  C   UNL     1      13.303 -12.413   4.487  1.00  0.00     0.041 C 
ATOM     64  G   UNL     1      11.124 -11.222   4.932  1.00  0.00     0.000 G0
ENDBRANCH  60  62
ENDBRANCH  56  58
ENDBRANCH  54  56
ENDBRANCH  52  54
ENDBRANCH  51  52
ENDBRANCH  50  51
ENDBRANCH  49  50
BRANCH  49  65
ATOM     65  C   UNL     1       7.401  -8.735   1.299  1.00  0.00     0.326 C 
ATOM     66  O   UNL     1       6.896  -8.761   2.411  1.00  0.00    -0.250 OA
BRANCH  65  67
ATOM     67  O   UNL     1       6.731  -8.167   0.272  1.00  0.00    -0.480 OA
ATOM     68  H   UNL     1       6.668  -8.889  -0.391  1.00  0.00     0.296 HD
ENDBRANCH  65  67
ENDBRANCH  49  65
ENDBRANCH  47  49
ENDBRANCH  43  45
ENDBRANCH   1  43
BRANCH   1  69
ATOM     69  C   UNL     1      11.639  -4.113   1.445  1.00  0.00    -0.001 C 
ATOM     70  C   UNL     1      11.519  -3.218   2.441  1.00  0.00     0.001 C 
BRANCH  70  71
ATOM     71  C   UNL     1      12.319  -2.008   2.638  1.00  0.00    -0.055 C 
ATOM     72  C   UNL     1      11.753  -0.983   3.310  1.00  0.00    -0.018 C 
ATOM     73  C   UNL     1      13.720  -1.995   2.083  1.00  0.00     0.044 C 
BRANCH  72  74
ATOM     74  C   UNL     1      12.337   0.377   3.662  1.00  0.00     0.038 C 
ATOM     75  C   UNL     1      13.006   0.240   5.036  1.00  0.00     0.015 C 
BRANCH  74  76
ATOM     76  C   UNL     1      11.204   1.443   3.591  1.00  0.00     0.128 C 
BRANCH  76  77
ATOM     77  O   UNL     1      11.744   2.705   3.163  1.00  0.00    -0.381 OA
ATOM     78  C   UNL     1      11.317   3.806   3.953  1.00  0.00     0.195 C 
ENDBRANCH  76  77
BRANCH  76  79
ATOM     79  C   UNL     1       9.977   1.001   2.755  1.00  0.00     0.068 C 
BRANCH  79  80
ATOM     80  C   UNL     1       8.605   1.200   3.354  1.00  0.00    -0.045 A 
ATOM     81  C   UNL     1       8.397   1.086   4.735  1.00  0.00     0.004 A 
ATOM     82  C   UNL     1       7.506   1.477   2.527  1.00  0.00     0.004 A 
ATOM     83  C   UNL     1       7.122   1.257   5.279  1.00  0.00     0.000 A 
ATOM     84  C   UNL     1       6.232   1.648   3.073  1.00  0.00     0.000 A 
ATOM     85  C   UNL     1       6.040   1.539   4.448  1.00  0.00     0.000 A 
ENDBRANCH  79  80
ENDBRANCH  76  79
ENDBRANCH  74  76
ENDBRANCH  72  74
ENDBRANCH  70  71
ENDBRANCH   1  69
TORSDOF 17
ENDMDL
MODEL 29
REMARK VINA RESULT:    -5.424      3.332      6.743
REMARK INTER + INTRA:         -24.525
REMARK INTER:                 -18.734
REMARK INTRA:                  -5.791
REMARK UNBOUND:                -8.320
REMARK SMILES C=C1C(=O)N[C@H](C)C(=O)N[C@@H](CC(C)C)C(=O)N[C@@H](C(=O)O)[C@H](C)C(=O)N[C@@H](CCCN=C(N)N)C(=O)N[C@@H](/C=C/C(C)=C/[C@H](C)[C@H](Cc2ccccc2)OC)[C@H](C)C(=O)N[C@@H](C(=O)O)CCC(=O)N1C
REMARK SMILES IDX 39 1 38 2 37 3 36 4 28 6 27 7 25 8 26 9 23 11 24 12 19 13
REMARK SMILES IDX 18 14 16 15 17 16 11 18 10 19 8 20 9 21 12 24 13 25 14 26
REMARK SMILES IDX 15 27 20 28 21 29 22 30 29 32 30 33 31 34 32 35 33 36 34 37
REMARK SMILES IDX 35 38 57 43 58 44 59 45 60 46 61 47 62 49 66 50 67 51 68 52
REMARK SMILES IDX 69 53 70 54 71 55 2 56 1 57 3 58 4 59 5 60 6 62 7 63 63 65
REMARK SMILES IDX 64 66 65 67 40 69 41 70 42 71 44 72 43 73 45 74 46 75 47 76
REMARK SMILES IDX 55 77 56 78 48 79 49 80 50 81 54 82 51 83 53 84 52 85
REMARK H PARENT 38 5 27 10 18 17 10 22 22 31 34 39 34 40 35 41 35 42 61 48
REMARK H PARENT 5 61 65 68
REMARK Flexibility Score:  369.900
ROOT
ATOM      1  C   UNL     1      -4.800 -10.826   4.319  1.00  0.00     0.117 C 
ENDROOT
BRANCH   1   2
ATOM      2  N   UNL     1      -4.406 -11.586   3.132  1.00  0.00    -0.347 N 
ATOM      3  O   UNL     1      -5.103 -10.076   1.549  1.00  0.00    -0.273 OA
ATOM      4  C   UNL     1      -4.506 -11.108   1.839  1.00  0.00     0.243 C 
ATOM      5  H   UNL     1      -3.987 -12.497   3.244  1.00  0.00     0.164 HD
BRANCH   4   6
ATOM      6  C   UNL     1      -3.940 -12.077   0.771  1.00  0.00     0.171 C 
BRANCH   6   7
ATOM      7  N   UNL     1      -3.985 -11.455  -0.563  1.00  0.00    -0.344 N 
ATOM      8  C   UNL     1      -4.730 -12.019  -1.576  1.00  0.00     0.226 C 
ATOM      9  O   UNL     1      -5.363 -13.057  -1.430  1.00  0.00    -0.275 OA
ATOM     10  H   UNL     1      -3.421 -10.634  -0.740  1.00  0.00     0.164 HD
BRANCH   8  11
ATOM     11  C   UNL     1      -4.718 -11.230  -2.874  1.00  0.00     0.109 C 
ATOM     12  C   UNL     1      -5.362 -12.049  -3.992  1.00  0.00     0.021 C 
BRANCH  11  13
ATOM     13  C   UNL     1      -5.344  -9.840  -2.645  1.00  0.00     0.204 C 
BRANCH  13  14
ATOM     14  N   UNL     1      -4.437  -8.756  -3.035  1.00  0.00    -0.340 N 
ATOM     15  C   UNL     1      -3.545  -8.175  -2.159  1.00  0.00     0.243 C 
ATOM     16  O   UNL     1      -3.405  -8.568  -1.002  1.00  0.00    -0.273 OA
ATOM     17  H   UNL     1      -4.607  -8.285  -3.927  1.00  0.00     0.164 HD
BRANCH  15  18
ATOM     18  C   UNL     1      -2.845  -6.919  -2.732  1.00  0.00     0.171 C 
BRANCH  18  19
ATOM     19  N   UNL     1      -3.304  -6.776  -4.112  1.00  0.00    -0.343 N 
ATOM     20  C   UNL     1      -2.468  -6.324  -5.115  1.00  0.00     0.242 CG0
ATOM     21  O   UNL     1      -1.343  -5.895  -4.871  1.00  0.00    -0.273 OA
ATOM     22  H   UNL     1      -4.263  -7.009  -4.344  1.00  0.00     0.164 HD
ATOM     23  G   UNL     1      -3.106  -6.315  -6.520  1.00  0.00     0.000 G0
ENDBRANCH  18  19
BRANCH  18  24
ATOM     24  C   UNL     1      -3.186  -5.679  -1.895  1.00  0.00     0.038 C 
BRANCH  24  25
ATOM     25  C   UNL     1      -2.056  -5.205  -0.957  1.00  0.00    -0.015 C 
ATOM     26  C   UNL     1      -0.685  -5.733  -1.378  1.00  0.00     0.007 C 
ATOM     27  C   UNL     1      -2.360  -5.645   0.478  1.00  0.00     0.007 C 
ENDBRANCH  24  25
ENDBRANCH  18  24
ENDBRANCH  15  18
ENDBRANCH  13  14
BRANCH  13  28
ATOM     28  C   UNL     1      -6.654  -9.634  -3.412  1.00  0.00     0.327 C 
ATOM     29  O   UNL     1      -6.780  -9.070  -4.489  1.00  0.00    -0.250 OA
BRANCH  28  30
ATOM     30  O   UNL     1      -7.739 -10.043  -2.725  1.00  0.00    -0.480 OA
ATOM     31  H   UNL     1      -7.555 -10.984  -2.521  1.00  0.00     0.296 HD
ENDBRANCH  28  30
ENDBRANCH  13  28
ENDBRANCH  11  13
ENDBRANCH   8  11
ENDBRANCH   6   7
BRANCH   6  32
ATOM     32  C   UNL     1      -2.504 -12.459   1.148  1.00  0.00     0.037 C 
BRANCH  32  33
ATOM     33  C   UNL     1      -2.273 -13.975   1.088  1.00  0.00     0.026 C 
BRANCH  33  34
ATOM     34  C   UNL     1      -2.070 -14.480  -0.342  1.00  0.00     0.146 C 
BRANCH  34  35
ATOM     35  N   UNL     1      -0.641 -14.577  -0.607  1.00  0.00    -0.254 NA
ATOM     36  C   UNL     1      -0.106 -13.732  -1.407  1.00  0.00     0.185 C 
ATOM     37  N   UNL     1       1.210 -13.809  -1.655  1.00  0.00    -0.370 N 
ATOM     38  N   UNL     1      -0.685 -12.720  -2.078  1.00  0.00    -0.370 N 
ATOM     39  H   UNL     1       1.720 -14.542  -1.177  1.00  0.00     0.159 HD
ATOM     40  H   UNL     1       1.731 -13.089  -2.125  1.00  0.00     0.159 HD
ATOM     41  H   UNL     1      -0.183 -12.211  -2.787  1.00  0.00     0.159 HD
ATOM     42  H   UNL     1      -1.676 -12.553  -1.999  1.00  0.00     0.159 HD
ENDBRANCH  34  35
ENDBRANCH  33  34
ENDBRANCH  32  33
ENDBRANCH   6  32
ENDBRANCH   4   6
ENDBRANCH   1   2
BRANCH   1  43
ATOM     43  C   UNL     1      -6.353 -10.755   4.368  1.00  0.00     0.102 C 
ATOM     44  C   UNL     1      -6.904  -9.325   4.234  1.00  0.00     0.020 C 
BRANCH  43  45
ATOM     45  C   UNL     1      -6.901 -11.522   5.575  1.00  0.00     0.225 C 
ATOM     46  O   UNL     1      -7.927 -11.197   6.167  1.00  0.00    -0.275 OA
ATOM     47  N   UNL     1      -6.116 -12.558   6.025  1.00  0.00    -0.342 N 
ATOM     48  H   UNL     1      -5.365 -12.905   5.445  1.00  0.00     0.164 HD
BRANCH  47  49
ATOM     49  C   UNL     1      -6.531 -13.402   7.149  1.00  0.00     0.192 C 
BRANCH  49  50
ATOM     50  C   UNL     1      -5.345 -14.243   7.627  1.00  0.00     0.047 C 
BRANCH  50  51
ATOM     51  C   UNL     1      -5.774 -15.370   8.577  1.00  0.00     0.103 C 
BRANCH  51  52
ATOM     52  C   UNL     1      -5.928 -14.880  10.015  1.00  0.00     0.226 C 
ATOM     53  O   UNL     1      -7.044 -14.571  10.438  1.00  0.00    -0.275 OA
BRANCH  52  54
ATOM     54  N   UNL     1      -4.765 -14.884  10.807  1.00  0.00    -0.311 N 
ATOM     55  C   UNL     1      -3.640 -15.775  10.492  1.00  0.00     0.153 C 
BRANCH  54  56
ATOM     56  C   UNL     1      -4.633 -14.038  11.920  1.00  0.00     0.102 C 
ATOM     57  C   UNL     1      -4.724 -12.698  11.882  1.00  0.00     0.043 C 
BRANCH  56  58
ATOM     58  C   UNL     1      -4.414 -14.604  13.303  1.00  0.00     0.268 C 
ATOM     59  O   UNL     1      -5.094 -15.508  13.772  1.00  0.00    -0.268 OA
ATOM     60  N   UNL     1      -3.337 -14.048  13.951  1.00  0.00    -0.339 N 
ATOM     61  H   UNL     1      -2.832 -13.296  13.498  1.00  0.00     0.164 HD
BRANCH  60  62
ATOM     62  C   UNL     1      -2.910 -14.494  15.276  1.00  0.00     0.168 CG0
ATOM     63  C   UNL     1      -2.104 -13.412  15.984  1.00  0.00     0.041 C 
ATOM     64  G   UNL     1      -2.085 -15.791  15.144  1.00  0.00     0.000 G0
ENDBRANCH  60  62
ENDBRANCH  56  58
ENDBRANCH  54  56
ENDBRANCH  52  54
ENDBRANCH  51  52
ENDBRANCH  50  51
ENDBRANCH  49  50
BRANCH  49  65
ATOM     65  C   UNL     1      -7.691 -14.333   6.761  1.00  0.00     0.326 C 
ATOM     66  O   UNL     1      -7.643 -15.213   5.913  1.00  0.00    -0.250 OA
BRANCH  65  67
ATOM     67  O   UNL     1      -8.855 -14.080   7.399  1.00  0.00    -0.480 OA
ATOM     68  H   UNL     1      -8.768 -14.575   8.242  1.00  0.00     0.296 HD
ENDBRANCH  65  67
ENDBRANCH  49  65
ENDBRANCH  47  49
ENDBRANCH  43  45
ENDBRANCH   1  43
BRANCH   1  69
ATOM     69  C   UNL     1      -4.007  -9.533   4.277  1.00  0.00    -0.001 C 
ATOM     70  C   UNL     1      -2.708  -9.361   4.579  1.00  0.00     0.001 C 
BRANCH  70  71
ATOM     71  C   UNL     1      -1.948  -8.111   4.514  1.00  0.00    -0.055 C 
ATOM     72  C   UNL     1      -2.348  -7.091   5.302  1.00  0.00    -0.018 C 
ATOM     73  C   UNL     1      -0.768  -8.054   3.579  1.00  0.00     0.044 C 
BRANCH  72  74
ATOM     74  C   UNL     1      -1.758  -5.696   5.446  1.00  0.00     0.038 C 
ATOM     75  C   UNL     1      -1.477  -5.475   6.938  1.00  0.00     0.015 C 
BRANCH  74  76
ATOM     76  C   UNL     1      -2.738  -4.669   4.808  1.00  0.00     0.128 C 
BRANCH  76  77
ATOM     77  O   UNL     1      -1.997  -3.618   4.164  1.00  0.00    -0.381 OA
ATOM     78  C   UNL     1      -0.972  -4.090   3.300  1.00  0.00     0.195 C 
ENDBRANCH  76  77
BRANCH  76  79
ATOM     79  C   UNL     1      -3.803  -5.307   3.880  1.00  0.00     0.068 C 
BRANCH  79  80
ATOM     80  C   UNL     1      -5.257  -5.054   4.195  1.00  0.00    -0.045 A 
ATOM     81  C   UNL     1      -5.984  -5.935   5.006  1.00  0.00     0.004 A 
ATOM     82  C   UNL     1      -5.915  -3.940   3.652  1.00  0.00     0.004 A 
ATOM     83  C   UNL     1      -7.333  -5.702   5.281  1.00  0.00     0.000 A 
ATOM     84  C   UNL     1      -7.264  -3.708   3.927  1.00  0.00     0.000 A 
ATOM     85  C   UNL     1      -7.973  -4.587   4.742  1.00  0.00     0.000 A 
ENDBRANCH  79  80
ENDBRANCH  76  79
ENDBRANCH  74  76
ENDBRANCH  72  74
ENDBRANCH  70  71
ENDBRANCH   1  69
TORSDOF 17
ENDMDL
MODEL 30
REMARK VINA RESULT:    -5.392      3.169      7.423
REMARK INTER + INTRA:         -24.428
REMARK INTER:                 -17.348
REMARK INTRA:                  -7.080
REMARK UNBOUND:                -8.320
REMARK SMILES C=C1C(=O)N[C@H](C)C(=O)N[C@@H](CC(C)C)C(=O)N[C@@H](C(=O)O)[C@H](C)C(=O)N[C@@H](CCCN=C(N)N)C(=O)N[C@@H](/C=C/C(C)=C/[C@H](C)[C@H](Cc2ccccc2)OC)[C@H](C)C(=O)N[C@@H](C(=O)O)CCC(=O)N1C
REMARK SMILES IDX 39 1 38 2 37 3 36 4 28 6 27 7 25 8 26 9 23 11 24 12 19 13
REMARK SMILES IDX 18 14 16 15 17 16 11 18 10 19 8 20 9 21 12 24 13 25 14 26
REMARK SMILES IDX 15 27 20 28 21 29 22 30 29 32 30 33 31 34 32 35 33 36 34 37
REMARK SMILES IDX 35 38 57 43 58 44 59 45 60 46 61 47 62 49 66 50 67 51 68 52
REMARK SMILES IDX 69 53 70 54 71 55 2 56 1 57 3 58 4 59 5 60 6 62 7 63 63 65
REMARK SMILES IDX 64 66 65 67 40 69 41 70 42 71 44 72 43 73 45 74 46 75 47 76
REMARK SMILES IDX 55 77 56 78 48 79 49 80 50 81 54 82 51 83 53 84 52 85
REMARK H PARENT 38 5 27 10 18 17 10 22 22 31 34 39 34 40 35 41 35 42 61 48
REMARK H PARENT 5 61 65 68
REMARK Flexibility Score:  369.900
ROOT
ATOM      1  C   UNL     1      -4.152  -9.979   6.272  1.00  0.00     0.117 C 
ENDROOT
BRANCH   1   2
ATOM      2  N   UNL     1      -3.500 -10.951   5.394  1.00  0.00    -0.347 N 
ATOM      3  O   UNL     1      -4.750 -10.558   3.509  1.00  0.00    -0.273 OA
ATOM      4  C   UNL     1      -3.792 -11.099   4.051  1.00  0.00     0.243 C 
ATOM      5  H   UNL     1      -2.755 -11.525   5.758  1.00  0.00     0.164 HD
BRANCH   4   6
ATOM      6  C   UNL     1      -2.898 -12.138   3.330  1.00  0.00     0.171 C 
BRANCH   6   7
ATOM      7  N   UNL     1      -2.290 -11.547   2.127  1.00  0.00    -0.344 N 
ATOM      8  C   UNL     1      -2.892 -11.686   0.895  1.00  0.00     0.226 C 
ATOM      9  O   UNL     1      -3.931 -12.315   0.735  1.00  0.00    -0.275 OA
ATOM     10  H   UNL     1      -1.396 -11.078   2.209  1.00  0.00     0.164 HD
BRANCH   8  11
ATOM     11  C   UNL     1      -2.171 -10.974  -0.237  1.00  0.00     0.109 C 
ATOM     12  C   UNL     1      -0.802 -11.612  -0.473  1.00  0.00     0.021 C 
BRANCH  11  13
ATOM     13  C   UNL     1      -3.082 -10.915  -1.479  1.00  0.00     0.204 C 
BRANCH  13  14
ATOM     14  N   UNL     1      -3.066  -9.592  -2.113  1.00  0.00    -0.340 N 
ATOM     15  C   UNL     1      -4.091  -8.682  -1.970  1.00  0.00     0.243 C 
ATOM     16  O   UNL     1      -5.065  -8.892  -1.250  1.00  0.00    -0.273 OA
ATOM     17  H   UNL     1      -2.367  -9.416  -2.838  1.00  0.00     0.164 HD
BRANCH  15  18
ATOM     18  C   UNL     1      -3.953  -7.446  -2.892  1.00  0.00     0.171 C 
BRANCH  18  19
ATOM     19  N   UNL     1      -5.288  -7.165  -3.417  1.00  0.00    -0.343 N 
ATOM     20  C   UNL     1      -5.631  -7.446  -4.726  1.00  0.00     0.242 CG0
ATOM     21  O   UNL     1      -4.794  -7.820  -5.544  1.00  0.00    -0.273 OA
ATOM     22  H   UNL     1      -5.983  -6.746  -2.809  1.00  0.00     0.164 HD
ATOM     23  G   UNL     1      -7.105  -7.153  -5.074  1.00  0.00     0.000 G0
ENDBRANCH  18  19
BRANCH  18  24
ATOM     24  C   UNL     1      -3.392  -6.250  -2.114  1.00  0.00     0.038 C 
BRANCH  24  25
ATOM     25  C   UNL     1      -2.064  -5.688  -2.667  1.00  0.00    -0.015 C 
ATOM     26  C   UNL     1      -2.104  -5.474  -4.180  1.00  0.00     0.007 C 
ATOM     27  C   UNL     1      -0.916  -6.635  -2.310  1.00  0.00     0.007 C 
ENDBRANCH  24  25
ENDBRANCH  18  24
ENDBRANCH  15  18
ENDBRANCH  13  14
BRANCH  13  28
ATOM     28  C   UNL     1      -2.703 -11.938  -2.554  1.00  0.00     0.327 C 
ATOM     29  O   UNL     1      -2.809 -13.151  -2.467  1.00  0.00    -0.250 OA
BRANCH  28  30
ATOM     30  O   UNL     1      -2.104 -11.380  -3.626  1.00  0.00    -0.480 OA
ATOM     31  H   UNL     1      -2.128 -10.418  -3.443  1.00  0.00     0.296 HD
ENDBRANCH  28  30
ENDBRANCH  13  28
ENDBRANCH  11  13
ENDBRANCH   8  11
ENDBRANCH   6   7
BRANCH   6  32
ATOM     32  C   UNL     1      -1.820 -12.635   4.300  1.00  0.00     0.037 C 
BRANCH  32  33
ATOM     33  C   UNL     1      -0.438 -12.048   3.980  1.00  0.00     0.026 C 
BRANCH  33  34
ATOM     34  C   UNL     1       0.342 -11.670   5.240  1.00  0.00     0.146 C 
BRANCH  34  35
ATOM     35  N   UNL     1      -0.594 -11.187   6.246  1.00  0.00    -0.254 NA
ATOM     36  C   UNL     1      -0.147 -10.467   7.206  1.00  0.00     0.185 C 
ATOM     37  N   UNL     1      -1.002 -10.013   8.136  1.00  0.00    -0.370 N 
ATOM     38  N   UNL     1       1.114 -10.068   7.447  1.00  0.00    -0.370 N 
ATOM     39  H   UNL     1      -1.976 -10.263   8.018  1.00  0.00     0.159 HD
ATOM     40  H   UNL     1      -0.765  -9.309   8.813  1.00  0.00     0.159 HD
ATOM     41  H   UNL     1       1.362  -9.619   8.313  1.00  0.00     0.159 HD
ATOM     42  H   UNL     1       1.866 -10.349   6.837  1.00  0.00     0.159 HD
ENDBRANCH  34  35
ENDBRANCH  33  34
ENDBRANCH  32  33
ENDBRANCH   6  32
ENDBRANCH   4   6
ENDBRANCH   1   2
BRANCH   1  43
ATOM     43  C   UNL     1      -5.665 -10.333   6.366  1.00  0.00     0.102 C 
ATOM     44  C   UNL     1      -6.561  -9.116   6.651  1.00  0.00     0.020 C 
BRANCH  43  45
ATOM     45  C   UNL     1      -5.896 -11.511   7.316  1.00  0.00     0.225 C 
ATOM     46  O   UNL     1      -5.463 -11.542   8.465  1.00  0.00    -0.275 OA
ATOM     47  N   UNL     1      -6.548 -12.593   6.771  1.00  0.00    -0.342 N 
ATOM     48  H   UNL     1      -7.026 -12.496   5.886  1.00  0.00     0.164 HD
BRANCH  47  49
ATOM     49  C   UNL     1      -6.870 -13.778   7.573  1.00  0.00     0.192 C 
BRANCH  49  50
ATOM     50  C   UNL     1      -5.751 -14.814   7.431  1.00  0.00     0.047 C 
BRANCH  50  51
ATOM     51  C   UNL     1      -5.640 -15.722   8.664  1.00  0.00     0.103 C 
BRANCH  51  52
ATOM     52  C   UNL     1      -5.738 -14.933   9.968  1.00  0.00     0.226 C 
ATOM     53  O   UNL     1      -6.845 -14.699  10.457  1.00  0.00    -0.275 OA
BRANCH  52  54
ATOM     54  N   UNL     1      -4.521 -14.580  10.581  1.00  0.00    -0.311 N 
ATOM     55  C   UNL     1      -3.235 -14.946   9.973  1.00  0.00     0.153 C 
BRANCH  54  56
ATOM     56  C   UNL     1      -4.490 -13.864  11.789  1.00  0.00     0.102 C 
ATOM     57  C   UNL     1      -4.729 -12.548  11.908  1.00  0.00     0.043 C 
BRANCH  56  58
ATOM     58  C   UNL     1      -4.218 -14.565  13.099  1.00  0.00     0.268 C 
ATOM     59  O   UNL     1      -4.618 -15.693  13.350  1.00  0.00    -0.268 OA
ATOM     60  N   UNL     1      -3.422 -13.833  13.948  1.00  0.00    -0.339 N 
ATOM     61  H   UNL     1      -3.141 -12.901  13.669  1.00  0.00     0.164 HD
BRANCH  60  62
ATOM     62  C   UNL     1      -2.985 -14.349  15.244  1.00  0.00     0.168 CG0
ATOM     63  C   UNL     1      -2.088 -13.346  15.958  1.00  0.00     0.041 C 
ATOM     64  G   UNL     1      -2.252 -15.692  15.045  1.00  0.00     0.000 G0
ENDBRANCH  60  62
ENDBRANCH  56  58
ENDBRANCH  54  56
ENDBRANCH  52  54
ENDBRANCH  51  52
ENDBRANCH  50  51
ENDBRANCH  49  50
BRANCH  49  65
ATOM     65  C   UNL     1      -8.204 -14.408   7.143  1.00  0.00     0.326 C 
ATOM     66  O   UNL     1      -8.510 -14.714   6.000  1.00  0.00    -0.250 OA
BRANCH  65  67
ATOM     67  O   UNL     1      -9.101 -14.564   8.142  1.00  0.00    -0.480 OA
ATOM     68  H   UNL     1      -9.590 -13.713   8.149  1.00  0.00     0.296 HD
ENDBRANCH  65  67
ENDBRANCH  49  65
ENDBRANCH  47  49
ENDBRANCH  43  45
ENDBRANCH   1  43
BRANCH   1  69
ATOM     69  C   UNL     1      -3.751  -8.608   5.759  1.00  0.00    -0.001 C 
ATOM     70  C   UNL     1      -3.120  -7.634   6.438  1.00  0.00     0.001 C 
BRANCH  70  71
ATOM     71  C   UNL     1      -2.718  -6.323   5.926  1.00  0.00    -0.055 C 
ATOM     72  C   UNL     1      -3.281  -5.899   4.775  1.00  0.00    -0.018 C 
ATOM     73  C   UNL     1      -1.712  -5.535   6.724  1.00  0.00     0.044 C 
BRANCH  72  74
ATOM     74  C   UNL     1      -3.061  -4.598   4.017  1.00  0.00     0.038 C 
ATOM     75  C   UNL     1      -4.445  -4.044   3.657  1.00  0.00     0.015 C 
BRANCH  74  76
ATOM     76  C   UNL     1      -2.132  -4.878   2.799  1.00  0.00     0.128 C 
BRANCH  76  77
ATOM     77  O   UNL     1      -2.353  -3.892   1.776  1.00  0.00    -0.381 OA
ATOM     78  C   UNL     1      -1.538  -4.071   0.625  1.00  0.00     0.195 C 
ENDBRANCH  76  77
BRANCH  76  79
ATOM     79  C   UNL     1      -0.636  -5.031   3.170  1.00  0.00     0.068 C 
BRANCH  79  80
ATOM     80  C   UNL     1      -0.008  -6.397   3.028  1.00  0.00    -0.045 A 
ATOM     81  C   UNL     1       0.017  -7.054   1.791  1.00  0.00     0.004 A 
ATOM     82  C   UNL     1       0.539  -7.044   4.146  1.00  0.00     0.004 A 
ATOM     83  C   UNL     1       0.587  -8.323   1.670  1.00  0.00     0.000 A 
ATOM     84  C   UNL     1       1.108  -8.313   4.024  1.00  0.00     0.000 A 
ATOM     85  C   UNL     1       1.133  -8.952   2.787  1.00  0.00     0.000 A 
ENDBRANCH  79  80
ENDBRANCH  76  79
ENDBRANCH  74  76
ENDBRANCH  72  74
ENDBRANCH  70  71
ENDBRANCH   1  69
TORSDOF 17
ENDMDL
MODEL 31
REMARK VINA RESULT:    -5.371      4.464      7.106
REMARK INTER + INTRA:         -24.367
REMARK INTER:                 -18.676
REMARK INTRA:                  -5.691
REMARK UNBOUND:                -8.320
REMARK SMILES C=C1C(=O)N[C@H](C)C(=O)N[C@@H](CC(C)C)C(=O)N[C@@H](C(=O)O)[C@H](C)C(=O)N[C@@H](CCCN=C(N)N)C(=O)N[C@@H](/C=C/C(C)=C/[C@H](C)[C@H](Cc2ccccc2)OC)[C@H](C)C(=O)N[C@@H](C(=O)O)CCC(=O)N1C
REMARK SMILES IDX 39 1 38 2 37 3 36 4 28 6 27 7 25 8 26 9 23 11 24 12 19 13
REMARK SMILES IDX 18 14 16 15 17 16 11 18 10 19 8 20 9 21 12 24 13 25 14 26
REMARK SMILES IDX 15 27 20 28 21 29 22 30 29 32 30 33 31 34 32 35 33 36 34 37
REMARK SMILES IDX 35 38 57 43 58 44 59 45 60 46 61 47 62 49 66 50 67 51 68 52
REMARK SMILES IDX 69 53 70 54 71 55 2 56 1 57 3 58 4 59 5 60 6 62 7 63 63 65
REMARK SMILES IDX 64 66 65 67 40 69 41 70 42 71 44 72 43 73 45 74 46 75 47 76
REMARK SMILES IDX 55 77 56 78 48 79 49 80 50 81 54 82 51 83 53 84 52 85
REMARK H PARENT 38 5 27 10 18 17 10 22 22 31 34 39 34 40 35 41 35 42 61 48
REMARK H PARENT 5 61 65 68
REMARK Flexibility Score:  369.900
ROOT
ATOM      1  C   UNL     1      -2.768  -8.304   2.009  1.00  0.00     0.117 C 
ENDROOT
BRANCH   1   2
ATOM      2  N   UNL     1      -3.141  -8.709   0.654  1.00  0.00    -0.347 N 
ATOM      3  O   UNL     1      -3.148  -6.624  -0.306  1.00  0.00    -0.273 OA
ATOM      4  C   UNL     1      -3.212  -7.843  -0.421  1.00  0.00     0.243 C 
ATOM      5  H   UNL     1      -3.314  -9.684   0.459  1.00  0.00     0.164 HD
BRANCH   4   6
ATOM      6  C   UNL     1      -3.546  -8.542  -1.763  1.00  0.00     0.171 C 
BRANCH   6   7
ATOM      7  N   UNL     1      -2.960  -7.798  -2.890  1.00  0.00    -0.344 N 
ATOM      8  C   UNL     1      -3.767  -7.145  -3.796  1.00  0.00     0.226 C 
ATOM      9  O   UNL     1      -4.990  -7.167  -3.726  1.00  0.00    -0.275 OA
ATOM     10  H   UNL     1      -1.956  -7.812  -3.019  1.00  0.00     0.164 HD
BRANCH   8  11
ATOM     11  C   UNL     1      -3.012  -6.378  -4.867  1.00  0.00     0.109 C 
ATOM     12  C   UNL     1      -2.108  -5.326  -4.223  1.00  0.00     0.021 C 
BRANCH  11  13
ATOM     13  C   UNL     1      -2.291  -7.366  -5.805  1.00  0.00     0.204 C 
BRANCH  13  14
ATOM     14  N   UNL     1      -3.005  -7.544  -7.073  1.00  0.00    -0.340 N 
ATOM     15  C   UNL     1      -2.929  -8.701  -7.818  1.00  0.00     0.243 C 
ATOM     16  O   UNL     1      -2.304  -9.690  -7.441  1.00  0.00    -0.273 OA
ATOM     17  H   UNL     1      -3.415  -6.717  -7.514  1.00  0.00     0.164 HD
BRANCH  15  18
ATOM     18  C   UNL     1      -3.593  -8.584  -9.212  1.00  0.00     0.171 C 
BRANCH  18  19
ATOM     19  N   UNL     1      -4.446  -9.760  -9.370  1.00  0.00    -0.343 N 
ATOM     20  C   UNL     1      -4.368 -10.573 -10.484  1.00  0.00     0.242 CG0
ATOM     21  O   UNL     1      -3.674 -10.272 -11.453  1.00  0.00    -0.273 OA
ATOM     22  H   UNL     1      -5.120  -9.986  -8.647  1.00  0.00     0.164 HD
ATOM     23  G   UNL     1      -5.289 -11.809 -10.437  1.00  0.00     0.000 G0
ENDBRANCH  18  19
BRANCH  18  24
ATOM     24  C   UNL     1      -4.402  -7.285  -9.319  1.00  0.00     0.038 C 
BRANCH  24  25
ATOM     25  C   UNL     1      -4.281  -6.560 -10.676  1.00  0.00    -0.015 C 
ATOM     26  C   UNL     1      -5.266  -7.097 -11.715  1.00  0.00     0.007 C 
ATOM     27  C   UNL     1      -2.851  -6.694 -11.206  1.00  0.00     0.007 C 
ENDBRANCH  24  25
ENDBRANCH  18  24
ENDBRANCH  15  18
ENDBRANCH  13  14
BRANCH  13  28
ATOM     28  C   UNL     1      -0.860  -6.939  -6.146  1.00  0.00     0.327 C 
ATOM     29  O   UNL     1      -0.535  -5.973  -6.819  1.00  0.00    -0.250 OA
BRANCH  28  30
ATOM     30  O   UNL     1       0.070  -7.819  -5.722  1.00  0.00    -0.480 OA
ATOM     31  H   UNL     1       0.923  -7.366  -5.885  1.00  0.00     0.296 HD
ENDBRANCH  28  30
ENDBRANCH  13  28
ENDBRANCH  11  13
ENDBRANCH   8  11
ENDBRANCH   6   7
BRANCH   6  32
ATOM     32  C   UNL     1      -3.020  -9.981  -1.726  1.00  0.00     0.037 C 
BRANCH  32  33
ATOM     33  C   UNL     1      -4.134 -11.011  -1.960  1.00  0.00     0.026 C 
BRANCH  33  34
ATOM     34  C   UNL     1      -5.482 -10.356  -2.261  1.00  0.00     0.146 C 
BRANCH  34  35
ATOM     35  N   UNL     1      -5.990 -10.884  -3.520  1.00  0.00    -0.254 NA
ATOM     36  C   UNL     1      -7.224 -10.701  -3.810  1.00  0.00     0.185 C 
ATOM     37  N   UNL     1      -7.701 -11.178  -4.970  1.00  0.00    -0.370 N 
ATOM     38  N   UNL     1      -8.174 -10.069  -3.098  1.00  0.00    -0.370 N 
ATOM     39  H   UNL     1      -7.042 -11.659  -5.569  1.00  0.00     0.159 HD
ATOM     40  H   UNL     1      -8.600 -10.929  -5.346  1.00  0.00     0.159 HD
ATOM     41  H   UNL     1      -9.143 -10.112  -3.369  1.00  0.00     0.159 HD
ATOM     42  H   UNL     1      -7.961  -9.673  -2.196  1.00  0.00     0.159 HD
ENDBRANCH  34  35
ENDBRANCH  33  34
ENDBRANCH  32  33
ENDBRANCH   6  32
ENDBRANCH   4   6
ENDBRANCH   1   2
BRANCH   1  43
ATOM     43  C   UNL     1      -1.218  -8.365   2.135  1.00  0.00     0.102 C 
ATOM     44  C   UNL     1      -0.730  -9.348   3.212  1.00  0.00     0.020 C 
BRANCH  43  45
ATOM     45  C   UNL     1      -0.621  -6.960   2.260  1.00  0.00     0.225 C 
ATOM     46  O   UNL     1      -0.145  -6.346   1.308  1.00  0.00    -0.275 OA
ATOM     47  N   UNL     1      -0.562  -6.452   3.537  1.00  0.00    -0.342 N 
ATOM     48  H   UNL     1      -1.088  -6.896   4.277  1.00  0.00     0.164 HD
BRANCH  47  49
ATOM     49  C   UNL     1      -0.048  -5.105   3.804  1.00  0.00     0.192 C 
BRANCH  49  50
ATOM     50  C   UNL     1       0.923  -5.150   4.986  1.00  0.00     0.047 C 
BRANCH  50  51
ATOM     51  C   UNL     1       1.623  -3.803   5.216  1.00  0.00     0.103 C 
BRANCH  51  52
ATOM     52  C   UNL     1       3.075  -3.979   5.657  1.00  0.00     0.226 C 
ATOM     53  O   UNL     1       3.622  -5.076   5.529  1.00  0.00    -0.275 OA
BRANCH  52  54
ATOM     54  N   UNL     1       3.732  -2.825   6.123  1.00  0.00    -0.311 N 
ATOM     55  C   UNL     1       3.523  -1.523   5.477  1.00  0.00     0.153 C 
BRANCH  54  56
ATOM     56  C   UNL     1       4.606  -2.874   7.222  1.00  0.00     0.102 C 
ATOM     57  C   UNL     1       4.352  -3.509   8.377  1.00  0.00     0.043 C 
BRANCH  56  58
ATOM     58  C   UNL     1       5.968  -2.224   7.158  1.00  0.00     0.268 C 
ATOM     59  O   UNL     1       6.773  -2.443   6.263  1.00  0.00    -0.268 OA
ATOM     60  N   UNL     1       6.181  -1.316   8.168  1.00  0.00    -0.339 N 
ATOM     61  H   UNL     1       5.467  -1.201   8.878  1.00  0.00     0.164 HD
BRANCH  60  62
ATOM     62  C   UNL     1       7.409  -0.528   8.260  1.00  0.00     0.168 CG0
ATOM     63  C   UNL     1       7.682  -0.107   9.699  1.00  0.00     0.041 C 
ATOM     64  G   UNL     1       7.300   0.707   7.342  1.00  0.00     0.000 G0
ENDBRANCH  60  62
ENDBRANCH  56  58
ENDBRANCH  54  56
ENDBRANCH  52  54
ENDBRANCH  51  52
ENDBRANCH  50  51
ENDBRANCH  49  50
BRANCH  49  65
ATOM     65  C   UNL     1      -1.183  -4.117   4.115  1.00  0.00     0.326 C 
ATOM     66  O   UNL     1      -1.821  -4.072   5.156  1.00  0.00    -0.250 OA
BRANCH  65  67
ATOM     67  O   UNL     1      -1.500  -3.285   3.098  1.00  0.00    -0.480 OA
ATOM     68  H   UNL     1      -2.438  -3.501   2.907  1.00  0.00     0.296 HD
ENDBRANCH  65  67
ENDBRANCH  49  65
ENDBRANCH  47  49
ENDBRANCH  43  45
ENDBRANCH   1  43
BRANCH   1  69
ATOM     69  C   UNL     1      -3.614  -9.142   2.950  1.00  0.00    -0.001 C 
ATOM     70  C   UNL     1      -4.644  -9.944   2.628  1.00  0.00     0.001 C 
BRANCH  70  71
ATOM     71  C   UNL     1      -5.439 -10.765   3.543  1.00  0.00    -0.055 C 
ATOM     72  C   UNL     1      -5.317 -10.528   4.866  1.00  0.00    -0.018 C 
ATOM     73  C   UNL     1      -6.344 -11.810   2.944  1.00  0.00     0.044 C 
BRANCH  72  74
ATOM     74  C   UNL     1      -6.011 -11.212   6.036  1.00  0.00     0.038 C 
ATOM     75  C   UNL     1      -7.352 -10.498   6.247  1.00  0.00     0.015 C 
BRANCH  74  76
ATOM     76  C   UNL     1      -5.058 -11.189   7.267  1.00  0.00     0.128 C 
BRANCH  76  77
ATOM     77  O   UNL     1      -5.159 -12.429   7.988  1.00  0.00    -0.381 OA
ATOM     78  C   UNL     1      -4.239 -13.420   7.551  1.00  0.00     0.195 C 
ENDBRANCH  76  77
BRANCH  76  79
ATOM     79  C   UNL     1      -3.595 -10.812   6.923  1.00  0.00     0.068 C 
BRANCH  79  80
ATOM     80  C   UNL     1      -3.174  -9.374   7.104  1.00  0.00    -0.045 A 
ATOM     81  C   UNL     1      -4.061  -8.423   7.625  1.00  0.00     0.004 A 
ATOM     82  C   UNL     1      -1.889  -8.960   6.724  1.00  0.00     0.004 A 
ATOM     83  C   UNL     1      -3.668  -7.091   7.776  1.00  0.00     0.000 A 
ATOM     84  C   UNL     1      -1.497  -7.628   6.874  1.00  0.00     0.000 A 
ATOM     85  C   UNL     1      -2.386  -6.694   7.402  1.00  0.00     0.000 A 
ENDBRANCH  79  80
ENDBRANCH  76  79
ENDBRANCH  74  76
ENDBRANCH  72  74
ENDBRANCH  70  71
ENDBRANCH   1  69
TORSDOF 17
ENDMDL
MODEL 32
REMARK VINA RESULT:    -5.359     11.621     17.501
REMARK INTER + INTRA:         -24.330
REMARK INTER:                 -18.407
REMARK INTRA:                  -5.923
REMARK UNBOUND:                -8.320
REMARK SMILES C=C1C(=O)N[C@H](C)C(=O)N[C@@H](CC(C)C)C(=O)N[C@@H](C(=O)O)[C@H](C)C(=O)N[C@@H](CCCN=C(N)N)C(=O)N[C@@H](/C=C/C(C)=C/[C@H](C)[C@H](Cc2ccccc2)OC)[C@H](C)C(=O)N[C@@H](C(=O)O)CCC(=O)N1C
REMARK SMILES IDX 39 1 38 2 37 3 36 4 28 6 27 7 25 8 26 9 23 11 24 12 19 13
REMARK SMILES IDX 18 14 16 15 17 16 11 18 10 19 8 20 9 21 12 24 13 25 14 26
REMARK SMILES IDX 15 27 20 28 21 29 22 30 29 32 30 33 31 34 32 35 33 36 34 37
REMARK SMILES IDX 35 38 57 43 58 44 59 45 60 46 61 47 62 49 66 50 67 51 68 52
REMARK SMILES IDX 69 53 70 54 71 55 2 56 1 57 3 58 4 59 5 60 6 62 7 63 63 65
REMARK SMILES IDX 64 66 65 67 40 69 41 70 42 71 44 72 43 73 45 74 46 75 47 76
REMARK SMILES IDX 55 77 56 78 48 79 49 80 50 81 54 82 51 83 53 84 52 85
REMARK H PARENT 38 5 27 10 18 17 10 22 22 31 34 39 34 40 35 41 35 42 61 48
REMARK H PARENT 5 61 65 68
REMARK Flexibility Score:  369.900
ROOT
ATOM      1  C   UNL     1      12.045  -3.828   2.975  1.00  0.00     0.117 C 
ENDROOT
BRANCH   1   2
ATOM      2  N   UNL     1      10.674  -4.323   3.108  1.00  0.00    -0.347 N 
ATOM      3  O   UNL     1      10.781  -4.952   5.314  1.00  0.00    -0.273 OA
ATOM      4  C   UNL     1      10.123  -4.762   4.296  1.00  0.00     0.243 C 
ATOM      5  H   UNL     1      10.062  -4.304   2.307  1.00  0.00     0.164 HD
BRANCH   4   6
ATOM      6  C   UNL     1       8.627  -5.151   4.183  1.00  0.00     0.171 C 
BRANCH   6   7
ATOM      7  N   UNL     1       8.046  -5.358   5.519  1.00  0.00    -0.344 N 
ATOM      8  C   UNL     1       7.300  -6.484   5.794  1.00  0.00     0.226 C 
ATOM      9  O   UNL     1       7.066  -7.343   4.952  1.00  0.00    -0.275 OA
ATOM     10  H   UNL     1       8.161  -4.638   6.221  1.00  0.00     0.164 HD
BRANCH   8  11
ATOM     11  C   UNL     1       6.817  -6.579   7.231  1.00  0.00     0.109 C 
ATOM     12  C   UNL     1       8.001  -6.472   8.192  1.00  0.00     0.021 C 
BRANCH  11  13
ATOM     13  C   UNL     1       5.692  -5.552   7.471  1.00  0.00     0.204 C 
BRANCH  13  14
ATOM     14  N   UNL     1       6.216  -4.198   7.679  1.00  0.00    -0.340 N 
ATOM     15  C   UNL     1       5.985  -3.475   8.830  1.00  0.00     0.243 C 
ATOM     16  O   UNL     1       5.372  -3.940   9.790  1.00  0.00    -0.273 OA
ATOM     17  H   UNL     1       6.598  -3.702   6.870  1.00  0.00     0.164 HD
BRANCH  15  18
ATOM     18  C   UNL     1       6.455  -2.003   8.740  1.00  0.00     0.171 C 
BRANCH  18  19
ATOM     19  N   UNL     1       5.789  -1.421   7.577  1.00  0.00    -0.343 N 
ATOM     20  C   UNL     1       6.275  -1.595   6.295  1.00  0.00     0.242 CG0
ATOM     21  O   UNL     1       7.359  -2.133   6.086  1.00  0.00    -0.273 OA
ATOM     22  H   UNL     1       4.950  -0.868   7.709  1.00  0.00     0.164 HD
ATOM     23  G   UNL     1       5.395  -0.974   5.191  1.00  0.00     0.000 G0
ENDBRANCH  18  19
BRANCH  18  24
ATOM     24  C   UNL     1       6.107  -1.244  10.026  1.00  0.00     0.038 C 
BRANCH  24  25
ATOM     25  C   UNL     1       7.078  -0.098  10.381  1.00  0.00    -0.015 C 
ATOM     26  C   UNL     1       6.521   1.277  10.013  1.00  0.00     0.007 C 
ATOM     27  C   UNL     1       8.416  -0.319   9.672  1.00  0.00     0.007 C 
ENDBRANCH  24  25
ENDBRANCH  18  24
ENDBRANCH  15  18
ENDBRANCH  13  14
BRANCH  13  28
ATOM     28  C   UNL     1       4.687  -5.477   6.318  1.00  0.00     0.327 C 
ATOM     29  O   UNL     1       4.206  -4.459   5.843  1.00  0.00    -0.250 OA
BRANCH  28  30
ATOM     30  O   UNL     1       4.256  -6.689   5.912  1.00  0.00    -0.480 OA
ATOM     31  H   UNL     1       4.613  -6.780   5.004  1.00  0.00     0.296 HD
ENDBRANCH  28  30
ENDBRANCH  13  28
ENDBRANCH  11  13
ENDBRANCH   8  11
ENDBRANCH   6   7
BRANCH   6  32
ATOM     32  C   UNL     1       7.877  -4.050   3.425  1.00  0.00     0.037 C 
BRANCH  32  33
ATOM     33  C   UNL     1       6.978  -4.618   2.317  1.00  0.00     0.026 C 
BRANCH  33  34
ATOM     34  C   UNL     1       7.703  -5.645   1.445  1.00  0.00     0.146 C 
BRANCH  34  35
ATOM     35  N   UNL     1       6.944  -6.888   1.453  1.00  0.00    -0.254 NA
ATOM     36  C   UNL     1       7.251  -7.801   0.609  1.00  0.00     0.185 C 
ATOM     37  N   UNL     1       6.561  -8.952   0.611  1.00  0.00    -0.370 N 
ATOM     38  N   UNL     1       8.210  -7.792  -0.334  1.00  0.00    -0.370 N 
ATOM     39  H   UNL     1       5.826  -9.040   1.301  1.00  0.00     0.159 HD
ATOM     40  H   UNL     1       6.848  -9.773   0.107  1.00  0.00     0.159 HD
ATOM     41  H   UNL     1       8.262  -8.517  -1.030  1.00  0.00     0.159 HD
ATOM     42  H   UNL     1       8.797  -6.982  -0.460  1.00  0.00     0.159 HD
ENDBRANCH  34  35
ENDBRANCH  33  34
ENDBRANCH  32  33
ENDBRANCH   6  32
ENDBRANCH   4   6
ENDBRANCH   1   2
BRANCH   1  43
ATOM     43  C   UNL     1      12.023  -2.537   2.108  1.00  0.00     0.102 C 
ATOM     44  C   UNL     1      13.376  -2.220   1.448  1.00  0.00     0.020 C 
BRANCH  43  45
ATOM     45  C   UNL     1      11.421  -1.362   2.885  1.00  0.00     0.225 C 
ATOM     46  O   UNL     1      10.374  -1.445   3.520  1.00  0.00    -0.275 OA
ATOM     47  N   UNL     1      12.082  -0.163   2.752  1.00  0.00    -0.342 N 
ATOM     48  H   UNL     1      13.012  -0.145   2.357  1.00  0.00     0.164 HD
BRANCH  47  49
ATOM     49  C   UNL     1      11.641   1.039   3.466  1.00  0.00     0.192 C 
BRANCH  49  50
ATOM     50  C   UNL     1      11.257   2.125   2.457  1.00  0.00     0.047 C 
BRANCH  50  51
ATOM     51  C   UNL     1       9.749   2.411   2.456  1.00  0.00     0.103 C 
BRANCH  51  52
ATOM     52  C   UNL     1       9.300   3.127   3.728  1.00  0.00     0.226 C 
ATOM     53  O   UNL     1       9.870   4.161   4.081  1.00  0.00    -0.275 OA
BRANCH  52  54
ATOM     54  N   UNL     1       8.184   2.584   4.392  1.00  0.00    -0.311 N 
ATOM     55  C   UNL     1       8.099   2.590   5.858  1.00  0.00     0.153 C 
BRANCH  54  56
ATOM     56  C   UNL     1       7.110   2.024   3.681  1.00  0.00     0.102 C 
ATOM     57  C   UNL     1       6.350   2.683   2.790  1.00  0.00     0.043 C 
BRANCH  56  58
ATOM     58  C   UNL     1       6.749   0.566   3.843  1.00  0.00     0.268 C 
ATOM     59  O   UNL     1       7.280  -0.331   3.202  1.00  0.00    -0.268 OA
ATOM     60  N   UNL     1       5.815   0.347   4.828  1.00  0.00    -0.339 N 
ATOM     61  H   UNL     1       5.415   1.146   5.306  1.00  0.00     0.164 HD
BRANCH  60  62
ATOM     62  C   UNL     1       5.368  -0.997   5.193  1.00  0.00     0.168 CG0
ATOM     63  C   UNL     1       3.924  -0.980   5.678  1.00  0.00     0.041 C 
ATOM     64  G   UNL     1       6.301  -1.574   6.278  1.00  0.00     0.000 G0
ENDBRANCH  60  62
ENDBRANCH  56  58
ENDBRANCH  54  56
ENDBRANCH  52  54
ENDBRANCH  51  52
ENDBRANCH  50  51
ENDBRANCH  49  50
BRANCH  49  65
ATOM     65  C   UNL     1      12.735   1.577   4.401  1.00  0.00     0.326 C 
ATOM     66  O   UNL     1      13.155   2.725   4.417  1.00  0.00    -0.250 OA
BRANCH  65  67
ATOM     67  O   UNL     1      13.287   0.650   5.215  1.00  0.00    -0.480 OA
ATOM     68  H   UNL     1      13.419   1.133   6.059  1.00  0.00     0.296 HD
ENDBRANCH  65  67
ENDBRANCH  49  65
ENDBRANCH  47  49
ENDBRANCH  43  45
ENDBRANCH   1  43
BRANCH   1  69
ATOM     69  C   UNL     1      12.879  -5.009   2.513  1.00  0.00    -0.001 C 
ATOM     70  C   UNL     1      12.435  -6.183   2.030  1.00  0.00     0.001 C 
BRANCH  70  71
ATOM     71  C   UNL     1      13.250  -7.308   1.566  1.00  0.00    -0.055 C 
ATOM     72  C   UNL     1      13.120  -7.688   0.278  1.00  0.00    -0.018 C 
ATOM     73  C   UNL     1      14.182  -7.955   2.557  1.00  0.00     0.044 C 
BRANCH  72  74
ATOM     74  C   UNL     1      13.830  -8.805  -0.473  1.00  0.00     0.038 C 
ATOM     75  C   UNL     1      14.423  -8.189  -1.746  1.00  0.00     0.015 C 
BRANCH  74  76
ATOM     76  C   UNL     1      12.819  -9.965  -0.718  1.00  0.00     0.128 C 
BRANCH  76  77
ATOM     77  O   UNL     1      13.245 -10.758  -1.839  1.00  0.00    -0.381 OA
ATOM     78  C   UNL     1      14.311 -11.648  -1.537  1.00  0.00     0.195 C 
ENDBRANCH  76  77
BRANCH  76  79
ATOM     79  C   UNL     1      12.522 -10.817   0.541  1.00  0.00     0.068 C 
BRANCH  79  80
ATOM     80  C   UNL     1      11.253 -11.634   0.558  1.00  0.00    -0.045 A 
ATOM     81  C   UNL     1      10.001 -11.020   0.694  1.00  0.00     0.004 A 
ATOM     82  C   UNL     1      11.311 -13.033   0.466  1.00  0.00     0.004 A 
ATOM     83  C   UNL     1       8.832 -11.784   0.723  1.00  0.00     0.000 A 
ATOM     84  C   UNL     1      10.142 -13.796   0.496  1.00  0.00     0.000 A 
ATOM     85  C   UNL     1       8.903 -13.172   0.623  1.00  0.00     0.000 A 
ENDBRANCH  79  80
ENDBRANCH  76  79
ENDBRANCH  74  76
ENDBRANCH  72  74
ENDBRANCH  70  71
ENDBRANCH   1  69
TORSDOF 17
ENDMDL
MODEL 33
REMARK VINA RESULT:    -5.344      5.985      9.610
REMARK INTER + INTRA:         -24.286
REMARK INTER:                 -16.500
REMARK INTRA:                  -7.787
REMARK UNBOUND:                -8.320
REMARK SMILES C=C1C(=O)N[C@H](C)C(=O)N[C@@H](CC(C)C)C(=O)N[C@@H](C(=O)O)[C@H](C)C(=O)N[C@@H](CCCN=C(N)N)C(=O)N[C@@H](/C=C/C(C)=C/[C@H](C)[C@H](Cc2ccccc2)OC)[C@H](C)C(=O)N[C@@H](C(=O)O)CCC(=O)N1C
REMARK SMILES IDX 39 1 38 2 37 3 36 4 28 6 27 7 25 8 26 9 23 11 24 12 19 13
REMARK SMILES IDX 18 14 16 15 17 16 11 18 10 19 8 20 9 21 12 24 13 25 14 26
REMARK SMILES IDX 15 27 20 28 21 29 22 30 29 32 30 33 31 34 32 35 33 36 34 37
REMARK SMILES IDX 35 38 57 43 58 44 59 45 60 46 61 47 62 49 66 50 67 51 68 52
REMARK SMILES IDX 69 53 70 54 71 55 2 56 1 57 3 58 4 59 5 60 6 62 7 63 63 65
REMARK SMILES IDX 64 66 65 67 40 69 41 70 42 71 44 72 43 73 45 74 46 75 47 76
REMARK SMILES IDX 55 77 56 78 48 79 49 80 50 81 54 82 51 83 53 84 52 85
REMARK H PARENT 38 5 27 10 18 17 10 22 22 31 34 39 34 40 35 41 35 42 61 48
REMARK H PARENT 5 61 65 68
REMARK Flexibility Score:  369.900
ROOT
ATOM      1  C   UNL     1      -0.127  -9.692   5.842  1.00  0.00     0.117 C 
ENDROOT
BRANCH   1   2
ATOM      2  N   UNL     1       0.206 -10.133   4.487  1.00  0.00    -0.347 N 
ATOM      3  O   UNL     1       1.647  -8.429   3.948  1.00  0.00    -0.273 OA
ATOM      4  C   UNL     1       1.140  -9.514   3.680  1.00  0.00     0.243 C 
ATOM      5  H   UNL     1      -0.225 -10.968   4.119  1.00  0.00     0.164 HD
BRANCH   4   6
ATOM      6  C   UNL     1       1.367 -10.232   2.325  1.00  0.00     0.171 C 
BRANCH   6   7
ATOM      7  N   UNL     1       2.499 -11.168   2.423  1.00  0.00    -0.344 N 
ATOM      8  C   UNL     1       3.713 -10.865   1.847  1.00  0.00     0.226 C 
ATOM      9  O   UNL     1       3.906  -9.833   1.217  1.00  0.00    -0.275 OA
ATOM     10  H   UNL     1       2.358 -12.062   2.878  1.00  0.00     0.164 HD
BRANCH   8  11
ATOM     11  C   UNL     1       4.794 -11.906   2.082  1.00  0.00     0.109 C 
ATOM     12  C   UNL     1       5.180 -12.571   0.761  1.00  0.00     0.021 C 
BRANCH  11  13
ATOM     13  C   UNL     1       5.967 -11.274   2.857  1.00  0.00     0.204 C 
BRANCH  13  14
ATOM     14  N   UNL     1       6.740 -10.345   2.027  1.00  0.00    -0.340 N 
ATOM     15  C   UNL     1       8.056 -10.567   1.683  1.00  0.00     0.243 C 
ATOM     16  O   UNL     1       8.657 -11.592   1.998  1.00  0.00    -0.273 OA
ATOM     17  H   UNL     1       6.352  -9.412   1.862  1.00  0.00     0.164 HD
BRANCH  15  18
ATOM     18  C   UNL     1       8.724  -9.358   0.982  1.00  0.00     0.171 C 
BRANCH  18  19
ATOM     19  N   UNL     1       9.521  -9.900  -0.117  1.00  0.00    -0.343 N 
ATOM     20  C   UNL     1      10.902  -9.873  -0.098  1.00  0.00     0.242 CG0
ATOM     21  O   UNL     1      11.522  -9.275   0.779  1.00  0.00    -0.273 OA
ATOM     22  H   UNL     1       9.052 -10.302  -0.921  1.00  0.00     0.164 HD
ATOM     23  G   UNL     1      11.569 -10.561  -1.306  1.00  0.00     0.000 G0
ENDBRANCH  18  19
BRANCH  18  24
ATOM     24  C   UNL     1       7.664  -8.373   0.475  1.00  0.00     0.038 C 
BRANCH  24  25
ATOM     25  C   UNL     1       7.838  -6.924   0.977  1.00  0.00    -0.015 C 
ATOM     26  C   UNL     1       6.896  -5.944   0.277  1.00  0.00     0.007 C 
ATOM     27  C   UNL     1       9.289  -6.479   0.772  1.00  0.00     0.007 C 
ENDBRANCH  24  25
ENDBRANCH  18  24
ENDBRANCH  15  18
ENDBRANCH  13  14
BRANCH  13  28
ATOM     28  C   UNL     1       5.521 -10.505   4.105  1.00  0.00     0.327 C 
ATOM     29  O   UNL     1       4.626 -10.826   4.871  1.00  0.00    -0.250 OA
BRANCH  28  30
ATOM     30  O   UNL     1       6.148  -9.319   4.247  1.00  0.00    -0.480 OA
ATOM     31  H   UNL     1       5.626  -8.702   3.693  1.00  0.00     0.296 HD
ENDBRANCH  28  30
ENDBRANCH  13  28
ENDBRANCH  11  13
ENDBRANCH   8  11
ENDBRANCH   6   7
BRANCH   6  32
ATOM     32  C   UNL     1       0.083 -10.965   1.923  1.00  0.00     0.037 C 
BRANCH  32  33
ATOM     33  C   UNL     1      -0.850 -10.082   1.083  1.00  0.00     0.026 C 
BRANCH  33  34
ATOM     34  C   UNL     1      -2.133  -9.712   1.828  1.00  0.00     0.146 C 
BRANCH  34  35
ATOM     35  N   UNL     1      -3.141  -9.309   0.857  1.00  0.00    -0.254 NA
ATOM     36  C   UNL     1      -4.167 -10.058   0.690  1.00  0.00     0.185 C 
ATOM     37  N   UNL     1      -5.104  -9.694  -0.199  1.00  0.00    -0.370 N 
ATOM     38  N   UNL     1      -4.475 -11.217   1.299  1.00  0.00    -0.370 N 
ATOM     39  H   UNL     1      -4.949  -8.824  -0.692  1.00  0.00     0.159 HD
ATOM     40  H   UNL     1      -6.009 -10.128  -0.262  1.00  0.00     0.159 HD
ATOM     41  H   UNL     1      -5.244 -11.784   0.981  1.00  0.00     0.159 HD
ATOM     42  H   UNL     1      -3.851 -11.619   1.981  1.00  0.00     0.159 HD
ENDBRANCH  34  35
ENDBRANCH  33  34
ENDBRANCH  32  33
ENDBRANCH   6  32
ENDBRANCH   4   6
ENDBRANCH   1   2
BRANCH   1  43
ATOM     43  C   UNL     1      -0.252 -10.946   6.755  1.00  0.00     0.102 C 
ATOM     44  C   UNL     1       0.901 -11.947   6.580  1.00  0.00     0.020 C 
BRANCH  43  45
ATOM     45  C   UNL     1      -1.644 -11.574   6.638  1.00  0.00     0.225 C 
ATOM     46  O   UNL     1      -2.061 -12.095   5.607  1.00  0.00    -0.275 OA
ATOM     47  N   UNL     1      -2.451 -11.438   7.745  1.00  0.00    -0.342 N 
ATOM     48  H   UNL     1      -2.048 -11.147   8.625  1.00  0.00     0.164 HD
BRANCH  47  49
ATOM     49  C   UNL     1      -3.795 -12.020   7.790  1.00  0.00     0.192 C 
BRANCH  49  50
ATOM     50  C   UNL     1      -4.811 -10.941   8.171  1.00  0.00     0.047 C 
BRANCH  50  51
ATOM     51  C   UNL     1      -5.030  -9.923   7.044  1.00  0.00     0.103 C 
BRANCH  51  52
ATOM     52  C   UNL     1      -6.453  -9.975   6.492  1.00  0.00     0.226 C 
ATOM     53  O   UNL     1      -7.335  -9.290   7.013  1.00  0.00    -0.275 OA
BRANCH  52  54
ATOM     54  N   UNL     1      -6.653 -10.768   5.347  1.00  0.00    -0.311 N 
ATOM     55  C   UNL     1      -6.683 -10.167   4.007  1.00  0.00     0.153 C 
BRANCH  54  56
ATOM     56  C   UNL     1      -6.824 -12.159   5.440  1.00  0.00     0.102 C 
ATOM     57  C   UNL     1      -5.962 -13.073   4.962  1.00  0.00     0.043 C 
BRANCH  56  58
ATOM     58  C   UNL     1      -8.018 -12.748   6.154  1.00  0.00     0.268 C 
ATOM     59  O   UNL     1      -9.163 -12.351   5.982  1.00  0.00    -0.268 OA
ATOM     60  N   UNL     1      -7.694 -13.812   6.961  1.00  0.00    -0.339 N 
ATOM     61  H   UNL     1      -6.720 -14.072   7.057  1.00  0.00     0.164 HD
BRANCH  60  62
ATOM     62  C   UNL     1      -8.707 -14.568   7.696  1.00  0.00     0.168 CG0
ATOM     63  C   UNL     1      -8.169 -15.037   9.043  1.00  0.00     0.041 C 
ATOM     64  G   UNL     1      -9.173 -15.769   6.847  1.00  0.00     0.000 G0
ENDBRANCH  60  62
ENDBRANCH  56  58
ENDBRANCH  54  56
ENDBRANCH  52  54
ENDBRANCH  51  52
ENDBRANCH  50  51
ENDBRANCH  49  50
BRANCH  49  65
ATOM     65  C   UNL     1      -3.878 -13.177   8.798  1.00  0.00     0.326 C 
ATOM     66  O   UNL     1      -3.028 -13.456   9.630  1.00  0.00    -0.250 OA
BRANCH  65  67
ATOM     67  O   UNL     1      -4.978 -13.952   8.677  1.00  0.00    -0.480 OA
ATOM     68  H   UNL     1      -4.915 -14.303   7.762  1.00  0.00     0.296 HD
ENDBRANCH  65  67
ENDBRANCH  49  65
ENDBRANCH  47  49
ENDBRANCH  43  45
ENDBRANCH   1  43
BRANCH   1  69
ATOM     69  C   UNL     1      -1.320  -8.763   5.704  1.00  0.00    -0.001 C 
ATOM     70  C   UNL     1      -1.735  -7.831   6.579  1.00  0.00     0.001 C 
BRANCH  70  71
ATOM     71  C   UNL     1      -2.875  -6.925   6.425  1.00  0.00    -0.055 C 
ATOM     72  C   UNL     1      -3.070  -6.361   5.215  1.00  0.00    -0.018 C 
ATOM     73  C   UNL     1      -3.756  -6.694   7.626  1.00  0.00     0.044 C 
BRANCH  72  74
ATOM     74  C   UNL     1      -4.158  -5.396   4.765  1.00  0.00     0.038 C 
ATOM     75  C   UNL     1      -5.387  -6.238   4.402  1.00  0.00     0.015 C 
BRANCH  74  76
ATOM     76  C   UNL     1      -3.601  -4.518   3.606  1.00  0.00     0.128 C 
BRANCH  76  77
ATOM     77  O   UNL     1      -4.180  -3.204   3.664  1.00  0.00    -0.381 OA
ATOM     78  C   UNL     1      -5.116  -2.945   2.627  1.00  0.00     0.195 C 
ENDBRANCH  76  77
BRANCH  76  79
ATOM     79  C   UNL     1      -2.054  -4.490   3.525  1.00  0.00     0.068 C 
BRANCH  79  80
ATOM     80  C   UNL     1      -1.401  -5.037   2.279  1.00  0.00    -0.045 A 
ATOM     81  C   UNL     1      -1.621  -4.444   1.028  1.00  0.00     0.004 A 
ATOM     82  C   UNL     1      -0.581  -6.173   2.351  1.00  0.00     0.004 A 
ATOM     83  C   UNL     1      -1.024  -4.965  -0.122  1.00  0.00     0.000 A 
ATOM     84  C   UNL     1       0.015  -6.694   1.200  1.00  0.00     0.000 A 
ATOM     85  C   UNL     1      -0.206  -6.089  -0.036  1.00  0.00     0.000 A 
ENDBRANCH  79  80
ENDBRANCH  76  79
ENDBRANCH  74  76
ENDBRANCH  72  74
ENDBRANCH  70  71
ENDBRANCH   1  69
TORSDOF 17
ENDMDL
MODEL 34
REMARK VINA RESULT:    -5.292     11.186     15.508
REMARK INTER + INTRA:         -24.129
REMARK INTER:                 -15.494
REMARK INTRA:                  -8.635
REMARK UNBOUND:                -8.320
REMARK SMILES C=C1C(=O)N[C@H](C)C(=O)N[C@@H](CC(C)C)C(=O)N[C@@H](C(=O)O)[C@H](C)C(=O)N[C@@H](CCCN=C(N)N)C(=O)N[C@@H](/C=C/C(C)=C/[C@H](C)[C@H](Cc2ccccc2)OC)[C@H](C)C(=O)N[C@@H](C(=O)O)CCC(=O)N1C
REMARK SMILES IDX 39 1 38 2 37 3 36 4 28 6 27 7 25 8 26 9 23 11 24 12 19 13
REMARK SMILES IDX 18 14 16 15 17 16 11 18 10 19 8 20 9 21 12 24 13 25 14 26
REMARK SMILES IDX 15 27 20 28 21 29 22 30 29 32 30 33 31 34 32 35 33 36 34 37
REMARK SMILES IDX 35 38 57 43 58 44 59 45 60 46 61 47 62 49 66 50 67 51 68 52
REMARK SMILES IDX 69 53 70 54 71 55 2 56 1 57 3 58 4 59 5 60 6 62 7 63 63 65
REMARK SMILES IDX 64 66 65 67 40 69 41 70 42 71 44 72 43 73 45 74 46 75 47 76
REMARK SMILES IDX 55 77 56 78 48 79 49 80 50 81 54 82 51 83 53 84 52 85
REMARK H PARENT 38 5 27 10 18 17 10 22 22 31 34 39 34 40 35 41 35 42 61 48
REMARK H PARENT 5 61 65 68
REMARK Flexibility Score:  369.900
ROOT
ATOM      1  C   UNL     1      10.044  -5.256   3.212  1.00  0.00     0.117 C 
ENDROOT
BRANCH   1   2
ATOM      2  N   UNL     1       8.837  -5.042   4.011  1.00  0.00    -0.347 N 
ATOM      3  O   UNL     1       7.330  -4.942   2.282  1.00  0.00    -0.273 OA
ATOM      4  C   UNL     1       7.560  -4.993   3.486  1.00  0.00     0.243 C 
ATOM      5  H   UNL     1       8.914  -4.972   5.015  1.00  0.00     0.164 HD
BRANCH   4   6
ATOM      6  C   UNL     1       6.450  -4.843   4.557  1.00  0.00     0.171 C 
BRANCH   6   7
ATOM      7  N   UNL     1       6.947  -5.269   5.875  1.00  0.00    -0.344 N 
ATOM      8  C   UNL     1       6.279  -6.234   6.599  1.00  0.00     0.226 C 
ATOM      9  O   UNL     1       5.246  -6.760   6.203  1.00  0.00    -0.275 OA
ATOM     10  H   UNL     1       7.759  -4.810   6.266  1.00  0.00     0.164 HD
BRANCH   8  11
ATOM     11  C   UNL     1       6.946  -6.603   7.913  1.00  0.00     0.109 C 
ATOM     12  C   UNL     1       5.907  -6.660   9.032  1.00  0.00     0.021 C 
BRANCH  11  13
ATOM     13  C   UNL     1       7.775  -7.890   7.732  1.00  0.00     0.204 C 
BRANCH  13  14
ATOM     14  N   UNL     1       7.133  -8.837   6.815  1.00  0.00    -0.340 N 
ATOM     15  C   UNL     1       6.457  -9.957   7.249  1.00  0.00     0.243 C 
ATOM     16  O   UNL     1       6.293 -10.209   8.441  1.00  0.00    -0.273 OA
ATOM     17  H   UNL     1       7.359  -8.770   5.819  1.00  0.00     0.164 HD
BRANCH  15  18
ATOM     18  C   UNL     1       6.045 -10.913   6.103  1.00  0.00     0.171 C 
BRANCH  18  19
ATOM     19  N   UNL     1       7.239 -11.676   5.744  1.00  0.00    -0.343 N 
ATOM     20  C   UNL     1       7.787 -11.618   4.477  1.00  0.00     0.242 CG0
ATOM     21  O   UNL     1       7.223 -11.029   3.558  1.00  0.00    -0.273 OA
ATOM     22  H   UNL     1       7.677 -12.270   6.439  1.00  0.00     0.164 HD
ATOM     23  G   UNL     1       9.089 -12.428   4.310  1.00  0.00     0.000 G0
ENDBRANCH  18  19
BRANCH  18  24
ATOM     24  C   UNL     1       4.903 -11.834   6.550  1.00  0.00     0.038 C 
BRANCH  24  25
ATOM     25  C   UNL     1       3.558 -11.587   5.835  1.00  0.00    -0.015 C 
ATOM     26  C   UNL     1       3.726 -10.830   4.518  1.00  0.00     0.007 C 
ATOM     27  C   UNL     1       2.618 -10.809   6.760  1.00  0.00     0.007 C 
ENDBRANCH  24  25
ENDBRANCH  18  24
ENDBRANCH  15  18
ENDBRANCH  13  14
BRANCH  13  28
ATOM     28  C   UNL     1       9.187  -7.629   7.198  1.00  0.00     0.327 C 
ATOM     29  O   UNL     1      10.068  -8.461   7.045  1.00  0.00    -0.250 OA
BRANCH  28  30
ATOM     30  O   UNL     1       9.444  -6.319   7.001  1.00  0.00    -0.480 OA
ATOM     31  H   UNL     1       9.589  -5.964   7.903  1.00  0.00     0.296 HD
ENDBRANCH  28  30
ENDBRANCH  13  28
ENDBRANCH  11  13
ENDBRANCH   8  11
ENDBRANCH   6   7
BRANCH   6  32
ATOM     32  C   UNL     1       5.982  -3.384   4.595  1.00  0.00     0.037 C 
BRANCH  32  33
ATOM     33  C   UNL     1       6.643  -2.592   5.732  1.00  0.00     0.026 C 
BRANCH  33  34
ATOM     34  C   UNL     1       6.737  -1.097   5.426  1.00  0.00     0.146 C 
BRANCH  34  35
ATOM     35  N   UNL     1       5.421  -0.615   5.029  1.00  0.00    -0.254 NA
ATOM     36  C   UNL     1       4.722   0.035   5.884  1.00  0.00     0.185 C 
ATOM     37  N   UNL     1       3.510   0.488   5.527  1.00  0.00    -0.370 N 
ATOM     38  N   UNL     1       5.024   0.356   7.154  1.00  0.00    -0.370 N 
ATOM     39  H   UNL     1       3.214   0.295   4.579  1.00  0.00     0.159 HD
ATOM     40  H   UNL     1       2.980   1.147   6.072  1.00  0.00     0.159 HD
ATOM     41  H   UNL     1       4.332   0.750   7.771  1.00  0.00     0.159 HD
ATOM     42  H   UNL     1       5.899   0.065   7.562  1.00  0.00     0.159 HD
ENDBRANCH  34  35
ENDBRANCH  33  34
ENDBRANCH  32  33
ENDBRANCH   6  32
ENDBRANCH   4   6
ENDBRANCH   1   2
BRANCH   1  43
ATOM     43  C   UNL     1      10.694  -6.600   3.649  1.00  0.00     0.102 C 
ATOM     44  C   UNL     1      12.196  -6.686   3.327  1.00  0.00     0.020 C 
BRANCH  43  45
ATOM     45  C   UNL     1       9.881  -7.795   3.143  1.00  0.00     0.225 C 
ATOM     46  O   UNL     1       9.709  -8.817   3.801  1.00  0.00    -0.275 OA
ATOM     47  N   UNL     1       9.423  -7.695   1.849  1.00  0.00    -0.342 N 
ATOM     48  H   UNL     1       9.441  -6.800   1.380  1.00  0.00     0.164 HD
BRANCH  47  49
ATOM     49  C   UNL     1       8.601  -8.747   1.243  1.00  0.00     0.192 C 
BRANCH  49  50
ATOM     50  C   UNL     1       9.286  -9.271  -0.021  1.00  0.00     0.047 C 
BRANCH  50  51
ATOM     51  C   UNL     1       9.264 -10.804  -0.102  1.00  0.00     0.103 C 
BRANCH  51  52
ATOM     52  C   UNL     1      10.631 -11.379  -0.466  1.00  0.00     0.226 C 
ATOM     53  O   UNL     1      11.085 -11.204  -1.599  1.00  0.00    -0.275 OA
BRANCH  52  54
ATOM     54  N   UNL     1      11.335 -12.025   0.567  1.00  0.00    -0.311 N 
ATOM     55  C   UNL     1      11.754 -13.426   0.436  1.00  0.00     0.153 C 
BRANCH  54  56
ATOM     56  C   UNL     1      11.667 -11.355   1.757  1.00  0.00     0.102 C 
ATOM     57  C   UNL     1      12.404 -10.234   1.828  1.00  0.00     0.043 C 
BRANCH  56  58
ATOM     58  C   UNL     1      11.158 -11.846   3.091  1.00  0.00     0.268 C 
ATOM     59  O   UNL     1      11.883 -12.023   4.061  1.00  0.00    -0.268 OA
ATOM     60  N   UNL     1       9.793 -12.010   3.122  1.00  0.00    -0.339 N 
ATOM     61  H   UNL     1       9.265 -11.852   2.272  1.00  0.00     0.164 HD
BRANCH  60  62
ATOM     62  C   UNL     1       9.085 -12.418   4.334  1.00  0.00     0.168 CG0
ATOM     63  C   UNL     1       8.777 -13.911   4.310  1.00  0.00     0.041 C 
ATOM     64  G   UNL     1       7.787 -11.596   4.476  1.00  0.00     0.000 G0
ENDBRANCH  60  62
ENDBRANCH  56  58
ENDBRANCH  54  56
ENDBRANCH  52  54
ENDBRANCH  51  52
ENDBRANCH  50  51
ENDBRANCH  49  50
BRANCH  49  65
ATOM     65  C   UNL     1       7.198  -8.233   0.885  1.00  0.00     0.326 C 
ATOM     66  O   UNL     1       6.154  -8.852   1.038  1.00  0.00    -0.250 OA
BRANCH  65  67
ATOM     67  O   UNL     1       7.174  -7.013   0.306  1.00  0.00    -0.480 OA
ATOM     68  H   UNL     1       6.776  -6.437   0.994  1.00  0.00     0.296 HD
ENDBRANCH  65  67
ENDBRANCH  49  65
ENDBRANCH  47  49
ENDBRANCH  43  45
ENDBRANCH   1  43
BRANCH   1  69
ATOM     69  C   UNL     1      10.856  -3.979   3.321  1.00  0.00    -0.001 C 
ATOM     70  C   UNL     1      11.428  -3.287   2.320  1.00  0.00     0.001 C 
BRANCH  70  71
ATOM     71  C   UNL     1      12.192  -2.043   2.434  1.00  0.00    -0.055 C 
ATOM     72  C   UNL     1      11.768  -1.126   3.329  1.00  0.00    -0.018 C 
ATOM     73  C   UNL     1      13.402  -1.878   1.552  1.00  0.00     0.044 C 
BRANCH  72  74
ATOM     74  C   UNL     1      12.356   0.237   3.663  1.00  0.00     0.038 C 
ATOM     75  C   UNL     1      13.040   0.113   5.030  1.00  0.00     0.015 C 
BRANCH  74  76
ATOM     76  C   UNL     1      11.222   1.302   3.595  1.00  0.00     0.128 C 
BRANCH  76  77
ATOM     77  O   UNL     1      11.695   2.481   2.921  1.00  0.00    -0.381 OA
ATOM     78  C   UNL     1      11.473   3.682   3.647  1.00  0.00     0.195 C 
ENDBRANCH  76  77
BRANCH  76  79
ATOM     79  C   UNL     1       9.891   0.769   3.007  1.00  0.00     0.068 C 
BRANCH  79  80
ATOM     80  C   UNL     1       8.611   1.452   3.421  1.00  0.00    -0.045 A 
ATOM     81  C   UNL     1       8.464   1.994   4.705  1.00  0.00     0.004 A 
ATOM     82  C   UNL     1       7.530   1.530   2.529  1.00  0.00     0.004 A 
ATOM     83  C   UNL     1       7.271   2.612   5.085  1.00  0.00     0.000 A 
ATOM     84  C   UNL     1       6.337   2.148   2.911  1.00  0.00     0.000 A 
ATOM     85  C   UNL     1       6.208   2.689   4.187  1.00  0.00     0.000 A 
ENDBRANCH  79  80
ENDBRANCH  76  79
ENDBRANCH  74  76
ENDBRANCH  72  74
ENDBRANCH  70  71
ENDBRANCH   1  69
TORSDOF 17
ENDMDL
MODEL 35
REMARK VINA RESULT:    -5.287      2.626      5.726
REMARK INTER + INTRA:         -24.116
REMARK INTER:                 -16.760
REMARK INTRA:                  -7.356
REMARK UNBOUND:                -8.320
REMARK SMILES C=C1C(=O)N[C@H](C)C(=O)N[C@@H](CC(C)C)C(=O)N[C@@H](C(=O)O)[C@H](C)C(=O)N[C@@H](CCCN=C(N)N)C(=O)N[C@@H](/C=C/C(C)=C/[C@H](C)[C@H](Cc2ccccc2)OC)[C@H](C)C(=O)N[C@@H](C(=O)O)CCC(=O)N1C
REMARK SMILES IDX 39 1 38 2 37 3 36 4 28 6 27 7 25 8 26 9 23 11 24 12 19 13
REMARK SMILES IDX 18 14 16 15 17 16 11 18 10 19 8 20 9 21 12 24 13 25 14 26
REMARK SMILES IDX 15 27 20 28 21 29 22 30 29 32 30 33 31 34 32 35 33 36 34 37
REMARK SMILES IDX 35 38 57 43 58 44 59 45 60 46 61 47 62 49 66 50 67 51 68 52
REMARK SMILES IDX 69 53 70 54 71 55 2 56 1 57 3 58 4 59 5 60 6 62 7 63 63 65
REMARK SMILES IDX 64 66 65 67 40 69 41 70 42 71 44 72 43 73 45 74 46 75 47 76
REMARK SMILES IDX 55 77 56 78 48 79 49 80 50 81 54 82 51 83 53 84 52 85
REMARK H PARENT 38 5 27 10 18 17 10 22 22 31 34 39 34 40 35 41 35 42 61 48
REMARK H PARENT 5 61 65 68
REMARK Flexibility Score:  369.900
ROOT
ATOM      1  C   UNL     1      -0.315 -10.176   2.379  1.00  0.00     0.117 C 
ENDROOT
BRANCH   1   2
ATOM      2  N   UNL     1      -1.632 -10.787   2.201  1.00  0.00    -0.347 N 
ATOM      3  O   UNL     1      -2.741  -9.622   3.839  1.00  0.00    -0.273 OA
ATOM      4  C   UNL     1      -2.766 -10.394   2.887  1.00  0.00     0.243 C 
ATOM      5  H   UNL     1      -1.753 -11.508   1.506  1.00  0.00     0.164 HD
BRANCH   4   6
ATOM      6  C   UNL     1      -4.050 -11.145   2.450  1.00  0.00     0.171 C 
BRANCH   6   7
ATOM      7  N   UNL     1      -3.921 -11.620   1.063  1.00  0.00    -0.344 N 
ATOM      8  C   UNL     1      -4.378 -10.854   0.012  1.00  0.00     0.226 C 
ATOM      9  O   UNL     1      -4.926  -9.770   0.175  1.00  0.00    -0.275 OA
ATOM     10  H   UNL     1      -3.535 -12.540   0.893  1.00  0.00     0.164 HD
BRANCH   8  11
ATOM     11  C   UNL     1      -4.123 -11.456  -1.358  1.00  0.00     0.109 C 
ATOM     12  C   UNL     1      -5.442 -11.617  -2.116  1.00  0.00     0.021 C 
BRANCH  11  13
ATOM     13  C   UNL     1      -3.048 -10.635  -2.097  1.00  0.00     0.204 C 
BRANCH  13  14
ATOM     14  N   UNL     1      -3.606  -9.437  -2.730  1.00  0.00    -0.340 N 
ATOM     15  C   UNL     1      -3.288  -9.052  -4.015  1.00  0.00     0.243 C 
ATOM     16  O   UNL     1      -2.558  -9.721  -4.743  1.00  0.00    -0.273 OA
ATOM     17  H   UNL     1      -4.094  -8.761  -2.135  1.00  0.00     0.164 HD
BRANCH  15  18
ATOM     18  C   UNL     1      -3.831  -7.652  -4.393  1.00  0.00     0.171 C 
BRANCH  18  19
ATOM     19  N   UNL     1      -5.097  -7.868  -5.091  1.00  0.00    -0.343 N 
ATOM     20  C   UNL     1      -5.238  -7.614  -6.441  1.00  0.00     0.242 CG0
ATOM     21  O   UNL     1      -4.347  -7.070  -7.090  1.00  0.00    -0.273 OA
ATOM     22  H   UNL     1      -5.899  -8.208  -4.572  1.00  0.00     0.164 HD
ATOM     23  G   UNL     1      -6.622  -7.977  -7.017  1.00  0.00     0.000 G0
ENDBRANCH  18  19
BRANCH  18  24
ATOM     24  C   UNL     1      -4.020  -6.787  -3.141  1.00  0.00     0.038 C 
BRANCH  24  25
ATOM     25  C   UNL     1      -3.072  -5.572  -3.047  1.00  0.00    -0.015 C 
ATOM     26  C   UNL     1      -2.106  -5.492  -4.229  1.00  0.00     0.007 C 
ATOM     27  C   UNL     1      -2.281  -5.636  -1.738  1.00  0.00     0.007 C 
ENDBRANCH  24  25
ENDBRANCH  18  24
ENDBRANCH  15  18
ENDBRANCH  13  14
BRANCH  13  28
ATOM     28  C   UNL     1      -1.907 -10.176  -1.184  1.00  0.00     0.327 C 
ATOM     29  O   UNL     1      -1.606  -9.019  -0.928  1.00  0.00    -0.250 OA
BRANCH  28  30
ATOM     30  O   UNL     1      -1.139 -11.193  -0.744  1.00  0.00    -0.480 OA
ATOM     31  H   UNL     1      -1.373 -11.279   0.204  1.00  0.00     0.296 HD
ENDBRANCH  28  30
ENDBRANCH  13  28
ENDBRANCH  11  13
ENDBRANCH   8  11
ENDBRANCH   6   7
BRANCH   6  32
ATOM     32  C   UNL     1      -4.300 -12.314   3.408  1.00  0.00     0.037 C 
BRANCH  32  33
ATOM     33  C   UNL     1      -5.236 -11.928   4.561  1.00  0.00     0.026 C 
BRANCH  33  34
ATOM     34  C   UNL     1      -6.705 -11.899   4.138  1.00  0.00     0.146 C 
BRANCH  34  35
ATOM     35  N   UNL     1      -7.234 -13.255   4.185  1.00  0.00    -0.254 NA
ATOM     36  C   UNL     1      -8.170 -13.521   5.019  1.00  0.00     0.185 C 
ATOM     37  N   UNL     1      -8.668 -14.766   5.067  1.00  0.00    -0.370 N 
ATOM     38  N   UNL     1      -8.769 -12.706   5.905  1.00  0.00    -0.370 N 
ATOM     39  H   UNL     1      -8.275 -15.438   4.420  1.00  0.00     0.159 HD
ATOM     40  H   UNL     1      -9.509 -15.010   5.561  1.00  0.00     0.159 HD
ATOM     41  H   UNL     1      -9.396 -13.068   6.604  1.00  0.00     0.159 HD
ATOM     42  H   UNL     1      -8.483 -11.743   5.990  1.00  0.00     0.159 HD
ENDBRANCH  34  35
ENDBRANCH  33  34
ENDBRANCH  32  33
ENDBRANCH   6  32
ENDBRANCH   4   6
ENDBRANCH   1   2
BRANCH   1  43
ATOM     43  C   UNL     1       0.526 -11.078   3.327  1.00  0.00     0.102 C 
ATOM     44  C   UNL     1       0.094 -12.554   3.310  1.00  0.00     0.020 C 
BRANCH  43  45
ATOM     45  C   UNL     1       0.612 -10.472   4.731  1.00  0.00     0.225 C 
ATOM     46  O   UNL     1       1.534  -9.747   5.093  1.00  0.00    -0.275 OA
ATOM     47  N   UNL     1      -0.371 -10.869   5.608  1.00  0.00    -0.342 N 
ATOM     48  H   UNL     1      -1.195 -11.336   5.258  1.00  0.00     0.164 HD
BRANCH  47  49
ATOM     49  C   UNL     1      -0.436 -10.342   6.975  1.00  0.00     0.192 C 
BRANCH  49  50
ATOM     50  C   UNL     1      -0.988 -11.417   7.915  1.00  0.00     0.047 C 
BRANCH  50  51
ATOM     51  C   UNL     1      -2.101 -12.246   7.261  1.00  0.00     0.103 C 
BRANCH  51  52
ATOM     52  C   UNL     1      -2.886 -13.063   8.286  1.00  0.00     0.226 C 
ATOM     53  O   UNL     1      -2.280 -13.747   9.113  1.00  0.00    -0.275 OA
BRANCH  52  54
ATOM     54  N   UNL     1      -4.285 -12.917   8.265  1.00  0.00    -0.311 N 
ATOM     55  C   UNL     1      -4.907 -11.587   8.268  1.00  0.00     0.153 C 
BRANCH  54  56
ATOM     56  C   UNL     1      -5.137 -14.034   8.235  1.00  0.00     0.102 C 
ATOM     57  C   UNL     1      -5.408 -14.764   7.141  1.00  0.00     0.043 C 
BRANCH  56  58
ATOM     58  C   UNL     1      -5.800 -14.538   9.496  1.00  0.00     0.268 C 
ATOM     59  O   UNL     1      -7.013 -14.569   9.647  1.00  0.00    -0.268 OA
ATOM     60  N   UNL     1      -4.904 -15.016  10.422  1.00  0.00    -0.339 N 
ATOM     61  H   UNL     1      -3.913 -14.944  10.225  1.00  0.00     0.164 HD
BRANCH  60  62
ATOM     62  C   UNL     1      -5.335 -15.608  11.688  1.00  0.00     0.168 CG0
ATOM     63  C   UNL     1      -5.376 -14.561  12.795  1.00  0.00     0.041 C 
ATOM     64  G   UNL     1      -4.388 -16.765  12.066  1.00  0.00     0.000 G0
ENDBRANCH  60  62
ENDBRANCH  56  58
ENDBRANCH  54  56
ENDBRANCH  52  54
ENDBRANCH  51  52
ENDBRANCH  50  51
ENDBRANCH  49  50
BRANCH  49  65
ATOM     65  C   UNL     1      -1.323  -9.090   7.058  1.00  0.00     0.326 C 
ATOM     66  O   UNL     1      -1.220  -8.098   6.351  1.00  0.00    -0.250 OA
BRANCH  65  67
ATOM     67  O   UNL     1      -2.243  -9.115   8.047  1.00  0.00    -0.480 OA
ATOM     68  H   UNL     1      -2.460  -8.168   8.186  1.00  0.00     0.296 HD
ENDBRANCH  65  67
ENDBRANCH  49  65
ENDBRANCH  47  49
ENDBRANCH  43  45
ENDBRANCH   1  43
BRANCH   1  69
ATOM     69  C   UNL     1      -0.567  -8.732   2.773  1.00  0.00    -0.001 C 
ATOM     70  C   UNL     1      -0.374  -7.634   2.021  1.00  0.00     0.001 C 
BRANCH  70  71
ATOM     71  C   UNL     1      -0.641  -6.247   2.406  1.00  0.00    -0.055 C 
ATOM     72  C   UNL     1      -0.898  -5.994   3.707  1.00  0.00    -0.018 C 
ATOM     73  C   UNL     1      -0.603  -5.198   1.325  1.00  0.00     0.044 C 
BRANCH  72  74
ATOM     74  C   UNL     1      -1.204  -4.668   4.389  1.00  0.00     0.038 C 
ATOM     75  C   UNL     1      -0.551  -4.711   5.775  1.00  0.00     0.015 C 
BRANCH  74  76
ATOM     76  C   UNL     1      -2.746  -4.454   4.399  1.00  0.00     0.128 C 
BRANCH  76  77
ATOM     77  O   UNL     1      -3.097  -3.364   3.530  1.00  0.00    -0.381 OA
ATOM     78  C   UNL     1      -3.841  -3.762   2.387  1.00  0.00     0.195 C 
ENDBRANCH  76  77
BRANCH  76  79
ATOM     79  C   UNL     1      -3.562  -5.739   4.108  1.00  0.00     0.068 C 
BRANCH  79  80
ATOM     80  C   UNL     1      -4.627  -6.141   5.101  1.00  0.00    -0.045 A 
ATOM     81  C   UNL     1      -4.285  -6.695   6.341  1.00  0.00     0.004 A 
ATOM     82  C   UNL     1      -5.984  -5.990   4.781  1.00  0.00     0.004 A 
ATOM     83  C   UNL     1      -5.276  -7.077   7.248  1.00  0.00     0.000 A 
ATOM     84  C   UNL     1      -6.975  -6.373   5.688  1.00  0.00     0.000 A 
ATOM     85  C   UNL     1      -6.621  -6.915   6.921  1.00  0.00     0.000 A 
ENDBRANCH  79  80
ENDBRANCH  76  79
ENDBRANCH  74  76
ENDBRANCH  72  74
ENDBRANCH  70  71
ENDBRANCH   1  69
TORSDOF 17
ENDMDL
MODEL 36
REMARK VINA RESULT:    -5.250      4.585      7.549
REMARK INTER + INTRA:         -24.005
REMARK INTER:                 -19.168
REMARK INTRA:                  -4.836
REMARK UNBOUND:                -8.320
REMARK SMILES C=C1C(=O)N[C@H](C)C(=O)N[C@@H](CC(C)C)C(=O)N[C@@H](C(=O)O)[C@H](C)C(=O)N[C@@H](CCCN=C(N)N)C(=O)N[C@@H](/C=C/C(C)=C/[C@H](C)[C@H](Cc2ccccc2)OC)[C@H](C)C(=O)N[C@@H](C(=O)O)CCC(=O)N1C
REMARK SMILES IDX 39 1 38 2 37 3 36 4 28 6 27 7 25 8 26 9 23 11 24 12 19 13
REMARK SMILES IDX 18 14 16 15 17 16 11 18 10 19 8 20 9 21 12 24 13 25 14 26
REMARK SMILES IDX 15 27 20 28 21 29 22 30 29 32 30 33 31 34 32 35 33 36 34 37
REMARK SMILES IDX 35 38 57 43 58 44 59 45 60 46 61 47 62 49 66 50 67 51 68 52
REMARK SMILES IDX 69 53 70 54 71 55 2 56 1 57 3 58 4 59 5 60 6 62 7 63 63 65
REMARK SMILES IDX 64 66 65 67 40 69 41 70 42 71 44 72 43 73 45 74 46 75 47 76
REMARK SMILES IDX 55 77 56 78 48 79 49 80 50 81 54 82 51 83 53 84 52 85
REMARK H PARENT 38 5 27 10 18 17 10 22 22 31 34 39 34 40 35 41 35 42 61 48
REMARK H PARENT 5 61 65 68
REMARK Flexibility Score:  369.900
ROOT
ATOM      1  C   UNL     1      -3.316  -5.753   2.246  1.00  0.00     0.117 C 
ENDROOT
BRANCH   1   2
ATOM      2  N   UNL     1      -2.461  -6.630   1.446  1.00  0.00    -0.347 N 
ATOM      3  O   UNL     1      -3.905  -8.406   1.276  1.00  0.00    -0.273 OA
ATOM      4  C   UNL     1      -2.861  -7.854   0.945  1.00  0.00     0.243 C 
ATOM      5  H   UNL     1      -1.536  -6.319   1.190  1.00  0.00     0.164 HD
BRANCH   4   6
ATOM      6  C   UNL     1      -1.794  -8.543   0.057  1.00  0.00     0.171 C 
BRANCH   6   7
ATOM      7  N   UNL     1      -2.303  -8.720  -1.313  1.00  0.00    -0.344 N 
ATOM      8  C   UNL     1      -2.899  -7.673  -1.982  1.00  0.00     0.226 C 
ATOM      9  O   UNL     1      -3.054  -6.568  -1.475  1.00  0.00    -0.275 OA
ATOM     10  H   UNL     1      -2.253  -9.636  -1.740  1.00  0.00     0.164 HD
BRANCH   8  11
ATOM     11  C   UNL     1      -3.321  -7.999  -3.404  1.00  0.00     0.109 C 
ATOM     12  C   UNL     1      -4.495  -7.113  -3.821  1.00  0.00     0.021 C 
BRANCH  11  13
ATOM     13  C   UNL     1      -2.096  -7.934  -4.339  1.00  0.00     0.204 C 
BRANCH  13  14
ATOM     14  N   UNL     1      -2.473  -8.055  -5.751  1.00  0.00    -0.340 N 
ATOM     15  C   UNL     1      -2.098  -9.123  -6.537  1.00  0.00     0.243 C 
ATOM     16  O   UNL     1      -1.470 -10.082  -6.092  1.00  0.00    -0.273 OA
ATOM     17  H   UNL     1      -2.860  -7.230  -6.217  1.00  0.00     0.164 HD
BRANCH  15  18
ATOM     18  C   UNL     1      -2.431  -8.934  -8.037  1.00  0.00     0.171 C 
BRANCH  18  19
ATOM     19  N   UNL     1      -3.339 -10.019  -8.405  1.00  0.00    -0.343 N 
ATOM     20  C   UNL     1      -4.616 -10.107  -7.886  1.00  0.00     0.242 CG0
ATOM     21  O   UNL     1      -5.002  -9.356  -6.994  1.00  0.00    -0.273 OA
ATOM     22  H   UNL     1      -3.025 -10.732  -9.053  1.00  0.00     0.164 HD
ATOM     23  G   UNL     1      -5.453 -11.274  -8.450  1.00  0.00     0.000 G0
ENDBRANCH  18  19
BRANCH  18  24
ATOM     24  C   UNL     1      -3.068  -7.561  -8.282  1.00  0.00     0.038 C 
BRANCH  24  25
ATOM     25  C   UNL     1      -3.068  -7.103  -9.756  1.00  0.00    -0.015 C 
ATOM     26  C   UNL     1      -2.104  -5.944 -10.009  1.00  0.00     0.007 C 
ATOM     27  C   UNL     1      -4.485  -6.695 -10.168  1.00  0.00     0.007 C 
ENDBRANCH  24  25
ENDBRANCH  18  24
ENDBRANCH  15  18
ENDBRANCH  13  14
BRANCH  13  28
ATOM     28  C   UNL     1      -1.293  -6.638  -4.193  1.00  0.00     0.327 C 
ATOM     29  O   UNL     1      -1.355  -5.663  -4.927  1.00  0.00    -0.250 OA
BRANCH  28  30
ATOM     30  O   UNL     1      -0.376  -6.693  -3.206  1.00  0.00    -0.480 OA
ATOM     31  H   UNL     1      -0.806  -6.237  -2.453  1.00  0.00     0.296 HD
ENDBRANCH  28  30
ENDBRANCH  13  28
ENDBRANCH  11  13
ENDBRANCH   8  11
ENDBRANCH   6   7
BRANCH   6  32
ATOM     32  C   UNL     1      -0.515  -7.699   0.060  1.00  0.00     0.037 C 
BRANCH  32  33
ATOM     33  C   UNL     1       0.736  -8.545   0.338  1.00  0.00     0.026 C 
BRANCH  33  34
ATOM     34  C   UNL     1       0.492  -9.618   1.400  1.00  0.00     0.146 C 
BRANCH  34  35
ATOM     35  N   UNL     1       1.321  -9.326   2.561  1.00  0.00    -0.254 NA
ATOM     36  C   UNL     1       0.775  -8.779   3.583  1.00  0.00     0.185 C 
ATOM     37  N   UNL     1       1.528  -8.511   4.661  1.00  0.00    -0.370 N 
ATOM     38  N   UNL     1      -0.505  -8.410   3.761  1.00  0.00    -0.370 N 
ATOM     39  H   UNL     1       2.505  -8.770   4.609  1.00  0.00     0.159 HD
ATOM     40  H   UNL     1       1.148  -8.248   5.554  1.00  0.00     0.159 HD
ATOM     41  H   UNL     1      -0.784  -7.861   4.558  1.00  0.00     0.159 HD
ATOM     42  H   UNL     1      -1.183  -8.538   3.025  1.00  0.00     0.159 HD
ENDBRANCH  34  35
ENDBRANCH  33  34
ENDBRANCH  32  33
ENDBRANCH   6  32
ENDBRANCH   4   6
ENDBRANCH   1   2
BRANCH   1  43
ATOM     43  C   UNL     1      -2.682  -4.332   2.273  1.00  0.00     0.102 C 
ATOM     44  C   UNL     1      -1.727  -4.066   1.096  1.00  0.00     0.020 C 
BRANCH  43  45
ATOM     45  C   UNL     1      -2.077  -4.025   3.646  1.00  0.00     0.225 C 
ATOM     46  O   UNL     1      -2.493  -3.131   4.377  1.00  0.00    -0.275 OA
ATOM     47  N   UNL     1      -0.962  -4.760   3.980  1.00  0.00    -0.342 N 
ATOM     48  H   UNL     1      -0.728  -5.584   3.444  1.00  0.00     0.164 HD
BRANCH  47  49
ATOM     49  C   UNL     1      -0.299  -4.599   5.277  1.00  0.00     0.192 C 
BRANCH  49  50
ATOM     50  C   UNL     1       1.199  -4.874   5.126  1.00  0.00     0.047 C 
BRANCH  50  51
ATOM     51  C   UNL     1       2.056  -3.666   5.529  1.00  0.00     0.103 C 
BRANCH  51  52
ATOM     52  C   UNL     1       3.529  -4.037   5.692  1.00  0.00     0.226 C 
ATOM     53  O   UNL     1       3.886  -5.205   5.528  1.00  0.00    -0.275 OA
BRANCH  52  54
ATOM     54  N   UNL     1       4.417  -2.977   5.952  1.00  0.00    -0.311 N 
ATOM     55  C   UNL     1       4.763  -2.006   4.906  1.00  0.00     0.153 C 
BRANCH  54  56
ATOM     56  C   UNL     1       5.000  -2.804   7.219  1.00  0.00     0.102 C 
ATOM     57  C   UNL     1       4.646  -3.477   8.326  1.00  0.00     0.043 C 
BRANCH  56  58
ATOM     58  C   UNL     1       6.144  -1.839   7.421  1.00  0.00     0.268 C 
ATOM     59  O   UNL     1       7.275  -2.043   6.999  1.00  0.00    -0.268 OA
ATOM     60  N   UNL     1       5.770  -0.684   8.065  1.00  0.00    -0.339 N 
ATOM     61  H   UNL     1       4.815  -0.597   8.393  1.00  0.00     0.164 HD
BRANCH  60  62
ATOM     62  C   UNL     1       6.708   0.412   8.308  1.00  0.00     0.168 CG0
ATOM     63  C   UNL     1       6.726   0.800   9.781  1.00  0.00     0.041 C 
ATOM     64  G   UNL     1       6.328   1.621   7.429  1.00  0.00     0.000 G0
ENDBRANCH  60  62
ENDBRANCH  56  58
ENDBRANCH  54  56
ENDBRANCH  52  54
ENDBRANCH  51  52
ENDBRANCH  50  51
ENDBRANCH  49  50
BRANCH  49  65
ATOM     65  C   UNL     1      -0.887  -5.545   6.335  1.00  0.00     0.326 C 
ATOM     66  O   UNL     1      -1.529  -5.202   7.317  1.00  0.00    -0.250 OA
BRANCH  65  67
ATOM     67  O   UNL     1      -0.593  -6.851   6.149  1.00  0.00    -0.480 OA
ATOM     68  H   UNL     1      -1.007  -7.294   6.921  1.00  0.00     0.296 HD
ENDBRANCH  65  67
ENDBRANCH  49  65
ENDBRANCH  47  49
ENDBRANCH  43  45
ENDBRANCH   1  43
BRANCH   1  69
ATOM     69  C   UNL     1      -3.552  -6.476   3.560  1.00  0.00    -0.001 C 
ATOM     70  C   UNL     1      -4.584  -6.316   4.407  1.00  0.00     0.001 C 
BRANCH  70  71
ATOM     71  C   UNL     1      -4.812  -7.034   5.662  1.00  0.00    -0.055 C 
ATOM     72  C   UNL     1      -3.895  -7.951   6.036  1.00  0.00    -0.018 C 
ATOM     73  C   UNL     1      -6.049  -6.694   6.452  1.00  0.00     0.044 C 
BRANCH  72  74
ATOM     74  C   UNL     1      -3.866  -8.836   7.273  1.00  0.00     0.038 C 
ATOM     75  C   UNL     1      -2.434  -8.802   7.822  1.00  0.00     0.015 C 
BRANCH  74  76
ATOM     76  C   UNL     1      -4.384 -10.254   6.888  1.00  0.00     0.128 C 
BRANCH  76  77
ATOM     77  O   UNL     1      -4.186 -11.163   7.984  1.00  0.00    -0.381 OA
ATOM     78  C   UNL     1      -4.124 -12.527   7.589  1.00  0.00     0.195 C 
ENDBRANCH  76  77
BRANCH  76  79
ATOM     79  C   UNL     1      -5.837 -10.268   6.352  1.00  0.00     0.068 C 
BRANCH  79  80
ATOM     80  C   UNL     1      -6.090 -10.917   5.012  1.00  0.00    -0.045 A 
ATOM     81  C   UNL     1      -5.723 -10.278   3.820  1.00  0.00     0.004 A 
ATOM     82  C   UNL     1      -6.727 -12.165   4.940  1.00  0.00     0.004 A 
ATOM     83  C   UNL     1      -5.973 -10.879   2.584  1.00  0.00     0.000 A 
ATOM     84  C   UNL     1      -6.977 -12.764   3.703  1.00  0.00     0.000 A 
ATOM     85  C   UNL     1      -6.599 -12.122   2.526  1.00  0.00     0.000 A 
ENDBRANCH  79  80
ENDBRANCH  76  79
ENDBRANCH  74  76
ENDBRANCH  72  74
ENDBRANCH  70  71
ENDBRANCH   1  69
TORSDOF 17
ENDMDL
MODEL 37
REMARK VINA RESULT:    -5.229      4.474      6.885
REMARK INTER + INTRA:         -23.943
REMARK INTER:                 -19.745
REMARK INTRA:                  -4.197
REMARK UNBOUND:                -8.320
REMARK SMILES C=C1C(=O)N[C@H](C)C(=O)N[C@@H](CC(C)C)C(=O)N[C@@H](C(=O)O)[C@H](C)C(=O)N[C@@H](CCCN=C(N)N)C(=O)N[C@@H](/C=C/C(C)=C/[C@H](C)[C@H](Cc2ccccc2)OC)[C@H](C)C(=O)N[C@@H](C(=O)O)CCC(=O)N1C
REMARK SMILES IDX 39 1 38 2 37 3 36 4 28 6 27 7 25 8 26 9 23 11 24 12 19 13
REMARK SMILES IDX 18 14 16 15 17 16 11 18 10 19 8 20 9 21 12 24 13 25 14 26
REMARK SMILES IDX 15 27 20 28 21 29 22 30 29 32 30 33 31 34 32 35 33 36 34 37
REMARK SMILES IDX 35 38 57 43 58 44 59 45 60 46 61 47 62 49 66 50 67 51 68 52
REMARK SMILES IDX 69 53 70 54 71 55 2 56 1 57 3 58 4 59 5 60 6 62 7 63 63 65
REMARK SMILES IDX 64 66 65 67 40 69 41 70 42 71 44 72 43 73 45 74 46 75 47 76
REMARK SMILES IDX 55 77 56 78 48 79 49 80 50 81 54 82 51 83 53 84 52 85
REMARK H PARENT 38 5 27 10 18 17 10 22 22 31 34 39 34 40 35 41 35 42 61 48
REMARK H PARENT 5 61 65 68
REMARK Flexibility Score:  369.900
ROOT
ATOM      1  C   UNL     1      -2.982  -5.552   1.060  1.00  0.00     0.117 C 
ENDROOT
BRANCH   1   2
ATOM      2  N   UNL     1      -2.212  -6.306   0.071  1.00  0.00    -0.347 N 
ATOM      3  O   UNL     1      -3.930  -6.760  -1.383  1.00  0.00    -0.273 OA
ATOM      4  C   UNL     1      -2.732  -6.773  -1.121  1.00  0.00     0.243 C 
ATOM      5  H   UNL     1      -1.228  -6.464   0.226  1.00  0.00     0.164 HD
BRANCH   4   6
ATOM      6  C   UNL     1      -1.684  -7.466  -2.029  1.00  0.00     0.171 C 
BRANCH   6   7
ATOM      7  N   UNL     1      -2.343  -8.110  -3.177  1.00  0.00    -0.344 N 
ATOM      8  C   UNL     1      -2.849  -7.354  -4.212  1.00  0.00     0.226 C 
ATOM      9  O   UNL     1      -2.798  -6.129  -4.222  1.00  0.00    -0.275 OA
ATOM     10  H   UNL     1      -2.464  -9.115  -3.172  1.00  0.00     0.164 HD
BRANCH   8  11
ATOM     11  C   UNL     1      -3.448  -8.167  -5.346  1.00  0.00     0.109 C 
ATOM     12  C   UNL     1      -4.664  -7.443  -5.926  1.00  0.00     0.021 C 
BRANCH  11  13
ATOM     13  C   UNL     1      -2.353  -8.519  -6.371  1.00  0.00     0.204 C 
BRANCH  13  14
ATOM     14  N   UNL     1      -2.901  -8.728  -7.715  1.00  0.00    -0.340 N 
ATOM     15  C   UNL     1      -2.517  -9.774  -8.526  1.00  0.00     0.243 C 
ATOM     16  O   UNL     1      -1.730 -10.642  -8.155  1.00  0.00    -0.273 OA
ATOM     17  H   UNL     1      -3.439  -7.967  -8.138  1.00  0.00     0.164 HD
BRANCH  15  18
ATOM     18  C   UNL     1      -3.070  -9.673  -9.969  1.00  0.00     0.171 C 
BRANCH  18  19
ATOM     19  N   UNL     1      -3.889 -10.863 -10.188  1.00  0.00    -0.343 N 
ATOM     20  C   UNL     1      -5.038 -11.102  -9.458  1.00  0.00     0.242 CG0
ATOM     21  O   UNL     1      -5.352 -10.395  -8.504  1.00  0.00    -0.273 OA
ATOM     22  H   UNL     1      -3.607 -11.539 -10.889  1.00  0.00     0.164 HD
ATOM     23  G   UNL     1      -5.811 -12.367  -9.884  1.00  0.00     0.000 G0
ENDBRANCH  18  19
BRANCH  18  24
ATOM     24  C   UNL     1      -3.887  -8.388 -10.147  1.00  0.00     0.038 C 
BRANCH  24  25
ATOM     25  C   UNL     1      -3.252  -7.345 -11.092  1.00  0.00    -0.015 C 
ATOM     26  C   UNL     1      -2.477  -6.266 -10.336  1.00  0.00     0.007 C 
ATOM     27  C   UNL     1      -4.342  -6.694 -11.947  1.00  0.00     0.007 C 
ENDBRANCH  24  25
ENDBRANCH  18  24
ENDBRANCH  15  18
ENDBRANCH  13  14
BRANCH  13  28
ATOM     28  C   UNL     1      -1.266  -7.445  -6.487  1.00  0.00     0.327 C 
ATOM     29  O   UNL     1      -1.356  -6.388  -7.093  1.00  0.00    -0.250 OA
BRANCH  28  30
ATOM     30  O   UNL     1      -0.094  -7.817  -5.934  1.00  0.00    -0.480 OA
ATOM     31  H   UNL     1       0.514  -7.077  -6.138  1.00  0.00     0.296 HD
ENDBRANCH  28  30
ENDBRANCH  13  28
ENDBRANCH  11  13
ENDBRANCH   8  11
ENDBRANCH   6   7
BRANCH   6  32
ATOM     32  C   UNL     1      -0.660  -6.427  -2.499  1.00  0.00     0.037 C 
BRANCH  32  33
ATOM     33  C   UNL     1       0.522  -6.298  -1.527  1.00  0.00     0.026 C 
BRANCH  33  34
ATOM     34  C   UNL     1       0.880  -7.627  -0.862  1.00  0.00     0.146 C 
BRANCH  34  35
ATOM     35  N   UNL     1       0.893  -7.441   0.582  1.00  0.00    -0.254 NA
ATOM     36  C   UNL     1       0.394  -8.358   1.325  1.00  0.00     0.185 C 
ATOM     37  N   UNL     1       0.406  -8.199   2.657  1.00  0.00    -0.370 N 
ATOM     38  N   UNL     1      -0.172  -9.523   0.963  1.00  0.00    -0.370 N 
ATOM     39  H   UNL     1       0.826  -7.348   3.010  1.00  0.00     0.159 HD
ATOM     40  H   UNL     1       0.196  -8.937   3.307  1.00  0.00     0.159 HD
ATOM     41  H   UNL     1      -0.654 -10.098   1.634  1.00  0.00     0.159 HD
ATOM     42  H   UNL     1      -0.263  -9.768  -0.011  1.00  0.00     0.159 HD
ENDBRANCH  34  35
ENDBRANCH  33  34
ENDBRANCH  32  33
ENDBRANCH   6  32
ENDBRANCH   4   6
ENDBRANCH   1   2
BRANCH   1  43
ATOM     43  C   UNL     1      -2.191  -4.262   1.424  1.00  0.00     0.102 C 
ATOM     44  C   UNL     1      -0.971  -4.017   0.521  1.00  0.00     0.020 C 
BRANCH  43  45
ATOM     45  C   UNL     1      -1.875  -4.215   2.922  1.00  0.00     0.225 C 
ATOM     46  O   UNL     1      -2.531  -3.559   3.726  1.00  0.00    -0.275 OA
ATOM     47  N   UNL     1      -0.738  -4.888   3.309  1.00  0.00    -0.342 N 
ATOM     48  H   UNL     1      -0.302  -5.540   2.672  1.00  0.00     0.164 HD
BRANCH  47  49
ATOM     49  C   UNL     1      -0.331  -4.959   4.716  1.00  0.00     0.192 C 
BRANCH  49  50
ATOM     50  C   UNL     1       1.191  -5.093   4.805  1.00  0.00     0.047 C 
BRANCH  50  51
ATOM     51  C   UNL     1       1.839  -3.902   5.524  1.00  0.00     0.103 C 
BRANCH  51  52
ATOM     52  C   UNL     1       3.346  -4.084   5.691  1.00  0.00     0.226 C 
ATOM     53  O   UNL     1       3.848  -5.198   5.526  1.00  0.00    -0.275 OA
BRANCH  52  54
ATOM     54  N   UNL     1       4.092  -2.921   5.956  1.00  0.00    -0.311 N 
ATOM     55  C   UNL     1       4.016  -1.754   5.066  1.00  0.00     0.153 C 
BRANCH  54  56
ATOM     56  C   UNL     1       4.931  -2.829   7.079  1.00  0.00     0.102 C 
ATOM     57  C   UNL     1       4.641  -3.316   8.297  1.00  0.00     0.043 C 
BRANCH  56  58
ATOM     58  C   UNL     1       6.295  -2.187   6.978  1.00  0.00     0.268 C 
ATOM     59  O   UNL     1       7.234  -2.701   6.386  1.00  0.00    -0.268 OA
ATOM     60  N   UNL     1       6.351  -0.942   7.559  1.00  0.00    -0.339 N 
ATOM     61  H   UNL     1       5.531  -0.592   8.039  1.00  0.00     0.164 HD
BRANCH  60  62
ATOM     62  C   UNL     1       7.558  -0.119   7.521  1.00  0.00     0.168 CG0
ATOM     63  C   UNL     1       7.577   0.878   8.673  1.00  0.00     0.041 C 
ATOM     64  G   UNL     1       7.642   0.613   6.165  1.00  0.00     0.000 G0
ENDBRANCH  60  62
ENDBRANCH  56  58
ENDBRANCH  54  56
ENDBRANCH  52  54
ENDBRANCH  51  52
ENDBRANCH  50  51
ENDBRANCH  49  50
BRANCH  49  65
ATOM     65  C   UNL     1      -0.990  -6.146   5.437  1.00  0.00     0.326 C 
ATOM     66  O   UNL     1      -0.845  -7.324   5.144  1.00  0.00    -0.250 OA
BRANCH  65  67
ATOM     67  O   UNL     1      -1.833  -5.801   6.435  1.00  0.00    -0.480 OA
ATOM     68  H   UNL     1      -1.266  -5.826   7.236  1.00  0.00     0.296 HD
ENDBRANCH  65  67
ENDBRANCH  49  65
ENDBRANCH  47  49
ENDBRANCH  43  45
ENDBRANCH   1  43
BRANCH   1  69
ATOM     69  C   UNL     1      -3.332  -6.534   2.164  1.00  0.00    -0.001 C 
ATOM     70  C   UNL     1      -3.261  -7.876   2.116  1.00  0.00     0.001 C 
BRANCH  70  71
ATOM     71  C   UNL     1      -3.582  -8.812   3.195  1.00  0.00    -0.055 C 
ATOM     72  C   UNL     1      -4.759  -8.653   3.835  1.00  0.00    -0.018 C 
ATOM     73  C   UNL     1      -2.579  -9.892   3.508  1.00  0.00     0.044 C 
BRANCH  72  74
ATOM     74  C   UNL     1      -5.351  -9.466   4.977  1.00  0.00     0.038 C 
ATOM     75  C   UNL     1      -6.604 -10.164   4.434  1.00  0.00     0.015 C 
BRANCH  74  76
ATOM     76  C   UNL     1      -5.604  -8.519   6.187  1.00  0.00     0.128 C 
BRANCH  76  77
ATOM     77  O   UNL     1      -5.156  -9.144   7.402  1.00  0.00    -0.381 OA
ATOM     78  C   UNL     1      -3.834  -8.779   7.778  1.00  0.00     0.195 C 
ENDBRANCH  76  77
BRANCH  76  79
ATOM     79  C   UNL     1      -5.031  -7.092   6.000  1.00  0.00     0.068 C 
BRANCH  79  80
ATOM     80  C   UNL     1      -5.917  -6.053   5.357  1.00  0.00    -0.045 A 
ATOM     81  C   UNL     1      -5.410  -5.164   4.401  1.00  0.00     0.004 A 
ATOM     82  C   UNL     1      -7.265  -5.943   5.732  1.00  0.00     0.004 A 
ATOM     83  C   UNL     1      -6.233  -4.196   3.821  1.00  0.00     0.000 A 
ATOM     84  C   UNL     1      -8.086  -4.974   5.152  1.00  0.00     0.000 A 
ATOM     85  C   UNL     1      -7.571  -4.102   4.196  1.00  0.00     0.000 A 
ENDBRANCH  79  80
ENDBRANCH  76  79
ENDBRANCH  74  76
ENDBRANCH  72  74
ENDBRANCH  70  71
ENDBRANCH   1  69
TORSDOF 17
ENDMDL
MODEL 38
REMARK VINA RESULT:    -5.215      5.466     13.409
REMARK INTER + INTRA:         -23.900
REMARK INTER:                 -17.109
REMARK INTRA:                  -6.791
REMARK UNBOUND:                -8.320
REMARK SMILES C=C1C(=O)N[C@H](C)C(=O)N[C@@H](CC(C)C)C(=O)N[C@@H](C(=O)O)[C@H](C)C(=O)N[C@@H](CCCN=C(N)N)C(=O)N[C@@H](/C=C/C(C)=C/[C@H](C)[C@H](Cc2ccccc2)OC)[C@H](C)C(=O)N[C@@H](C(=O)O)CCC(=O)N1C
REMARK SMILES IDX 39 1 38 2 37 3 36 4 28 6 27 7 25 8 26 9 23 11 24 12 19 13
REMARK SMILES IDX 18 14 16 15 17 16 11 18 10 19 8 20 9 21 12 24 13 25 14 26
REMARK SMILES IDX 15 27 20 28 21 29 22 30 29 32 30 33 31 34 32 35 33 36 34 37
REMARK SMILES IDX 35 38 57 43 58 44 59 45 60 46 61 47 62 49 66 50 67 51 68 52
REMARK SMILES IDX 69 53 70 54 71 55 2 56 1 57 3 58 4 59 5 60 6 62 7 63 63 65
REMARK SMILES IDX 64 66 65 67 40 69 41 70 42 71 44 72 43 73 45 74 46 75 47 76
REMARK SMILES IDX 55 77 56 78 48 79 49 80 50 81 54 82 51 83 53 84 52 85
REMARK H PARENT 38 5 27 10 18 17 10 22 22 31 34 39 34 40 35 41 35 42 61 48
REMARK H PARENT 5 61 65 68
REMARK Flexibility Score:  369.900
ROOT
ATOM      1  C   UNL     1      -2.936  -7.669   6.395  1.00  0.00     0.117 C 
ENDROOT
BRANCH   1   2
ATOM      2  N   UNL     1      -2.095  -8.857   6.547  1.00  0.00    -0.347 N 
ATOM      3  O   UNL     1      -0.979  -8.210   8.445  1.00  0.00    -0.273 OA
ATOM      4  C   UNL     1      -1.247  -9.072   7.615  1.00  0.00     0.243 C 
ATOM      5  H   UNL     1      -2.160  -9.598   5.866  1.00  0.00     0.164 HD
BRANCH   4   6
ATOM      6  C   UNL     1      -0.535 -10.448   7.579  1.00  0.00     0.171 C 
BRANCH   6   7
ATOM      7  N   UNL     1       0.019 -10.777   8.902  1.00  0.00    -0.344 N 
ATOM      8  C   UNL     1       1.378 -10.731   9.125  1.00  0.00     0.226 C 
ATOM      9  O   UNL     1       2.182 -10.444   8.247  1.00  0.00    -0.275 OA
ATOM     10  H   UNL     1      -0.609 -11.084   9.634  1.00  0.00     0.164 HD
BRANCH   8  11
ATOM     11  C   UNL     1       1.788 -11.043  10.554  1.00  0.00     0.109 C 
ATOM     12  C   UNL     1       1.282 -12.428  10.956  1.00  0.00     0.021 C 
BRANCH  11  13
ATOM     13  C   UNL     1       3.306 -10.833  10.719  1.00  0.00     0.204 C 
BRANCH  13  14
ATOM     14  N   UNL     1       3.631  -9.475  11.165  1.00  0.00    -0.340 N 
ATOM     15  C   UNL     1       4.852  -8.881  10.928  1.00  0.00     0.243 C 
ATOM     16  O   UNL     1       5.736  -9.428  10.272  1.00  0.00    -0.273 OA
ATOM     17  H   UNL     1       3.004  -9.028  11.839  1.00  0.00     0.164 HD
BRANCH  15  18
ATOM     18  C   UNL     1       5.038  -7.534  11.669  1.00  0.00     0.171 C 
BRANCH  18  19
ATOM     19  N   UNL     1       5.021  -6.489  10.647  1.00  0.00    -0.343 N 
ATOM     20  C   UNL     1       5.673  -5.284  10.826  1.00  0.00     0.242 CG0
ATOM     21  O   UNL     1       6.184  -4.983  11.902  1.00  0.00    -0.273 OA
ATOM     22  H   UNL     1       4.513  -6.646   9.784  1.00  0.00     0.164 HD
ATOM     23  G   UNL     1       5.609  -4.339   9.609  1.00  0.00     0.000 G0
ENDBRANCH  18  19
BRANCH  18  24
ATOM     24  C   UNL     1       3.926  -7.327  12.704  1.00  0.00     0.038 C 
BRANCH  24  25
ATOM     25  C   UNL     1       4.412  -7.261  14.168  1.00  0.00    -0.015 C 
ATOM     26  C   UNL     1       4.271  -5.862  14.768  1.00  0.00     0.007 C 
ATOM     27  C   UNL     1       5.873  -7.711  14.246  1.00  0.00     0.007 C 
ENDBRANCH  24  25
ENDBRANCH  18  24
ENDBRANCH  15  18
ENDBRANCH  13  14
BRANCH  13  28
ATOM     28  C   UNL     1       3.944 -11.803  11.718  1.00  0.00     0.327 C 
ATOM     29  O   UNL     1       3.907 -11.716  12.935  1.00  0.00    -0.250 OA
BRANCH  28  30
ATOM     30  O   UNL     1       4.691 -12.757  11.125  1.00  0.00    -0.480 OA
ATOM     31  H   UNL     1       5.599 -12.390  11.129  1.00  0.00     0.296 HD
ENDBRANCH  28  30
ENDBRANCH  13  28
ENDBRANCH  11  13
ENDBRANCH   8  11
ENDBRANCH   6   7
BRANCH   6  32
ATOM     32  C   UNL     1      -1.533 -11.519   7.122  1.00  0.00     0.037 C 
BRANCH  32  33
ATOM     33  C   UNL     1      -1.007 -12.330   5.930  1.00  0.00     0.026 C 
BRANCH  33  34
ATOM     34  C   UNL     1      -0.208 -11.475   4.946  1.00  0.00     0.146 C 
BRANCH  34  35
ATOM     35  N   UNL     1      -1.128 -10.878   3.988  1.00  0.00    -0.254 NA
ATOM     36  C   UNL     1      -0.794  -9.782   3.416  1.00  0.00     0.185 C 
ATOM     37  N   UNL     1      -1.632  -9.226   2.527  1.00  0.00    -0.370 N 
ATOM     38  N   UNL     1       0.327  -9.056   3.571  1.00  0.00    -0.370 N 
ATOM     39  H   UNL     1      -2.497  -9.721   2.347  1.00  0.00     0.159 HD
ATOM     40  H   UNL     1      -1.373  -8.472   1.915  1.00  0.00     0.159 HD
ATOM     41  H   UNL     1       0.412  -8.137   3.169  1.00  0.00     0.159 HD
ATOM     42  H   UNL     1       1.040  -9.346   4.222  1.00  0.00     0.159 HD
ENDBRANCH  34  35
ENDBRANCH  33  34
ENDBRANCH  32  33
ENDBRANCH   6  32
ENDBRANCH   4   6
ENDBRANCH   1   2
BRANCH   1  43
ATOM     43  C   UNL     1      -4.423  -8.121   6.314  1.00  0.00     0.102 C 
ATOM     44  C   UNL     1      -5.303  -7.531   7.429  1.00  0.00     0.020 C 
BRANCH  43  45
ATOM     45  C   UNL     1      -4.528  -9.643   6.180  1.00  0.00     0.225 C 
ATOM     46  O   UNL     1      -4.177 -10.254   5.174  1.00  0.00    -0.275 OA
ATOM     47  N   UNL     1      -5.134 -10.290   7.232  1.00  0.00    -0.342 N 
ATOM     48  H   UNL     1      -5.276  -9.801   8.105  1.00  0.00     0.164 HD
BRANCH  47  49
ATOM     49  C   UNL     1      -5.272 -11.749   7.258  1.00  0.00     0.192 C 
BRANCH  49  50
ATOM     50  C   UNL     1      -6.648 -12.146   6.716  1.00  0.00     0.047 C 
BRANCH  50  51
ATOM     51  C   UNL     1      -6.561 -13.255   5.659  1.00  0.00     0.103 C 
BRANCH  51  52
ATOM     52  C   UNL     1      -7.706 -13.178   4.651  1.00  0.00     0.226 C 
ATOM     53  O   UNL     1      -8.872 -13.208   5.049  1.00  0.00    -0.275 OA
BRANCH  52  54
ATOM     54  N   UNL     1      -7.343 -12.999   3.303  1.00  0.00    -0.311 N 
ATOM     55  C   UNL     1      -6.531 -11.848   2.886  1.00  0.00     0.153 C 
BRANCH  54  56
ATOM     56  C   UNL     1      -7.737 -13.911   2.311  1.00  0.00     0.102 C 
ATOM     57  C   UNL     1      -7.184 -15.120   2.116  1.00  0.00     0.043 C 
BRANCH  56  58
ATOM     58  C   UNL     1      -8.889 -13.600   1.385  1.00  0.00     0.268 C 
ATOM     59  O   UNL     1     -10.038 -13.445   1.774  1.00  0.00    -0.268 OA
ATOM     60  N   UNL     1      -8.502 -13.445   0.075  1.00  0.00    -0.339 N 
ATOM     61  H   UNL     1      -7.531 -13.601  -0.168  1.00  0.00     0.164 HD
BRANCH  60  62
ATOM     62  C   UNL     1      -9.448 -13.079  -0.979  1.00  0.00     0.168 CG0
ATOM     63  C   UNL     1      -9.602 -14.207  -1.991  1.00  0.00     0.041 C 
ATOM     64  G   UNL     1      -8.975 -11.785  -1.671  1.00  0.00     0.000 G0
ENDBRANCH  60  62
ENDBRANCH  56  58
ENDBRANCH  54  56
ENDBRANCH  52  54
ENDBRANCH  51  52
ENDBRANCH  50  51
ENDBRANCH  49  50
BRANCH  49  65
ATOM     65  C   UNL     1      -5.104 -12.310   8.678  1.00  0.00     0.326 C 
ATOM     66  O   UNL     1      -5.168 -13.491   8.989  1.00  0.00    -0.250 OA
BRANCH  65  67
ATOM     67  O   UNL     1      -4.925 -11.374   9.636  1.00  0.00    -0.480 OA
ATOM     68  H   UNL     1      -4.527 -11.876  10.379  1.00  0.00     0.296 HD
ENDBRANCH  65  67
ENDBRANCH  49  65
ENDBRANCH  47  49
ENDBRANCH  43  45
ENDBRANCH   1  43
BRANCH   1  69
ATOM     69  C   UNL     1      -2.347  -6.876   5.242  1.00  0.00    -0.001 C 
ATOM     70  C   UNL     1      -1.182  -6.205   5.223  1.00  0.00     0.001 C 
BRANCH  70  71
ATOM     71  C   UNL     1      -0.613  -5.462   4.097  1.00  0.00    -0.055 C 
ATOM     72  C   UNL     1      -1.088  -5.732   2.863  1.00  0.00    -0.018 C 
ATOM     73  C   UNL     1       0.455  -4.442   4.396  1.00  0.00     0.044 C 
BRANCH  72  74
ATOM     74  C   UNL     1      -0.694  -5.124   1.525  1.00  0.00     0.038 C 
ATOM     75  C   UNL     1      -1.729  -4.041   1.198  1.00  0.00     0.015 C 
BRANCH  74  76
ATOM     76  C   UNL     1      -0.585  -6.263   0.469  1.00  0.00     0.128 C 
BRANCH  76  77
ATOM     77  O   UNL     1       0.219  -7.337   0.986  1.00  0.00    -0.381 OA
ATOM     78  C   UNL     1       0.905  -8.071  -0.018  1.00  0.00     0.195 C 
ENDBRANCH  76  77
BRANCH  76  79
ATOM     79  C   UNL     1      -1.951  -6.746  -0.079  1.00  0.00     0.068 C 
BRANCH  79  80
ATOM     80  C   UNL     1      -2.278  -6.454  -1.523  1.00  0.00    -0.045 A 
ATOM     81  C   UNL     1      -3.473  -6.905  -2.099  1.00  0.00     0.004 A 
ATOM     82  C   UNL     1      -1.369  -5.745  -2.324  1.00  0.00     0.004 A 
ATOM     83  C   UNL     1      -3.760  -6.642  -3.440  1.00  0.00     0.000 A 
ATOM     84  C   UNL     1      -1.658  -5.483  -3.665  1.00  0.00     0.000 A 
ATOM     85  C   UNL     1      -2.854  -5.930  -4.222  1.00  0.00     0.000 A 
ENDBRANCH  79  80
ENDBRANCH  76  79
ENDBRANCH  74  76
ENDBRANCH  72  74
ENDBRANCH  70  71
ENDBRANCH   1  69
TORSDOF 17
ENDMDL
MODEL 39
REMARK VINA RESULT:    -5.185      4.024     12.678
REMARK INTER + INTRA:         -23.810
REMARK INTER:                 -15.304
REMARK INTRA:                  -8.507
REMARK UNBOUND:                -8.320
REMARK SMILES C=C1C(=O)N[C@H](C)C(=O)N[C@@H](CC(C)C)C(=O)N[C@@H](C(=O)O)[C@H](C)C(=O)N[C@@H](CCCN=C(N)N)C(=O)N[C@@H](/C=C/C(C)=C/[C@H](C)[C@H](Cc2ccccc2)OC)[C@H](C)C(=O)N[C@@H](C(=O)O)CCC(=O)N1C
REMARK SMILES IDX 39 1 38 2 37 3 36 4 28 6 27 7 25 8 26 9 23 11 24 12 19 13
REMARK SMILES IDX 18 14 16 15 17 16 11 18 10 19 8 20 9 21 12 24 13 25 14 26
REMARK SMILES IDX 15 27 20 28 21 29 22 30 29 32 30 33 31 34 32 35 33 36 34 37
REMARK SMILES IDX 35 38 57 43 58 44 59 45 60 46 61 47 62 49 66 50 67 51 68 52
REMARK SMILES IDX 69 53 70 54 71 55 2 56 1 57 3 58 4 59 5 60 6 62 7 63 63 65
REMARK SMILES IDX 64 66 65 67 40 69 41 70 42 71 44 72 43 73 45 74 46 75 47 76
REMARK SMILES IDX 55 77 56 78 48 79 49 80 50 81 54 82 51 83 53 84 52 85
REMARK H PARENT 38 5 27 10 18 17 10 22 22 31 34 39 34 40 35 41 35 42 61 48
REMARK H PARENT 5 61 65 68
REMARK Flexibility Score:  369.900
ROOT
ATOM      1  C   UNL     1      -3.960 -12.420  -2.479  1.00  0.00     0.117 C 
ENDROOT
BRANCH   1   2
ATOM      2  N   UNL     1      -3.403 -11.364  -1.633  1.00  0.00    -0.347 N 
ATOM      3  O   UNL     1      -4.924 -11.498   0.081  1.00  0.00    -0.273 OA
ATOM      4  C   UNL     1      -3.877 -11.049  -0.375  1.00  0.00     0.243 C 
ATOM      5  H   UNL     1      -2.591 -10.855  -1.949  1.00  0.00     0.164 HD
BRANCH   4   6
ATOM      6  C   UNL     1      -3.055  -9.950   0.345  1.00  0.00     0.171 C 
BRANCH   6   7
ATOM      7  N   UNL     1      -3.147  -8.676  -0.387  1.00  0.00    -0.344 N 
ATOM      8  C   UNL     1      -2.018  -8.081  -0.907  1.00  0.00     0.226 C 
ATOM      9  O   UNL     1      -0.898  -8.559  -0.770  1.00  0.00    -0.275 OA
ATOM     10  H   UNL     1      -4.046  -8.217  -0.462  1.00  0.00     0.164 HD
BRANCH   8  11
ATOM     11  C   UNL     1      -2.285  -6.802  -1.681  1.00  0.00     0.109 C 
ATOM     12  C   UNL     1      -3.789  -6.606  -1.870  1.00  0.00     0.021 C 
BRANCH  11  13
ATOM     13  C   UNL     1      -1.557  -5.623  -1.005  1.00  0.00     0.204 C 
BRANCH  13  14
ATOM     14  N   UNL     1      -1.377  -5.836   0.434  1.00  0.00    -0.340 N 
ATOM     15  C   UNL     1      -2.285  -5.399   1.375  1.00  0.00     0.243 C 
ATOM     16  O   UNL     1      -3.341  -4.850   1.067  1.00  0.00    -0.273 OA
ATOM     17  H   UNL     1      -0.459  -6.146   0.763  1.00  0.00     0.164 HD
BRANCH  15  18
ATOM     18  C   UNL     1      -1.786  -5.551   2.833  1.00  0.00     0.171 C 
BRANCH  18  19
ATOM     19  N   UNL     1      -1.754  -4.207   3.406  1.00  0.00    -0.343 N 
ATOM     20  C   UNL     1      -0.625  -3.705   4.024  1.00  0.00     0.242 CG0
ATOM     21  O   UNL     1       0.359  -4.409   4.237  1.00  0.00    -0.273 OA
ATOM     22  H   UNL     1      -2.583  -3.625   3.358  1.00  0.00     0.164 HD
ATOM     23  G   UNL     1      -0.755  -2.242   4.497  1.00  0.00     0.000 G0
ENDBRANCH  18  19
BRANCH  18  24
ATOM     24  C   UNL     1      -2.712  -6.479   3.628  1.00  0.00     0.038 C 
BRANCH  24  25
ATOM     25  C   UNL     1      -2.036  -7.209   4.807  1.00  0.00    -0.015 C 
ATOM     26  C   UNL     1      -2.132  -6.422   6.115  1.00  0.00     0.007 C 
ATOM     27  C   UNL     1      -0.565  -7.474   4.473  1.00  0.00     0.007 C 
ENDBRANCH  24  25
ENDBRANCH  18  24
ENDBRANCH  15  18
ENDBRANCH  13  14
BRANCH  13  28
ATOM     28  C   UNL     1      -0.172  -5.348  -1.600  1.00  0.00     0.327 C 
ATOM     29  O   UNL     1       0.640  -6.187  -1.958  1.00  0.00    -0.250 OA
BRANCH  28  30
ATOM     30  O   UNL     1       0.155  -4.040  -1.596  1.00  0.00    -0.480 OA
ATOM     31  H   UNL     1       0.949  -3.988  -2.168  1.00  0.00     0.296 HD
ENDBRANCH  28  30
ENDBRANCH  13  28
ENDBRANCH  11  13
ENDBRANCH   8  11
ENDBRANCH   6   7
BRANCH   6  32
ATOM     32  C   UNL     1      -3.569  -9.794   1.780  1.00  0.00     0.037 C 
BRANCH  32  33
ATOM     33  C   UNL     1      -2.571 -10.333   2.815  1.00  0.00     0.026 C 
BRANCH  33  34
ATOM     34  C   UNL     1      -1.118 -10.159   2.372  1.00  0.00     0.146 C 
BRANCH  34  35
ATOM     35  N   UNL     1      -0.543 -11.473   2.121  1.00  0.00    -0.254 NA
ATOM     36  C   UNL     1       0.291 -11.604   1.157  1.00  0.00     0.185 C 
ATOM     37  N   UNL     1       0.831 -12.810   0.920  1.00  0.00    -0.370 N 
ATOM     38  N   UNL     1       0.739 -10.675   0.295  1.00  0.00    -0.370 N 
ATOM     39  H   UNL     1       0.551 -13.562   1.536  1.00  0.00     0.159 HD
ATOM     40  H   UNL     1       1.613 -12.958   0.305  1.00  0.00     0.159 HD
ATOM     41  H   UNL     1       1.289 -10.932  -0.509  1.00  0.00     0.159 HD
ATOM     42  H   UNL     1       0.405  -9.725   0.345  1.00  0.00     0.159 HD
ENDBRANCH  34  35
ENDBRANCH  33  34
ENDBRANCH  32  33
ENDBRANCH   6  32
ENDBRANCH   4   6
ENDBRANCH   1   2
BRANCH   1  43
ATOM     43  C   UNL     1      -2.801 -13.348  -2.941  1.00  0.00     0.102 C 
ATOM     44  C   UNL     1      -1.527 -13.208  -2.090  1.00  0.00     0.020 C 
BRANCH  43  45
ATOM     45  C   UNL     1      -2.558 -13.216  -4.448  1.00  0.00     0.225 C 
ATOM     46  O   UNL     1      -3.161 -13.882  -5.285  1.00  0.00    -0.275 OA
ATOM     47  N   UNL     1      -1.543 -12.361  -4.812  1.00  0.00    -0.342 N 
ATOM     48  H   UNL     1      -1.166 -11.715  -4.133  1.00  0.00     0.164 HD
BRANCH  47  49
ATOM     49  C   UNL     1      -1.222 -12.108  -6.220  1.00  0.00     0.192 C 
BRANCH  49  50
ATOM     50  C   UNL     1       0.277 -12.318  -6.451  1.00  0.00     0.047 C 
BRANCH  50  51
ATOM     51  C   UNL     1       0.559 -13.459  -7.437  1.00  0.00     0.103 C 
BRANCH  51  52
ATOM     52  C   UNL     1       0.626 -12.967  -8.882  1.00  0.00     0.226 C 
ATOM     53  O   UNL     1       1.637 -12.387  -9.283  1.00  0.00    -0.275 OA
BRANCH  52  54
ATOM     54  N   UNL     1      -0.473 -13.282  -9.703  1.00  0.00    -0.311 N 
ATOM     55  C   UNL     1      -1.481 -14.261  -9.274  1.00  0.00     0.153 C 
BRANCH  54  56
ATOM     56  C   UNL     1      -0.650 -12.671 -10.955  1.00  0.00     0.102 C 
ATOM     57  C   UNL     1      -1.385 -11.569 -11.176  1.00  0.00     0.043 C 
BRANCH  56  58
ATOM     58  C   UNL     1       0.041 -13.212 -12.185  1.00  0.00     0.268 C 
ATOM     59  O   UNL     1      -0.445 -14.079 -12.899  1.00  0.00    -0.268 OA
ATOM     60  N   UNL     1       1.234 -12.585 -12.454  1.00  0.00    -0.339 N 
ATOM     61  H   UNL     1       1.572 -11.883 -11.807  1.00  0.00     0.164 HD
BRANCH  60  62
ATOM     62  C   UNL     1       2.036 -12.910 -13.633  1.00  0.00     0.168 CG0
ATOM     63  C   UNL     1       3.394 -13.473 -13.231  1.00  0.00     0.041 C 
ATOM     64  G   UNL     1       2.204 -11.650 -14.507  1.00  0.00     0.000 G0
ENDBRANCH  60  62
ENDBRANCH  56  58
ENDBRANCH  54  56
ENDBRANCH  52  54
ENDBRANCH  51  52
ENDBRANCH  50  51
ENDBRANCH  49  50
BRANCH  49  65
ATOM     65  C   UNL     1      -1.607 -10.682  -6.642  1.00  0.00     0.326 C 
ATOM     66  O   UNL     1      -1.977  -9.793  -5.888  1.00  0.00    -0.250 OA
BRANCH  65  67
ATOM     67  O   UNL     1      -1.572 -10.458  -7.974  1.00  0.00    -0.480 OA
ATOM     68  H   UNL     1      -0.615 -10.347  -8.164  1.00  0.00     0.296 HD
ENDBRANCH  65  67
ENDBRANCH  49  65
ENDBRANCH  47  49
ENDBRANCH  43  45
ENDBRANCH   1  43
BRANCH   1  69
ATOM     69  C   UNL     1      -4.804 -11.721  -3.529  1.00  0.00    -0.001 C 
ATOM     70  C   UNL     1      -4.861 -10.403  -3.787  1.00  0.00     0.001 C 
BRANCH  70  71
ATOM     71  C   UNL     1      -5.663  -9.742  -4.818  1.00  0.00    -0.055 C 
ATOM     72  C   UNL     1      -5.551 -10.192  -6.086  1.00  0.00    -0.018 C 
ATOM     73  C   UNL     1      -6.563  -8.611  -4.391  1.00  0.00     0.044 C 
BRANCH  72  74
ATOM     74  C   UNL     1      -6.254  -9.708  -7.346  1.00  0.00     0.038 C 
ATOM     75  C   UNL     1      -6.988 -10.914  -7.946  1.00  0.00     0.015 C 
BRANCH  74  76
ATOM     76  C   UNL     1      -5.201  -9.051  -8.286  1.00  0.00     0.128 C 
BRANCH  76  77
ATOM     77  O   UNL     1      -5.515  -9.347  -9.657  1.00  0.00    -0.381 OA
ATOM     78  C   UNL     1      -5.848  -8.200 -10.427  1.00  0.00     0.195 C 
ENDBRANCH  76  77
BRANCH  76  79
ATOM     79  C   UNL     1      -4.990  -7.536  -8.032  1.00  0.00     0.068 C 
BRANCH  79  80
ATOM     80  C   UNL     1      -3.731  -7.108  -7.319  1.00  0.00    -0.045 A 
ATOM     81  C   UNL     1      -2.508  -7.027  -7.998  1.00  0.00     0.004 A 
ATOM     82  C   UNL     1      -3.761  -6.809  -5.948  1.00  0.00     0.004 A 
ATOM     83  C   UNL     1      -1.345  -6.643  -7.328  1.00  0.00     0.000 A 
ATOM     84  C   UNL     1      -2.597  -6.426  -5.279  1.00  0.00     0.000 A 
ATOM     85  C   UNL     1      -1.390  -6.342  -5.969  1.00  0.00     0.000 A 
ENDBRANCH  79  80
ENDBRANCH  76  79
ENDBRANCH  74  76
ENDBRANCH  72  74
ENDBRANCH  70  71
ENDBRANCH   1  69
TORSDOF 17
ENDMDL
MODEL 40
REMARK VINA RESULT:    -5.177      4.090      6.483
REMARK INTER + INTRA:         -23.785
REMARK INTER:                 -18.432
REMARK INTRA:                  -5.354
REMARK UNBOUND:                -8.320
REMARK SMILES C=C1C(=O)N[C@H](C)C(=O)N[C@@H](CC(C)C)C(=O)N[C@@H](C(=O)O)[C@H](C)C(=O)N[C@@H](CCCN=C(N)N)C(=O)N[C@@H](/C=C/C(C)=C/[C@H](C)[C@H](Cc2ccccc2)OC)[C@H](C)C(=O)N[C@@H](C(=O)O)CCC(=O)N1C
REMARK SMILES IDX 39 1 38 2 37 3 36 4 28 6 27 7 25 8 26 9 23 11 24 12 19 13
REMARK SMILES IDX 18 14 16 15 17 16 11 18 10 19 8 20 9 21 12 24 13 25 14 26
REMARK SMILES IDX 15 27 20 28 21 29 22 30 29 32 30 33 31 34 32 35 33 36 34 37
REMARK SMILES IDX 35 38 57 43 58 44 59 45 60 46 61 47 62 49 66 50 67 51 68 52
REMARK SMILES IDX 69 53 70 54 71 55 2 56 1 57 3 58 4 59 5 60 6 62 7 63 63 65
REMARK SMILES IDX 64 66 65 67 40 69 41 70 42 71 44 72 43 73 45 74 46 75 47 76
REMARK SMILES IDX 55 77 56 78 48 79 49 80 50 81 54 82 51 83 53 84 52 85
REMARK H PARENT 38 5 27 10 18 17 10 22 22 31 34 39 34 40 35 41 35 42 61 48
REMARK H PARENT 5 61 65 68
REMARK Flexibility Score:  369.900
ROOT
ATOM      1  C   UNL     1      -2.610  -7.224   0.821  1.00  0.00     0.117 C 
ENDROOT
BRANCH   1   2
ATOM      2  N   UNL     1      -2.797  -8.260  -0.195  1.00  0.00    -0.347 N 
ATOM      3  O   UNL     1      -3.450  -6.894  -1.920  1.00  0.00    -0.273 OA
ATOM      4  C   UNL     1      -3.115  -8.002  -1.514  1.00  0.00     0.243 C 
ATOM      5  H   UNL     1      -2.642  -9.227   0.050  1.00  0.00     0.164 HD
BRANCH   4   6
ATOM      6  C   UNL     1      -3.171  -9.271  -2.402  1.00  0.00     0.171 C 
BRANCH   6   7
ATOM      7  N   UNL     1      -2.325  -9.102  -3.594  1.00  0.00    -0.344 N 
ATOM      8  C   UNL     1      -2.830  -9.341  -4.854  1.00  0.00     0.226 C 
ATOM      9  O   UNL     1      -3.979  -9.722  -5.043  1.00  0.00    -0.275 OA
ATOM     10  H   UNL     1      -1.351  -8.854  -3.474  1.00  0.00     0.164 HD
BRANCH   8  11
ATOM     11  C   UNL     1      -1.851  -9.069  -5.983  1.00  0.00     0.109 C 
ATOM     12  C   UNL     1      -1.728 -10.300  -6.881  1.00  0.00     0.021 C 
BRANCH  11  13
ATOM     13  C   UNL     1      -2.245  -7.770  -6.713  1.00  0.00     0.204 C 
BRANCH  13  14
ATOM     14  N   UNL     1      -3.212  -8.014  -7.788  1.00  0.00    -0.340 N 
ATOM     15  C   UNL     1      -3.201  -7.317  -8.977  1.00  0.00     0.243 C 
ATOM     16  O   UNL     1      -2.339  -6.481  -9.245  1.00  0.00    -0.273 OA
ATOM     17  H   UNL     1      -4.037  -8.579  -7.573  1.00  0.00     0.164 HD
BRANCH  15  18
ATOM     18  C   UNL     1      -4.435  -7.596  -9.870  1.00  0.00     0.171 C 
BRANCH  18  19
ATOM     19  N   UNL     1      -5.613  -7.399  -9.028  1.00  0.00    -0.343 N 
ATOM     20  C   UNL     1      -6.532  -8.408  -8.814  1.00  0.00     0.242 CG0
ATOM     21  O   UNL     1      -6.473  -9.473  -9.425  1.00  0.00    -0.273 OA
ATOM     22  H   UNL     1      -5.768  -6.497  -8.592  1.00  0.00     0.164 HD
ATOM     23  G   UNL     1      -7.666  -8.040  -7.835  1.00  0.00     0.000 G0
ENDBRANCH  18  19
BRANCH  18  24
ATOM     24  C   UNL     1      -4.448  -6.658 -11.083  1.00  0.00     0.038 C 
BRANCH  24  25
ATOM     25  C   UNL     1      -4.305  -7.367 -12.447  1.00  0.00    -0.015 C 
ATOM     26  C   UNL     1      -5.154  -8.635 -12.540  1.00  0.00     0.007 C 
ATOM     27  C   UNL     1      -2.834  -7.713 -12.694  1.00  0.00     0.007 C 
ENDBRANCH  24  25
ENDBRANCH  18  24
ENDBRANCH  15  18
ENDBRANCH  13  14
BRANCH  13  28
ATOM     28  C   UNL     1      -2.855  -6.716  -5.784  1.00  0.00     0.327 C 
ATOM     29  O   UNL     1      -2.247  -6.011  -4.993  1.00  0.00    -0.250 OA
BRANCH  28  30
ATOM     30  O   UNL     1      -4.203  -6.696  -5.821  1.00  0.00    -0.480 OA
ATOM     31  H   UNL     1      -4.425  -5.757  -5.989  1.00  0.00     0.296 HD
ENDBRANCH  28  30
ENDBRANCH  13  28
ENDBRANCH  11  13
ENDBRANCH   8  11
ENDBRANCH   6   7
BRANCH   6  32
ATOM     32  C   UNL     1      -2.719 -10.482  -1.578  1.00  0.00     0.037 C 
BRANCH  32  33
ATOM     33  C   UNL     1      -3.880 -11.436  -1.267  1.00  0.00     0.026 C 
BRANCH  33  34
ATOM     34  C   UNL     1      -4.480 -12.059  -2.528  1.00  0.00     0.146 C 
BRANCH  34  35
ATOM     35  N   UNL     1      -5.914 -12.225  -2.334  1.00  0.00    -0.254 NA
ATOM     36  C   UNL     1      -6.711 -11.392  -2.892  1.00  0.00     0.185 C 
ATOM     37  N   UNL     1      -8.034 -11.539  -2.723  1.00  0.00    -0.370 N 
ATOM     38  N   UNL     1      -6.418 -10.332  -3.666  1.00  0.00    -0.370 N 
ATOM     39  H   UNL     1      -8.336 -12.324  -2.159  1.00  0.00     0.159 HD
ATOM     40  H   UNL     1      -8.722 -11.041  -3.261  1.00  0.00     0.159 HD
ATOM     41  H   UNL     1      -7.128  -9.669  -3.932  1.00  0.00     0.159 HD
ATOM     42  H   UNL     1      -5.459 -10.091  -3.864  1.00  0.00     0.159 HD
ENDBRANCH  34  35
ENDBRANCH  33  34
ENDBRANCH  32  33
ENDBRANCH   6  32
ENDBRANCH   4   6
ENDBRANCH   1   2
BRANCH   1  43
ATOM     43  C   UNL     1      -1.098  -6.860   0.884  1.00  0.00     0.102 C 
ATOM     44  C   UNL     1      -0.208  -8.023   1.354  1.00  0.00     0.020 C 
BRANCH  43  45
ATOM     45  C   UNL     1      -0.878  -5.557   1.659  1.00  0.00     0.225 C 
ATOM     46  O   UNL     1      -0.992  -4.446   1.149  1.00  0.00    -0.275 OA
ATOM     47  N   UNL     1      -0.448  -5.705   2.957  1.00  0.00    -0.342 N 
ATOM     48  H   UNL     1      -0.506  -6.610   3.403  1.00  0.00     0.164 HD
BRANCH  47  49
ATOM     49  C   UNL     1      -0.230  -4.547   3.829  1.00  0.00     0.192 C 
BRANCH  49  50
ATOM     50  C   UNL     1       0.942  -4.827   4.774  1.00  0.00     0.047 C 
BRANCH  50  51
ATOM     51  C   UNL     1       1.598  -3.538   5.286  1.00  0.00     0.103 C 
BRANCH  51  52
ATOM     52  C   UNL     1       3.096  -3.713   5.527  1.00  0.00     0.226 C 
ATOM     53  O   UNL     1       3.529  -4.804   5.902  1.00  0.00    -0.275 OA
BRANCH  52  54
ATOM     54  N   UNL     1       3.913  -2.608   5.226  1.00  0.00    -0.311 N 
ATOM     55  C   UNL     1       3.335  -1.273   5.025  1.00  0.00     0.153 C 
BRANCH  54  56
ATOM     56  C   UNL     1       5.307  -2.738   5.112  1.00  0.00     0.102 C 
ATOM     57  C   UNL     1       5.975  -2.868   3.953  1.00  0.00     0.043 C 
BRANCH  56  58
ATOM     58  C   UNL     1       6.193  -2.693   6.335  1.00  0.00     0.268 C 
ATOM     59  O   UNL     1       7.414  -2.635   6.276  1.00  0.00    -0.268 OA
ATOM     60  N   UNL     1       5.485  -2.656   7.513  1.00  0.00    -0.339 N 
ATOM     61  H   UNL     1       4.475  -2.718   7.476  1.00  0.00     0.164 HD
BRANCH  60  62
ATOM     62  C   UNL     1       6.144  -2.547   8.814  1.00  0.00     0.168 CG0
ATOM     63  C   UNL     1       5.317  -3.219   9.903  1.00  0.00     0.041 C 
ATOM     64  G   UNL     1       6.384  -1.061   9.149  1.00  0.00     0.000 G0
ENDBRANCH  60  62
ENDBRANCH  56  58
ENDBRANCH  54  56
ENDBRANCH  52  54
ENDBRANCH  51  52
ENDBRANCH  50  51
ENDBRANCH  49  50
BRANCH  49  65
ATOM     65  C   UNL     1      -1.482  -4.217   4.656  1.00  0.00     0.326 C 
ATOM     66  O   UNL     1      -2.309  -3.359   4.382  1.00  0.00    -0.250 OA
BRANCH  65  67
ATOM     67  O   UNL     1      -1.605  -4.924   5.801  1.00  0.00    -0.480 OA
ATOM     68  H   UNL     1      -1.083  -5.737   5.628  1.00  0.00     0.296 HD
ENDBRANCH  65  67
ENDBRANCH  49  65
ENDBRANCH  47  49
ENDBRANCH  43  45
ENDBRANCH   1  43
BRANCH   1  69
ATOM     69  C   UNL     1      -3.295  -7.732   2.076  1.00  0.00    -0.001 C 
ATOM     70  C   UNL     1      -3.859  -8.937   2.269  1.00  0.00     0.001 C 
BRANCH  70  71
ATOM     71  C   UNL     1      -4.499  -9.424   3.493  1.00  0.00    -0.055 C 
ATOM     72  C   UNL     1      -3.719  -9.607   4.579  1.00  0.00    -0.018 C 
ATOM     73  C   UNL     1      -5.983  -9.679   3.455  1.00  0.00     0.044 C 
BRANCH  72  74
ATOM     74  C   UNL     1      -4.102 -10.093   5.969  1.00  0.00     0.038 C 
ATOM     75  C   UNL     1      -5.426 -10.855   5.833  1.00  0.00     0.015 C 
BRANCH  74  76
ATOM     76  C   UNL     1      -4.149  -8.870   6.932  1.00  0.00     0.128 C 
BRANCH  76  77
ATOM     77  O   UNL     1      -3.315  -9.115   8.077  1.00  0.00    -0.381 OA
ATOM     78  C   UNL     1      -1.928  -8.936   7.822  1.00  0.00     0.195 C 
ENDBRANCH  76  77
BRANCH  76  79
ATOM     79  C   UNL     1      -3.842  -7.515   6.245  1.00  0.00     0.068 C 
BRANCH  79  80
ATOM     80  C   UNL     1      -5.005  -6.709   5.720  1.00  0.00    -0.045 A 
ATOM     81  C   UNL     1      -4.845  -5.828   4.642  1.00  0.00     0.004 A 
ATOM     82  C   UNL     1      -6.266  -6.810   6.326  1.00  0.00     0.004 A 
ATOM     83  C   UNL     1      -5.922  -5.075   4.172  1.00  0.00     0.000 A 
ATOM     84  C   UNL     1      -7.343  -6.056   5.855  1.00  0.00     0.000 A 
ATOM     85  C   UNL     1      -7.172  -5.190   4.777  1.00  0.00     0.000 A 
ENDBRANCH  79  80
ENDBRANCH  76  79
ENDBRANCH  74  76
ENDBRANCH  72  74
ENDBRANCH  70  71
ENDBRANCH   1  69
TORSDOF 17
ENDMDL
MODEL 41
REMARK VINA RESULT:    -5.167      3.662      9.775
REMARK INTER + INTRA:         -23.756
REMARK INTER:                 -14.479
REMARK INTRA:                  -9.277
REMARK UNBOUND:                -8.320
REMARK SMILES C=C1C(=O)N[C@H](C)C(=O)N[C@@H](CC(C)C)C(=O)N[C@@H](C(=O)O)[C@H](C)C(=O)N[C@@H](CCCN=C(N)N)C(=O)N[C@@H](/C=C/C(C)=C/[C@H](C)[C@H](Cc2ccccc2)OC)[C@H](C)C(=O)N[C@@H](C(=O)O)CCC(=O)N1C
REMARK SMILES IDX 39 1 38 2 37 3 36 4 28 6 27 7 25 8 26 9 23 11 24 12 19 13
REMARK SMILES IDX 18 14 16 15 17 16 11 18 10 19 8 20 9 21 12 24 13 25 14 26
REMARK SMILES IDX 15 27 20 28 21 29 22 30 29 32 30 33 31 34 32 35 33 36 34 37
REMARK SMILES IDX 35 38 57 43 58 44 59 45 60 46 61 47 62 49 66 50 67 51 68 52
REMARK SMILES IDX 69 53 70 54 71 55 2 56 1 57 3 58 4 59 5 60 6 62 7 63 63 65
REMARK SMILES IDX 64 66 65 67 40 69 41 70 42 71 44 72 43 73 45 74 46 75 47 76
REMARK SMILES IDX 55 77 56 78 48 79 49 80 50 81 54 82 51 83 53 84 52 85
REMARK H PARENT 38 5 27 10 18 17 10 22 22 31 34 39 34 40 35 41 35 42 61 48
REMARK H PARENT 5 61 65 68
REMARK Flexibility Score:  369.900
ROOT
ATOM      1  C   UNL     1      -1.668  -8.897   0.157  1.00  0.00     0.117 C 
ENDROOT
BRANCH   1   2
ATOM      2  N   UNL     1      -2.661  -8.242   1.009  1.00  0.00    -0.347 N 
ATOM      3  O   UNL     1      -1.570  -8.492   3.013  1.00  0.00    -0.273 OA
ATOM      4  C   UNL     1      -2.489  -8.010   2.360  1.00  0.00     0.243 C 
ATOM      5  H   UNL     1      -3.510  -7.885   0.595  1.00  0.00     0.164 HD
BRANCH   4   6
ATOM      6  C   UNL     1      -3.654  -7.222   3.011  1.00  0.00     0.171 C 
BRANCH   6   7
ATOM      7  N   UNL     1      -3.752  -7.538   4.445  1.00  0.00    -0.344 N 
ATOM      8  C   UNL     1      -4.977  -7.777   5.029  1.00  0.00     0.226 C 
ATOM      9  O   UNL     1      -6.030  -7.717   4.405  1.00  0.00    -0.275 OA
ATOM     10  H   UNL     1      -2.911  -7.531   5.007  1.00  0.00     0.164 HD
BRANCH   8  11
ATOM     11  C   UNL     1      -4.906  -8.143   6.502  1.00  0.00     0.109 C 
ATOM     12  C   UNL     1      -5.555  -7.048   7.348  1.00  0.00     0.021 C 
BRANCH  11  13
ATOM     13  C   UNL     1      -5.485  -9.556   6.716  1.00  0.00     0.204 C 
BRANCH  13  14
ATOM     14  N   UNL     1      -5.559 -10.317   5.464  1.00  0.00    -0.340 N 
ATOM     15  C   UNL     1      -6.579 -11.201   5.186  1.00  0.00     0.243 C 
ATOM     16  O   UNL     1      -7.533 -11.369   5.944  1.00  0.00    -0.273 OA
ATOM     17  H   UNL     1      -4.729 -10.339   4.865  1.00  0.00     0.164 HD
BRANCH  15  18
ATOM     18  C   UNL     1      -6.338 -12.039   3.906  1.00  0.00     0.171 C 
BRANCH  18  19
ATOM     19  N   UNL     1      -4.924 -12.406   3.906  1.00  0.00    -0.343 N 
ATOM     20  C   UNL     1      -3.974 -11.649   3.246  1.00  0.00     0.242 CG0
ATOM     21  O   UNL     1      -4.291 -10.710   2.521  1.00  0.00    -0.273 OA
ATOM     22  H   UNL     1      -4.626 -13.242   4.397  1.00  0.00     0.164 HD
ATOM     23  G   UNL     1      -2.526 -12.149   3.424  1.00  0.00     0.000 G0
ENDBRANCH  18  19
BRANCH  18  24
ATOM     24  C   UNL     1      -7.241 -13.279   3.894  1.00  0.00     0.038 C 
BRANCH  24  25
ATOM     25  C   UNL     1      -7.519 -13.860   2.491  1.00  0.00    -0.015 C 
ATOM     26  C   UNL     1      -8.975 -13.682   2.062  1.00  0.00     0.007 C 
ATOM     27  C   UNL     1      -7.153 -15.346   2.467  1.00  0.00     0.007 C 
ENDBRANCH  24  25
ENDBRANCH  18  24
ENDBRANCH  15  18
ENDBRANCH  13  14
BRANCH  13  28
ATOM     28  C   UNL     1      -4.676 -10.395   7.710  1.00  0.00     0.327 C 
ATOM     29  O   UNL     1      -3.530 -10.790   7.558  1.00  0.00    -0.250 OA
BRANCH  28  30
ATOM     30  O   UNL     1      -5.396 -10.786   8.780  1.00  0.00    -0.480 OA
ATOM     31  H   UNL     1      -6.326 -10.616   8.521  1.00  0.00     0.296 HD
ENDBRANCH  28  30
ENDBRANCH  13  28
ENDBRANCH  11  13
ENDBRANCH   8  11
ENDBRANCH   6   7
BRANCH   6  32
ATOM     32  C   UNL     1      -3.428  -5.721   2.796  1.00  0.00     0.037 C 
BRANCH  32  33
ATOM     33  C   UNL     1      -3.035  -5.003   4.094  1.00  0.00     0.026 C 
BRANCH  33  34
ATOM     34  C   UNL     1      -1.836  -4.071   3.908  1.00  0.00     0.146 C 
BRANCH  34  35
ATOM     35  N   UNL     1      -0.760  -4.510   4.786  1.00  0.00    -0.254 NA
ATOM     36  C   UNL     1       0.087  -5.361   4.341  1.00  0.00     0.185 C 
ATOM     37  N   UNL     1       1.086  -5.768   5.140  1.00  0.00    -0.370 N 
ATOM     38  N   UNL     1       0.141  -5.947   3.131  1.00  0.00    -0.370 N 
ATOM     39  H   UNL     1       1.120  -5.363   6.066  1.00  0.00     0.159 HD
ATOM     40  H   UNL     1       1.880  -6.292   4.814  1.00  0.00     0.159 HD
ATOM     41  H   UNL     1       0.776  -6.706   2.948  1.00  0.00     0.159 HD
ATOM     42  H   UNL     1      -0.558  -5.746   2.433  1.00  0.00     0.159 HD
ENDBRANCH  34  35
ENDBRANCH  33  34
ENDBRANCH  32  33
ENDBRANCH   6  32
ENDBRANCH   4   6
ENDBRANCH   1   2
BRANCH   1  43
ATOM     43  C   UNL     1      -0.325  -8.120   0.276  1.00  0.00     0.102 C 
ATOM     44  C   UNL     1      -0.097  -7.113  -0.864  1.00  0.00     0.020 C 
BRANCH  43  45
ATOM     45  C   UNL     1       0.847  -9.080   0.500  1.00  0.00     0.225 C 
ATOM     46  O   UNL     1       1.939  -8.944  -0.044  1.00  0.00    -0.275 OA
ATOM     47  N   UNL     1       0.574 -10.176   1.286  1.00  0.00    -0.342 N 
ATOM     48  H   UNL     1      -0.269 -10.194   1.843  1.00  0.00     0.164 HD
BRANCH  47  49
ATOM     49  C   UNL     1       1.609 -11.160   1.616  1.00  0.00     0.192 C 
BRANCH  49  50
ATOM     50  C   UNL     1       2.829 -10.447   2.203  1.00  0.00     0.047 C 
BRANCH  50  51
ATOM     51  C   UNL     1       2.906 -10.586   3.730  1.00  0.00     0.103 C 
BRANCH  51  52
ATOM     52  C   UNL     1       1.956  -9.624   4.442  1.00  0.00     0.226 C 
ATOM     53  O   UNL     1       1.732  -8.515   3.954  1.00  0.00    -0.275 OA
BRANCH  52  54
ATOM     54  N   UNL     1       1.325 -10.111   5.602  1.00  0.00    -0.311 N 
ATOM     55  C   UNL     1       2.102 -10.444   6.803  1.00  0.00     0.153 C 
BRANCH  54  56
ATOM     56  C   UNL     1      -0.068 -10.289   5.657  1.00  0.00     0.102 C 
ATOM     57  C   UNL     1      -0.930  -9.431   6.226  1.00  0.00     0.043 C 
BRANCH  56  58
ATOM     58  C   UNL     1      -0.721 -11.489   5.013  1.00  0.00     0.268 C 
ATOM     59  O   UNL     1      -0.432 -12.643   5.300  1.00  0.00    -0.268 OA
ATOM     60  N   UNL     1      -1.715 -11.152   4.126  1.00  0.00    -0.339 N 
ATOM     61  H   UNL     1      -1.886 -10.172   3.935  1.00  0.00     0.164 HD
BRANCH  60  62
ATOM     62  C   UNL     1      -2.519 -12.160   3.437  1.00  0.00     0.168 CG0
ATOM     63  C   UNL     1      -1.903 -12.526   2.092  1.00  0.00     0.041 C 
ATOM     64  G   UNL     1      -3.959 -11.637   3.254  1.00  0.00     0.000 G0
ENDBRANCH  60  62
ENDBRANCH  56  58
ENDBRANCH  54  56
ENDBRANCH  52  54
ENDBRANCH  51  52
ENDBRANCH  50  51
ENDBRANCH  49  50
BRANCH  49  65
ATOM     65  C   UNL     1       2.038 -11.967   0.380  1.00  0.00     0.326 C 
ATOM     66  O   UNL     1       1.354 -12.801  -0.196  1.00  0.00    -0.250 OA
BRANCH  65  67
ATOM     67  O   UNL     1       3.304 -11.738  -0.031  1.00  0.00    -0.480 OA
ATOM     68  H   UNL     1       3.820 -12.453   0.401  1.00  0.00     0.296 HD
ENDBRANCH  65  67
ENDBRANCH  49  65
ENDBRANCH  47  49
ENDBRANCH  43  45
ENDBRANCH   1  43
BRANCH   1  69
ATOM     69  C   UNL     1      -2.312  -9.043  -1.209  1.00  0.00    -0.001 C 
ATOM     70  C   UNL     1      -2.544 -10.183  -1.885  1.00  0.00     0.001 C 
BRANCH  70  71
ATOM     71  C   UNL     1      -3.186 -10.313  -3.195  1.00  0.00    -0.055 C 
ATOM     72  C   UNL     1      -2.494  -9.899  -4.277  1.00  0.00    -0.018 C 
ATOM     73  C   UNL     1      -4.570 -10.908  -3.242  1.00  0.00     0.044 C 
BRANCH  72  74
ATOM     74  C   UNL     1      -2.901  -9.915  -5.744  1.00  0.00     0.038 C 
ATOM     75  C   UNL     1      -1.859 -10.755  -6.493  1.00  0.00     0.015 C 
BRANCH  74  76
ATOM     76  C   UNL     1      -3.036  -8.446  -6.242  1.00  0.00     0.128 C 
BRANCH  76  77
ATOM     77  O   UNL     1      -3.040  -8.414  -7.679  1.00  0.00    -0.381 OA
ATOM     78  C   UNL     1      -2.428  -7.253  -8.226  1.00  0.00     0.195 C 
ENDBRANCH  76  77
BRANCH  76  79
ATOM     79  C   UNL     1      -4.231  -7.679  -5.622  1.00  0.00     0.068 C 
BRANCH  79  80
ATOM     80  C   UNL     1      -4.008  -6.963  -4.311  1.00  0.00    -0.045 A 
ATOM     81  C   UNL     1      -2.848  -6.209  -4.089  1.00  0.00     0.004 A 
ATOM     82  C   UNL     1      -4.953  -7.066  -3.279  1.00  0.00     0.004 A 
ATOM     83  C   UNL     1      -2.642  -5.561  -2.869  1.00  0.00     0.000 A 
ATOM     84  C   UNL     1      -4.746  -6.418  -2.059  1.00  0.00     0.000 A 
ATOM     85  C   UNL     1      -3.592  -5.665  -1.855  1.00  0.00     0.000 A 
ENDBRANCH  79  80
ENDBRANCH  76  79
ENDBRANCH  74  76
ENDBRANCH  72  74
ENDBRANCH  70  71
ENDBRANCH   1  69
TORSDOF 17
ENDMDL
MODEL 42
REMARK VINA RESULT:    -5.156      5.006     10.379
REMARK INTER + INTRA:         -23.723
REMARK INTER:                 -17.368
REMARK INTRA:                  -6.355
REMARK UNBOUND:                -8.320
REMARK SMILES C=C1C(=O)N[C@H](C)C(=O)N[C@@H](CC(C)C)C(=O)N[C@@H](C(=O)O)[C@H](C)C(=O)N[C@@H](CCCN=C(N)N)C(=O)N[C@@H](/C=C/C(C)=C/[C@H](C)[C@H](Cc2ccccc2)OC)[C@H](C)C(=O)N[C@@H](C(=O)O)CCC(=O)N1C
REMARK SMILES IDX 39 1 38 2 37 3 36 4 28 6 27 7 25 8 26 9 23 11 24 12 19 13
REMARK SMILES IDX 18 14 16 15 17 16 11 18 10 19 8 20 9 21 12 24 13 25 14 26
REMARK SMILES IDX 15 27 20 28 21 29 22 30 29 32 30 33 31 34 32 35 33 36 34 37
REMARK SMILES IDX 35 38 57 43 58 44 59 45 60 46 61 47 62 49 66 50 67 51 68 52
REMARK SMILES IDX 69 53 70 54 71 55 2 56 1 57 3 58 4 59 5 60 6 62 7 63 63 65
REMARK SMILES IDX 64 66 65 67 40 69 41 70 42 71 44 72 43 73 45 74 46 75 47 76
REMARK SMILES IDX 55 77 56 78 48 79 49 80 50 81 54 82 51 83 53 84 52 85
REMARK H PARENT 38 5 27 10 18 17 10 22 22 31 34 39 34 40 35 41 35 42 61 48
REMARK H PARENT 5 61 65 68
REMARK Flexibility Score:  369.900
ROOT
ATOM      1  C   UNL     1       0.496  -7.408   2.239  1.00  0.00     0.117 C 
ENDROOT
BRANCH   1   2
ATOM      2  N   UNL     1       0.652  -8.852   2.419  1.00  0.00    -0.347 N 
ATOM      3  O   UNL     1       2.148  -9.220   0.716  1.00  0.00    -0.273 OA
ATOM      4  C   UNL     1       1.538  -9.629   1.699  1.00  0.00     0.243 C 
ATOM      5  H   UNL     1       0.125  -9.320   3.141  1.00  0.00     0.164 HD
BRANCH   4   6
ATOM      6  C   UNL     1       1.569 -11.114   2.144  1.00  0.00     0.171 C 
BRANCH   6   7
ATOM      7  N   UNL     1       2.946 -11.528   2.457  1.00  0.00    -0.344 N 
ATOM      8  C   UNL     1       3.692 -10.842   3.390  1.00  0.00     0.226 C 
ATOM      9  O   UNL     1       3.266  -9.856   3.980  1.00  0.00    -0.275 OA
ATOM     10  H   UNL     1       3.356 -12.297   1.941  1.00  0.00     0.164 HD
BRANCH   8  11
ATOM     11  C   UNL     1       5.071 -11.425   3.641  1.00  0.00     0.109 C 
ATOM     12  C   UNL     1       4.988 -12.550   4.672  1.00  0.00     0.021 C 
BRANCH  11  13
ATOM     13  C   UNL     1       5.721 -11.822   2.300  1.00  0.00     0.204 C 
BRANCH  13  14
ATOM     14  N   UNL     1       6.798 -10.904   1.915  1.00  0.00    -0.340 N 
ATOM     15  C   UNL     1       6.568  -9.714   1.260  1.00  0.00     0.243 C 
ATOM     16  O   UNL     1       5.436  -9.309   1.004  1.00  0.00    -0.273 OA
ATOM     17  H   UNL     1       7.761 -11.248   1.961  1.00  0.00     0.164 HD
BRANCH  15  18
ATOM     18  C   UNL     1       7.862  -9.016   0.773  1.00  0.00     0.171 C 
BRANCH  18  19
ATOM     19  N   UNL     1       8.585  -9.994  -0.037  1.00  0.00    -0.343 N 
ATOM     20  C   UNL     1       9.966 -10.021  -0.087  1.00  0.00     0.242 CG0
ATOM     21  O   UNL     1      10.646  -9.144   0.440  1.00  0.00    -0.273 OA
ATOM     22  H   UNL     1       8.064 -10.669  -0.585  1.00  0.00     0.164 HD
ATOM     23  G   UNL     1      10.550 -11.172  -0.932  1.00  0.00     0.000 G0
ENDBRANCH  18  19
BRANCH  18  24
ATOM     24  C   UNL     1       7.527  -7.756  -0.033  1.00  0.00     0.038 C 
BRANCH  24  25
ATOM     25  C   UNL     1       7.813  -6.427   0.699  1.00  0.00    -0.015 C 
ATOM     26  C   UNL     1       8.858  -5.575  -0.021  1.00  0.00     0.007 C 
ATOM     27  C   UNL     1       8.281  -6.718   2.128  1.00  0.00     0.007 C 
ENDBRANCH  24  25
ENDBRANCH  18  24
ENDBRANCH  15  18
ENDBRANCH  13  14
BRANCH  13  28
ATOM     28  C   UNL     1       6.311 -13.235   2.310  1.00  0.00     0.327 C 
ATOM     29  O   UNL     1       5.724 -14.266   2.018  1.00  0.00    -0.250 OA
BRANCH  28  30
ATOM     30  O   UNL     1       7.566 -13.281   2.801  1.00  0.00    -0.480 OA
ATOM     31  H   UNL     1       7.843 -14.211   2.670  1.00  0.00     0.296 HD
ENDBRANCH  28  30
ENDBRANCH  13  28
ENDBRANCH  11  13
ENDBRANCH   8  11
ENDBRANCH   6   7
BRANCH   6  32
ATOM     32  C   UNL     1       0.654 -11.293   3.360  1.00  0.00     0.037 C 
BRANCH  32  33
ATOM     33  C   UNL     1      -0.408 -12.378   3.130  1.00  0.00     0.026 C 
BRANCH  33  34
ATOM     34  C   UNL     1      -1.133 -12.213   1.793  1.00  0.00     0.146 C 
BRANCH  34  35
ATOM     35  N   UNL     1      -2.059 -11.094   1.895  1.00  0.00    -0.254 NA
ATOM     36  C   UNL     1      -2.204 -10.322   0.883  1.00  0.00     0.185 C 
ATOM     37  N   UNL     1      -3.058  -9.291   0.964  1.00  0.00    -0.370 N 
ATOM     38  N   UNL     1      -1.603 -10.384  -0.319  1.00  0.00    -0.370 N 
ATOM     39  H   UNL     1      -3.559  -9.183   1.837  1.00  0.00     0.159 HD
ATOM     40  H   UNL     1      -3.356  -8.751   0.170  1.00  0.00     0.159 HD
ATOM     41  H   UNL     1      -1.696  -9.636  -0.986  1.00  0.00     0.159 HD
ATOM     42  H   UNL     1      -0.922 -11.101  -0.516  1.00  0.00     0.159 HD
ENDBRANCH  34  35
ENDBRANCH  33  34
ENDBRANCH  32  33
ENDBRANCH   6  32
ENDBRANCH   4   6
ENDBRANCH   1   2
BRANCH   1  43
ATOM     43  C   UNL     1      -0.176  -6.820   3.513  1.00  0.00     0.102 C 
ATOM     44  C   UNL     1       0.771  -5.953   4.360  1.00  0.00     0.020 C 
BRANCH  43  45
ATOM     45  C   UNL     1      -0.897  -7.913   4.308  1.00  0.00     0.225 C 
ATOM     46  O   UNL     1      -1.843  -8.555   3.861  1.00  0.00    -0.275 OA
ATOM     47  N   UNL     1      -0.478  -8.073   5.609  1.00  0.00    -0.342 N 
ATOM     48  H   UNL     1       0.389  -7.651   5.911  1.00  0.00     0.164 HD
BRANCH  47  49
ATOM     49  C   UNL     1      -1.053  -9.104   6.478  1.00  0.00     0.192 C 
BRANCH  49  50
ATOM     50  C   UNL     1      -1.612  -8.455   7.746  1.00  0.00     0.047 C 
BRANCH  50  51
ATOM     51  C   UNL     1      -2.342  -7.138   7.453  1.00  0.00     0.103 C 
BRANCH  51  52
ATOM     52  C   UNL     1      -3.860  -7.304   7.485  1.00  0.00     0.226 C 
ATOM     53  O   UNL     1      -4.478  -7.071   8.526  1.00  0.00    -0.275 OA
BRANCH  52  54
ATOM     54  N   UNL     1      -4.479  -7.649   6.269  1.00  0.00    -0.311 N 
ATOM     55  C   UNL     1      -4.656  -9.055   5.884  1.00  0.00     0.153 C 
BRANCH  54  56
ATOM     56  C   UNL     1      -4.955  -6.667   5.385  1.00  0.00     0.102 C 
ATOM     57  C   UNL     1      -4.265  -6.171   4.344  1.00  0.00     0.043 C 
BRANCH  56  58
ATOM     58  C   UNL     1      -6.352  -6.110   5.523  1.00  0.00     0.268 C 
ATOM     59  O   UNL     1      -7.106  -6.412   6.439  1.00  0.00    -0.268 OA
ATOM     60  N   UNL     1      -6.663  -5.184   4.556  1.00  0.00    -0.339 N 
ATOM     61  H   UNL     1      -5.987  -4.997   3.825  1.00  0.00     0.164 HD
BRANCH  60  62
ATOM     62  C   UNL     1      -7.941  -4.475   4.539  1.00  0.00     0.168 CG0
ATOM     63  C   UNL     1      -8.116  -3.693   3.242  1.00  0.00     0.041 C 
ATOM     64  G   UNL     1      -8.027  -3.535   5.759  1.00  0.00     0.000 G0
ENDBRANCH  60  62
ENDBRANCH  56  58
ENDBRANCH  54  56
ENDBRANCH  52  54
ENDBRANCH  51  52
ENDBRANCH  50  51
ENDBRANCH  49  50
BRANCH  49  65
ATOM     65  C   UNL     1      -0.010 -10.164   6.866  1.00  0.00     0.326 C 
ATOM     66  O   UNL     1       1.197 -10.069   6.697  1.00  0.00    -0.250 OA
BRANCH  65  67
ATOM     67  O   UNL     1      -0.527 -11.301   7.383  1.00  0.00    -0.480 OA
ATOM     68  H   UNL     1      -1.323 -11.464   6.833  1.00  0.00     0.296 HD
ENDBRANCH  65  67
ENDBRANCH  49  65
ENDBRANCH  47  49
ENDBRANCH  43  45
ENDBRANCH   1  43
BRANCH   1  69
ATOM     69  C   UNL     1      -0.185  -7.219   0.896  1.00  0.00    -0.001 C 
ATOM     70  C   UNL     1      -0.593  -6.063   0.343  1.00  0.00     0.001 C 
BRANCH  70  71
ATOM     71  C   UNL     1      -1.231  -5.891  -0.964  1.00  0.00    -0.055 C 
ATOM     72  C   UNL     1      -2.401  -6.529  -1.181  1.00  0.00    -0.018 C 
ATOM     73  C   UNL     1      -0.541  -5.008  -1.972  1.00  0.00     0.044 C 
BRANCH  72  74
ATOM     74  C   UNL     1      -3.280  -6.532  -2.423  1.00  0.00     0.038 C 
ATOM     75  C   UNL     1      -4.445  -5.570  -2.156  1.00  0.00     0.015 C 
BRANCH  74  76
ATOM     76  C   UNL     1      -3.703  -7.999  -2.733  1.00  0.00     0.128 C 
BRANCH  76  77
ATOM     77  O   UNL     1      -5.092  -8.042  -3.100  1.00  0.00    -0.381 OA
ATOM     78  C   UNL     1      -5.847  -8.998  -2.368  1.00  0.00     0.195 C 
ENDBRANCH  76  77
BRANCH  76  79
ATOM     79  C   UNL     1      -2.789  -8.713  -3.761  1.00  0.00     0.068 C 
BRANCH  79  80
ATOM     80  C   UNL     1      -2.487  -7.998  -5.056  1.00  0.00    -0.045 A 
ATOM     81  C   UNL     1      -3.429  -7.955  -6.093  1.00  0.00     0.004 A 
ATOM     82  C   UNL     1      -1.240  -7.386  -5.252  1.00  0.00     0.004 A 
ATOM     83  C   UNL     1      -3.137  -7.304  -7.293  1.00  0.00     0.000 A 
ATOM     84  C   UNL     1      -0.949  -6.736  -6.453  1.00  0.00     0.000 A 
ATOM     85  C   UNL     1      -1.897  -6.693  -7.472  1.00  0.00     0.000 A 
ENDBRANCH  79  80
ENDBRANCH  76  79
ENDBRANCH  74  76
ENDBRANCH  72  74
ENDBRANCH  70  71
ENDBRANCH   1  69
TORSDOF 17
ENDMDL
MODEL 43
REMARK VINA RESULT:    -5.150     11.686     16.030
REMARK INTER + INTRA:         -23.705
REMARK INTER:                 -15.871
REMARK INTRA:                  -7.834
REMARK UNBOUND:                -8.320
REMARK SMILES C=C1C(=O)N[C@H](C)C(=O)N[C@@H](CC(C)C)C(=O)N[C@@H](C(=O)O)[C@H](C)C(=O)N[C@@H](CCCN=C(N)N)C(=O)N[C@@H](/C=C/C(C)=C/[C@H](C)[C@H](Cc2ccccc2)OC)[C@H](C)C(=O)N[C@@H](C(=O)O)CCC(=O)N1C
REMARK SMILES IDX 39 1 38 2 37 3 36 4 28 6 27 7 25 8 26 9 23 11 24 12 19 13
REMARK SMILES IDX 18 14 16 15 17 16 11 18 10 19 8 20 9 21 12 24 13 25 14 26
REMARK SMILES IDX 15 27 20 28 21 29 22 30 29 32 30 33 31 34 32 35 33 36 34 37
REMARK SMILES IDX 35 38 57 43 58 44 59 45 60 46 61 47 62 49 66 50 67 51 68 52
REMARK SMILES IDX 69 53 70 54 71 55 2 56 1 57 3 58 4 59 5 60 6 62 7 63 63 65
REMARK SMILES IDX 64 66 65 67 40 69 41 70 42 71 44 72 43 73 45 74 46 75 47 76
REMARK SMILES IDX 55 77 56 78 48 79 49 80 50 81 54 82 51 83 53 84 52 85
REMARK H PARENT 38 5 27 10 18 17 10 22 22 31 34 39 34 40 35 41 35 42 61 48
REMARK H PARENT 5 61 65 68
REMARK Flexibility Score:  369.900
ROOT
ATOM      1  C   UNL     1       8.417  -4.648   4.516  1.00  0.00     0.117 C 
ENDROOT
BRANCH   1   2
ATOM      2  N   UNL     1       7.444  -4.139   5.483  1.00  0.00    -0.347 N 
ATOM      3  O   UNL     1       5.759  -5.636   5.049  1.00  0.00    -0.273 OA
ATOM      4  C   UNL     1       6.223  -4.733   5.737  1.00  0.00     0.243 C 
ATOM      5  H   UNL     1       7.679  -3.335   6.045  1.00  0.00     0.164 HD
BRANCH   4   6
ATOM      6  C   UNL     1       5.418  -4.045   6.869  1.00  0.00     0.171 C 
BRANCH   6   7
ATOM      7  N   UNL     1       5.286  -4.945   8.026  1.00  0.00    -0.344 N 
ATOM      8  C   UNL     1       6.397  -5.542   8.583  1.00  0.00     0.226 C 
ATOM      9  O   UNL     1       7.527  -5.377   8.140  1.00  0.00    -0.275 OA
ATOM     10  H   UNL     1       4.362  -5.159   8.378  1.00  0.00     0.164 HD
BRANCH   8  11
ATOM     11  C   UNL     1       6.102  -6.397   9.803  1.00  0.00     0.109 C 
ATOM     12  C   UNL     1       5.034  -5.729  10.669  1.00  0.00     0.021 C 
BRANCH  11  13
ATOM     13  C   UNL     1       5.771  -7.837   9.362  1.00  0.00     0.204 C 
BRANCH  13  14
ATOM     14  N   UNL     1       6.850  -8.433   8.567  1.00  0.00    -0.340 N 
ATOM     15  C   UNL     1       6.669  -9.546   7.776  1.00  0.00     0.243 C 
ATOM     16  O   UNL     1       5.573 -10.084   7.633  1.00  0.00    -0.273 OA
ATOM     17  H   UNL     1       7.809  -8.131   8.757  1.00  0.00     0.164 HD
BRANCH  15  18
ATOM     18  C   UNL     1       7.988 -10.116   7.199  1.00  0.00     0.171 C 
BRANCH  18  19
ATOM     19  N   UNL     1       7.780 -10.281   5.762  1.00  0.00    -0.343 N 
ATOM     20  C   UNL     1       7.688 -11.530   5.178  1.00  0.00     0.242 CG0
ATOM     21  O   UNL     1       7.909 -12.556   5.816  1.00  0.00    -0.273 OA
ATOM     22  H   UNL     1       7.706  -9.460   5.172  1.00  0.00     0.164 HD
ATOM     23  G   UNL     1       7.388 -11.505   3.665  1.00  0.00     0.000 G0
ENDBRANCH  18  19
BRANCH  18  24
ATOM     24  C   UNL     1       9.160  -9.170   7.491  1.00  0.00     0.038 C 
BRANCH  24  25
ATOM     25  C   UNL     1      10.289  -9.787   8.343  1.00  0.00    -0.015 C 
ATOM     26  C   UNL     1      10.289 -11.316   8.296  1.00  0.00     0.007 C 
ATOM     27  C   UNL     1      10.156  -9.317   9.794  1.00  0.00     0.007 C 
ENDBRANCH  24  25
ENDBRANCH  18  24
ENDBRANCH  15  18
ENDBRANCH  13  14
BRANCH  13  28
ATOM     28  C   UNL     1       5.499  -8.781  10.537  1.00  0.00     0.327 C 
ATOM     29  O   UNL     1       6.305  -9.126  11.388  1.00  0.00    -0.250 OA
BRANCH  28  30
ATOM     30  O   UNL     1       4.266  -9.325  10.504  1.00  0.00    -0.480 OA
ATOM     31  H   UNL     1       3.756  -8.808  11.161  1.00  0.00     0.296 HD
ENDBRANCH  28  30
ENDBRANCH  13  28
ENDBRANCH  11  13
ENDBRANCH   8  11
ENDBRANCH   6   7
BRANCH   6  32
ATOM     32  C   UNL     1       6.122  -2.743   7.267  1.00  0.00     0.037 C 
BRANCH  32  33
ATOM     33  C   UNL     1       5.438  -1.508   6.664  1.00  0.00     0.026 C 
BRANCH  33  34
ATOM     34  C   UNL     1       6.031  -0.198   7.184  1.00  0.00     0.146 C 
BRANCH  34  35
ATOM     35  N   UNL     1       7.277  -0.490   7.880  1.00  0.00    -0.254 NA
ATOM     36  C   UNL     1       7.735   0.373   8.708  1.00  0.00     0.185 C 
ATOM     37  N   UNL     1       8.879   0.112   9.359  1.00  0.00    -0.370 N 
ATOM     38  N   UNL     1       7.223   1.568   9.052  1.00  0.00    -0.370 N 
ATOM     39  H   UNL     1       9.322  -0.777   9.161  1.00  0.00     0.159 HD
ATOM     40  H   UNL     1       9.209   0.649  10.142  1.00  0.00     0.159 HD
ATOM     41  H   UNL     1       7.750   2.218   9.612  1.00  0.00     0.159 HD
ATOM     42  H   UNL     1       6.372   1.902   8.629  1.00  0.00     0.159 HD
ENDBRANCH  34  35
ENDBRANCH  33  34
ENDBRANCH  32  33
ENDBRANCH   6  32
ENDBRANCH   4   6
ENDBRANCH   1   2
BRANCH   1  43
ATOM     43  C   UNL     1       8.927  -6.033   5.008  1.00  0.00     0.102 C 
ATOM     44  C   UNL     1      10.301  -5.969   5.696  1.00  0.00     0.020 C 
BRANCH  43  45
ATOM     45  C   UNL     1       8.838  -7.080   3.894  1.00  0.00     0.225 C 
ATOM     46  O   UNL     1       9.070  -8.272   4.073  1.00  0.00    -0.275 OA
ATOM     47  N   UNL     1       8.567  -6.587   2.638  1.00  0.00    -0.342 N 
ATOM     48  H   UNL     1       8.232  -5.639   2.534  1.00  0.00     0.164 HD
BRANCH  47  49
ATOM     49  C   UNL     1       8.417  -7.475   1.482  1.00  0.00     0.192 C 
BRANCH  49  50
ATOM     50  C   UNL     1       9.724  -7.506   0.684  1.00  0.00     0.047 C 
BRANCH  50  51
ATOM     51  C   UNL     1      10.491  -8.822   0.874  1.00  0.00     0.103 C 
BRANCH  51  52
ATOM     52  C   UNL     1       9.942  -9.939  -0.011  1.00  0.00     0.226 C 
ATOM     53  O   UNL     1       9.073  -9.683  -0.848  1.00  0.00    -0.275 OA
BRANCH  52  54
ATOM     54  N   UNL     1      10.533 -11.207   0.140  1.00  0.00    -0.311 N 
ATOM     55  C   UNL     1      11.369 -11.783  -0.922  1.00  0.00     0.153 C 
BRANCH  54  56
ATOM     56  C   UNL     1      10.353 -11.964   1.309  1.00  0.00     0.102 C 
ATOM     57  C   UNL     1      11.346 -12.491   2.044  1.00  0.00     0.043 C 
BRANCH  56  58
ATOM     58  C   UNL     1       8.971 -12.211   1.868  1.00  0.00     0.268 C 
ATOM     59  O   UNL     1       8.228 -13.089   1.452  1.00  0.00    -0.268 OA
ATOM     60  N   UNL     1       8.664 -11.393   2.929  1.00  0.00    -0.339 N 
ATOM     61  H   UNL     1       9.331 -10.682   3.206  1.00  0.00     0.164 HD
BRANCH  60  62
ATOM     62  C   UNL     1       7.402 -11.505   3.659  1.00  0.00     0.168 CG0
ATOM     63  C   UNL     1       6.460 -10.362   3.300  1.00  0.00     0.041 C 
ATOM     64  G   UNL     1       7.682 -11.525   5.176  1.00  0.00     0.000 G0
ENDBRANCH  60  62
ENDBRANCH  56  58
ENDBRANCH  54  56
ENDBRANCH  52  54
ENDBRANCH  51  52
ENDBRANCH  50  51
ENDBRANCH  49  50
BRANCH  49  65
ATOM     65  C   UNL     1       7.271  -7.023   0.564  1.00  0.00     0.326 C 
ATOM     66  O   UNL     1       6.908  -5.868   0.398  1.00  0.00    -0.250 OA
BRANCH  65  67
ATOM     67  O   UNL     1       6.606  -8.029  -0.045  1.00  0.00    -0.480 OA
ATOM     68  H   UNL     1       7.321  -8.580  -0.430  1.00  0.00     0.296 HD
ENDBRANCH  65  67
ENDBRANCH  49  65
ENDBRANCH  47  49
ENDBRANCH  43  45
ENDBRANCH   1  43
BRANCH   1  69
ATOM     69  C   UNL     1       9.421  -3.531   4.298  1.00  0.00    -0.001 C 
ATOM     70  C   UNL     1      10.241  -3.364   3.245  1.00  0.00     0.001 C 
BRANCH  70  71
ATOM     71  C   UNL     1      11.192  -2.270   3.036  1.00  0.00    -0.055 C 
ATOM     72  C   UNL     1      11.091  -1.189   3.838  1.00  0.00    -0.018 C 
ATOM     73  C   UNL     1      12.219  -2.431   1.946  1.00  0.00     0.044 C 
BRANCH  72  74
ATOM     74  C   UNL     1      11.932   0.080   3.854  1.00  0.00     0.038 C 
ATOM     75  C   UNL     1      13.167  -0.206   4.717  1.00  0.00     0.015 C 
BRANCH  74  76
ATOM     76  C   UNL     1      11.047   1.261   4.351  1.00  0.00     0.128 C 
BRANCH  76  77
ATOM     77  O   UNL     1      10.635   2.069   3.236  1.00  0.00    -0.381 OA
ATOM     78  C   UNL     1      11.193   1.657   1.996  1.00  0.00     0.195 C 
ENDBRANCH  76  77
BRANCH  76  79
ATOM     79  C   UNL     1       9.860   0.824   5.246  1.00  0.00     0.068 C 
BRANCH  79  80
ATOM     80  C   UNL     1       8.463   1.155   4.779  1.00  0.00    -0.045 A 
ATOM     81  C   UNL     1       7.784   0.320   3.882  1.00  0.00     0.004 A 
ATOM     82  C   UNL     1       7.830   2.329   5.217  1.00  0.00     0.004 A 
ATOM     83  C   UNL     1       6.498   0.641   3.443  1.00  0.00     0.000 A 
ATOM     84  C   UNL     1       6.544   2.649   4.777  1.00  0.00     0.000 A 
ATOM     85  C   UNL     1       5.878   1.805   3.892  1.00  0.00     0.000 A 
ENDBRANCH  79  80
ENDBRANCH  76  79
ENDBRANCH  74  76
ENDBRANCH  72  74
ENDBRANCH  70  71
ENDBRANCH   1  69
TORSDOF 17
ENDMDL
MODEL 44
REMARK VINA RESULT:    -5.128      2.285     11.159
REMARK INTER + INTRA:         -23.640
REMARK INTER:                 -14.978
REMARK INTRA:                  -8.662
REMARK UNBOUND:                -8.320
REMARK SMILES C=C1C(=O)N[C@H](C)C(=O)N[C@@H](CC(C)C)C(=O)N[C@@H](C(=O)O)[C@H](C)C(=O)N[C@@H](CCCN=C(N)N)C(=O)N[C@@H](/C=C/C(C)=C/[C@H](C)[C@H](Cc2ccccc2)OC)[C@H](C)C(=O)N[C@@H](C(=O)O)CCC(=O)N1C
REMARK SMILES IDX 39 1 38 2 37 3 36 4 28 6 27 7 25 8 26 9 23 11 24 12 19 13
REMARK SMILES IDX 18 14 16 15 17 16 11 18 10 19 8 20 9 21 12 24 13 25 14 26
REMARK SMILES IDX 15 27 20 28 21 29 22 30 29 32 30 33 31 34 32 35 33 36 34 37
REMARK SMILES IDX 35 38 57 43 58 44 59 45 60 46 61 47 62 49 66 50 67 51 68 52
REMARK SMILES IDX 69 53 70 54 71 55 2 56 1 57 3 58 4 59 5 60 6 62 7 63 63 65
REMARK SMILES IDX 64 66 65 67 40 69 41 70 42 71 44 72 43 73 45 74 46 75 47 76
REMARK SMILES IDX 55 77 56 78 48 79 49 80 50 81 54 82 51 83 53 84 52 85
REMARK H PARENT 38 5 27 10 18 17 10 22 22 31 34 39 34 40 35 41 35 42 61 48
REMARK H PARENT 5 61 65 68
REMARK Flexibility Score:  369.900
ROOT
ATOM      1  C   UNL     1      -2.131  -7.991   1.663  1.00  0.00     0.117 C 
ENDROOT
BRANCH   1   2
ATOM      2  N   UNL     1      -1.581  -9.337   1.501  1.00  0.00    -0.347 N 
ATOM      3  O   UNL     1      -1.616  -9.417  -0.793  1.00  0.00    -0.273 OA
ATOM      4  C   UNL     1      -1.281  -9.909   0.280  1.00  0.00     0.243 C 
ATOM      5  H   UNL     1      -1.353  -9.879   2.321  1.00  0.00     0.164 HD
BRANCH   4   6
ATOM      6  C   UNL     1      -0.628 -11.310   0.391  1.00  0.00     0.171 C 
BRANCH   6   7
ATOM      7  N   UNL     1      -0.286 -11.609   1.791  1.00  0.00    -0.344 N 
ATOM      8  C   UNL     1       1.017 -11.869   2.157  1.00  0.00     0.226 C 
ATOM      9  O   UNL     1       1.937 -11.888   1.349  1.00  0.00    -0.275 OA
ATOM     10  H   UNL     1      -1.030 -11.669   2.476  1.00  0.00     0.164 HD
BRANCH   8  11
ATOM     11  C   UNL     1       1.214 -12.104   3.644  1.00  0.00     0.109 C 
ATOM     12  C   UNL     1       2.706 -12.154   3.975  1.00  0.00     0.021 C 
BRANCH  11  13
ATOM     13  C   UNL     1       0.406 -11.067   4.448  1.00  0.00     0.204 C 
BRANCH  13  14
ATOM     14  N   UNL     1      -0.048 -11.599   5.736  1.00  0.00    -0.340 N 
ATOM     15  C   UNL     1      -1.287 -12.176   5.912  1.00  0.00     0.243 C 
ATOM     16  O   UNL     1      -2.077 -12.341   4.984  1.00  0.00    -0.273 OA
ATOM     17  H   UNL     1       0.491 -11.359   6.572  1.00  0.00     0.164 HD
BRANCH  15  18
ATOM     18  C   UNL     1      -1.626 -12.473   7.394  1.00  0.00     0.171 C 
BRANCH  18  19
ATOM     19  N   UNL     1      -0.620 -11.785   8.200  1.00  0.00    -0.343 N 
ATOM     20  C   UNL     1      -0.032 -12.383   9.298  1.00  0.00     0.242 CG0
ATOM     21  O   UNL     1      -0.421 -13.466   9.726  1.00  0.00    -0.273 OA
ATOM     22  H   UNL     1      -0.347 -10.840   7.954  1.00  0.00     0.164 HD
ATOM     23  G   UNL     1       1.063 -11.533   9.975  1.00  0.00     0.000 G0
ENDBRANCH  18  19
BRANCH  18  24
ATOM     24  C   UNL     1      -3.043 -11.993   7.732  1.00  0.00     0.038 C 
BRANCH  24  25
ATOM     25  C   UNL     1      -4.056 -13.122   8.017  1.00  0.00    -0.015 C 
ATOM     26  C   UNL     1      -4.729 -12.973   9.382  1.00  0.00     0.007 C 
ATOM     27  C   UNL     1      -3.351 -14.478   7.936  1.00  0.00     0.007 C 
ENDBRANCH  24  25
ENDBRANCH  18  24
ENDBRANCH  15  18
ENDBRANCH  13  14
BRANCH  13  28
ATOM     28  C   UNL     1       1.191  -9.784   4.738  1.00  0.00     0.327 C 
ATOM     29  O   UNL     1       1.704  -9.047   3.910  1.00  0.00    -0.250 OA
BRANCH  28  30
ATOM     30  O   UNL     1       1.384  -9.569   6.055  1.00  0.00    -0.480 OA
ATOM     31  H   UNL     1       0.545  -9.856   6.472  1.00  0.00     0.296 HD
ENDBRANCH  28  30
ENDBRANCH  13  28
ENDBRANCH  11  13
ENDBRANCH   8  11
ENDBRANCH   6   7
BRANCH   6  32
ATOM     32  C   UNL     1      -1.591 -12.360  -0.173  1.00  0.00     0.037 C 
BRANCH  32  33
ATOM     33  C   UNL     1      -1.818 -13.523   0.804  1.00  0.00     0.026 C 
BRANCH  33  34
ATOM     34  C   UNL     1      -3.140 -13.399   1.563  1.00  0.00     0.146 C 
BRANCH  34  35
ATOM     35  N   UNL     1      -3.883 -12.266   1.031  1.00  0.00    -0.254 NA
ATOM     36  C   UNL     1      -4.498 -11.495   1.849  1.00  0.00     0.185 C 
ATOM     37  N   UNL     1      -5.182 -10.445   1.370  1.00  0.00    -0.370 N 
ATOM     38  N   UNL     1      -4.571 -11.573   3.190  1.00  0.00    -0.370 N 
ATOM     39  H   UNL     1      -5.166 -10.312   0.367  1.00  0.00     0.159 HD
ATOM     40  H   UNL     1      -5.540  -9.704   1.948  1.00  0.00     0.159 HD
ATOM     41  H   UNL     1      -5.202 -10.987   3.712  1.00  0.00     0.159 HD
ATOM     42  H   UNL     1      -4.116 -12.324   3.685  1.00  0.00     0.159 HD
ENDBRANCH  34  35
ENDBRANCH  33  34
ENDBRANCH  32  33
ENDBRANCH   6  32
ENDBRANCH   4   6
ENDBRANCH   1   2
BRANCH   1  43
ATOM     43  C   UNL     1      -1.011  -6.957   1.349  1.00  0.00     0.102 C 
ATOM     44  C   UNL     1      -0.377  -6.341   2.608  1.00  0.00     0.020 C 
BRANCH  43  45
ATOM     45  C   UNL     1      -1.487  -5.924   0.324  1.00  0.00     0.225 C 
ATOM     46  O   UNL     1      -1.447  -4.713   0.524  1.00  0.00    -0.275 OA
ATOM     47  N   UNL     1      -2.059  -6.440  -0.816  1.00  0.00    -0.342 N 
ATOM     48  H   UNL     1      -1.948  -7.421  -1.032  1.00  0.00     0.164 HD
BRANCH  47  49
ATOM     49  C   UNL     1      -2.528  -5.571  -1.900  1.00  0.00     0.192 C 
BRANCH  49  50
ATOM     50  C   UNL     1      -3.871  -6.083  -2.426  1.00  0.00     0.047 C 
BRANCH  50  51
ATOM     51  C   UNL     1      -3.985  -7.611  -2.339  1.00  0.00     0.103 C 
BRANCH  51  52
ATOM     52  C   UNL     1      -3.728  -8.283  -3.686  1.00  0.00     0.226 C 
ATOM     53  O   UNL     1      -2.570  -8.461  -4.068  1.00  0.00    -0.275 OA
BRANCH  52  54
ATOM     54  N   UNL     1      -4.861  -8.734  -4.388  1.00  0.00    -0.311 N 
ATOM     55  C   UNL     1      -6.177  -8.799  -3.738  1.00  0.00     0.153 C 
BRANCH  54  56
ATOM     56  C   UNL     1      -4.779  -9.133  -5.733  1.00  0.00     0.102 C 
ATOM     57  C   UNL     1      -4.739 -10.407  -6.155  1.00  0.00     0.043 C 
BRANCH  56  58
ATOM     58  C   UNL     1      -4.777  -8.111  -6.845  1.00  0.00     0.268 C 
ATOM     59  O   UNL     1      -5.415  -7.069  -6.798  1.00  0.00    -0.268 OA
ATOM     60  N   UNL     1      -3.935  -8.443  -7.881  1.00  0.00    -0.339 N 
ATOM     61  H   UNL     1      -3.449  -9.331  -7.848  1.00  0.00     0.164 HD
BRANCH  60  62
ATOM     62  C   UNL     1      -3.733  -7.564  -9.032  1.00  0.00     0.168 CG0
ATOM     63  C   UNL     1      -2.476  -6.719  -8.861  1.00  0.00     0.041 C 
ATOM     64  G   UNL     1      -4.973  -6.665  -9.220  1.00  0.00     0.000 G0
ENDBRANCH  60  62
ENDBRANCH  56  58
ENDBRANCH  54  56
ENDBRANCH  52  54
ENDBRANCH  51  52
ENDBRANCH  50  51
ENDBRANCH  49  50
BRANCH  49  65
ATOM     65  C   UNL     1      -1.517  -5.512  -3.056  1.00  0.00     0.326 C 
ATOM     66  O   UNL     1      -0.304  -5.617  -2.946  1.00  0.00    -0.250 OA
BRANCH  65  67
ATOM     67  O   UNL     1      -2.062  -5.267  -4.268  1.00  0.00    -0.480 OA
ATOM     68  H   UNL     1      -1.810  -4.336  -4.451  1.00  0.00     0.296 HD
ENDBRANCH  65  67
ENDBRANCH  49  65
ENDBRANCH  47  49
ENDBRANCH  43  45
ENDBRANCH   1  43
BRANCH   1  69
ATOM     69  C   UNL     1      -2.792  -7.964   3.028  1.00  0.00    -0.001 C 
ATOM     70  C   UNL     1      -2.551  -8.780   4.069  1.00  0.00     0.001 C 
BRANCH  70  71
ATOM     71  C   UNL     1      -3.181  -8.731   5.390  1.00  0.00    -0.055 C 
ATOM     72  C   UNL     1      -4.528  -8.797   5.446  1.00  0.00    -0.018 C 
ATOM     73  C   UNL     1      -2.281  -8.618   6.593  1.00  0.00     0.044 C 
BRANCH  72  74
ATOM     74  C   UNL     1      -5.443  -8.772   6.662  1.00  0.00     0.038 C 
ATOM     75  C   UNL     1      -5.966 -10.199   6.865  1.00  0.00     0.015 C 
BRANCH  74  76
ATOM     76  C   UNL     1      -6.548  -7.698   6.435  1.00  0.00     0.128 C 
BRANCH  76  77
ATOM     77  O   UNL     1      -6.337  -6.582   7.316  1.00  0.00    -0.381 OA
ATOM     78  C   UNL     1      -5.162  -6.694   8.107  1.00  0.00     0.195 C 
ENDBRANCH  76  77
BRANCH  76  79
ATOM     79  C   UNL     1      -6.715  -7.271   4.955  1.00  0.00     0.068 C 
BRANCH  79  80
ATOM     80  C   UNL     1      -6.417  -5.835   4.596  1.00  0.00    -0.045 A 
ATOM     81  C   UNL     1      -7.396  -4.841   4.724  1.00  0.00     0.004 A 
ATOM     82  C   UNL     1      -5.155  -5.478   4.098  1.00  0.00     0.004 A 
ATOM     83  C   UNL     1      -7.117  -3.517   4.377  1.00  0.00     0.000 A 
ATOM     84  C   UNL     1      -4.877  -4.154   3.750  1.00  0.00     0.000 A 
ATOM     85  C   UNL     1      -5.857  -3.174   3.891  1.00  0.00     0.000 A 
ENDBRANCH  79  80
ENDBRANCH  76  79
ENDBRANCH  74  76
ENDBRANCH  72  74
ENDBRANCH  70  71
ENDBRANCH   1  69
TORSDOF 17
ENDMDL
MODEL 45
REMARK VINA RESULT:    -5.016      3.858      5.142
REMARK INTER + INTRA:         -23.305
REMARK INTER:                 -16.315
REMARK INTRA:                  -6.990
REMARK UNBOUND:                -8.320
REMARK SMILES C=C1C(=O)N[C@H](C)C(=O)N[C@@H](CC(C)C)C(=O)N[C@@H](C(=O)O)[C@H](C)C(=O)N[C@@H](CCCN=C(N)N)C(=O)N[C@@H](/C=C/C(C)=C/[C@H](C)[C@H](Cc2ccccc2)OC)[C@H](C)C(=O)N[C@@H](C(=O)O)CCC(=O)N1C
REMARK SMILES IDX 39 1 38 2 37 3 36 4 28 6 27 7 25 8 26 9 23 11 24 12 19 13
REMARK SMILES IDX 18 14 16 15 17 16 11 18 10 19 8 20 9 21 12 24 13 25 14 26
REMARK SMILES IDX 15 27 20 28 21 29 22 30 29 32 30 33 31 34 32 35 33 36 34 37
REMARK SMILES IDX 35 38 57 43 58 44 59 45 60 46 61 47 62 49 66 50 67 51 68 52
REMARK SMILES IDX 69 53 70 54 71 55 2 56 1 57 3 58 4 59 5 60 6 62 7 63 63 65
REMARK SMILES IDX 64 66 65 67 40 69 41 70 42 71 44 72 43 73 45 74 46 75 47 76
REMARK SMILES IDX 55 77 56 78 48 79 49 80 50 81 54 82 51 83 53 84 52 85
REMARK H PARENT 38 5 27 10 18 17 10 22 22 31 34 39 34 40 35 41 35 42 61 48
REMARK H PARENT 5 61 65 68
REMARK Flexibility Score:  369.900
ROOT
ATOM      1  C   UNL     1       1.007  -9.242   1.948  1.00  0.00     0.117 C 
ENDROOT
BRANCH   1   2
ATOM      2  N   UNL     1       0.561  -8.827   0.618  1.00  0.00    -0.347 N 
ATOM      3  O   UNL     1      -1.689  -9.166   0.922  1.00  0.00    -0.273 OA
ATOM      4  C   UNL     1      -0.765  -8.735   0.240  1.00  0.00     0.243 C 
ATOM      5  H   UNL     1       1.245  -8.539  -0.066  1.00  0.00     0.164 HD
BRANCH   4   6
ATOM      6  C   UNL     1      -0.968  -8.188  -1.195  1.00  0.00     0.171 C 
BRANCH   6   7
ATOM      7  N   UNL     1      -2.392  -8.229  -1.565  1.00  0.00    -0.344 N 
ATOM      8  C   UNL     1      -2.848  -9.125  -2.507  1.00  0.00     0.226 C 
ATOM      9  O   UNL     1      -2.104  -9.903  -3.092  1.00  0.00    -0.275 OA
ATOM     10  H   UNL     1      -3.026  -7.555  -1.152  1.00  0.00     0.164 HD
BRANCH   8  11
ATOM     11  C   UNL     1      -4.348  -9.081  -2.738  1.00  0.00     0.109 C 
ATOM     12  C   UNL     1      -5.082  -8.955  -1.403  1.00  0.00     0.021 C 
BRANCH  11  13
ATOM     13  C   UNL     1      -4.685  -7.985  -3.769  1.00  0.00     0.204 C 
BRANCH  13  14
ATOM     14  N   UNL     1      -5.357  -8.530  -4.953  1.00  0.00    -0.340 N 
ATOM     15  C   UNL     1      -4.671  -9.024  -6.041  1.00  0.00     0.243 C 
ATOM     16  O   UNL     1      -3.444  -9.100  -6.070  1.00  0.00    -0.273 OA
ATOM     17  H   UNL     1      -6.361  -8.359  -5.057  1.00  0.00     0.164 HD
BRANCH  15  18
ATOM     18  C   UNL     1      -5.581  -9.349  -7.251  1.00  0.00     0.171 C 
BRANCH  18  19
ATOM     19  N   UNL     1      -6.752 -10.045  -6.719  1.00  0.00    -0.343 N 
ATOM     20  C   UNL     1      -7.038 -11.353  -7.057  1.00  0.00     0.242 CG0
ATOM     21  O   UNL     1      -6.399 -11.949  -7.922  1.00  0.00    -0.273 OA
ATOM     22  H   UNL     1      -7.377  -9.556  -6.088  1.00  0.00     0.164 HD
ATOM     23  G   UNL     1      -8.268 -11.943  -6.337  1.00  0.00     0.000 G0
ENDBRANCH  18  19
BRANCH  18  24
ATOM     24  C   UNL     1      -5.978  -8.066  -7.990  1.00  0.00     0.038 C 
BRANCH  24  25
ATOM     25  C   UNL     1      -5.269  -7.857  -9.345  1.00  0.00    -0.015 C 
ATOM     26  C   UNL     1      -4.958  -9.176 -10.052  1.00  0.00     0.007 C 
ATOM     27  C   UNL     1      -3.975  -7.068  -9.132  1.00  0.00     0.007 C 
ENDBRANCH  24  25
ENDBRANCH  18  24
ENDBRANCH  15  18
ENDBRANCH  13  14
BRANCH  13  28
ATOM     28  C   UNL     1      -5.585  -6.881  -3.204  1.00  0.00     0.327 C 
ATOM     29  O   UNL     1      -5.231  -5.956  -2.490  1.00  0.00    -0.250 OA
BRANCH  28  30
ATOM     30  O   UNL     1      -6.892  -7.075  -3.473  1.00  0.00    -0.480 OA
ATOM     31  H   UNL     1      -7.080  -7.971  -3.125  1.00  0.00     0.296 HD
ENDBRANCH  28  30
ENDBRANCH  13  28
ENDBRANCH  11  13
ENDBRANCH   8  11
ENDBRANCH   6   7
BRANCH   6  32
ATOM     32  C   UNL     1      -0.424  -6.756  -1.270  1.00  0.00     0.037 C 
BRANCH  32  33
ATOM     33  C   UNL     1      -1.494  -5.753  -1.723  1.00  0.00     0.026 C 
BRANCH  33  34
ATOM     34  C   UNL     1      -1.377  -5.402  -3.206  1.00  0.00     0.146 C 
BRANCH  34  35
ATOM     35  N   UNL     1      -0.739  -6.511  -3.902  1.00  0.00    -0.254 NA
ATOM     36  C   UNL     1      -1.183  -6.850  -5.055  1.00  0.00     0.185 C 
ATOM     37  N   UNL     1      -0.600  -7.867  -5.708  1.00  0.00    -0.370 N 
ATOM     38  N   UNL     1      -2.199  -6.319  -5.758  1.00  0.00    -0.370 N 
ATOM     39  H   UNL     1       0.182  -8.314  -5.246  1.00  0.00     0.159 HD
ATOM     40  H   UNL     1      -0.772  -8.079  -6.675  1.00  0.00     0.159 HD
ATOM     41  H   UNL     1      -2.543  -6.764  -6.594  1.00  0.00     0.159 HD
ATOM     42  H   UNL     1      -2.740  -5.556  -5.382  1.00  0.00     0.159 HD
ENDBRANCH  34  35
ENDBRANCH  33  34
ENDBRANCH  32  33
ENDBRANCH   6  32
ENDBRANCH   4   6
ENDBRANCH   1   2
BRANCH   1  43
ATOM     43  C   UNL     1       0.957 -10.795   2.025  1.00  0.00     0.102 C 
ATOM     44  C   UNL     1       0.076 -11.322   3.171  1.00  0.00     0.020 C 
BRANCH  43  45
ATOM     45  C   UNL     1       2.366 -11.393   1.999  1.00  0.00     0.225 C 
ATOM     46  O   UNL     1       2.606 -12.528   1.597  1.00  0.00    -0.275 OA
ATOM     47  N   UNL     1       3.354 -10.607   2.547  1.00  0.00    -0.342 N 
ATOM     48  H   UNL     1       3.172  -9.631   2.731  1.00  0.00     0.164 HD
BRANCH  47  49
ATOM     49  C   UNL     1       4.756 -11.035   2.558  1.00  0.00     0.192 C 
BRANCH  49  50
ATOM     50  C   UNL     1       5.405 -10.634   3.885  1.00  0.00     0.047 C 
BRANCH  50  51
ATOM     51  C   UNL     1       4.420 -10.702   5.060  1.00  0.00     0.103 C 
BRANCH  51  52
ATOM     52  C   UNL     1       4.454 -12.058   5.761  1.00  0.00     0.226 C 
ATOM     53  O   UNL     1       5.433 -12.794   5.617  1.00  0.00    -0.275 OA
BRANCH  52  54
ATOM     54  N   UNL     1       3.370 -12.355   6.607  1.00  0.00    -0.311 N 
ATOM     55  C   UNL     1       2.023 -12.573   6.062  1.00  0.00     0.153 C 
BRANCH  54  56
ATOM     56  C   UNL     1       3.533 -12.458   7.998  1.00  0.00     0.102 C 
ATOM     57  C   UNL     1       3.707 -13.608   8.668  1.00  0.00     0.043 C 
BRANCH  56  58
ATOM     58  C   UNL     1       3.570 -11.223   8.868  1.00  0.00     0.268 C 
ATOM     59  O   UNL     1       3.601 -10.086   8.415  1.00  0.00    -0.268 OA
ATOM     60  N   UNL     1       3.499 -11.506  10.211  1.00  0.00    -0.339 N 
ATOM     61  H   UNL     1       3.487 -12.475  10.505  1.00  0.00     0.164 HD
BRANCH  60  62
ATOM     62  C   UNL     1       3.458 -10.455  11.227  1.00  0.00     0.168 CG0
ATOM     63  C   UNL     1       2.021 -10.074  11.561  1.00  0.00     0.041 C 
ATOM     64  G   UNL     1       4.248  -9.226  10.732  1.00  0.00     0.000 G0
ENDBRANCH  60  62
ENDBRANCH  56  58
ENDBRANCH  54  56
ENDBRANCH  52  54
ENDBRANCH  51  52
ENDBRANCH  50  51
ENDBRANCH  49  50
BRANCH  49  65
ATOM     65  C   UNL     1       5.547 -10.415   1.396  1.00  0.00     0.326 C 
ATOM     66  O   UNL     1       6.087  -9.319   1.410  1.00  0.00    -0.250 OA
BRANCH  65  67
ATOM     67  O   UNL     1       5.572 -11.160   0.270  1.00  0.00    -0.480 OA
ATOM     68  H   UNL     1       6.159 -11.912   0.502  1.00  0.00     0.296 HD
ENDBRANCH  65  67
ENDBRANCH  49  65
ENDBRANCH  47  49
ENDBRANCH  43  45
ENDBRANCH   1  43
BRANCH   1  69
ATOM     69  C   UNL     1       0.193  -8.431   2.940  1.00  0.00    -0.001 C 
ATOM     70  C   UNL     1       0.592  -7.351   3.635  1.00  0.00     0.001 C 
BRANCH  70  71
ATOM     71  C   UNL     1      -0.209  -6.564   4.574  1.00  0.00    -0.055 C 
ATOM     72  C   UNL     1      -1.233  -7.184   5.199  1.00  0.00    -0.018 C 
ATOM     73  C   UNL     1       0.170  -5.121   4.783  1.00  0.00     0.044 C 
BRANCH  72  74
ATOM     74  C   UNL     1      -2.220  -6.627   6.214  1.00  0.00     0.038 C 
ATOM     75  C   UNL     1      -1.784  -7.132   7.594  1.00  0.00     0.015 C 
BRANCH  74  76
ATOM     76  C   UNL     1      -3.660  -7.043   5.792  1.00  0.00     0.128 C 
BRANCH  76  77
ATOM     77  O   UNL     1      -4.416  -7.437   6.949  1.00  0.00    -0.381 OA
ATOM     78  C   UNL     1      -5.615  -6.695   7.128  1.00  0.00     0.195 C 
ENDBRANCH  76  77
BRANCH  76  79
ATOM     79  C   UNL     1      -4.394  -5.985   4.929  1.00  0.00     0.068 C 
BRANCH  79  80
ATOM     80  C   UNL     1      -3.617  -5.313   3.822  1.00  0.00    -0.045 A 
ATOM     81  C   UNL     1      -3.242  -3.967   3.918  1.00  0.00     0.004 A 
ATOM     82  C   UNL     1      -3.281  -6.026   2.661  1.00  0.00     0.004 A 
ATOM     83  C   UNL     1      -2.535  -3.349   2.883  1.00  0.00     0.000 A 
ATOM     84  C   UNL     1      -2.575  -5.407   1.627  1.00  0.00     0.000 A 
ATOM     85  C   UNL     1      -2.201  -4.070   1.739  1.00  0.00     0.000 A 
ENDBRANCH  79  80
ENDBRANCH  76  79
ENDBRANCH  74  76
ENDBRANCH  72  74
ENDBRANCH  70  71
ENDBRANCH   1  69
TORSDOF 17
ENDMDL
MODEL 46
REMARK VINA RESULT:    -5.008      5.731     13.464
REMARK INTER + INTRA:         -23.281
REMARK INTER:                 -17.167
REMARK INTRA:                  -6.113
REMARK UNBOUND:                -8.320
REMARK SMILES C=C1C(=O)N[C@H](C)C(=O)N[C@@H](CC(C)C)C(=O)N[C@@H](C(=O)O)[C@H](C)C(=O)N[C@@H](CCCN=C(N)N)C(=O)N[C@@H](/C=C/C(C)=C/[C@H](C)[C@H](Cc2ccccc2)OC)[C@H](C)C(=O)N[C@@H](C(=O)O)CCC(=O)N1C
REMARK SMILES IDX 39 1 38 2 37 3 36 4 28 6 27 7 25 8 26 9 23 11 24 12 19 13
REMARK SMILES IDX 18 14 16 15 17 16 11 18 10 19 8 20 9 21 12 24 13 25 14 26
REMARK SMILES IDX 15 27 20 28 21 29 22 30 29 32 30 33 31 34 32 35 33 36 34 37
REMARK SMILES IDX 35 38 57 43 58 44 59 45 60 46 61 47 62 49 66 50 67 51 68 52
REMARK SMILES IDX 69 53 70 54 71 55 2 56 1 57 3 58 4 59 5 60 6 62 7 63 63 65
REMARK SMILES IDX 64 66 65 67 40 69 41 70 42 71 44 72 43 73 45 74 46 75 47 76
REMARK SMILES IDX 55 77 56 78 48 79 49 80 50 81 54 82 51 83 53 84 52 85
REMARK H PARENT 38 5 27 10 18 17 10 22 22 31 34 39 34 40 35 41 35 42 61 48
REMARK H PARENT 5 61 65 68
REMARK Flexibility Score:  369.900
ROOT
ATOM      1  C   UNL     1      -2.728  -7.777   5.991  1.00  0.00     0.117 C 
ENDROOT
BRANCH   1   2
ATOM      2  N   UNL     1      -1.788  -8.861   6.280  1.00  0.00    -0.347 N 
ATOM      3  O   UNL     1      -0.979  -8.051   8.270  1.00  0.00    -0.273 OA
ATOM      4  C   UNL     1      -1.053  -8.957   7.446  1.00  0.00     0.243 C 
ATOM      5  H   UNL     1      -1.693  -9.620   5.623  1.00  0.00     0.164 HD
BRANCH   4   6
ATOM      6  C   UNL     1      -0.199 -10.247   7.540  1.00  0.00     0.171 C 
BRANCH   6   7
ATOM      7  N   UNL     1       0.374 -10.387   8.888  1.00  0.00    -0.344 N 
ATOM      8  C   UNL     1       1.731 -10.552   9.061  1.00  0.00     0.226 C 
ATOM      9  O   UNL     1       2.514 -10.611   8.120  1.00  0.00    -0.275 OA
ATOM     10  H   UNL     1      -0.248 -10.410   9.686  1.00  0.00     0.164 HD
BRANCH   8  11
ATOM     11  C   UNL     1       2.173 -10.627  10.512  1.00  0.00     0.109 C 
ATOM     12  C   UNL     1       1.647 -11.909  11.156  1.00  0.00     0.021 C 
BRANCH  11  13
ATOM     13  C   UNL     1       3.700 -10.434  10.603  1.00  0.00     0.204 C 
BRANCH  13  14
ATOM     14  N   UNL     1       4.058  -9.155  11.222  1.00  0.00    -0.340 N 
ATOM     15  C   UNL     1       5.229  -8.487  10.935  1.00  0.00     0.243 C 
ATOM     16  O   UNL     1       6.029  -8.888  10.092  1.00  0.00    -0.273 OA
ATOM     17  H   UNL     1       3.518  -8.845  12.034  1.00  0.00     0.164 HD
BRANCH  15  18
ATOM     18  C   UNL     1       5.490  -7.271  11.858  1.00  0.00     0.171 C 
BRANCH  18  19
ATOM     19  N   UNL     1       6.446  -6.413  11.160  1.00  0.00    -0.343 N 
ATOM     20  C   UNL     1       7.246  -5.512  11.837  1.00  0.00     0.242 CG0
ATOM     21  O   UNL     1       7.097  -5.295  13.037  1.00  0.00    -0.273 OA
ATOM     22  H   UNL     1       6.524  -6.473  10.151  1.00  0.00     0.164 HD
ATOM     23  G   UNL     1       8.247  -4.753  10.942  1.00  0.00     0.000 G0
ENDBRANCH  18  19
BRANCH  18  24
ATOM     24  C   UNL     1       4.182  -6.527  12.156  1.00  0.00     0.038 C 
BRANCH  24  25
ATOM     25  C   UNL     1       3.546  -6.865  13.521  1.00  0.00    -0.015 C 
ATOM     26  C   UNL     1       2.033  -7.070  13.428  1.00  0.00     0.007 C 
ATOM     27  C   UNL     1       3.853  -5.750  14.523  1.00  0.00     0.007 C 
ENDBRANCH  24  25
ENDBRANCH  18  24
ENDBRANCH  15  18
ENDBRANCH  13  14
BRANCH  13  28
ATOM     28  C   UNL     1       4.400 -11.537  11.403  1.00  0.00     0.327 C 
ATOM     29  O   UNL     1       4.854 -12.578  10.953  1.00  0.00    -0.250 OA
BRANCH  28  30
ATOM     30  O   UNL     1       4.381 -11.319  12.733  1.00  0.00    -0.480 OA
ATOM     31  H   UNL     1       3.758 -10.572  12.846  1.00  0.00     0.296 HD
ENDBRANCH  28  30
ENDBRANCH  13  28
ENDBRANCH  11  13
ENDBRANCH   8  11
ENDBRANCH   6   7
BRANCH   6  32
ATOM     32  C   UNL     1      -1.073 -11.456   7.188  1.00  0.00     0.037 C 
BRANCH  32  33
ATOM     33  C   UNL     1      -0.236 -12.704   6.874  1.00  0.00     0.026 C 
BRANCH  33  34
ATOM     34  C   UNL     1       0.723 -12.485   5.703  1.00  0.00     0.146 C 
BRANCH  34  35
ATOM     35  N   UNL     1      -0.047 -12.439   4.467  1.00  0.00    -0.254 NA
ATOM     36  C   UNL     1       0.070 -11.413   3.709  1.00  0.00     0.185 C 
ATOM     37  N   UNL     1      -0.631 -11.362   2.566  1.00  0.00    -0.370 N 
ATOM     38  N   UNL     1       0.828 -10.316   3.883  1.00  0.00    -0.370 N 
ATOM     39  H   UNL     1      -1.219 -12.159   2.357  1.00  0.00     0.159 HD
ATOM     40  H   UNL     1      -0.465 -10.684   1.841  1.00  0.00     0.159 HD
ATOM     41  H   UNL     1       0.728  -9.513   3.283  1.00  0.00     0.159 HD
ATOM     42  H   UNL     1       1.396 -10.211   4.709  1.00  0.00     0.159 HD
ENDBRANCH  34  35
ENDBRANCH  33  34
ENDBRANCH  32  33
ENDBRANCH   6  32
ENDBRANCH   4   6
ENDBRANCH   1   2
BRANCH   1  43
ATOM     43  C   UNL     1      -4.133  -8.186   6.518  1.00  0.00     0.102 C 
ATOM     44  C   UNL     1      -4.449  -7.626   7.916  1.00  0.00     0.020 C 
BRANCH  43  45
ATOM     45  C   UNL     1      -4.351  -9.696   6.390  1.00  0.00     0.225 C 
ATOM     46  O   UNL     1      -4.096 -10.326   5.367  1.00  0.00    -0.275 OA
ATOM     47  N   UNL     1      -4.945 -10.303   7.472  1.00  0.00    -0.342 N 
ATOM     48  H   UNL     1      -5.007  -9.809   8.351  1.00  0.00     0.164 HD
BRANCH  47  49
ATOM     49  C   UNL     1      -5.182 -11.750   7.505  1.00  0.00     0.192 C 
BRANCH  49  50
ATOM     50  C   UNL     1      -6.561 -12.058   6.916  1.00  0.00     0.047 C 
BRANCH  50  51
ATOM     51  C   UNL     1      -6.503 -13.154   5.843  1.00  0.00     0.103 C 
BRANCH  51  52
ATOM     52  C   UNL     1      -7.702 -13.096   4.899  1.00  0.00     0.226 C 
ATOM     53  O   UNL     1      -8.843 -13.038   5.363  1.00  0.00    -0.275 OA
BRANCH  52  54
ATOM     54  N   UNL     1      -7.414 -13.035   3.523  1.00  0.00    -0.311 N 
ATOM     55  C   UNL     1      -6.598 -11.947   2.968  1.00  0.00     0.153 C 
BRANCH  54  56
ATOM     56  C   UNL     1      -7.889 -14.012   2.631  1.00  0.00     0.102 C 
ATOM     57  C   UNL     1      -7.243 -15.148   2.321  1.00  0.00     0.043 C 
BRANCH  56  58
ATOM     58  C   UNL     1      -9.237 -13.864   1.966  1.00  0.00     0.268 C 
ATOM     59  O   UNL     1     -10.293 -14.122   2.528  1.00  0.00    -0.268 OA
ATOM     60  N   UNL     1      -9.158 -13.350   0.693  1.00  0.00    -0.339 N 
ATOM     61  H   UNL     1      -8.244 -13.173   0.295  1.00  0.00     0.164 HD
BRANCH  60  62
ATOM     62  C   UNL     1     -10.348 -13.068  -0.108  1.00  0.00     0.168 CG0
ATOM     63  C   UNL     1     -10.075 -13.291  -1.590  1.00  0.00     0.041 C 
ATOM     64  G   UNL     1     -10.814 -11.620   0.150  1.00  0.00     0.000 G0
ENDBRANCH  60  62
ENDBRANCH  56  58
ENDBRANCH  54  56
ENDBRANCH  52  54
ENDBRANCH  51  52
ENDBRANCH  50  51
ENDBRANCH  49  50
BRANCH  49  65
ATOM     65  C   UNL     1      -5.104 -12.304   8.936  1.00  0.00     0.326 C 
ATOM     66  O   UNL     1      -5.396 -13.443   9.274  1.00  0.00    -0.250 OA
BRANCH  65  67
ATOM     67  O   UNL     1      -4.729 -11.403   9.871  1.00  0.00    -0.480 OA
ATOM     68  H   UNL     1      -5.085 -10.555   9.530  1.00  0.00     0.296 HD
ENDBRANCH  65  67
ENDBRANCH  49  65
ENDBRANCH  47  49
ENDBRANCH  43  45
ENDBRANCH   1  43
BRANCH   1  69
ATOM     69  C   UNL     1      -2.562  -7.454   4.517  1.00  0.00    -0.001 C 
ATOM     70  C   UNL     1      -2.137  -8.278   3.543  1.00  0.00     0.001 C 
BRANCH  70  71
ATOM     71  C   UNL     1      -2.002  -7.962   2.120  1.00  0.00    -0.055 C 
ATOM     72  C   UNL     1      -0.784  -7.592   1.672  1.00  0.00    -0.018 C 
ATOM     73  C   UNL     1      -3.230  -8.078   1.255  1.00  0.00     0.044 C 
BRANCH  72  74
ATOM     74  C   UNL     1      -0.349  -7.213   0.263  1.00  0.00     0.038 C 
ATOM     75  C   UNL     1       0.912  -8.025  -0.055  1.00  0.00     0.015 C 
BRANCH  74  76
ATOM     76  C   UNL     1      -0.167  -5.669   0.194  1.00  0.00     0.128 C 
BRANCH  76  77
ATOM     77  O   UNL     1       0.519  -5.309  -1.017  1.00  0.00    -0.381 OA
ATOM     78  C   UNL     1      -0.229  -4.444  -1.862  1.00  0.00     0.195 C 
ENDBRANCH  76  77
BRANCH  76  79
ATOM     79  C   UNL     1      -1.479  -4.870   0.400  1.00  0.00     0.068 C 
BRANCH  79  80
ATOM     80  C   UNL     1      -1.816  -4.413   1.798  1.00  0.00    -0.045 A 
ATOM     81  C   UNL     1      -0.851  -4.421   2.813  1.00  0.00     0.004 A 
ATOM     82  C   UNL     1      -3.119  -3.996   2.111  1.00  0.00     0.004 A 
ATOM     83  C   UNL     1      -1.175  -4.010   4.108  1.00  0.00     0.000 A 
ATOM     84  C   UNL     1      -3.442  -3.586   3.406  1.00  0.00     0.000 A 
ATOM     85  C   UNL     1      -2.470  -3.591   4.404  1.00  0.00     0.000 A 
ENDBRANCH  79  80
ENDBRANCH  76  79
ENDBRANCH  74  76
ENDBRANCH  72  74
ENDBRANCH  70  71
ENDBRANCH   1  69
TORSDOF 17
ENDMDL
MODEL 47
REMARK VINA RESULT:    -5.007      4.104     12.241
REMARK INTER + INTRA:         -23.280
REMARK INTER:                 -17.015
REMARK INTRA:                  -6.265
REMARK UNBOUND:                -8.320
REMARK SMILES C=C1C(=O)N[C@H](C)C(=O)N[C@@H](CC(C)C)C(=O)N[C@@H](C(=O)O)[C@H](C)C(=O)N[C@@H](CCCN=C(N)N)C(=O)N[C@@H](/C=C/C(C)=C/[C@H](C)[C@H](Cc2ccccc2)OC)[C@H](C)C(=O)N[C@@H](C(=O)O)CCC(=O)N1C
REMARK SMILES IDX 39 1 38 2 37 3 36 4 28 6 27 7 25 8 26 9 23 11 24 12 19 13
REMARK SMILES IDX 18 14 16 15 17 16 11 18 10 19 8 20 9 21 12 24 13 25 14 26
REMARK SMILES IDX 15 27 20 28 21 29 22 30 29 32 30 33 31 34 32 35 33 36 34 37
REMARK SMILES IDX 35 38 57 43 58 44 59 45 60 46 61 47 62 49 66 50 67 51 68 52
REMARK SMILES IDX 69 53 70 54 71 55 2 56 1 57 3 58 4 59 5 60 6 62 7 63 63 65
REMARK SMILES IDX 64 66 65 67 40 69 41 70 42 71 44 72 43 73 45 74 46 75 47 76
REMARK SMILES IDX 55 77 56 78 48 79 49 80 50 81 54 82 51 83 53 84 52 85
REMARK H PARENT 38 5 27 10 18 17 10 22 22 31 34 39 34 40 35 41 35 42 61 48
REMARK H PARENT 5 61 65 68
REMARK Flexibility Score:  369.900
ROOT
ATOM      1  C   UNL     1      -4.109  -8.701  -1.963  1.00  0.00     0.117 C 
ENDROOT
BRANCH   1   2
ATOM      2  N   UNL     1      -2.987  -8.390  -1.077  1.00  0.00    -0.347 N 
ATOM      3  O   UNL     1      -3.585  -6.236  -0.557  1.00  0.00    -0.273 OA
ATOM      4  C   UNL     1      -2.863  -7.210  -0.370  1.00  0.00     0.243 C 
ATOM      5  H   UNL     1      -2.274  -9.087  -0.919  1.00  0.00     0.164 HD
BRANCH   4   6
ATOM      6  C   UNL     1      -1.626  -7.168   0.563  1.00  0.00     0.171 C 
BRANCH   6   7
ATOM      7  N   UNL     1      -1.566  -8.384   1.391  1.00  0.00    -0.344 N 
ATOM      8  C   UNL     1      -2.668  -8.802   2.106  1.00  0.00     0.226 C 
ATOM      9  O   UNL     1      -3.726  -8.185   2.109  1.00  0.00    -0.275 OA
ATOM     10  H   UNL     1      -0.689  -8.882   1.468  1.00  0.00     0.164 HD
BRANCH   8  11
ATOM     11  C   UNL     1      -2.463 -10.101   2.866  1.00  0.00     0.109 C 
ATOM     12  C   UNL     1      -1.289 -10.879   2.272  1.00  0.00     0.021 C 
BRANCH  11  13
ATOM     13  C   UNL     1      -2.350  -9.809   4.376  1.00  0.00     0.204 C 
BRANCH  13  14
ATOM     14  N   UNL     1      -2.565  -8.391   4.681  1.00  0.00    -0.340 N 
ATOM     15  C   UNL     1      -1.537  -7.476   4.749  1.00  0.00     0.243 C 
ATOM     16  O   UNL     1      -0.371  -7.774   4.497  1.00  0.00    -0.273 OA
ATOM     17  H   UNL     1      -3.480  -8.112   5.047  1.00  0.00     0.164 HD
BRANCH  15  18
ATOM     18  C   UNL     1      -1.975  -6.093   5.289  1.00  0.00     0.171 C 
BRANCH  18  19
ATOM     19  N   UNL     1      -1.453  -5.990   6.650  1.00  0.00    -0.343 N 
ATOM     20  C   UNL     1      -2.104  -6.564   7.726  1.00  0.00     0.242 CG0
ATOM     21  O   UNL     1      -3.217  -7.071   7.608  1.00  0.00    -0.273 OA
ATOM     22  H   UNL     1      -0.593  -5.481   6.817  1.00  0.00     0.164 HD
ATOM     23  G   UNL     1      -1.363  -6.419   9.070  1.00  0.00     0.000 G0
ENDBRANCH  18  19
BRANCH  18  24
ATOM     24  C   UNL     1      -1.438  -4.968   4.395  1.00  0.00     0.038 C 
BRANCH  24  25
ATOM     25  C   UNL     1      -2.525  -4.130   3.691  1.00  0.00    -0.015 C 
ATOM     26  C   UNL     1      -3.923  -4.727   3.856  1.00  0.00     0.007 C 
ATOM     27  C   UNL     1      -2.192  -4.002   2.202  1.00  0.00     0.007 C 
ENDBRANCH  24  25
ENDBRANCH  18  24
ENDBRANCH  15  18
ENDBRANCH  13  14
BRANCH  13  28
ATOM     28  C   UNL     1      -3.344 -10.611   5.222  1.00  0.00     0.327 C 
ATOM     29  O   UNL     1      -3.612 -10.419   6.398  1.00  0.00    -0.250 OA
BRANCH  28  30
ATOM     30  O   UNL     1      -3.851 -11.679   4.572  1.00  0.00    -0.480 OA
ATOM     31  H   UNL     1      -3.210 -11.849   3.851  1.00  0.00     0.296 HD
ENDBRANCH  28  30
ENDBRANCH  13  28
ENDBRANCH  11  13
ENDBRANCH   8  11
ENDBRANCH   6   7
BRANCH   6  32
ATOM     32  C   UNL     1      -0.359  -7.022  -0.286  1.00  0.00     0.037 C 
BRANCH  32  33
ATOM     33  C   UNL     1       0.120  -5.566  -0.365  1.00  0.00     0.026 C 
BRANCH  33  34
ATOM     34  C   UNL     1      -0.599  -4.771  -1.455  1.00  0.00     0.146 C 
BRANCH  34  35
ATOM     35  N   UNL     1      -0.450  -5.472  -2.723  1.00  0.00    -0.254 NA
ATOM     36  C   UNL     1      -1.480  -5.611  -3.472  1.00  0.00     0.185 C 
ATOM     37  N   UNL     1      -1.354  -6.251  -4.645  1.00  0.00    -0.370 N 
ATOM     38  N   UNL     1      -2.741  -5.195  -3.260  1.00  0.00    -0.370 N 
ATOM     39  H   UNL     1      -0.429  -6.587  -4.882  1.00  0.00     0.159 HD
ATOM     40  H   UNL     1      -2.062  -6.250  -5.358  1.00  0.00     0.159 HD
ATOM     41  H   UNL     1      -3.494  -5.488  -3.861  1.00  0.00     0.159 HD
ATOM     42  H   UNL     1      -2.986  -4.712  -2.410  1.00  0.00     0.159 HD
ENDBRANCH  34  35
ENDBRANCH  33  34
ENDBRANCH  32  33
ENDBRANCH   6  32
ENDBRANCH   4   6
ENDBRANCH   1   2
BRANCH   1  43
ATOM     43  C   UNL     1      -4.932  -9.860  -1.333  1.00  0.00     0.102 C 
ATOM     44  C   UNL     1      -4.066 -10.895  -0.594  1.00  0.00     0.020 C 
BRANCH  43  45
ATOM     45  C   UNL     1      -5.893 -10.473  -2.356  1.00  0.00     0.225 C 
ATOM     46  O   UNL     1      -5.703 -11.563  -2.886  1.00  0.00    -0.275 OA
ATOM     47  N   UNL     1      -6.953  -9.676  -2.723  1.00  0.00    -0.342 N 
ATOM     48  H   UNL     1      -7.178  -8.858  -2.174  1.00  0.00     0.164 HD
BRANCH  47  49
ATOM     49  C   UNL     1      -7.973 -10.144  -3.667  1.00  0.00     0.192 C 
BRANCH  49  50
ATOM     50  C   UNL     1      -8.648 -11.401  -3.112  1.00  0.00     0.047 C 
BRANCH  50  51
ATOM     51  C   UNL     1     -10.146 -11.191  -2.851  1.00  0.00     0.103 C 
BRANCH  51  52
ATOM     52  C   UNL     1     -10.802 -12.429  -2.243  1.00  0.00     0.226 C 
ATOM     53  O   UNL     1     -11.479 -12.320  -1.220  1.00  0.00    -0.275 OA
BRANCH  52  54
ATOM     54  N   UNL     1     -10.646 -13.633  -2.955  1.00  0.00    -0.311 N 
ATOM     55  C   UNL     1      -9.744 -14.686  -2.470  1.00  0.00     0.153 C 
BRANCH  54  56
ATOM     56  C   UNL     1     -11.349 -13.876  -4.146  1.00  0.00     0.102 C 
ATOM     57  C   UNL     1     -12.685 -13.817  -4.276  1.00  0.00     0.043 C 
BRANCH  56  58
ATOM     58  C   UNL     1     -10.615 -14.190  -5.429  1.00  0.00     0.268 C 
ATOM     59  O   UNL     1      -9.761 -13.456  -5.908  1.00  0.00    -0.268 OA
ATOM     60  N   UNL     1     -10.958 -15.409  -5.963  1.00  0.00    -0.339 N 
ATOM     61  H   UNL     1     -11.683 -15.953  -5.511  1.00  0.00     0.164 HD
BRANCH  60  62
ATOM     62  C   UNL     1     -10.322 -15.937  -7.169  1.00  0.00     0.168 CG0
ATOM     63  C   UNL     1     -11.158 -15.633  -8.406  1.00  0.00     0.041 C 
ATOM     64  G   UNL     1     -10.106 -17.457  -7.016  1.00  0.00     0.000 G0
ENDBRANCH  60  62
ENDBRANCH  56  58
ENDBRANCH  54  56
ENDBRANCH  52  54
ENDBRANCH  51  52
ENDBRANCH  50  51
ENDBRANCH  49  50
BRANCH  49  65
ATOM     65  C   UNL     1      -7.370 -10.456  -5.045  1.00  0.00     0.326 C 
ATOM     66  O   UNL     1      -6.949  -9.629  -5.841  1.00  0.00    -0.250 OA
BRANCH  65  67
ATOM     67  O   UNL     1      -7.378 -11.765  -5.380  1.00  0.00    -0.480 OA
ATOM     68  H   UNL     1      -6.606 -11.855  -5.980  1.00  0.00     0.296 HD
ENDBRANCH  65  67
ENDBRANCH  49  65
ENDBRANCH  47  49
ENDBRANCH  43  45
ENDBRANCH   1  43
BRANCH   1  69
ATOM     69  C   UNL     1      -3.516  -8.891  -3.347  1.00  0.00    -0.001 C 
ATOM     70  C   UNL     1      -4.048  -8.513  -4.523  1.00  0.00     0.001 C 
BRANCH  70  71
ATOM     71  C   UNL     1      -3.455  -8.683  -5.852  1.00  0.00    -0.055 C 
ATOM     72  C   UNL     1      -3.748  -7.759  -6.792  1.00  0.00    -0.018 C 
ATOM     73  C   UNL     1      -2.556  -9.870  -6.073  1.00  0.00     0.044 C 
BRANCH  72  74
ATOM     74  C   UNL     1      -3.282  -7.676  -8.238  1.00  0.00     0.038 C 
ATOM     75  C   UNL     1      -2.105  -6.694  -8.279  1.00  0.00     0.015 C 
BRANCH  74  76
ATOM     76  C   UNL     1      -4.493  -7.281  -9.133  1.00  0.00     0.128 C 
BRANCH  76  77
ATOM     77  O   UNL     1      -4.231  -7.639 -10.500  1.00  0.00    -0.381 OA
ATOM     78  C   UNL     1      -4.721  -6.694 -11.442  1.00  0.00     0.195 C 
ENDBRANCH  76  77
BRANCH  76  79
ATOM     79  C   UNL     1      -5.854  -7.818  -8.623  1.00  0.00     0.068 C 
BRANCH  79  80
ATOM     80  C   UNL     1      -6.332  -9.149  -9.151  1.00  0.00    -0.045 A 
ATOM     81  C   UNL     1      -7.517  -9.249  -9.891  1.00  0.00     0.004 A 
ATOM     82  C   UNL     1      -5.605 -10.319  -8.882  1.00  0.00     0.004 A 
ATOM     83  C   UNL     1      -7.959 -10.486 -10.364  1.00  0.00     0.000 A 
ATOM     84  C   UNL     1      -6.048 -11.556  -9.355  1.00  0.00     0.000 A 
ATOM     85  C   UNL     1      -7.224 -11.639 -10.097  1.00  0.00     0.000 A 
ENDBRANCH  79  80
ENDBRANCH  76  79
ENDBRANCH  74  76
ENDBRANCH  72  74
ENDBRANCH  70  71
ENDBRANCH   1  69
TORSDOF 17
ENDMDL
MODEL 48
REMARK VINA RESULT:    -5.005      2.559      4.100
REMARK INTER + INTRA:         -23.274
REMARK INTER:                 -17.164
REMARK INTRA:                  -6.110
REMARK UNBOUND:                -8.320
REMARK SMILES C=C1C(=O)N[C@H](C)C(=O)N[C@@H](CC(C)C)C(=O)N[C@@H](C(=O)O)[C@H](C)C(=O)N[C@@H](CCCN=C(N)N)C(=O)N[C@@H](/C=C/C(C)=C/[C@H](C)[C@H](Cc2ccccc2)OC)[C@H](C)C(=O)N[C@@H](C(=O)O)CCC(=O)N1C
REMARK SMILES IDX 39 1 38 2 37 3 36 4 28 6 27 7 25 8 26 9 23 11 24 12 19 13
REMARK SMILES IDX 18 14 16 15 17 16 11 18 10 19 8 20 9 21 12 24 13 25 14 26
REMARK SMILES IDX 15 27 20 28 21 29 22 30 29 32 30 33 31 34 32 35 33 36 34 37
REMARK SMILES IDX 35 38 57 43 58 44 59 45 60 46 61 47 62 49 66 50 67 51 68 52
REMARK SMILES IDX 69 53 70 54 71 55 2 56 1 57 3 58 4 59 5 60 6 62 7 63 63 65
REMARK SMILES IDX 64 66 65 67 40 69 41 70 42 71 44 72 43 73 45 74 46 75 47 76
REMARK SMILES IDX 55 77 56 78 48 79 49 80 50 81 54 82 51 83 53 84 52 85
REMARK H PARENT 38 5 27 10 18 17 10 22 22 31 34 39 34 40 35 41 35 42 61 48
REMARK H PARENT 5 61 65 68
REMARK Flexibility Score:  369.900
ROOT
ATOM      1  C   UNL     1      -2.019  -9.240  -0.085  1.00  0.00     0.117 C 
ENDROOT
BRANCH   1   2
ATOM      2  N   UNL     1      -2.774  -9.288  -1.338  1.00  0.00    -0.347 N 
ATOM      3  O   UNL     1      -1.354  -8.008  -2.608  1.00  0.00    -0.273 OA
ATOM      4  C   UNL     1      -2.334  -8.742  -2.528  1.00  0.00     0.243 C 
ATOM      5  H   UNL     1      -3.650  -9.787  -1.368  1.00  0.00     0.164 HD
BRANCH   4   6
ATOM      6  C   UNL     1      -3.283  -9.007  -3.724  1.00  0.00     0.171 C 
BRANCH   6   7
ATOM      7  N   UNL     1      -2.829  -8.268  -4.913  1.00  0.00    -0.344 N 
ATOM      8  C   UNL     1      -3.740  -7.754  -5.811  1.00  0.00     0.226 C 
ATOM      9  O   UNL     1      -4.950  -7.902  -5.681  1.00  0.00    -0.275 OA
ATOM     10  H   UNL     1      -1.836  -8.184  -5.090  1.00  0.00     0.164 HD
BRANCH   8  11
ATOM     11  C   UNL     1      -3.119  -6.972  -6.955  1.00  0.00     0.109 C 
ATOM     12  C   UNL     1      -1.663  -6.636  -6.632  1.00  0.00     0.021 C 
BRANCH  11  13
ATOM     13  C   UNL     1      -3.331  -7.730  -8.280  1.00  0.00     0.204 C 
BRANCH  13  14
ATOM     14  N   UNL     1      -3.765  -9.113  -8.062  1.00  0.00    -0.340 N 
ATOM     15  C   UNL     1      -3.126 -10.196  -8.626  1.00  0.00     0.243 C 
ATOM     16  O   UNL     1      -2.108 -10.081  -9.306  1.00  0.00    -0.273 OA
ATOM     17  H   UNL     1      -4.684  -9.267  -7.638  1.00  0.00     0.164 HD
BRANCH  15  18
ATOM     18  C   UNL     1      -3.882 -11.533  -8.427  1.00  0.00     0.171 C 
BRANCH  18  19
ATOM     19  N   UNL     1      -5.265 -11.297  -8.836  1.00  0.00    -0.343 N 
ATOM     20  C   UNL     1      -5.619 -11.160 -10.164  1.00  0.00     0.242 CG0
ATOM     21  O   UNL     1      -4.773 -11.097 -11.053  1.00  0.00    -0.273 OA
ATOM     22  H   UNL     1      -5.987 -11.225  -8.128  1.00  0.00     0.164 HD
ATOM     23  G   UNL     1      -7.134 -10.996 -10.405  1.00  0.00     0.000 G0
ENDBRANCH  18  19
BRANCH  18  24
ATOM     24  C   UNL     1      -3.234 -12.649  -9.255  1.00  0.00     0.038 C 
BRANCH  24  25
ATOM     25  C   UNL     1      -2.883 -13.923  -8.457  1.00  0.00    -0.015 C 
ATOM     26  C   UNL     1      -1.489 -14.456  -8.789  1.00  0.00     0.007 C 
ATOM     27  C   UNL     1      -3.929 -15.007  -8.731  1.00  0.00     0.007 C 
ENDBRANCH  24  25
ENDBRANCH  18  24
ENDBRANCH  15  18
ENDBRANCH  13  14
BRANCH  13  28
ATOM     28  C   UNL     1      -4.367  -7.068  -9.195  1.00  0.00     0.327 C 
ATOM     29  O   UNL     1      -5.493  -7.480  -9.428  1.00  0.00    -0.250 OA
BRANCH  28  30
ATOM     30  O   UNL     1      -3.883  -5.995  -9.852  1.00  0.00    -0.480 OA
ATOM     31  H   UNL     1      -4.403  -5.965 -10.682  1.00  0.00     0.296 HD
ENDBRANCH  28  30
ENDBRANCH  13  28
ENDBRANCH  11  13
ENDBRANCH   8  11
ENDBRANCH   6   7
BRANCH   6  32
ATOM     32  C   UNL     1      -3.334 -10.513  -4.002  1.00  0.00     0.037 C 
BRANCH  32  33
ATOM     33  C   UNL     1      -4.644 -11.148  -3.515  1.00  0.00     0.026 C 
BRANCH  33  34
ATOM     34  C   UNL     1      -5.713 -11.194  -4.607  1.00  0.00     0.146 C 
BRANCH  34  35
ATOM     35  N   UNL     1      -7.018 -11.354  -3.980  1.00  0.00    -0.254 NA
ATOM     36  C   UNL     1      -7.686 -10.304  -3.673  1.00  0.00     0.185 C 
ATOM     37  N   UNL     1      -8.891 -10.441  -3.099  1.00  0.00    -0.370 N 
ATOM     38  N   UNL     1      -7.354  -9.012  -3.844  1.00  0.00    -0.370 N 
ATOM     39  H   UNL     1      -9.217 -11.386  -2.946  1.00  0.00     0.159 HD
ATOM     40  H   UNL     1      -9.544  -9.683  -2.990  1.00  0.00     0.159 HD
ATOM     41  H   UNL     1      -7.903  -8.275  -3.434  1.00  0.00     0.159 HD
ATOM     42  H   UNL     1      -6.466  -8.760  -4.250  1.00  0.00     0.159 HD
ENDBRANCH  34  35
ENDBRANCH  33  34
ENDBRANCH  32  33
ENDBRANCH   6  32
ENDBRANCH   4   6
ENDBRANCH   1   2
BRANCH   1  43
ATOM     43  C   UNL     1      -2.511 -10.394   0.834  1.00  0.00     0.102 C 
ATOM     44  C   UNL     1      -3.980 -10.249   1.266  1.00  0.00     0.020 C 
BRANCH  43  45
ATOM     45  C   UNL     1      -1.541 -10.623   1.997  1.00  0.00     0.225 C 
ATOM     46  O   UNL     1      -0.638 -11.454   1.965  1.00  0.00    -0.275 OA
ATOM     47  N   UNL     1      -1.801  -9.896   3.137  1.00  0.00    -0.342 N 
ATOM     48  H   UNL     1      -2.443  -9.117   3.098  1.00  0.00     0.164 HD
BRANCH  47  49
ATOM     49  C   UNL     1      -0.936  -9.985   4.317  1.00  0.00     0.192 C 
BRANCH  49  50
ATOM     50  C   UNL     1      -1.796 -10.067   5.581  1.00  0.00     0.047 C 
BRANCH  50  51
ATOM     51  C   UNL     1      -3.297 -10.056   5.264  1.00  0.00     0.103 C 
BRANCH  51  52
ATOM     52  C   UNL     1      -3.971 -11.376   5.634  1.00  0.00     0.226 C 
ATOM     53  O   UNL     1      -4.035 -12.283   4.801  1.00  0.00    -0.275 OA
BRANCH  52  54
ATOM     54  N   UNL     1      -4.418 -11.501   6.963  1.00  0.00    -0.311 N 
ATOM     55  C   UNL     1      -5.523 -10.676   7.468  1.00  0.00     0.153 C 
BRANCH  54  56
ATOM     56  C   UNL     1      -3.833 -12.419   7.850  1.00  0.00     0.102 C 
ATOM     57  C   UNL     1      -2.536 -12.768   7.849  1.00  0.00     0.043 C 
BRANCH  56  58
ATOM     58  C   UNL     1      -4.648 -13.071   8.941  1.00  0.00     0.268 C 
ATOM     59  O   UNL     1      -5.636 -13.759   8.719  1.00  0.00    -0.268 OA
ATOM     60  N   UNL     1      -4.131 -12.866  10.198  1.00  0.00    -0.339 N 
ATOM     61  H   UNL     1      -3.315 -12.274  10.298  1.00  0.00     0.164 HD
BRANCH  60  62
ATOM     62  C   UNL     1      -4.729 -13.460  11.393  1.00  0.00     0.168 CG0
ATOM     63  C   UNL     1      -3.749 -13.444  12.560  1.00  0.00     0.041 C 
ATOM     64  G   UNL     1      -5.184 -14.900  11.082  1.00  0.00     0.000 G0
ENDBRANCH  60  62
ENDBRANCH  56  58
ENDBRANCH  54  56
ENDBRANCH  52  54
ENDBRANCH  51  52
ENDBRANCH  50  51
ENDBRANCH  49  50
BRANCH  49  65
ATOM     65  C   UNL     1       0.008  -8.777   4.420  1.00  0.00     0.326 C 
ATOM     66  O   UNL     1       0.651  -8.297   3.498  1.00  0.00    -0.250 OA
BRANCH  65  67
ATOM     67  O   UNL     1       0.146  -8.274   5.667  1.00  0.00    -0.480 OA
ATOM     68  H   UNL     1      -0.771  -8.271   6.018  1.00  0.00     0.296 HD
ENDBRANCH  65  67
ENDBRANCH  49  65
ENDBRANCH  47  49
ENDBRANCH  43  45
ENDBRANCH   1  43
BRANCH   1  69
ATOM     69  C   UNL     1      -2.119  -7.810   0.416  1.00  0.00    -0.001 C 
ATOM     70  C   UNL     1      -1.108  -6.988   0.747  1.00  0.00     0.001 C 
BRANCH  70  71
ATOM     71  C   UNL     1      -1.216  -5.603   1.209  1.00  0.00    -0.055 C 
ATOM     72  C   UNL     1      -1.233  -5.385   2.541  1.00  0.00    -0.018 C 
ATOM     73  C   UNL     1      -1.291  -4.519   0.166  1.00  0.00     0.044 C 
BRANCH  72  74
ATOM     74  C   UNL     1      -1.333  -4.070   3.301  1.00  0.00     0.038 C 
ATOM     75  C   UNL     1      -0.169  -4.034   4.299  1.00  0.00     0.015 C 
BRANCH  74  76
ATOM     76  C   UNL     1      -2.748  -3.968   3.943  1.00  0.00     0.128 C 
BRANCH  76  77
ATOM     77  O   UNL     1      -3.497  -2.914   3.316  1.00  0.00    -0.381 OA
ATOM     78  C   UNL     1      -4.659  -3.367   2.634  1.00  0.00     0.195 C 
ENDBRANCH  76  77
BRANCH  76  79
ATOM     79  C   UNL     1      -3.519  -5.311   3.982  1.00  0.00     0.068 C 
BRANCH  79  80
ATOM     80  C   UNL     1      -3.663  -6.006   5.314  1.00  0.00    -0.045 A 
ATOM     81  C   UNL     1      -2.555  -6.202   6.149  1.00  0.00     0.004 A 
ATOM     82  C   UNL     1      -4.912  -6.494   5.726  1.00  0.00     0.004 A 
ATOM     83  C   UNL     1      -2.693  -6.858   7.374  1.00  0.00     0.000 A 
ATOM     84  C   UNL     1      -5.049  -7.151   6.951  1.00  0.00     0.000 A 
ATOM     85  C   UNL     1      -3.941  -7.332   7.775  1.00  0.00     0.000 A 
ENDBRANCH  79  80
ENDBRANCH  76  79
ENDBRANCH  74  76
ENDBRANCH  72  74
ENDBRANCH  70  71
ENDBRANCH   1  69
TORSDOF 17
ENDMDL
MODEL 49
REMARK VINA RESULT:    -4.996     12.148     16.386
REMARK INTER + INTRA:         -23.247
REMARK INTER:                 -14.722
REMARK INTRA:                  -8.525
REMARK UNBOUND:                -8.320
REMARK SMILES C=C1C(=O)N[C@H](C)C(=O)N[C@@H](CC(C)C)C(=O)N[C@@H](C(=O)O)[C@H](C)C(=O)N[C@@H](CCCN=C(N)N)C(=O)N[C@@H](/C=C/C(C)=C/[C@H](C)[C@H](Cc2ccccc2)OC)[C@H](C)C(=O)N[C@@H](C(=O)O)CCC(=O)N1C
REMARK SMILES IDX 39 1 38 2 37 3 36 4 28 6 27 7 25 8 26 9 23 11 24 12 19 13
REMARK SMILES IDX 18 14 16 15 17 16 11 18 10 19 8 20 9 21 12 24 13 25 14 26
REMARK SMILES IDX 15 27 20 28 21 29 22 30 29 32 30 33 31 34 32 35 33 36 34 37
REMARK SMILES IDX 35 38 57 43 58 44 59 45 60 46 61 47 62 49 66 50 67 51 68 52
REMARK SMILES IDX 69 53 70 54 71 55 2 56 1 57 3 58 4 59 5 60 6 62 7 63 63 65
REMARK SMILES IDX 64 66 65 67 40 69 41 70 42 71 44 72 43 73 45 74 46 75 47 76
REMARK SMILES IDX 55 77 56 78 48 79 49 80 50 81 54 82 51 83 53 84 52 85
REMARK H PARENT 38 5 27 10 18 17 10 22 22 31 34 39 34 40 35 41 35 42 61 48
REMARK H PARENT 5 61 65 68
REMARK Flexibility Score:  369.900
ROOT
ATOM      1  C   UNL     1       9.302  -4.449   4.263  1.00  0.00     0.117 C 
ENDROOT
BRANCH   1   2
ATOM      2  N   UNL     1       8.124  -3.923   4.953  1.00  0.00    -0.347 N 
ATOM      3  O   UNL     1       6.524  -4.957   3.672  1.00  0.00    -0.273 OA
ATOM      4  C   UNL     1       6.826  -4.293   4.658  1.00  0.00     0.243 C 
ATOM      5  H   UNL     1       8.246  -3.287   5.726  1.00  0.00     0.164 HD
BRANCH   4   6
ATOM      6  C   UNL     1       5.768  -3.655   5.594  1.00  0.00     0.171 C 
BRANCH   6   7
ATOM      7  N   UNL     1       6.298  -3.533   6.961  1.00  0.00    -0.344 N 
ATOM      8  C   UNL     1       5.714  -4.219   8.005  1.00  0.00     0.226 C 
ATOM      9  O   UNL     1       4.729  -4.933   7.857  1.00  0.00    -0.275 OA
ATOM     10  H   UNL     1       7.068  -2.900   7.135  1.00  0.00     0.164 HD
BRANCH   8  11
ATOM     11  C   UNL     1       6.409  -4.032   9.342  1.00  0.00     0.109 C 
ATOM     12  C   UNL     1       6.179  -2.613   9.861  1.00  0.00     0.021 C 
BRANCH  11  13
ATOM     13  C   UNL     1       5.983  -5.153  10.311  1.00  0.00     0.204 C 
BRANCH  13  14
ATOM     14  N   UNL     1       6.095  -6.482   9.701  1.00  0.00    -0.340 N 
ATOM     15  C   UNL     1       5.609  -7.624  10.300  1.00  0.00     0.243 C 
ATOM     16  O   UNL     1       4.991  -7.600  11.364  1.00  0.00    -0.273 OA
ATOM     17  H   UNL     1       6.723  -6.592   8.901  1.00  0.00     0.164 HD
BRANCH  15  18
ATOM     18  C   UNL     1       6.023  -8.927   9.575  1.00  0.00     0.171 C 
BRANCH  18  19
ATOM     19  N   UNL     1       7.481  -8.905   9.476  1.00  0.00    -0.343 N 
ATOM     20  C   UNL     1       8.144  -9.406   8.372  1.00  0.00     0.242 CG0
ATOM     21  O   UNL     1       7.549 -10.012   7.484  1.00  0.00    -0.273 OA
ATOM     22  H   UNL     1       8.026  -8.519  10.239  1.00  0.00     0.164 HD
ATOM     23  G   UNL     1       9.676  -9.224   8.412  1.00  0.00     0.000 G0
ENDBRANCH  18  19
BRANCH  18  24
ATOM     24  C   UNL     1       5.531 -10.157  10.349  1.00  0.00     0.038 C 
BRANCH  24  25
ATOM     25  C   UNL     1       4.690 -11.147   9.516  1.00  0.00    -0.015 C 
ATOM     26  C   UNL     1       5.507 -12.344   9.029  1.00  0.00     0.007 C 
ATOM     27  C   UNL     1       4.076 -10.420   8.317  1.00  0.00     0.007 C 
ENDBRANCH  24  25
ENDBRANCH  18  24
ENDBRANCH  15  18
ENDBRANCH  13  14
BRANCH  13  28
ATOM     28  C   UNL     1       6.805  -5.177  11.604  1.00  0.00     0.327 C 
ATOM     29  O   UNL     1       8.020  -5.272  11.687  1.00  0.00    -0.250 OA
BRANCH  28  30
ATOM     30  O   UNL     1       6.041  -5.200  12.715  1.00  0.00    -0.480 OA
ATOM     31  H   UNL     1       5.123  -5.254  12.376  1.00  0.00     0.296 HD
ENDBRANCH  28  30
ENDBRANCH  13  28
ENDBRANCH  11  13
ENDBRANCH   8  11
ENDBRANCH   6   7
BRANCH   6  32
ATOM     32  C   UNL     1       5.366  -2.284   5.039  1.00  0.00     0.037 C 
BRANCH  32  33
ATOM     33  C   UNL     1       4.398  -1.542   5.971  1.00  0.00     0.026 C 
BRANCH  33  34
ATOM     34  C   UNL     1       5.025  -0.294   6.593  1.00  0.00     0.146 C 
BRANCH  34  35
ATOM     35  N   UNL     1       6.466  -0.489   6.686  1.00  0.00    -0.254 NA
ATOM     36  C   UNL     1       7.129   0.221   7.521  1.00  0.00     0.185 C 
ATOM     37  N   UNL     1       8.456   0.046   7.619  1.00  0.00    -0.370 N 
ATOM     38  N   UNL     1       6.684   1.168   8.365  1.00  0.00    -0.370 N 
ATOM     39  H   UNL     1       8.866  -0.660   7.021  1.00  0.00     0.159 HD
ATOM     40  H   UNL     1       9.015   0.432   8.360  1.00  0.00     0.159 HD
ATOM     41  H   UNL     1       7.325   1.756   8.874  1.00  0.00     0.159 HD
ATOM     42  H   UNL     1       5.707   1.417   8.388  1.00  0.00     0.159 HD
ENDBRANCH  34  35
ENDBRANCH  33  34
ENDBRANCH  32  33
ENDBRANCH   6  32
ENDBRANCH   4   6
ENDBRANCH   1   2
BRANCH   1  43
ATOM     43  C   UNL     1       9.850  -5.660   5.072  1.00  0.00     0.102 C 
ATOM     44  C   UNL     1      11.381  -5.659   5.215  1.00  0.00     0.020 C 
BRANCH  43  45
ATOM     45  C   UNL     1       9.276  -6.979   4.545  1.00  0.00     0.225 C 
ATOM     46  O   UNL     1       8.645  -7.764   5.247  1.00  0.00    -0.275 OA
ATOM     47  N   UNL     1       9.593  -7.283   3.241  1.00  0.00    -0.342 N 
ATOM     48  H   UNL     1       9.976  -6.568   2.640  1.00  0.00     0.164 HD
BRANCH  47  49
ATOM     49  C   UNL     1       9.083  -8.495   2.592  1.00  0.00     0.192 C 
BRANCH  49  50
ATOM     50  C   UNL     1      10.253  -9.314   2.040  1.00  0.00     0.047 C 
BRANCH  50  51
ATOM     51  C   UNL     1      10.239 -10.763   2.544  1.00  0.00     0.103 C 
BRANCH  51  52
ATOM     52  C   UNL     1      10.058 -10.842   4.059  1.00  0.00     0.226 C 
ATOM     53  O   UNL     1       8.924 -10.923   4.535  1.00  0.00    -0.275 OA
BRANCH  52  54
ATOM     54  N   UNL     1      11.235 -10.894   4.828  1.00  0.00    -0.311 N 
ATOM     55  C   UNL     1      11.882 -12.177   5.135  1.00  0.00     0.153 C 
BRANCH  54  56
ATOM     56  C   UNL     1      11.838  -9.727   5.325  1.00  0.00     0.102 C 
ATOM     57  C   UNL     1      12.750  -8.993   4.667  1.00  0.00     0.043 C 
BRANCH  56  58
ATOM     58  C   UNL     1      11.450  -9.168   6.674  1.00  0.00     0.268 C 
ATOM     59  O   UNL     1      12.104  -8.315   7.259  1.00  0.00    -0.268 OA
ATOM     60  N   UNL     1      10.258  -9.667   7.143  1.00  0.00    -0.339 N 
ATOM     61  H   UNL     1       9.782 -10.380   6.603  1.00  0.00     0.164 HD
BRANCH  60  62
ATOM     62  C   UNL     1       9.665  -9.215   8.401  1.00  0.00     0.168 CG0
ATOM     63  C   UNL     1      10.264  -9.961   9.587  1.00  0.00     0.041 C 
ATOM     64  G   UNL     1       8.135  -9.408   8.351  1.00  0.00     0.000 G0
ENDBRANCH  60  62
ENDBRANCH  56  58
ENDBRANCH  54  56
ENDBRANCH  52  54
ENDBRANCH  51  52
ENDBRANCH  50  51
ENDBRANCH  49  50
BRANCH  49  65
ATOM     65  C   UNL     1       8.112  -8.161   1.449  1.00  0.00     0.326 C 
ATOM     66  O   UNL     1       6.896  -8.273   1.494  1.00  0.00    -0.250 OA
BRANCH  65  67
ATOM     67  O   UNL     1       8.707  -7.765   0.302  1.00  0.00    -0.480 OA
ATOM     68  H   UNL     1       8.013  -7.905  -0.378  1.00  0.00     0.296 HD
ENDBRANCH  65  67
ENDBRANCH  49  65
ENDBRANCH  47  49
ENDBRANCH  43  45
ENDBRANCH   1  43
BRANCH   1  69
ATOM     69  C   UNL     1      10.213  -3.261   4.014  1.00  0.00    -0.001 C 
ATOM     70  C   UNL     1      10.913  -2.988   2.898  1.00  0.00     0.001 C 
BRANCH  70  71
ATOM     71  C   UNL     1      11.773  -1.827   2.661  1.00  0.00    -0.055 C 
ATOM     72  C   UNL     1      11.460  -0.675   3.292  1.00  0.00    -0.018 C 
ATOM     73  C   UNL     1      12.950  -2.001   1.738  1.00  0.00     0.044 C 
BRANCH  72  74
ATOM     74  C   UNL     1      12.163   0.674   3.240  1.00  0.00     0.038 C 
ATOM     75  C   UNL     1      13.288   0.638   4.282  1.00  0.00     0.015 C 
BRANCH  74  76
ATOM     76  C   UNL     1      11.107   1.798   3.456  1.00  0.00     0.128 C 
BRANCH  76  77
ATOM     77  O   UNL     1      10.446   2.095   2.215  1.00  0.00    -0.381 OA
ATOM     78  C   UNL     1      10.640   3.431   1.770  1.00  0.00     0.195 C 
ENDBRANCH  76  77
BRANCH  76  79
ATOM     79  C   UNL     1      10.115   1.515   4.612  1.00  0.00     0.068 C 
BRANCH  79  80
ATOM     80  C   UNL     1       8.638   1.589   4.310  1.00  0.00    -0.045 A 
ATOM     81  C   UNL     1       7.848   2.628   4.818  1.00  0.00     0.004 A 
ATOM     82  C   UNL     1       8.025   0.594   3.534  1.00  0.00     0.004 A 
ATOM     83  C   UNL     1       6.479   2.681   4.545  1.00  0.00     0.000 A 
ATOM     84  C   UNL     1       6.656   0.647   3.262  1.00  0.00     0.000 A 
ATOM     85  C   UNL     1       5.884   1.691   3.766  1.00  0.00     0.000 A 
ENDBRANCH  79  80
ENDBRANCH  76  79
ENDBRANCH  74  76
ENDBRANCH  72  74
ENDBRANCH  70  71
ENDBRANCH   1  69
TORSDOF 17
ENDMDL
MODEL 50
REMARK VINA RESULT:    -4.951      3.971     12.776
REMARK INTER + INTRA:         -23.112
REMARK INTER:                 -16.112
REMARK INTRA:                  -7.000
REMARK UNBOUND:                -8.320
REMARK SMILES C=C1C(=O)N[C@H](C)C(=O)N[C@@H](CC(C)C)C(=O)N[C@@H](C(=O)O)[C@H](C)C(=O)N[C@@H](CCCN=C(N)N)C(=O)N[C@@H](/C=C/C(C)=C/[C@H](C)[C@H](Cc2ccccc2)OC)[C@H](C)C(=O)N[C@@H](C(=O)O)CCC(=O)N1C
REMARK SMILES IDX 39 1 38 2 37 3 36 4 28 6 27 7 25 8 26 9 23 11 24 12 19 13
REMARK SMILES IDX 18 14 16 15 17 16 11 18 10 19 8 20 9 21 12 24 13 25 14 26
REMARK SMILES IDX 15 27 20 28 21 29 22 30 29 32 30 33 31 34 32 35 33 36 34 37
REMARK SMILES IDX 35 38 57 43 58 44 59 45 60 46 61 47 62 49 66 50 67 51 68 52
REMARK SMILES IDX 69 53 70 54 71 55 2 56 1 57 3 58 4 59 5 60 6 62 7 63 63 65
REMARK SMILES IDX 64 66 65 67 40 69 41 70 42 71 44 72 43 73 45 74 46 75 47 76
REMARK SMILES IDX 55 77 56 78 48 79 49 80 50 81 54 82 51 83 53 84 52 85
REMARK H PARENT 38 5 27 10 18 17 10 22 22 31 34 39 34 40 35 41 35 42 61 48
REMARK H PARENT 5 61 65 68
REMARK Flexibility Score:  369.900
ROOT
ATOM      1  C   UNL     1      -3.742 -12.171  -2.257  1.00  0.00     0.117 C 
ENDROOT
BRANCH   1   2
ATOM      2  N   UNL     1      -3.431 -11.088  -1.324  1.00  0.00    -0.347 N 
ATOM      3  O   UNL     1      -5.118 -11.479   0.183  1.00  0.00    -0.273 OA
ATOM      4  C   UNL     1      -4.090 -10.885  -0.127  1.00  0.00     0.243 C 
ATOM      5  H   UNL     1      -2.659 -10.470  -1.523  1.00  0.00     0.164 HD
BRANCH   4   6
ATOM      6  C   UNL     1      -3.509  -9.722   0.716  1.00  0.00     0.171 C 
BRANCH   6   7
ATOM      7  N   UNL     1      -3.476  -8.481  -0.074  1.00  0.00    -0.344 N 
ATOM      8  C   UNL     1      -2.341  -8.117  -0.766  1.00  0.00     0.226 C 
ATOM      9  O   UNL     1      -1.312  -8.782  -0.742  1.00  0.00    -0.275 OA
ATOM     10  H   UNL     1      -4.284  -7.871  -0.063  1.00  0.00     0.164 HD
BRANCH   8  11
ATOM     11  C   UNL     1      -2.484  -6.840  -1.575  1.00  0.00     0.109 C 
ATOM     12  C   UNL     1      -3.961  -6.482  -1.736  1.00  0.00     0.021 C 
BRANCH  11  13
ATOM     13  C   UNL     1      -1.611  -5.730  -0.957  1.00  0.00     0.204 C 
BRANCH  13  14
ATOM     14  N   UNL     1      -1.140  -6.083   0.386  1.00  0.00    -0.340 N 
ATOM     15  C   UNL     1      -1.229  -5.224   1.460  1.00  0.00     0.243 C 
ATOM     16  O   UNL     1      -1.767  -4.121   1.380  1.00  0.00    -0.273 OA
ATOM     17  H   UNL     1      -0.552  -6.915   0.486  1.00  0.00     0.164 HD
BRANCH  15  18
ATOM     18  C   UNL     1      -0.483  -5.728   2.719  1.00  0.00     0.171 C 
BRANCH  18  19
ATOM     19  N   UNL     1      -1.163  -5.142   3.872  1.00  0.00    -0.343 N 
ATOM     20  C   UNL     1      -0.474  -4.750   5.004  1.00  0.00     0.242 CG0
ATOM     21  O   UNL     1       0.721  -4.998   5.147  1.00  0.00    -0.273 OA
ATOM     22  H   UNL     1      -2.169  -5.022   3.848  1.00  0.00     0.164 HD
ATOM     23  G   UNL     1      -1.349  -4.081   6.083  1.00  0.00     0.000 G0
ENDBRANCH  18  19
BRANCH  18  24
ATOM     24  C   UNL     1      -0.495  -7.261   2.779  1.00  0.00     0.038 C 
BRANCH  24  25
ATOM     25  C   UNL     1       0.894  -7.910   2.949  1.00  0.00    -0.015 C 
ATOM     26  C   UNL     1       1.189  -8.953   1.871  1.00  0.00     0.007 C 
ATOM     27  C   UNL     1       0.993  -8.559   4.333  1.00  0.00     0.007 C 
ENDBRANCH  24  25
ENDBRANCH  18  24
ENDBRANCH  15  18
ENDBRANCH  13  14
BRANCH  13  28
ATOM     28  C   UNL     1      -0.376  -5.395  -1.797  1.00  0.00     0.327 C 
ATOM     29  O   UNL     1       0.378  -4.448  -1.629  1.00  0.00    -0.250 OA
BRANCH  28  30
ATOM     30  O   UNL     1      -0.231  -6.200  -2.869  1.00  0.00    -0.480 OA
ATOM     31  H   UNL     1       0.269  -6.970  -2.527  1.00  0.00     0.296 HD
ENDBRANCH  28  30
ENDBRANCH  13  28
ENDBRANCH  11  13
ENDBRANCH   8  11
ENDBRANCH   6   7
BRANCH   6  32
ATOM     32  C   UNL     1      -4.356  -9.544   1.981  1.00  0.00     0.037 C 
BRANCH  32  33
ATOM     33  C   UNL     1      -3.522  -9.053   3.172  1.00  0.00     0.026 C 
BRANCH  33  34
ATOM     34  C   UNL     1      -4.129  -7.820   3.842  1.00  0.00     0.146 C 
BRANCH  34  35
ATOM     35  N   UNL     1      -3.250  -7.392   4.922  1.00  0.00    -0.254 NA
ATOM     36  C   UNL     1      -3.769  -7.087   6.053  1.00  0.00     0.185 C 
ATOM     37  N   UNL     1      -2.968  -6.696   7.056  1.00  0.00    -0.370 N 
ATOM     38  N   UNL     1      -5.064  -7.096   6.418  1.00  0.00    -0.370 N 
ATOM     39  H   UNL     1      -1.975  -6.673   6.862  1.00  0.00     0.159 HD
ATOM     40  H   UNL     1      -3.274  -6.609   8.010  1.00  0.00     0.159 HD
ATOM     41  H   UNL     1      -5.360  -6.700   7.295  1.00  0.00     0.159 HD
ATOM     42  H   UNL     1      -5.781  -7.354   5.758  1.00  0.00     0.159 HD
ENDBRANCH  34  35
ENDBRANCH  33  34
ENDBRANCH  32  33
ENDBRANCH   6  32
ENDBRANCH   4   6
ENDBRANCH   1   2
BRANCH   1  43
ATOM     43  C   UNL     1      -2.417 -12.893  -2.638  1.00  0.00     0.102 C 
ATOM     44  C   UNL     1      -1.190 -12.362  -1.877  1.00  0.00     0.020 C 
BRANCH  43  45
ATOM     45  C   UNL     1      -2.233 -12.939  -4.158  1.00  0.00     0.225 C 
ATOM     46  O   UNL     1      -2.804 -13.754  -4.878  1.00  0.00    -0.275 OA
ATOM     47  N   UNL     1      -1.306 -12.061  -4.670  1.00  0.00    -0.342 N 
ATOM     48  H   UNL     1      -0.963 -11.304  -4.095  1.00  0.00     0.164 HD
BRANCH  47  49
ATOM     49  C   UNL     1      -1.051 -11.969  -6.110  1.00  0.00     0.192 C 
BRANCH  49  50
ATOM     50  C   UNL     1       0.412 -12.319  -6.398  1.00  0.00     0.047 C 
BRANCH  50  51
ATOM     51  C   UNL     1       0.548 -13.471  -7.402  1.00  0.00     0.103 C 
BRANCH  51  52
ATOM     52  C   UNL     1       0.632 -12.970  -8.842  1.00  0.00     0.226 C 
ATOM     53  O   UNL     1       1.642 -12.375  -9.223  1.00  0.00    -0.275 OA
BRANCH  52  54
ATOM     54  N   UNL     1      -0.449 -13.296  -9.683  1.00  0.00    -0.311 N 
ATOM     55  C   UNL     1      -1.439 -14.305  -9.285  1.00  0.00     0.153 C 
BRANCH  54  56
ATOM     56  C   UNL     1      -0.625 -12.666 -10.926  1.00  0.00     0.102 C 
ATOM     57  C   UNL     1      -1.360 -11.561 -11.132  1.00  0.00     0.043 C 
BRANCH  56  58
ATOM     58  C   UNL     1       0.069 -13.187 -12.163  1.00  0.00     0.268 C 
ATOM     59  O   UNL     1      -0.418 -14.039 -12.895  1.00  0.00    -0.268 OA
ATOM     60  N   UNL     1       1.266 -12.561 -12.416  1.00  0.00    -0.339 N 
ATOM     61  H   UNL     1       1.605 -11.873 -11.755  1.00  0.00     0.164 HD
BRANCH  60  62
ATOM     62  C   UNL     1       2.072 -12.868 -13.597  1.00  0.00     0.168 CG0
ATOM     63  C   UNL     1       3.235 -13.785 -13.241  1.00  0.00     0.041 C 
ATOM     64  G   UNL     1       2.583 -11.557 -14.229  1.00  0.00     0.000 G0
ENDBRANCH  60  62
ENDBRANCH  56  58
ENDBRANCH  54  56
ENDBRANCH  52  54
ENDBRANCH  51  52
ENDBRANCH  50  51
ENDBRANCH  49  50
BRANCH  49  65
ATOM     65  C   UNL     1      -1.353 -10.563  -6.651  1.00  0.00     0.326 C 
ATOM     66  O   UNL     1      -1.457  -9.549  -5.975  1.00  0.00    -0.250 OA
BRANCH  65  67
ATOM     67  O   UNL     1      -1.569 -10.505  -7.983  1.00  0.00    -0.480 OA
ATOM     68  H   UNL     1      -2.543 -10.409  -8.056  1.00  0.00     0.296 HD
ENDBRANCH  65  67
ENDBRANCH  49  65
ENDBRANCH  47  49
ENDBRANCH  43  45
ENDBRANCH   1  43
BRANCH   1  69
ATOM     69  C   UNL     1      -4.583 -11.553  -3.359  1.00  0.00    -0.001 C 
ATOM     70  C   UNL     1      -5.818 -11.032  -3.249  1.00  0.00     0.001 C 
BRANCH  70  71
ATOM     71  C   UNL     1      -6.612 -10.418  -4.315  1.00  0.00    -0.055 C 
ATOM     72  C   UNL     1      -6.009 -10.207  -5.504  1.00  0.00    -0.018 C 
ATOM     73  C   UNL     1      -8.047 -10.074  -4.013  1.00  0.00     0.044 C 
BRANCH  72  74
ATOM     74  C   UNL     1      -6.578  -9.598  -6.778  1.00  0.00     0.038 C 
ATOM     75  C   UNL     1      -6.523 -10.681  -7.862  1.00  0.00     0.015 C 
BRANCH  74  76
ATOM     76  C   UNL     1      -5.784  -8.300  -7.110  1.00  0.00     0.128 C 
BRANCH  76  77
ATOM     77  O   UNL     1      -5.855  -7.384  -6.005  1.00  0.00    -0.381 OA
ATOM     78  C   UNL     1      -4.588  -7.068  -5.443  1.00  0.00     0.195 C 
ENDBRANCH  76  77
BRANCH  76  79
ATOM     79  C   UNL     1      -4.331  -8.556  -7.585  1.00  0.00     0.068 C 
BRANCH  79  80
ATOM     80  C   UNL     1      -3.885  -7.910  -8.874  1.00  0.00    -0.045 A 
ATOM     81  C   UNL     1      -2.876  -6.938  -8.883  1.00  0.00     0.004 A 
ATOM     82  C   UNL     1      -4.499  -8.255 -10.088  1.00  0.00     0.004 A 
ATOM     83  C   UNL     1      -2.478  -6.335 -10.079  1.00  0.00     0.000 A 
ATOM     84  C   UNL     1      -4.101  -7.651 -11.283  1.00  0.00     0.000 A 
ATOM     85  C   UNL     1      -3.090  -6.693 -11.278  1.00  0.00     0.000 A 
ENDBRANCH  79  80
ENDBRANCH  76  79
ENDBRANCH  74  76
ENDBRANCH  72  74
ENDBRANCH  70  71
ENDBRANCH   1  69
TORSDOF 17
ENDMDL
