MODEL 1
REMARK VINA RESULT:    -4.842      0.000      0.000
REMARK INTER + INTRA:          -9.343
REMARK INTER:                  -8.238
REMARK INTRA:                  -1.105
REMARK UNBOUND:                -1.105
REMARK SMILES CC[C@H](C)[C@@H]1NC(=O)[C@H]2CSC(=N2)[C@@H]([C@@H](C)CC)NC(=O)c2csc(n2)CNC(=O)[C@H]2N=C1O[C@@H]2C
REMARK SMILES IDX 27 1 25 2 22 3 26 4 23 5 24 6 20 7 19 8 21 9 14 11 12 12
REMARK SMILES IDX 11 13 10 14 13 15 9 16 15 18 16 19 17 20 18 21 28 22 29 23
REMARK SMILES IDX 30 24 31 26 32 27 35 28 33 29 34 30 36 31 5 32 6 33 7 34
REMARK SMILES IDX 8 35 3 38 4 39 2 40 1 41
REMARK H PARENT 19 10 28 25 6 36
REMARK Flexibility Score:   91.900
ROOT
ATOM      1  C   UNL     1      -5.611   1.441   8.275  1.00  0.00     0.183 C 
ENDROOT
BRANCH   1   2
ATOM      2  C   UNL     1      -6.115   0.316   9.133  1.00  0.00     0.113 A 
ATOM      3  C   UNL     1      -6.763  -1.737   9.710  1.00  0.00     0.139 A 
ATOM      4  N   UNL     1      -6.137  -0.946   8.745  1.00  0.00    -0.234 NA
ATOM      5  C   UNL     1      -7.153  -1.052  10.845  1.00  0.00     0.101 A 
ATOM      6  S   UNL     1      -6.754   0.611  10.698  1.00  0.00    -0.125 S 
BRANCH   3   7
ATOM      7  C   UNL     1      -6.994  -3.160   9.455  1.00  0.00     0.271 C 
ATOM      8  N   UNL     1      -7.821  -3.353   8.376  1.00  0.00    -0.341 N 
ATOM      9  O   UNL     1      -6.530  -4.059  10.145  1.00  0.00    -0.267 OA
ATOM     10  H   UNL     1      -8.110  -2.508   7.885  1.00  0.00     0.164 HD
BRANCH   8  11
ATOM     11  C   UNL     1      -8.379  -4.640   7.994  1.00  0.00     0.140 C 
BRANCH  11  12
ATOM     12  C   UNL     1      -7.371  -5.336   7.076  1.00  0.00     0.091 C 
ATOM     13  S   UNL     1      -6.053  -6.267   7.749  1.00  0.00    -0.106 SA
ATOM     14  C   UNL     1      -5.683  -6.946   6.117  1.00  0.00     0.113 C 
ATOM     15  N   UNL     1      -7.410  -5.203   5.787  1.00  0.00    -0.267 NA
ATOM     16  C   UNL     1      -6.243  -5.903   5.163  1.00  0.00     0.205 CG0
ATOM     17  G   UNL     1      -5.154  -4.898   4.756  1.00  0.00     0.000 G0
ENDBRANCH  11  12
BRANCH  11  18
ATOM     18  C   UNL     1      -8.915  -5.474   9.187  1.00  0.00     0.015 C 
ATOM     19  C   UNL     1     -10.169  -4.817   9.779  1.00  0.00     0.010 C 
BRANCH  18  20
ATOM     20  C   UNL     1      -9.154  -6.965   8.875  1.00  0.00     0.002 C 
ATOM     21  C   UNL     1     -10.464  -7.217   8.138  1.00  0.00     0.004 C 
ENDBRANCH  18  20
ENDBRANCH  11  18
ENDBRANCH   8  11
ENDBRANCH   3   7
ENDBRANCH   1   2
BRANCH   1  22
ATOM     22  N   UNL     1      -5.831   1.066   6.896  1.00  0.00    -0.348 N 
ATOM     23  C   UNL     1      -4.842   0.911   5.963  1.00  0.00     0.249 C 
ATOM     24  O   UNL     1      -3.648   0.994   6.228  1.00  0.00    -0.272 OA
ATOM     25  H   UNL     1      -6.791   0.992   6.562  1.00  0.00     0.163 HD
BRANCH  23  26
ATOM     26  C   UNL     1      -5.388   0.564   4.570  1.00  0.00     0.238 C 
ATOM     27  N   UNL     1      -4.475  -0.414   3.915  1.00  0.00    -0.236 NA
ATOM     28  C   UNL     1      -6.739  -0.127   4.644  1.00  0.00     0.206 C 
ATOM     29  C   UNL     1      -5.180  -1.506   3.886  1.00  0.00     0.208 C 
ATOM     30  O   UNL     1      -6.442  -1.497   4.382  1.00  0.00    -0.474 OA
ATOM     31  C   UNL     1      -7.709   0.372   3.581  1.00  0.00     0.056 C 
BRANCH  29  32
ATOM     32  C   UNL     1      -4.715  -2.870   3.383  1.00  0.00     0.171 C 
BRANCH  32  33
ATOM     33  N   UNL     1      -5.583  -3.928   3.875  1.00  0.00    -0.342 N 
ATOM     34  C   UNL     1      -5.146  -4.904   4.739  1.00  0.00     0.246 CG0
ATOM     35  O   UNL     1      -3.987  -4.973   5.141  1.00  0.00    -0.273 OA
ATOM     36  H   UNL     1      -6.546  -4.004   3.563  1.00  0.00     0.164 HD
ATOM     37  G   UNL     1      -6.235  -5.894   5.185  1.00  0.00     0.000 G0
ENDBRANCH  32  33
BRANCH  32  38
ATOM     38  C   UNL     1      -4.599  -2.867   1.836  1.00  0.00     0.017 C 
ATOM     39  C   UNL     1      -4.549  -4.307   1.309  1.00  0.00     0.010 C 
BRANCH  38  40
ATOM     40  C   UNL     1      -5.715  -2.048   1.149  1.00  0.00     0.002 C 
ATOM     41  C   UNL     1      -6.960  -2.864   0.828  1.00  0.00     0.004 C 
ENDBRANCH  38  40
ENDBRANCH  32  38
ENDBRANCH  29  32
ENDBRANCH  23  26
ENDBRANCH   1  22
TORSDOF 4
ENDMDL
MODEL 2
REMARK VINA RESULT:    -4.811      9.365     13.791
REMARK INTER + INTRA:          -9.291
REMARK INTER:                  -8.187
REMARK INTRA:                  -1.105
REMARK UNBOUND:                -1.105
REMARK SMILES CC[C@H](C)[C@@H]1NC(=O)[C@H]2CSC(=N2)[C@@H]([C@@H](C)CC)NC(=O)c2csc(n2)CNC(=O)[C@H]2N=C1O[C@@H]2C
REMARK SMILES IDX 27 1 25 2 22 3 26 4 23 5 24 6 20 7 19 8 21 9 14 11 12 12
REMARK SMILES IDX 11 13 10 14 13 15 9 16 15 18 16 19 17 20 18 21 28 22 29 23
REMARK SMILES IDX 30 24 31 26 32 27 35 28 33 29 34 30 36 31 5 32 6 33 7 34
REMARK SMILES IDX 8 35 3 38 4 39 2 40 1 41
REMARK H PARENT 19 10 28 25 6 36
REMARK Flexibility Score:   91.900
ROOT
ATOM      1  C   UNL     1      -8.190  -0.516  -3.767  1.00  0.00     0.183 C 
ENDROOT
BRANCH   1   2
ATOM      2  C   UNL     1      -8.006  -1.009  -5.173  1.00  0.00     0.113 A 
ATOM      3  C   UNL     1      -7.140  -1.208  -7.217  1.00  0.00     0.139 A 
ATOM      4  N   UNL     1      -6.971  -0.692  -5.930  1.00  0.00    -0.234 NA
ATOM      5  C   UNL     1      -8.285  -1.961  -7.386  1.00  0.00     0.101 A 
ATOM      6  S   UNL     1      -9.183  -2.008  -5.924  1.00  0.00    -0.125 S 
BRANCH   3   7
ATOM      7  C   UNL     1      -6.163  -0.899  -8.264  1.00  0.00     0.271 C 
ATOM      8  N   UNL     1      -5.322  -1.959  -8.499  1.00  0.00    -0.341 N 
ATOM      9  O   UNL     1      -6.090   0.185  -8.829  1.00  0.00    -0.267 OA
ATOM     10  H   UNL     1      -5.520  -2.805  -7.967  1.00  0.00     0.164 HD
BRANCH   8  11
ATOM     11  C   UNL     1      -4.140  -1.892  -9.343  1.00  0.00     0.140 C 
BRANCH  11  12
ATOM     12  C   UNL     1      -2.990  -2.574  -8.595  1.00  0.00     0.091 C 
ATOM     13  S   UNL     1      -2.259  -4.030  -9.229  1.00  0.00    -0.106 SA
ATOM     14  C   UNL     1      -0.911  -3.887  -8.036  1.00  0.00     0.113 C 
ATOM     15  N   UNL     1      -2.571  -2.149  -7.445  1.00  0.00    -0.267 NA
ATOM     16  C   UNL     1      -1.520  -3.069  -6.908  1.00  0.00     0.205 CG0
ATOM     17  G   UNL     1      -2.100  -3.989  -5.821  1.00  0.00     0.000 G0
ENDBRANCH  11  12
BRANCH  11  18
ATOM     18  C   UNL     1      -4.381  -2.352 -10.803  1.00  0.00     0.015 C 
ATOM     19  C   UNL     1      -5.556  -3.337 -10.867  1.00  0.00     0.010 C 
BRANCH  18  20
ATOM     20  C   UNL     1      -4.550  -1.206 -11.821  1.00  0.00     0.002 C 
ATOM     21  C   UNL     1      -3.843   0.076 -11.395  1.00  0.00     0.004 C 
ENDBRANCH  18  20
ENDBRANCH  11  18
ENDBRANCH   8  11
ENDBRANCH   3   7
ENDBRANCH   1   2
BRANCH   1  22
ATOM     22  N   UNL     1      -7.299  -1.278  -2.921  1.00  0.00    -0.348 N 
ATOM     23  C   UNL     1      -6.117  -0.812  -2.413  1.00  0.00     0.249 C 
ATOM     24  O   UNL     1      -5.732   0.343  -2.558  1.00  0.00    -0.272 OA
ATOM     25  H   UNL     1      -7.513  -2.261  -2.753  1.00  0.00     0.163 HD
BRANCH  23  26
ATOM     26  C   UNL     1      -5.362  -1.870  -1.595  1.00  0.00     0.238 C 
ATOM     27  N   UNL     1      -5.138  -3.076  -2.440  1.00  0.00    -0.236 NA
ATOM     28  C   UNL     1      -3.977  -1.395  -1.190  1.00  0.00     0.206 C 
ATOM     29  C   UNL     1      -3.853  -3.069  -2.634  1.00  0.00     0.208 C 
ATOM     30  O   UNL     1      -3.099  -2.092  -2.072  1.00  0.00    -0.474 OA
ATOM     31  C   UNL     1      -3.626  -1.772   0.243  1.00  0.00     0.056 C 
BRANCH  29  32
ATOM     32  C   UNL     1      -3.063  -4.046  -3.501  1.00  0.00     0.171 C 
BRANCH  32  33
ATOM     33  N   UNL     1      -2.422  -3.355  -4.609  1.00  0.00    -0.342 N 
ATOM     34  C   UNL     1      -2.132  -3.976  -5.801  1.00  0.00     0.246 CG0
ATOM     35  O   UNL     1      -2.367  -5.163  -6.013  1.00  0.00    -0.273 OA
ATOM     36  H   UNL     1      -2.130  -2.388  -4.526  1.00  0.00     0.164 HD
ATOM     37  G   UNL     1      -1.509  -3.056  -6.863  1.00  0.00     0.000 G0
ENDBRANCH  32  33
BRANCH  32  38
ATOM     38  C   UNL     1      -2.055  -4.847  -2.636  1.00  0.00     0.017 C 
ATOM     39  C   UNL     1      -2.678  -5.182  -1.275  1.00  0.00     0.010 C 
BRANCH  38  40
ATOM     40  C   UNL     1      -1.524  -6.113  -3.346  1.00  0.00     0.002 C 
ATOM     41  C   UNL     1      -0.023  -6.086  -3.600  1.00  0.00     0.004 C 
ENDBRANCH  38  40
ENDBRANCH  32  38
ENDBRANCH  29  32
ENDBRANCH  23  26
ENDBRANCH   1  22
TORSDOF 4
ENDMDL
MODEL 3
REMARK VINA RESULT:    -4.706      3.993      5.892
REMARK INTER + INTRA:          -9.112
REMARK INTER:                  -7.545
REMARK INTRA:                  -1.568
REMARK UNBOUND:                -1.105
REMARK SMILES CC[C@H](C)[C@@H]1NC(=O)[C@H]2CSC(=N2)[C@@H]([C@@H](C)CC)NC(=O)c2csc(n2)CNC(=O)[C@H]2N=C1O[C@@H]2C
REMARK SMILES IDX 27 1 25 2 22 3 26 4 23 5 24 6 20 7 19 8 21 9 14 11 12 12
REMARK SMILES IDX 11 13 10 14 13 15 9 16 15 18 16 19 17 20 18 21 28 22 29 23
REMARK SMILES IDX 30 24 31 26 32 27 35 28 33 29 34 30 36 31 5 32 6 33 7 34
REMARK SMILES IDX 8 35 3 38 4 39 2 40 1 41
REMARK H PARENT 19 10 28 25 6 36
REMARK Flexibility Score:   91.900
ROOT
ATOM      1  C   UNL     1      -4.550  -6.202   5.995  1.00  0.00     0.183 C 
ENDROOT
BRANCH   1   2
ATOM      2  C   UNL     1      -5.973  -6.670   6.109  1.00  0.00     0.113 A 
ATOM      3  C   UNL     1      -8.092  -7.056   5.540  1.00  0.00     0.139 A 
ATOM      4  N   UNL     1      -6.822  -6.679   5.098  1.00  0.00    -0.234 NA
ATOM      5  C   UNL     1      -8.158  -7.384   6.880  1.00  0.00     0.101 A 
ATOM      6  S   UNL     1      -6.617  -7.195   7.611  1.00  0.00    -0.125 S 
BRANCH   3   7
ATOM      7  C   UNL     1      -9.225  -7.042   4.611  1.00  0.00     0.271 C 
ATOM      8  N   UNL     1      -9.180  -8.104   3.742  1.00  0.00    -0.341 N 
ATOM      9  O   UNL     1     -10.083  -6.169   4.598  1.00  0.00    -0.267 OA
ATOM     10  H   UNL     1      -8.416  -8.763   3.890  1.00  0.00     0.164 HD
BRANCH   8  11
ATOM     11  C   UNL     1     -10.057  -8.257   2.593  1.00  0.00     0.140 C 
BRANCH  11  12
ATOM     12  C   UNL     1      -9.210  -8.082   1.329  1.00  0.00     0.091 C 
ATOM     13  S   UNL     1      -8.580  -9.476   0.482  1.00  0.00    -0.106 SA
ATOM     14  C   UNL     1      -8.115  -8.433  -0.916  1.00  0.00     0.113 C 
ATOM     15  N   UNL     1      -8.870  -6.913   0.886  1.00  0.00    -0.267 NA
ATOM     16  C   UNL     1      -7.960  -7.054  -0.294  1.00  0.00     0.205 CG0
ATOM     17  G   UNL     1      -6.498  -6.800   0.109  1.00  0.00     0.000 G0
ENDBRANCH  11  12
BRANCH  11  18
ATOM     18  C   UNL     1     -10.957  -9.518   2.650  1.00  0.00     0.015 C 
ATOM     19  C   UNL     1     -10.514 -10.440   3.795  1.00  0.00     0.010 C 
BRANCH  18  20
ATOM     20  C   UNL     1     -12.470  -9.228   2.714  1.00  0.00     0.002 C 
ATOM     21  C   UNL     1     -12.784  -7.798   3.139  1.00  0.00     0.004 C 
ENDBRANCH  18  20
ENDBRANCH  11  18
ENDBRANCH   8  11
ENDBRANCH   3   7
ENDBRANCH   1   2
BRANCH   1  22
ATOM     22  N   UNL     1      -4.511  -5.180   4.973  1.00  0.00    -0.348 N 
ATOM     23  C   UNL     1      -4.971  -3.901   5.132  1.00  0.00     0.249 C 
ATOM     24  O   UNL     1      -5.391  -3.465   6.199  1.00  0.00    -0.272 OA
ATOM     25  H   UNL     1      -4.200  -5.441   4.038  1.00  0.00     0.163 HD
BRANCH  23  26
ATOM     26  C   UNL     1      -4.847  -3.060   3.853  1.00  0.00     0.238 C 
ATOM     27  N   UNL     1      -4.140  -3.854   2.810  1.00  0.00    -0.236 NA
ATOM     28  C   UNL     1      -6.205  -2.726   3.259  1.00  0.00     0.206 C 
ATOM     29  C   UNL     1      -5.071  -4.092   1.935  1.00  0.00     0.208 C 
ATOM     30  O   UNL     1      -6.319  -3.604   2.140  1.00  0.00    -0.474 OA
ATOM     31  C   UNL     1      -6.286  -1.289   2.759  1.00  0.00     0.056 C 
BRANCH  29  32
ATOM     32  C   UNL     1      -4.931  -4.939   0.673  1.00  0.00     0.171 C 
BRANCH  32  33
ATOM     33  N   UNL     1      -6.226  -5.431   0.231  1.00  0.00    -0.342 N 
ATOM     34  C   UNL     1      -6.505  -6.771   0.101  1.00  0.00     0.246 CG0
ATOM     35  O   UNL     1      -5.678  -7.652   0.323  1.00  0.00    -0.273 OA
ATOM     36  H   UNL     1      -6.967  -4.792  -0.036  1.00  0.00     0.164 HD
ATOM     37  G   UNL     1      -7.950  -7.083  -0.321  1.00  0.00     0.000 G0
ENDBRANCH  32  33
BRANCH  32  38
ATOM     38  C   UNL     1      -4.188  -4.144  -0.433  1.00  0.00     0.017 C 
ATOM     39  C   UNL     1      -3.432  -5.108  -1.356  1.00  0.00     0.010 C 
BRANCH  38  40
ATOM     40  C   UNL     1      -5.122  -3.206  -1.232  1.00  0.00     0.002 C 
ATOM     41  C   UNL     1      -4.685  -2.997  -2.676  1.00  0.00     0.004 C 
ENDBRANCH  38  40
ENDBRANCH  32  38
ENDBRANCH  29  32
ENDBRANCH  23  26
ENDBRANCH   1  22
TORSDOF 4
ENDMDL
MODEL 4
REMARK VINA RESULT:    -4.594     15.219     17.171
REMARK INTER + INTRA:          -8.922
REMARK INTER:                  -7.578
REMARK INTRA:                  -1.344
REMARK UNBOUND:                -1.105
REMARK SMILES CC[C@H](C)[C@@H]1NC(=O)[C@H]2CSC(=N2)[C@@H]([C@@H](C)CC)NC(=O)c2csc(n2)CNC(=O)[C@H]2N=C1O[C@@H]2C
REMARK SMILES IDX 27 1 25 2 22 3 26 4 23 5 24 6 20 7 19 8 21 9 14 11 12 12
REMARK SMILES IDX 11 13 10 14 13 15 9 16 15 18 16 19 17 20 18 21 28 22 29 23
REMARK SMILES IDX 30 24 31 26 32 27 35 28 33 29 34 30 36 31 5 32 6 33 7 34
REMARK SMILES IDX 8 35 3 38 4 39 2 40 1 41
REMARK H PARENT 19 10 28 25 6 36
REMARK Flexibility Score:   91.900
ROOT
ATOM      1  C   UNL     1       0.156   2.793  -7.637  1.00  0.00     0.183 C 
ENDROOT
BRANCH   1   2
ATOM      2  C   UNL     1      -1.242   2.846  -8.181  1.00  0.00     0.113 A 
ATOM      3  C   UNL     1      -3.129   2.164  -9.151  1.00  0.00     0.139 A 
ATOM      4  N   UNL     1      -1.906   1.782  -8.597  1.00  0.00    -0.234 NA
ATOM      5  C   UNL     1      -3.390   3.519  -9.085  1.00  0.00     0.101 A 
ATOM      6  S   UNL     1      -2.076   4.337  -8.343  1.00  0.00    -0.125 S 
BRANCH   3   7
ATOM      7  C   UNL     1      -3.998   1.161  -9.771  1.00  0.00     0.271 C 
ATOM      8  N   UNL     1      -4.148   0.056  -8.970  1.00  0.00    -0.341 N 
ATOM      9  O   UNL     1      -4.495   1.286 -10.883  1.00  0.00    -0.267 OA
ATOM     10  H   UNL     1      -3.692   0.107  -8.060  1.00  0.00     0.164 HD
BRANCH   8  11
ATOM     11  C   UNL     1      -4.795  -1.176  -9.389  1.00  0.00     0.140 C 
BRANCH  11  12
ATOM     12  C   UNL     1      -3.738  -2.284  -9.391  1.00  0.00     0.091 C 
ATOM     13  S   UNL     1      -2.637  -2.463  -8.045  1.00  0.00    -0.106 SA
ATOM     14  C   UNL     1      -2.102  -4.066  -8.678  1.00  0.00     0.113 C 
ATOM     15  N   UNL     1      -3.572  -3.074 -10.405  1.00  0.00    -0.267 NA
ATOM     16  C   UNL     1      -2.404  -3.979 -10.166  1.00  0.00     0.205 CG0
ATOM     17  G   UNL     1      -1.169  -3.499 -10.945  1.00  0.00     0.000 G0
ENDBRANCH  11  12
BRANCH  11  18
ATOM     18  C   UNL     1      -6.115  -1.483  -8.636  1.00  0.00     0.015 C 
ATOM     19  C   UNL     1      -7.324  -1.184  -9.532  1.00  0.00     0.010 C 
BRANCH  18  20
ATOM     20  C   UNL     1      -6.198  -2.900  -8.032  1.00  0.00     0.002 C 
ATOM     21  C   UNL     1      -6.619  -3.956  -9.047  1.00  0.00     0.004 C 
ENDBRANCH  18  20
ENDBRANCH  11  18
ENDBRANCH   8  11
ENDBRANCH   3   7
ENDBRANCH   1   2
BRANCH   1  22
ATOM     22  N   UNL     1       0.851   1.731  -8.331  1.00  0.00    -0.348 N 
ATOM     23  C   UNL     1       1.429   0.650  -7.723  1.00  0.00     0.249 C 
ATOM     24  O   UNL     1       1.341   0.429  -6.520  1.00  0.00    -0.272 OA
ATOM     25  H   UNL     1       1.001   1.826  -9.335  1.00  0.00     0.163 HD
BRANCH  23  26
ATOM     26  C   UNL     1       2.142  -0.280  -8.715  1.00  0.00     0.238 C 
ATOM     27  N   UNL     1       1.157  -1.243  -9.280  1.00  0.00    -0.236 NA
ATOM     28  C   UNL     1       2.698   0.479  -9.908  1.00  0.00     0.206 C 
ATOM     29  C   UNL     1       1.050  -0.867 -10.520  1.00  0.00     0.208 C 
ATOM     30  O   UNL     1       1.788   0.179 -10.965  1.00  0.00    -0.474 OA
ATOM     31  C   UNL     1       4.086  -0.000 -10.311  1.00  0.00     0.056 C 
BRANCH  29  32
ATOM     32  C   UNL     1       0.111  -1.460 -11.567  1.00  0.00     0.171 C 
BRANCH  32  33
ATOM     33  N   UNL     1      -1.021  -2.120 -10.935  1.00  0.00    -0.342 N 
ATOM     34  C   UNL     1      -1.185  -3.485 -10.951  1.00  0.00     0.246 CG0
ATOM     35  O   UNL     1      -0.407  -4.247 -11.519  1.00  0.00    -0.273 OA
ATOM     36  H   UNL     1      -1.757  -1.585 -10.487  1.00  0.00     0.164 HD
ATOM     37  G   UNL     1      -2.414  -3.987 -10.176  1.00  0.00     0.000 G0
ENDBRANCH  32  33
BRANCH  32  38
ATOM     38  C   UNL     1      -0.327  -0.371 -12.581  1.00  0.00     0.017 C 
ATOM     39  C   UNL     1      -0.506  -0.989 -13.974  1.00  0.00     0.010 C 
BRANCH  38  40
ATOM     40  C   UNL     1      -1.592   0.397 -12.133  1.00  0.00     0.002 C 
ATOM     41  C   UNL     1      -1.636   1.839 -12.623  1.00  0.00     0.004 C 
ENDBRANCH  38  40
ENDBRANCH  32  38
ENDBRANCH  29  32
ENDBRANCH  23  26
ENDBRANCH   1  22
TORSDOF 4
ENDMDL
MODEL 5
REMARK VINA RESULT:    -4.495     13.923     18.019
REMARK INTER + INTRA:          -8.753
REMARK INTER:                  -7.922
REMARK INTRA:                  -0.832
REMARK UNBOUND:                -1.105
REMARK SMILES CC[C@H](C)[C@@H]1NC(=O)[C@H]2CSC(=N2)[C@@H]([C@@H](C)CC)NC(=O)c2csc(n2)CNC(=O)[C@H]2N=C1O[C@@H]2C
REMARK SMILES IDX 27 1 25 2 22 3 26 4 23 5 24 6 20 7 19 8 21 9 14 11 12 12
REMARK SMILES IDX 11 13 10 14 13 15 9 16 15 18 16 19 17 20 18 21 28 22 29 23
REMARK SMILES IDX 30 24 31 26 32 27 35 28 33 29 34 30 36 31 5 32 6 33 7 34
REMARK SMILES IDX 8 35 3 38 4 39 2 40 1 41
REMARK H PARENT 19 10 28 25 6 36
REMARK Flexibility Score:   91.900
ROOT
ATOM      1  C   UNL     1      -1.366   1.132  -5.115  1.00  0.00     0.183 C 
ENDROOT
BRANCH   1   2
ATOM      2  C   UNL     1      -0.186   1.581  -5.929  1.00  0.00     0.113 A 
ATOM      3  C   UNL     1       1.133   1.881  -7.700  1.00  0.00     0.139 A 
ATOM      4  N   UNL     1      -0.129   1.491  -7.245  1.00  0.00    -0.234 NA
ATOM      5  C   UNL     1       1.989   2.317  -6.709  1.00  0.00     0.101 A 
ATOM      6  S   UNL     1       1.220   2.217  -5.177  1.00  0.00    -0.125 S 
BRANCH   3   7
ATOM      7  C   UNL     1       1.465   1.769  -9.122  1.00  0.00     0.271 C 
ATOM      8  N   UNL     1       1.491   0.460  -9.535  1.00  0.00    -0.341 N 
ATOM      9  O   UNL     1       1.721   2.729  -9.838  1.00  0.00    -0.267 OA
ATOM     10  H   UNL     1       1.233  -0.229  -8.830  1.00  0.00     0.164 HD
BRANCH   8  11
ATOM     11  C   UNL     1       1.969   0.022 -10.836  1.00  0.00     0.140 C 
BRANCH  11  12
ATOM     12  C   UNL     1       0.773   0.002 -11.793  1.00  0.00     0.091 C 
ATOM     13  S   UNL     1       0.401   1.396 -12.778  1.00  0.00    -0.106 SA
ATOM     14  C   UNL     1      -0.771   0.418 -13.742  1.00  0.00     0.113 C 
ATOM     15  N   UNL     1      -0.040  -1.006 -11.854  1.00  0.00    -0.267 NA
ATOM     16  C   UNL     1      -1.166  -0.701 -12.792  1.00  0.00     0.205 CG0
ATOM     17  G   UNL     1      -2.441  -0.331 -12.015  1.00  0.00     0.000 G0
ENDBRANCH  11  12
BRANCH  11  18
ATOM     18  C   UNL     1       3.232   0.773 -11.329  1.00  0.00     0.015 C 
ATOM     19  C   UNL     1       4.399   0.552 -10.357  1.00  0.00     0.010 C 
BRANCH  18  20
ATOM     20  C   UNL     1       3.642   0.461 -12.782  1.00  0.00     0.002 C 
ATOM     21  C   UNL     1       4.372   1.617 -13.457  1.00  0.00     0.004 C 
ENDBRANCH  18  20
ENDBRANCH  11  18
ENDBRANCH   8  11
ENDBRANCH   3   7
ENDBRANCH   1   2
BRANCH   1  22
ATOM     22  N   UNL     1      -1.977   0.024  -5.815  1.00  0.00    -0.348 N 
ATOM     23  C   UNL     1      -3.324  -0.136  -5.996  1.00  0.00     0.249 C 
ATOM     24  O   UNL     1      -4.153   0.699  -5.650  1.00  0.00    -0.272 OA
ATOM     25  H   UNL     1      -1.380  -0.741  -6.127  1.00  0.00     0.163 HD
BRANCH  23  26
ATOM     26  C   UNL     1      -3.676  -1.439  -6.729  1.00  0.00     0.238 C 
ATOM     27  N   UNL     1      -4.544  -1.125  -7.899  1.00  0.00    -0.236 NA
ATOM     28  C   UNL     1      -2.446  -2.117  -7.306  1.00  0.00     0.206 C 
ATOM     29  C   UNL     1      -3.775  -1.377  -8.916  1.00  0.00     0.208 C 
ATOM     30  O   UNL     1      -2.516  -1.833  -8.702  1.00  0.00    -0.474 OA
ATOM     31  C   UNL     1      -2.468  -3.628  -7.116  1.00  0.00     0.056 C 
BRANCH  29  32
ATOM     32  C   UNL     1      -4.120  -1.162 -10.387  1.00  0.00     0.171 C 
BRANCH  32  33
ATOM     33  N   UNL     1      -2.946  -1.335 -11.227  1.00  0.00    -0.342 N 
ATOM     34  C   UNL     1      -2.431  -0.321 -11.999  1.00  0.00     0.246 CG0
ATOM     35  O   UNL     1      -2.935   0.797 -12.058  1.00  0.00    -0.273 OA
ATOM     36  H   UNL     1      -2.483  -2.235 -11.301  1.00  0.00     0.164 HD
ATOM     37  G   UNL     1      -1.152  -0.693 -12.767  1.00  0.00     0.000 G0
ENDBRANCH  32  33
BRANCH  32  38
ATOM     38  C   UNL     1      -5.295  -2.084 -10.808  1.00  0.00     0.017 C 
ATOM     39  C   UNL     1      -5.022  -3.524 -10.357  1.00  0.00     0.010 C 
BRANCH  38  40
ATOM     40  C   UNL     1      -6.667  -1.580 -10.305  1.00  0.00     0.002 C 
ATOM     41  C   UNL     1      -7.415  -2.598  -9.453  1.00  0.00     0.004 C 
ENDBRANCH  38  40
ENDBRANCH  32  38
ENDBRANCH  29  32
ENDBRANCH  23  26
ENDBRANCH   1  22
TORSDOF 4
ENDMDL
MODEL 6
REMARK VINA RESULT:    -4.447     19.172     22.042
REMARK INTER + INTRA:          -8.672
REMARK INTER:                  -7.104
REMARK INTRA:                  -1.568
REMARK UNBOUND:                -1.105
REMARK SMILES CC[C@H](C)[C@@H]1NC(=O)[C@H]2CSC(=N2)[C@@H]([C@@H](C)CC)NC(=O)c2csc(n2)CNC(=O)[C@H]2N=C1O[C@@H]2C
REMARK SMILES IDX 27 1 25 2 22 3 26 4 23 5 24 6 20 7 19 8 21 9 14 11 12 12
REMARK SMILES IDX 11 13 10 14 13 15 9 16 15 18 16 19 17 20 18 21 28 22 29 23
REMARK SMILES IDX 30 24 31 26 32 27 35 28 33 29 34 30 36 31 5 32 6 33 7 34
REMARK SMILES IDX 8 35 3 38 4 39 2 40 1 41
REMARK H PARENT 19 10 28 25 6 36
REMARK Flexibility Score:   91.900
ROOT
ATOM      1  C   UNL     1      13.342  10.481   5.110  1.00  0.00     0.183 C 
ENDROOT
BRANCH   1   2
ATOM      2  C   UNL     1      12.900  11.898   4.879  1.00  0.00     0.113 A 
ATOM      3  C   UNL     1      11.535  13.640   4.618  1.00  0.00     0.139 A 
ATOM      4  N   UNL     1      11.650  12.305   5.009  1.00  0.00    -0.234 NA
ATOM      5  C   UNL     1      12.727  14.234   4.253  1.00  0.00     0.101 A 
ATOM      6  S   UNL     1      14.012  13.104   4.374  1.00  0.00    -0.125 S 
BRANCH   3   7
ATOM      7  C   UNL     1      10.219  14.282   4.582  1.00  0.00     0.271 C 
ATOM      8  N   UNL     1       9.206  13.370   4.752  1.00  0.00    -0.341 N 
ATOM      9  O   UNL     1      10.051  15.480   4.389  1.00  0.00    -0.267 OA
ATOM     10  H   UNL     1       9.502  12.411   4.927  1.00  0.00     0.164 HD
BRANCH   8  11
ATOM     11  C   UNL     1       7.795  13.674   4.580  1.00  0.00     0.140 C 
BRANCH  11  12
ATOM     12  C   UNL     1       7.227  12.696   3.547  1.00  0.00     0.091 C 
ATOM     13  S   UNL     1       5.688  11.913   3.820  1.00  0.00    -0.106 SA
ATOM     14  C   UNL     1       5.665  11.335   2.110  1.00  0.00     0.113 C 
ATOM     15  N   UNL     1       7.887  12.359   2.485  1.00  0.00    -0.267 NA
ATOM     16  C   UNL     1       7.135  11.313   1.722  1.00  0.00     0.205 CG0
ATOM     17  G   UNL     1       7.739   9.920   1.961  1.00  0.00     0.000 G0
ENDBRANCH  11  12
BRANCH  11  18
ATOM     18  C   UNL     1       7.011  13.805   5.910  1.00  0.00     0.015 C 
ATOM     19  C   UNL     1       7.897  13.398   7.096  1.00  0.00     0.010 C 
BRANCH  18  20
ATOM     20  C   UNL     1       6.358  15.183   6.142  1.00  0.00     0.002 C 
ATOM     21  C   UNL     1       7.350  16.336   6.043  1.00  0.00     0.004 C 
ENDBRANCH  18  20
ENDBRANCH  11  18
ENDBRANCH   8  11
ENDBRANCH   3   7
ENDBRANCH   1   2
BRANCH   1  22
ATOM     22  N   UNL     1      13.074   9.742   3.897  1.00  0.00    -0.348 N 
ATOM     23  C   UNL     1      12.283   8.628   3.822  1.00  0.00     0.249 C 
ATOM     24  O   UNL     1      11.646   8.190   4.773  1.00  0.00    -0.272 OA
ATOM     25  H   UNL     1      13.571  10.008   3.048  1.00  0.00     0.163 HD
BRANCH  23  26
ATOM     26  C   UNL     1      12.232   8.028   2.409  1.00  0.00     0.238 C 
ATOM     27  N   UNL     1      10.897   7.406   2.186  1.00  0.00    -0.236 NA
ATOM     28  C   UNL     1      12.369   9.092   1.333  1.00  0.00     0.206 C 
ATOM     29  C   UNL     1      10.348   8.187   1.305  1.00  0.00     0.208 C 
ATOM     30  O   UNL     1      11.043   9.251   0.832  1.00  0.00    -0.474 OA
ATOM     31  C   UNL     1      13.272   8.653   0.188  1.00  0.00     0.056 C 
BRANCH  29  32
ATOM     32  C   UNL     1       8.930   8.072   0.753  1.00  0.00     0.171 C 
BRANCH  32  33
ATOM     33  N   UNL     1       8.257   9.362   0.775  1.00  0.00    -0.342 N 
ATOM     34  C   UNL     1       7.750   9.913   1.928  1.00  0.00     0.246 CG0
ATOM     35  O   UNL     1       7.801   9.350   3.019  1.00  0.00    -0.273 OA
ATOM     36  H   UNL     1       8.106   9.889  -0.078  1.00  0.00     0.164 HD
ATOM     37  G   UNL     1       7.130  11.308   1.747  1.00  0.00     0.000 G0
ENDBRANCH  32  33
BRANCH  32  38
ATOM     38  C   UNL     1       8.948   7.436  -0.662  1.00  0.00     0.017 C 
ATOM     39  C   UNL     1       7.655   6.647  -0.901  1.00  0.00     0.010 C 
BRANCH  38  40
ATOM     40  C   UNL     1       9.201   8.469  -1.784  1.00  0.00     0.002 C 
ATOM     41  C   UNL     1       8.662   8.038  -3.142  1.00  0.00     0.004 C 
ENDBRANCH  38  40
ENDBRANCH  32  38
ENDBRANCH  29  32
ENDBRANCH  23  26
ENDBRANCH   1  22
TORSDOF 4
ENDMDL
MODEL 7
REMARK VINA RESULT:    -4.361     15.740     17.137
REMARK INTER + INTRA:          -8.526
REMARK INTER:                  -7.377
REMARK INTRA:                  -1.149
REMARK UNBOUND:                -1.105
REMARK SMILES CC[C@H](C)[C@@H]1NC(=O)[C@H]2CSC(=N2)[C@@H]([C@@H](C)CC)NC(=O)c2csc(n2)CNC(=O)[C@H]2N=C1O[C@@H]2C
REMARK SMILES IDX 27 1 25 2 22 3 26 4 23 5 24 6 20 7 19 8 21 9 14 11 12 12
REMARK SMILES IDX 11 13 10 14 13 15 9 16 15 18 16 19 17 20 18 21 28 22 29 23
REMARK SMILES IDX 30 24 31 26 32 27 35 28 33 29 34 30 36 31 5 32 6 33 7 34
REMARK SMILES IDX 8 35 3 38 4 39 2 40 1 41
REMARK H PARENT 19 10 28 25 6 36
REMARK Flexibility Score:   91.900
ROOT
ATOM      1  C   UNL     1      -2.873   4.366  -7.889  1.00  0.00     0.183 C 
ENDROOT
BRANCH   1   2
ATOM      2  C   UNL     1      -4.116   3.720  -8.428  1.00  0.00     0.113 A 
ATOM      3  C   UNL     1      -5.414   2.223  -9.450  1.00  0.00     0.139 A 
ATOM      4  N   UNL     1      -4.148   2.497  -8.927  1.00  0.00    -0.234 NA
ATOM      5  C   UNL     1      -6.335   3.237  -9.279  1.00  0.00     0.101 A 
ATOM      6  S   UNL     1      -5.608   4.568  -8.475  1.00  0.00    -0.125 S 
BRANCH   3   7
ATOM      7  C   UNL     1      -5.660   0.959 -10.147  1.00  0.00     0.271 C 
ATOM      8  N   UNL     1      -5.350  -0.122  -9.359  1.00  0.00    -0.341 N 
ATOM      9  O   UNL     1      -6.060   0.885 -11.302  1.00  0.00    -0.267 OA
ATOM     10  H   UNL     1      -5.050   0.096  -8.409  1.00  0.00     0.164 HD
BRANCH   8  11
ATOM     11  C   UNL     1      -5.312  -1.496  -9.834  1.00  0.00     0.140 C 
BRANCH  11  12
ATOM     12  C   UNL     1      -3.956  -2.090  -9.445  1.00  0.00     0.091 C 
ATOM     13  S   UNL     1      -3.263  -1.767  -7.873  1.00  0.00    -0.106 SA
ATOM     14  C   UNL     1      -2.018  -3.046  -8.145  1.00  0.00     0.113 C 
ATOM     15  N   UNL     1      -3.245  -2.783 -10.278  1.00  0.00    -0.267 NA
ATOM     16  C   UNL     1      -1.929  -3.139  -9.660  1.00  0.00     0.205 CG0
ATOM     17  G   UNL     1      -0.809  -2.234 -10.196  1.00  0.00     0.000 G0
ENDBRANCH  11  12
BRANCH  11  18
ATOM     18  C   UNL     1      -6.564  -2.328  -9.455  1.00  0.00     0.015 C 
ATOM     19  C   UNL     1      -7.843  -1.597  -9.883  1.00  0.00     0.010 C 
BRANCH  18  20
ATOM     20  C   UNL     1      -6.549  -3.784  -9.966  1.00  0.00     0.002 C 
ATOM     21  C   UNL     1      -6.805  -4.804  -8.863  1.00  0.00     0.004 C 
ENDBRANCH  18  20
ENDBRANCH  11  18
ENDBRANCH   8  11
ENDBRANCH   3   7
ENDBRANCH   1   2
BRANCH   1  22
ATOM     22  N   UNL     1      -1.811   3.386  -7.958  1.00  0.00    -0.348 N 
ATOM     23  C   UNL     1      -0.610   3.581  -8.584  1.00  0.00     0.249 C 
ATOM     24  O   UNL     1      -0.277   4.651  -9.082  1.00  0.00    -0.272 OA
ATOM     25  H   UNL     1      -1.990   2.451  -7.593  1.00  0.00     0.163 HD
BRANCH  23  26
ATOM     26  C   UNL     1       0.293   2.340  -8.539  1.00  0.00     0.238 C 
ATOM     27  N   UNL     1      -0.439   1.178  -9.116  1.00  0.00    -0.236 NA
ATOM     28  C   UNL     1       1.533   2.507  -9.401  1.00  0.00     0.206 C 
ATOM     29  C   UNL     1       0.192   0.950 -10.229  1.00  0.00     0.208 C 
ATOM     30  O   UNL     1       1.259   1.719 -10.559  1.00  0.00    -0.474 OA
ATOM     31  C   UNL     1       2.788   1.965  -8.730  1.00  0.00     0.056 C 
BRANCH  29  32
ATOM     32  C   UNL     1      -0.173  -0.095 -11.279  1.00  0.00     0.171 C 
BRANCH  32  33
ATOM     33  N   UNL     1      -1.133  -1.050 -10.749  1.00  0.00    -0.342 N 
ATOM     34  C   UNL     1      -0.757  -2.256 -10.208  1.00  0.00     0.246 CG0
ATOM     35  O   UNL     1       0.411  -2.632 -10.155  1.00  0.00    -0.273 OA
ATOM     36  H   UNL     1      -2.131  -0.871 -10.794  1.00  0.00     0.164 HD
ATOM     37  G   UNL     1      -1.919  -3.094  -9.650  1.00  0.00     0.000 G0
ENDBRANCH  32  33
BRANCH  32  38
ATOM     38  C   UNL     1      -0.673   0.592 -12.577  1.00  0.00     0.017 C 
ATOM     39  C   UNL     1      -1.833   1.543 -12.257  1.00  0.00     0.010 C 
BRANCH  38  40
ATOM     40  C   UNL     1       0.456   1.311 -13.351  1.00  0.00     0.002 C 
ATOM     41  C   UNL     1       1.446   0.359 -14.010  1.00  0.00     0.004 C 
ENDBRANCH  38  40
ENDBRANCH  32  38
ENDBRANCH  29  32
ENDBRANCH  23  26
ENDBRANCH   1  22
TORSDOF 4
ENDMDL
MODEL 8
REMARK VINA RESULT:    -4.290     16.575     19.958
REMARK INTER + INTRA:          -8.404
REMARK INTER:                  -6.662
REMARK INTRA:                  -1.742
REMARK UNBOUND:                -1.105
REMARK SMILES CC[C@H](C)[C@@H]1NC(=O)[C@H]2CSC(=N2)[C@@H]([C@@H](C)CC)NC(=O)c2csc(n2)CNC(=O)[C@H]2N=C1O[C@@H]2C
REMARK SMILES IDX 27 1 25 2 22 3 26 4 23 5 24 6 20 7 19 8 21 9 14 11 12 12
REMARK SMILES IDX 11 13 10 14 13 15 9 16 15 18 16 19 17 20 18 21 28 22 29 23
REMARK SMILES IDX 30 24 31 26 32 27 35 28 33 29 34 30 36 31 5 32 6 33 7 34
REMARK SMILES IDX 8 35 3 38 4 39 2 40 1 41
REMARK H PARENT 19 10 28 25 6 36
REMARK Flexibility Score:   91.900
ROOT
ATOM      1  C   UNL     1       3.102   7.880   0.936  1.00  0.00     0.183 C 
ENDROOT
BRANCH   1   2
ATOM      2  C   UNL     1       3.881   9.032   1.502  1.00  0.00     0.113 A 
ATOM      3  C   UNL     1       5.504  10.132   2.562  1.00  0.00     0.139 A 
ATOM      4  N   UNL     1       5.091   8.915   2.016  1.00  0.00    -0.234 NA
ATOM      5  C   UNL     1       4.607  11.168   2.393  1.00  0.00     0.101 A 
ATOM      6  S   UNL     1       3.212  10.612   1.561  1.00  0.00    -0.125 S 
BRANCH   3   7
ATOM      7  C   UNL     1       6.779  10.219   3.278  1.00  0.00     0.271 C 
ATOM      8  N   UNL     1       7.704  10.951   2.576  1.00  0.00    -0.341 N 
ATOM      9  O   UNL     1       6.993   9.675   4.354  1.00  0.00    -0.267 OA
ATOM     10  H   UNL     1       7.372  11.363   1.705  1.00  0.00     0.164 HD
BRANCH   8  11
ATOM     11  C   UNL     1       9.108  11.057   2.939  1.00  0.00     0.140 C 
BRANCH  11  12
ATOM     12  C   UNL     1       9.931  10.397   1.829  1.00  0.00     0.091 C 
ATOM     13  S   UNL     1      11.223  11.272   1.042  1.00  0.00    -0.106 SA
ATOM     14  C   UNL     1      11.799   9.748   0.263  1.00  0.00     0.113 C 
ATOM     15  N   UNL     1       9.659   9.209   1.386  1.00  0.00    -0.267 NA
ATOM     16  C   UNL     1      10.556   8.872   0.236  1.00  0.00     0.205 CG0
ATOM     17  G   UNL     1       9.814   9.023  -1.101  1.00  0.00     0.000 G0
ENDBRANCH  11  12
BRANCH  11  18
ATOM     18  C   UNL     1       9.543  12.483   3.364  1.00  0.00     0.015 C 
ATOM     19  C   UNL     1       8.316  13.386   3.541  1.00  0.00     0.010 C 
BRANCH  18  20
ATOM     20  C   UNL     1      10.464  12.533   4.601  1.00  0.00     0.002 C 
ATOM     21  C   UNL     1      10.243  11.365   5.555  1.00  0.00     0.004 C 
ENDBRANCH  18  20
ENDBRANCH  11  18
ENDBRANCH   8  11
ENDBRANCH   3   7
ENDBRANCH   1   2
BRANCH   1  22
ATOM     22  N   UNL     1       3.954   7.210  -0.021  1.00  0.00    -0.348 N 
ATOM     23  C   UNL     1       3.684   7.094  -1.357  1.00  0.00     0.249 C 
ATOM     24  O   UNL     1       2.721   7.627  -1.898  1.00  0.00    -0.272 OA
ATOM     25  H   UNL     1       4.773   6.712   0.325  1.00  0.00     0.163 HD
BRANCH  23  26
ATOM     26  C   UNL     1       4.747   6.280  -2.111  1.00  0.00     0.238 C 
ATOM     27  N   UNL     1       5.640   7.210  -2.857  1.00  0.00    -0.236 NA
ATOM     28  C   UNL     1       5.656   5.517  -1.163  1.00  0.00     0.206 C 
ATOM     29  C   UNL     1       6.770   7.111  -2.223  1.00  0.00     0.208 C 
ATOM     30  O   UNL     1       6.869   6.269  -1.165  1.00  0.00    -0.474 OA
ATOM     31  C   UNL     1       5.957   4.106  -1.652  1.00  0.00     0.056 C 
BRANCH  29  32
ATOM     32  C   UNL     1       8.041   7.906  -2.510  1.00  0.00     0.171 C 
BRANCH  32  33
ATOM     33  N   UNL     1       8.899   7.955  -1.337  1.00  0.00    -0.342 N 
ATOM     34  C   UNL     1       9.781   8.983  -1.107  1.00  0.00     0.246 CG0
ATOM     35  O   UNL     1       9.933   9.923  -1.884  1.00  0.00    -0.273 OA
ATOM     36  H   UNL     1       8.900   7.203  -0.656  1.00  0.00     0.164 HD
ATOM     37  G   UNL     1      10.552   8.877   0.219  1.00  0.00     0.000 G0
ENDBRANCH  32  33
BRANCH  32  38
ATOM     38  C   UNL     1       8.769   7.333  -3.755  1.00  0.00     0.017 C 
ATOM     39  C   UNL     1       8.543   5.819  -3.848  1.00  0.00     0.010 C 
BRANCH  38  40
ATOM     40  C   UNL     1       8.372   8.049  -5.067  1.00  0.00     0.002 C 
ATOM     41  C   UNL     1       7.567   7.174  -6.019  1.00  0.00     0.004 C 
ENDBRANCH  38  40
ENDBRANCH  32  38
ENDBRANCH  29  32
ENDBRANCH  23  26
ENDBRANCH   1  22
TORSDOF 4
ENDMDL
MODEL 9
REMARK VINA RESULT:    -3.855     15.376     17.319
REMARK INTER + INTRA:          -7.665
REMARK INTER:                  -6.487
REMARK INTRA:                  -1.179
REMARK UNBOUND:                -1.105
REMARK SMILES CC[C@H](C)[C@@H]1NC(=O)[C@H]2CSC(=N2)[C@@H]([C@@H](C)CC)NC(=O)c2csc(n2)CNC(=O)[C@H]2N=C1O[C@@H]2C
REMARK SMILES IDX 27 1 25 2 22 3 26 4 23 5 24 6 20 7 19 8 21 9 14 11 12 12
REMARK SMILES IDX 11 13 10 14 13 15 9 16 15 18 16 19 17 20 18 21 28 22 29 23
REMARK SMILES IDX 30 24 31 26 32 27 35 28 33 29 34 30 36 31 5 32 6 33 7 34
REMARK SMILES IDX 8 35 3 38 4 39 2 40 1 41
REMARK H PARENT 19 10 28 25 6 36
REMARK Flexibility Score:   91.900
ROOT
ATOM      1  C   UNL     1      -2.363   3.893  -7.963  1.00  0.00     0.183 C 
ENDROOT
BRANCH   1   2
ATOM      2  C   UNL     1      -3.603   3.054  -8.081  1.00  0.00     0.113 A 
ATOM      3  C   UNL     1      -4.934   1.373  -8.690  1.00  0.00     0.139 A 
ATOM      4  N   UNL     1      -3.623   1.849  -8.621  1.00  0.00    -0.234 NA
ATOM      5  C   UNL     1      -5.879   2.217  -8.140  1.00  0.00     0.101 A 
ATOM      6  S   UNL     1      -5.126   3.641  -7.547  1.00  0.00    -0.125 S 
BRANCH   3   7
ATOM      7  C   UNL     1      -5.215   0.094  -9.345  1.00  0.00     0.271 C 
ATOM      8  N   UNL     1      -4.433  -0.916  -8.841  1.00  0.00    -0.341 N 
ATOM      9  O   UNL     1      -6.025  -0.042 -10.253  1.00  0.00    -0.267 OA
ATOM     10  H   UNL     1      -3.820  -0.655  -8.069  1.00  0.00     0.164 HD
BRANCH   8  11
ATOM     11  C   UNL     1      -4.350  -2.250  -9.413  1.00  0.00     0.140 C 
BRANCH  11  12
ATOM     12  C   UNL     1      -2.871  -2.576  -9.634  1.00  0.00     0.091 C 
ATOM     13  S   UNL     1      -1.997  -3.559  -8.482  1.00  0.00    -0.106 SA
ATOM     14  C   UNL     1      -0.620  -3.713  -9.639  1.00  0.00     0.113 C 
ATOM     15  N   UNL     1      -2.200  -2.083 -10.627  1.00  0.00    -0.267 NA
ATOM     16  C   UNL     1      -0.761  -2.486 -10.526  1.00  0.00     0.205 CG0
ATOM     17  G   UNL     1       0.096  -1.327  -9.991  1.00  0.00     0.000 G0
ENDBRANCH  11  12
BRANCH  11  18
ATOM     18  C   UNL     1      -5.185  -3.313  -8.654  1.00  0.00     0.015 C 
ATOM     19  C   UNL     1      -6.491  -2.698  -8.134  1.00  0.00     0.010 C 
BRANCH  18  20
ATOM     20  C   UNL     1      -5.449  -4.610  -9.446  1.00  0.00     0.002 C 
ATOM     21  C   UNL     1      -6.810  -5.226  -9.142  1.00  0.00     0.004 C 
ENDBRANCH  18  20
ENDBRANCH  11  18
ENDBRANCH   8  11
ENDBRANCH   3   7
ENDBRANCH   1   2
BRANCH   1  22
ATOM     22  N   UNL     1      -1.564   3.651  -9.143  1.00  0.00    -0.348 N 
ATOM     23  C   UNL     1      -1.127   4.624 -10.001  1.00  0.00     0.249 C 
ATOM     24  O   UNL     1      -1.301   5.822  -9.804  1.00  0.00    -0.272 OA
ATOM     25  H   UNL     1      -1.378   2.686  -9.414  1.00  0.00     0.163 HD
BRANCH  23  26
ATOM     26  C   UNL     1      -0.346   4.057 -11.196  1.00  0.00     0.238 C 
ATOM     27  N   UNL     1       0.809   3.262 -10.695  1.00  0.00    -0.236 NA
ATOM     28  C   UNL     1      -1.183   3.088 -12.014  1.00  0.00     0.206 C 
ATOM     29  C   UNL     1       0.485   2.041 -11.000  1.00  0.00     0.208 C 
ATOM     30  O   UNL     1      -0.683   1.803 -11.646  1.00  0.00    -0.474 OA
ATOM     31  C   UNL     1      -0.992   3.272 -13.513  1.00  0.00     0.056 C 
BRANCH  29  32
ATOM     32  C   UNL     1       1.277   0.782 -10.656  1.00  0.00     0.171 C 
BRANCH  32  33
ATOM     33  N   UNL     1       0.508  -0.414 -10.961  1.00  0.00    -0.342 N 
ATOM     34  C   UNL     1       0.108  -1.304  -9.993  1.00  0.00     0.246 CG0
ATOM     35  O   UNL     1       0.390  -1.173  -8.804  1.00  0.00    -0.273 OA
ATOM     36  H   UNL     1       0.268  -0.654 -11.917  1.00  0.00     0.164 HD
ATOM     37  G   UNL     1      -0.746  -2.472 -10.514  1.00  0.00     0.000 G0
ENDBRANCH  32  33
BRANCH  32  38
ATOM     38  C   UNL     1       2.657   0.798 -11.365  1.00  0.00     0.017 C 
ATOM     39  C   UNL     1       2.484   1.161 -12.845  1.00  0.00     0.010 C 
BRANCH  38  40
ATOM     40  C   UNL     1       3.681   1.723 -10.668  1.00  0.00     0.002 C 
ATOM     41  C   UNL     1       3.592   1.695  -9.148  1.00  0.00     0.004 C 
ENDBRANCH  38  40
ENDBRANCH  32  38
ENDBRANCH  29  32
ENDBRANCH  23  26
ENDBRANCH   1  22
TORSDOF 4
ENDMDL
MODEL 10
REMARK VINA RESULT:    -3.740      3.927      6.246
REMARK INTER + INTRA:          -7.469
REMARK INTER:                  -6.071
REMARK INTRA:                  -1.397
REMARK UNBOUND:                -1.105
REMARK SMILES CC[C@H](C)[C@@H]1NC(=O)[C@H]2CSC(=N2)[C@@H]([C@@H](C)CC)NC(=O)c2csc(n2)CNC(=O)[C@H]2N=C1O[C@@H]2C
REMARK SMILES IDX 27 1 25 2 22 3 26 4 23 5 24 6 20 7 19 8 21 9 14 11 12 12
REMARK SMILES IDX 11 13 10 14 13 15 9 16 15 18 16 19 17 20 18 21 28 22 29 23
REMARK SMILES IDX 30 24 31 26 32 27 35 28 33 29 34 30 36 31 5 32 6 33 7 34
REMARK SMILES IDX 8 35 3 38 4 39 2 40 1 41
REMARK H PARENT 19 10 28 25 6 36
REMARK Flexibility Score:   91.900
ROOT
ATOM      1  C   UNL     1      -4.222  -3.098  -0.138  1.00  0.00     0.183 C 
ENDROOT
BRANCH   1   2
ATOM      2  C   UNL     1      -4.180  -2.654   1.296  1.00  0.00     0.113 A 
ATOM      3  C   UNL     1      -4.734  -2.504   3.450  1.00  0.00     0.139 A 
ATOM      4  N   UNL     1      -4.904  -3.205   2.253  1.00  0.00    -0.234 NA
ATOM      5  C   UNL     1      -3.829  -1.464   3.379  1.00  0.00     0.101 A 
ATOM      6  S   UNL     1      -3.196  -1.337   1.789  1.00  0.00    -0.125 S 
BRANCH   3   7
ATOM      7  C   UNL     1      -5.516  -2.872   4.632  1.00  0.00     0.271 C 
ATOM      8  N   UNL     1      -5.779  -4.220   4.665  1.00  0.00    -0.341 N 
ATOM      9  O   UNL     1      -5.911  -2.066   5.464  1.00  0.00    -0.267 OA
ATOM     10  H   UNL     1      -5.363  -4.769   3.913  1.00  0.00     0.164 HD
BRANCH   8  11
ATOM     11  C   UNL     1      -6.686  -4.852   5.609  1.00  0.00     0.140 C 
BRANCH  11  12
ATOM     12  C   UNL     1      -7.964  -5.228   4.854  1.00  0.00     0.091 C 
ATOM     13  S   UNL     1      -8.614  -6.847   4.959  1.00  0.00    -0.106 SA
ATOM     14  C   UNL     1     -10.142  -6.299   4.170  1.00  0.00     0.113 C 
ATOM     15  N   UNL     1      -8.563  -4.396   4.061  1.00  0.00    -0.267 NA
ATOM     16  C   UNL     1      -9.714  -5.070   3.383  1.00  0.00     0.205 CG0
ATOM     17  G   UNL     1      -9.354  -5.448   1.937  1.00  0.00     0.000 G0
ENDBRANCH  11  12
BRANCH  11  18
ATOM     18  C   UNL     1      -6.031  -5.973   6.457  1.00  0.00     0.015 C 
ATOM     19  C   UNL     1      -4.537  -6.090   6.128  1.00  0.00     0.010 C 
BRANCH  18  20
ATOM     20  C   UNL     1      -6.266  -5.853   7.976  1.00  0.00     0.002 C 
ATOM     21  C   UNL     1      -6.670  -7.174   8.622  1.00  0.00     0.004 C 
ENDBRANCH  18  20
ENDBRANCH  11  18
ENDBRANCH   8  11
ENDBRANCH   3   7
ENDBRANCH   1   2
BRANCH   1  22
ATOM     22  N   UNL     1      -5.562  -2.858  -0.626  1.00  0.00    -0.348 N 
ATOM     23  C   UNL     1      -5.868  -2.109  -1.729  1.00  0.00     0.249 C 
ATOM     24  O   UNL     1      -5.019  -1.630  -2.473  1.00  0.00    -0.272 OA
ATOM     25  H   UNL     1      -6.348  -3.194  -0.070  1.00  0.00     0.163 HD
BRANCH  23  26
ATOM     26  C   UNL     1      -7.380  -1.988  -1.967  1.00  0.00     0.238 C 
ATOM     27  N   UNL     1      -7.979  -3.351  -2.025  1.00  0.00    -0.236 NA
ATOM     28  C   UNL     1      -8.082  -1.285  -0.817  1.00  0.00     0.206 C 
ATOM     29  C   UNL     1      -8.686  -3.412  -0.936  1.00  0.00     0.208 C 
ATOM     30  O   UNL     1      -8.726  -2.341  -0.107  1.00  0.00    -0.474 OA
ATOM     31  C   UNL     1      -9.142  -0.301  -1.294  1.00  0.00     0.056 C 
BRANCH  29  32
ATOM     32  C   UNL     1      -9.470  -4.621  -0.434  1.00  0.00     0.171 C 
BRANCH  32  33
ATOM     33  N   UNL     1      -9.765  -4.496   0.985  1.00  0.00    -0.342 N 
ATOM     34  C   UNL     1      -9.367  -5.432   1.910  1.00  0.00     0.246 CG0
ATOM     35  O   UNL     1      -8.756  -6.454   1.608  1.00  0.00    -0.273 OA
ATOM     36  H   UNL     1     -10.315  -3.721   1.340  1.00  0.00     0.164 HD
ATOM     37  G   UNL     1      -9.726  -5.083   3.363  1.00  0.00     0.000 G0
ENDBRANCH  32  33
BRANCH  32  38
ATOM     38  C   UNL     1     -10.746  -4.834  -1.290  1.00  0.00     0.017 C 
ATOM     39  C   UNL     1     -11.773  -5.662  -0.508  1.00  0.00     0.010 C 
BRANCH  38  40
ATOM     40  C   UNL     1     -11.356  -3.509  -1.803  1.00  0.00     0.002 C 
ATOM     41  C   UNL     1     -12.544  -3.706  -2.736  1.00  0.00     0.004 C 
ENDBRANCH  38  40
ENDBRANCH  32  38
ENDBRANCH  29  32
ENDBRANCH  23  26
ENDBRANCH   1  22
TORSDOF 4
ENDMDL
