MODEL 1
REMARK VINA RESULT:    -8.279      0.000      0.000
REMARK INTER + INTRA:         -30.401
REMARK INTER:                 -24.734
REMARK INTRA:                  -5.667
REMARK UNBOUND:                -5.667
REMARK SMILES C=C1C(=O)N[C@H](C)C(=O)N[C@@H](CC(C)C)C(=O)N[C@@H](C(=O)O)[C@H](C)C(=O)N[C@@H](CCCN=C(N)N)C(=O)N[C@@H](/C=C/C(C)=C/[C@H](C)[C@H](Cc2ccccc2)OC)[C@H](C)C(=O)N[C@@H](C(=O)O)CCC(=O)N1C
REMARK SMILES IDX 39 1 38 2 37 3 36 4 28 6 27 7 25 8 26 9 23 11 24 12 19 13
REMARK SMILES IDX 18 14 16 15 17 16 11 18 10 19 8 20 9 21 12 24 13 25 14 26
REMARK SMILES IDX 15 27 20 28 21 29 22 30 29 32 30 33 31 34 32 35 33 36 34 37
REMARK SMILES IDX 35 38 57 43 58 44 59 45 60 46 61 47 62 49 66 50 67 51 68 52
REMARK SMILES IDX 69 53 70 54 71 55 2 56 1 57 3 58 4 59 5 60 6 62 7 63 63 65
REMARK SMILES IDX 64 66 65 67 40 69 41 70 42 71 44 72 43 73 45 74 46 75 47 76
REMARK SMILES IDX 55 77 56 78 48 79 49 80 50 81 54 82 51 83 53 84 52 85
REMARK H PARENT 38 5 27 10 18 17 10 22 22 31 34 39 34 40 35 41 35 42 61 48
REMARK H PARENT 5 61 65 68
REMARK Flexibility Score:  369.900
ROOT
ATOM      1  C   UNL     1       6.751  -4.571  -1.668  1.00  0.00     0.117 C 
ENDROOT
BRANCH   1   2
ATOM      2  N   UNL     1       5.738  -3.613  -1.224  1.00  0.00    -0.347 N 
ATOM      3  O   UNL     1       4.187  -5.127  -0.467  1.00  0.00    -0.273 OA
ATOM      4  C   UNL     1       4.572  -3.967  -0.573  1.00  0.00     0.243 C 
ATOM      5  H   UNL     1       5.904  -2.625  -1.346  1.00  0.00     0.164 HD
BRANCH   4   6
ATOM      6  C   UNL     1       3.712  -2.755  -0.133  1.00  0.00     0.171 C 
BRANCH   6   7
ATOM      7  N   UNL     1       4.124  -2.289   1.201  1.00  0.00    -0.344 N 
ATOM      8  C   UNL     1       3.356  -2.568   2.311  1.00  0.00     0.226 C 
ATOM      9  O   UNL     1       2.300  -3.186   2.245  1.00  0.00    -0.275 OA
ATOM     10  H   UNL     1       4.955  -1.718   1.286  1.00  0.00     0.164 HD
BRANCH   8  11
ATOM     11  C   UNL     1       3.943  -2.067   3.619  1.00  0.00     0.109 C 
ATOM     12  C   UNL     1       3.057  -2.493   4.790  1.00  0.00     0.021 C 
BRANCH  11  13
ATOM     13  C   UNL     1       5.418  -2.502   3.730  1.00  0.00     0.204 C 
BRANCH  13  14
ATOM     14  N   UNL     1       6.308  -1.370   4.006  1.00  0.00    -0.340 N 
ATOM     15  C   UNL     1       7.084  -0.775   3.035  1.00  0.00     0.243 C 
ATOM     16  O   UNL     1       7.038  -1.113   1.854  1.00  0.00    -0.273 OA
ATOM     17  H   UNL     1       6.506  -1.142   4.984  1.00  0.00     0.164 HD
BRANCH  15  18
ATOM     18  C   UNL     1       8.093   0.257   3.597  1.00  0.00     0.171 C 
BRANCH  18  19
ATOM     19  N   UNL     1       7.933   0.251   5.049  1.00  0.00    -0.343 N 
ATOM     20  C   UNL     1       8.003   1.412   5.795  1.00  0.00     0.242 CG0
ATOM     21  O   UNL     1       8.334   2.482   5.290  1.00  0.00    -0.273 OA
ATOM     22  H   UNL     1       7.772  -0.628   5.528  1.00  0.00     0.164 HD
ATOM     23  G   UNL     1       7.731   1.218   7.301  1.00  0.00     0.000 G0
ENDBRANCH  18  19
BRANCH  18  24
ATOM     24  C   UNL     1       9.525  -0.109   3.187  1.00  0.00     0.038 C 
BRANCH  24  25
ATOM     25  C   UNL     1      10.371   1.075   2.673  1.00  0.00    -0.015 C 
ATOM     26  C   UNL     1      10.806   0.896   1.219  1.00  0.00     0.007 C 
ATOM     27  C   UNL     1      11.605   1.251   3.562  1.00  0.00     0.007 C 
ENDBRANCH  24  25
ENDBRANCH  18  24
ENDBRANCH  15  18
ENDBRANCH  13  14
BRANCH  13  28
ATOM     28  C   UNL     1       5.658  -3.546   4.825  1.00  0.00     0.327 C 
ATOM     29  O   UNL     1       5.316  -4.719   4.793  1.00  0.00    -0.250 OA
BRANCH  28  30
ATOM     30  O   UNL     1       6.208  -3.025   5.940  1.00  0.00    -0.480 OA
ATOM     31  H   UNL     1       7.142  -3.319   5.909  1.00  0.00     0.296 HD
ENDBRANCH  28  30
ENDBRANCH  13  28
ENDBRANCH  11  13
ENDBRANCH   8  11
ENDBRANCH   6   7
BRANCH   6  32
ATOM     32  C   UNL     1       3.850  -1.636  -1.171  1.00  0.00     0.037 C 
BRANCH  32  33
ATOM     33  C   UNL     1       4.718  -0.477  -0.661  1.00  0.00     0.026 C 
BRANCH  33  34
ATOM     34  C   UNL     1       3.883   0.689  -0.130  1.00  0.00     0.146 C 
BRANCH  34  35
ATOM     35  N   UNL     1       4.202   0.893   1.277  1.00  0.00    -0.254 NA
ATOM     36  C   UNL     1       3.526   1.755   1.941  1.00  0.00     0.185 C 
ATOM     37  N   UNL     1       3.808   1.947   3.239  1.00  0.00    -0.370 N 
ATOM     38  N   UNL     1       2.520   2.544   1.523  1.00  0.00    -0.370 N 
ATOM     39  H   UNL     1       4.549   1.381   3.632  1.00  0.00     0.159 HD
ATOM     40  H   UNL     1       3.219   2.470   3.865  1.00  0.00     0.159 HD
ATOM     41  H   UNL     1       2.161   3.282   2.106  1.00  0.00     0.159 HD
ATOM     42  H   UNL     1       2.213   2.517   0.564  1.00  0.00     0.159 HD
ENDBRANCH  34  35
ENDBRANCH  33  34
ENDBRANCH  32  33
ENDBRANCH   6  32
ENDBRANCH   4   6
ENDBRANCH   1   2
BRANCH   1  43
ATOM     43  C   UNL     1       6.062  -5.643  -2.560  1.00  0.00     0.102 C 
ATOM     44  C   UNL     1       6.840  -6.968  -2.636  1.00  0.00     0.020 C 
BRANCH  43  45
ATOM     45  C   UNL     1       5.687  -5.063  -3.927  1.00  0.00     0.225 C 
ATOM     46  O   UNL     1       5.058  -4.017  -4.062  1.00  0.00    -0.275 OA
ATOM     47  N   UNL     1       6.018  -5.842  -5.012  1.00  0.00    -0.342 N 
ATOM     48  H   UNL     1       6.661  -6.613  -4.896  1.00  0.00     0.164 HD
BRANCH  47  49
ATOM     49  C   UNL     1       5.753  -5.398  -6.384  1.00  0.00     0.192 C 
BRANCH  49  50
ATOM     50  C   UNL     1       4.691  -6.299  -7.020  1.00  0.00     0.047 C 
BRANCH  50  51
ATOM     51  C   UNL     1       3.903  -5.580  -8.123  1.00  0.00     0.103 C 
BRANCH  51  52
ATOM     52  C   UNL     1       3.332  -6.557  -9.149  1.00  0.00     0.226 C 
ATOM     53  O   UNL     1       3.058  -7.709  -8.808  1.00  0.00    -0.275 OA
BRANCH  52  54
ATOM     54  N   UNL     1       3.078  -6.040 -10.433  1.00  0.00    -0.311 N 
ATOM     55  C   UNL     1       4.180  -5.717 -11.349  1.00  0.00     0.153 C 
BRANCH  54  56
ATOM     56  C   UNL     1       1.767  -5.821 -10.888  1.00  0.00     0.102 C 
ATOM     57  C   UNL     1       1.193  -4.614 -11.024  1.00  0.00     0.043 C 
BRANCH  56  58
ATOM     58  C   UNL     1       0.892  -6.975 -11.317  1.00  0.00     0.268 C 
ATOM     59  O   UNL     1       0.007  -7.441 -10.613  1.00  0.00    -0.268 OA
ATOM     60  N   UNL     1       1.149  -7.401 -12.599  1.00  0.00    -0.339 N 
ATOM     61  H   UNL     1       1.907  -6.969 -13.113  1.00  0.00     0.164 HD
BRANCH  60  62
ATOM     62  C   UNL     1       0.375  -8.465 -13.236  1.00  0.00     0.168 CG0
ATOM     63  C   UNL     1      -0.689  -7.889 -14.162  1.00  0.00     0.041 C 
ATOM     64  G   UNL     1      -0.268  -9.356 -12.152  1.00  0.00     0.000 G0
ENDBRANCH  60  62
ENDBRANCH  56  58
ENDBRANCH  54  56
ENDBRANCH  52  54
ENDBRANCH  51  52
ENDBRANCH  50  51
ENDBRANCH  49  50
BRANCH  49  65
ATOM     65  C   UNL     1       7.025  -5.424  -7.244  1.00  0.00     0.326 C 
ATOM     66  O   UNL     1       7.369  -6.341  -7.976  1.00  0.00    -0.250 OA
BRANCH  65  67
ATOM     67  O   UNL     1       7.825  -4.344  -7.102  1.00  0.00    -0.480 OA
ATOM     68  H   UNL     1       8.724  -4.730  -7.024  1.00  0.00     0.296 HD
ENDBRANCH  65  67
ENDBRANCH  49  65
ENDBRANCH  47  49
ENDBRANCH  43  45
ENDBRANCH   1  43
BRANCH   1  69
ATOM     69  C   UNL     1       7.488  -5.019  -0.419  1.00  0.00    -0.001 C 
ATOM     70  C   UNL     1       8.795  -4.868  -0.142  1.00  0.00     0.001 C 
BRANCH  70  71
ATOM     71  C   UNL     1       9.490  -5.285   1.077  1.00  0.00    -0.055 C 
ATOM     72  C   UNL     1      10.791  -5.631   0.970  1.00  0.00    -0.018 C 
ATOM     73  C   UNL     1       8.709  -5.292   2.364  1.00  0.00     0.044 C 
BRANCH  72  74
ATOM     74  C   UNL     1      11.755  -6.096   2.052  1.00  0.00     0.038 C 
ATOM     75  C   UNL     1      13.081  -5.362   1.822  1.00  0.00     0.015 C 
BRANCH  74  76
ATOM     76  C   UNL     1      11.852  -7.650   2.002  1.00  0.00     0.128 C 
BRANCH  76  77
ATOM     77  O   UNL     1      13.197  -8.067   2.292  1.00  0.00    -0.381 OA
ATOM     78  C   UNL     1      13.296  -8.938   3.411  1.00  0.00     0.195 C 
ENDBRANCH  76  77
BRANCH  76  79
ATOM     79  C   UNL     1      10.798  -8.375   2.875  1.00  0.00     0.068 C 
BRANCH  79  80
ATOM     80  C   UNL     1       9.785  -9.252   2.179  1.00  0.00    -0.045 A 
ATOM     81  C   UNL     1       9.317 -10.429   2.778  1.00  0.00     0.004 A 
ATOM     82  C   UNL     1       9.316  -8.913   0.901  1.00  0.00     0.004 A 
ATOM     83  C   UNL     1       8.391 -11.242   2.121  1.00  0.00     0.000 A 
ATOM     84  C   UNL     1       8.391  -9.727   0.245  1.00  0.00     0.000 A 
ATOM     85  C   UNL     1       7.927 -10.890   0.855  1.00  0.00     0.000 A 
ENDBRANCH  79  80
ENDBRANCH  76  79
ENDBRANCH  74  76
ENDBRANCH  72  74
ENDBRANCH  70  71
ENDBRANCH   1  69
TORSDOF 17
ENDMDL
MODEL 2
REMARK VINA RESULT:    -8.149      1.529      2.003
REMARK INTER + INTRA:         -30.015
REMARK INTER:                 -24.314
REMARK INTRA:                  -5.701
REMARK UNBOUND:                -5.667
REMARK SMILES C=C1C(=O)N[C@H](C)C(=O)N[C@@H](CC(C)C)C(=O)N[C@@H](C(=O)O)[C@H](C)C(=O)N[C@@H](CCCN=C(N)N)C(=O)N[C@@H](/C=C/C(C)=C/[C@H](C)[C@H](Cc2ccccc2)OC)[C@H](C)C(=O)N[C@@H](C(=O)O)CCC(=O)N1C
REMARK SMILES IDX 39 1 38 2 37 3 36 4 28 6 27 7 25 8 26 9 23 11 24 12 19 13
REMARK SMILES IDX 18 14 16 15 17 16 11 18 10 19 8 20 9 21 12 24 13 25 14 26
REMARK SMILES IDX 15 27 20 28 21 29 22 30 29 32 30 33 31 34 32 35 33 36 34 37
REMARK SMILES IDX 35 38 57 43 58 44 59 45 60 46 61 47 62 49 66 50 67 51 68 52
REMARK SMILES IDX 69 53 70 54 71 55 2 56 1 57 3 58 4 59 5 60 6 62 7 63 63 65
REMARK SMILES IDX 64 66 65 67 40 69 41 70 42 71 44 72 43 73 45 74 46 75 47 76
REMARK SMILES IDX 55 77 56 78 48 79 49 80 50 81 54 82 51 83 53 84 52 85
REMARK H PARENT 38 5 27 10 18 17 10 22 22 31 34 39 34 40 35 41 35 42 61 48
REMARK H PARENT 5 61 65 68
REMARK Flexibility Score:  369.900
ROOT
ATOM      1  C   UNL     1       6.799  -4.517  -1.868  1.00  0.00     0.117 C 
ENDROOT
BRANCH   1   2
ATOM      2  N   UNL     1       5.822  -3.529  -1.410  1.00  0.00    -0.347 N 
ATOM      3  O   UNL     1       4.325  -4.986  -0.459  1.00  0.00    -0.273 OA
ATOM      4  C   UNL     1       4.704  -3.837  -0.659  1.00  0.00     0.243 C 
ATOM      5  H   UNL     1       5.981  -2.551  -1.600  1.00  0.00     0.164 HD
BRANCH   4   6
ATOM      6  C   UNL     1       3.880  -2.597  -0.229  1.00  0.00     0.171 C 
BRANCH   6   7
ATOM      7  N   UNL     1       4.241  -2.188   1.137  1.00  0.00    -0.344 N 
ATOM      8  C   UNL     1       3.453  -2.547   2.209  1.00  0.00     0.226 C 
ATOM      9  O   UNL     1       2.420  -3.193   2.082  1.00  0.00    -0.275 OA
ATOM     10  H   UNL     1       5.051  -1.596   1.275  1.00  0.00     0.164 HD
BRANCH   8  11
ATOM     11  C   UNL     1       3.987  -2.096   3.558  1.00  0.00     0.109 C 
ATOM     12  C   UNL     1       2.998  -2.461   4.664  1.00  0.00     0.021 C 
BRANCH  11  13
ATOM     13  C   UNL     1       5.416  -2.639   3.760  1.00  0.00     0.204 C 
BRANCH  13  14
ATOM     14  N   UNL     1       6.373  -1.573   4.071  1.00  0.00    -0.340 N 
ATOM     15  C   UNL     1       7.110  -0.924   3.104  1.00  0.00     0.243 C 
ATOM     16  O   UNL     1       6.971  -1.152   1.904  1.00  0.00    -0.273 OA
ATOM     17  H   UNL     1       6.645  -1.441   5.049  1.00  0.00     0.164 HD
BRANCH  15  18
ATOM     18  C   UNL     1       8.199   0.013   3.681  1.00  0.00     0.171 C 
BRANCH  18  19
ATOM     19  N   UNL     1       9.116   0.315   2.584  1.00  0.00    -0.343 N 
ATOM     20  C   UNL     1      10.471   0.063   2.675  1.00  0.00     0.242 CG0
ATOM     21  O   UNL     1      10.988  -0.301   3.729  1.00  0.00    -0.273 OA
ATOM     22  H   UNL     1       8.753   0.726   1.731  1.00  0.00     0.164 HD
ATOM     23  G   UNL     1      11.265   0.373   1.390  1.00  0.00     0.000 G0
ENDBRANCH  18  19
BRANCH  18  24
ATOM     24  C   UNL     1       7.570   1.288   4.255  1.00  0.00     0.038 C 
BRANCH  24  25
ATOM     25  C   UNL     1       8.282   1.855   5.501  1.00  0.00    -0.015 C 
ATOM     26  C   UNL     1       9.401   2.833   5.141  1.00  0.00     0.007 C 
ATOM     27  C   UNL     1       8.853   0.705   6.335  1.00  0.00     0.007 C 
ENDBRANCH  24  25
ENDBRANCH  18  24
ENDBRANCH  15  18
ENDBRANCH  13  14
BRANCH  13  28
ATOM     28  C   UNL     1       5.513  -3.677   4.883  1.00  0.00     0.327 C 
ATOM     29  O   UNL     1       5.070  -4.815   4.855  1.00  0.00    -0.250 OA
BRANCH  28  30
ATOM     30  O   UNL     1       6.056  -3.183   6.014  1.00  0.00    -0.480 OA
ATOM     31  H   UNL     1       6.311  -3.979   6.526  1.00  0.00     0.296 HD
ENDBRANCH  28  30
ENDBRANCH  13  28
ENDBRANCH  11  13
ENDBRANCH   8  11
ENDBRANCH   6   7
BRANCH   6  32
ATOM     32  C   UNL     1       4.129  -1.458  -1.225  1.00  0.00     0.037 C 
BRANCH  32  33
ATOM     33  C   UNL     1       3.055  -0.365  -1.135  1.00  0.00     0.026 C 
BRANCH  33  34
ATOM     34  C   UNL     1       3.625   0.979  -0.680  1.00  0.00     0.146 C 
BRANCH  34  35
ATOM     35  N   UNL     1       4.025   0.872   0.716  1.00  0.00    -0.254 NA
ATOM     36  C   UNL     1       3.448   1.621   1.580  1.00  0.00     0.185 C 
ATOM     37  N   UNL     1       3.805   1.527   2.870  1.00  0.00    -0.370 N 
ATOM     38  N   UNL     1       2.485   2.541   1.391  1.00  0.00    -0.370 N 
ATOM     39  H   UNL     1       4.520   0.847   3.095  1.00  0.00     0.159 HD
ATOM     40  H   UNL     1       3.287   1.947   3.622  1.00  0.00     0.159 HD
ATOM     41  H   UNL     1       2.209   3.166   2.131  1.00  0.00     0.159 HD
ATOM     42  H   UNL     1       2.130   2.729   0.466  1.00  0.00     0.159 HD
ENDBRANCH  34  35
ENDBRANCH  33  34
ENDBRANCH  32  33
ENDBRANCH   6  32
ENDBRANCH   4   6
ENDBRANCH   1   2
BRANCH   1  43
ATOM     43  C   UNL     1       6.056  -5.593  -2.712  1.00  0.00     0.102 C 
ATOM     44  C   UNL     1       6.780  -6.950  -2.749  1.00  0.00     0.020 C 
BRANCH  43  45
ATOM     45  C   UNL     1       5.685  -5.049  -4.095  1.00  0.00     0.225 C 
ATOM     46  O   UNL     1       5.019  -4.030  -4.258  1.00  0.00    -0.275 OA
ATOM     47  N   UNL     1       6.068  -5.829  -5.161  1.00  0.00    -0.342 N 
ATOM     48  H   UNL     1       6.738  -6.573  -5.022  1.00  0.00     0.164 HD
BRANCH  47  49
ATOM     49  C   UNL     1       5.813  -5.416  -6.544  1.00  0.00     0.192 C 
BRANCH  49  50
ATOM     50  C   UNL     1       4.765  -6.339  -7.171  1.00  0.00     0.047 C 
BRANCH  50  51
ATOM     51  C   UNL     1       3.807  -5.584  -8.103  1.00  0.00     0.103 C 
BRANCH  51  52
ATOM     52  C   UNL     1       3.137  -6.513  -9.113  1.00  0.00     0.226 C 
ATOM     53  O   UNL     1       3.432  -7.710  -9.130  1.00  0.00    -0.275 OA
BRANCH  52  54
ATOM     54  N   UNL     1       2.144  -5.941  -9.929  1.00  0.00    -0.311 N 
ATOM     55  C   UNL     1       1.864  -4.500  -9.881  1.00  0.00     0.153 C 
BRANCH  54  56
ATOM     56  C   UNL     1       1.390  -6.721 -10.822  1.00  0.00     0.102 C 
ATOM     57  C   UNL     1       0.235  -7.336 -10.519  1.00  0.00     0.043 C 
BRANCH  56  58
ATOM     58  C   UNL     1       1.824  -6.891 -12.259  1.00  0.00     0.268 C 
ATOM     59  O   UNL     1       2.368  -6.004 -12.904  1.00  0.00    -0.268 OA
ATOM     60  N   UNL     1       1.605  -8.159 -12.743  1.00  0.00    -0.339 N 
ATOM     61  H   UNL     1       1.139  -8.833 -12.148  1.00  0.00     0.164 HD
BRANCH  60  62
ATOM     62  C   UNL     1       2.007  -8.558 -14.091  1.00  0.00     0.168 CG0
ATOM     63  C   UNL     1       3.130  -9.587 -14.044  1.00  0.00     0.041 C 
ATOM     64  G   UNL     1       2.441  -7.313 -14.891  1.00  0.00     0.000 G0
ENDBRANCH  60  62
ENDBRANCH  56  58
ENDBRANCH  54  56
ENDBRANCH  52  54
ENDBRANCH  51  52
ENDBRANCH  50  51
ENDBRANCH  49  50
BRANCH  49  65
ATOM     65  C   UNL     1       7.094  -5.451  -7.392  1.00  0.00     0.326 C 
ATOM     66  O   UNL     1       8.021  -4.658  -7.311  1.00  0.00    -0.250 OA
BRANCH  65  67
ATOM     67  O   UNL     1       7.125  -6.425  -8.328  1.00  0.00    -0.480 OA
ATOM     68  H   UNL     1       6.296  -6.926  -8.168  1.00  0.00     0.296 HD
ENDBRANCH  65  67
ENDBRANCH  49  65
ENDBRANCH  47  49
ENDBRANCH  43  45
ENDBRANCH   1  43
BRANCH   1  69
ATOM     69  C   UNL     1       7.570  -4.955  -0.636  1.00  0.00    -0.001 C 
ATOM     70  C   UNL     1       8.216  -4.171   0.244  1.00  0.00     0.001 C 
BRANCH  70  71
ATOM     71  C   UNL     1       8.939  -4.603   1.442  1.00  0.00    -0.055 C 
ATOM     72  C   UNL     1       8.735  -5.865   1.877  1.00  0.00    -0.018 C 
ATOM     73  C   UNL     1       9.864  -3.613   2.100  1.00  0.00     0.044 C 
BRANCH  72  74
ATOM     74  C   UNL     1       9.342  -6.580   3.075  1.00  0.00     0.038 C 
ATOM     75  C   UNL     1       9.060  -5.716   4.310  1.00  0.00     0.015 C 
BRANCH  74  76
ATOM     76  C   UNL     1      10.851  -6.841   2.791  1.00  0.00     0.128 C 
BRANCH  76  77
ATOM     77  O   UNL     1      11.569  -6.970   4.030  1.00  0.00    -0.381 OA
ATOM     78  C   UNL     1      12.759  -7.739   3.923  1.00  0.00     0.195 C 
ENDBRANCH  76  77
BRANCH  76  79
ATOM     79  C   UNL     1      11.115  -8.019   1.820  1.00  0.00     0.068 C 
BRANCH  79  80
ATOM     80  C   UNL     1      10.026  -9.050   1.647  1.00  0.00    -0.045 A 
ATOM     81  C   UNL     1       9.734  -9.969   2.664  1.00  0.00     0.004 A 
ATOM     82  C   UNL     1       9.304  -9.123   0.446  1.00  0.00     0.004 A 
ATOM     83  C   UNL     1       8.734 -10.929   2.492  1.00  0.00     0.000 A 
ATOM     84  C   UNL     1       8.305 -10.084   0.274  1.00  0.00     0.000 A 
ATOM     85  C   UNL     1       8.020 -10.985   1.297  1.00  0.00     0.000 A 
ENDBRANCH  79  80
ENDBRANCH  76  79
ENDBRANCH  74  76
ENDBRANCH  72  74
ENDBRANCH  70  71
ENDBRANCH   1  69
TORSDOF 17
ENDMDL
MODEL 3
REMARK VINA RESULT:    -8.061      2.047      3.461
REMARK INTER + INTRA:         -29.750
REMARK INTER:                 -21.483
REMARK INTRA:                  -8.267
REMARK UNBOUND:                -5.667
REMARK SMILES C=C1C(=O)N[C@H](C)C(=O)N[C@@H](CC(C)C)C(=O)N[C@@H](C(=O)O)[C@H](C)C(=O)N[C@@H](CCCN=C(N)N)C(=O)N[C@@H](/C=C/C(C)=C/[C@H](C)[C@H](Cc2ccccc2)OC)[C@H](C)C(=O)N[C@@H](C(=O)O)CCC(=O)N1C
REMARK SMILES IDX 39 1 38 2 37 3 36 4 28 6 27 7 25 8 26 9 23 11 24 12 19 13
REMARK SMILES IDX 18 14 16 15 17 16 11 18 10 19 8 20 9 21 12 24 13 25 14 26
REMARK SMILES IDX 15 27 20 28 21 29 22 30 29 32 30 33 31 34 32 35 33 36 34 37
REMARK SMILES IDX 35 38 57 43 58 44 59 45 60 46 61 47 62 49 66 50 67 51 68 52
REMARK SMILES IDX 69 53 70 54 71 55 2 56 1 57 3 58 4 59 5 60 6 62 7 63 63 65
REMARK SMILES IDX 64 66 65 67 40 69 41 70 42 71 44 72 43 73 45 74 46 75 47 76
REMARK SMILES IDX 55 77 56 78 48 79 49 80 50 81 54 82 51 83 53 84 52 85
REMARK H PARENT 38 5 27 10 18 17 10 22 22 31 34 39 34 40 35 41 35 42 61 48
REMARK H PARENT 5 61 65 68
REMARK Flexibility Score:  369.900
ROOT
ATOM      1  C   UNL     1       6.822  -4.346  -1.862  1.00  0.00     0.117 C 
ENDROOT
BRANCH   1   2
ATOM      2  N   UNL     1       5.835  -3.368  -1.403  1.00  0.00    -0.347 N 
ATOM      3  O   UNL     1       4.444  -4.823  -0.299  1.00  0.00    -0.273 OA
ATOM      4  C   UNL     1       4.770  -3.674  -0.578  1.00  0.00     0.243 C 
ATOM      5  H   UNL     1       5.947  -2.398  -1.653  1.00  0.00     0.164 HD
BRANCH   4   6
ATOM      6  C   UNL     1       3.924  -2.441  -0.170  1.00  0.00     0.171 C 
BRANCH   6   7
ATOM      7  N   UNL     1       4.243  -2.032   1.207  1.00  0.00    -0.344 N 
ATOM      8  C   UNL     1       3.413  -2.375   2.253  1.00  0.00     0.226 C 
ATOM      9  O   UNL     1       2.375  -3.007   2.092  1.00  0.00    -0.275 OA
ATOM     10  H   UNL     1       5.056  -1.452   1.371  1.00  0.00     0.164 HD
BRANCH   8  11
ATOM     11  C   UNL     1       3.907  -1.927   3.617  1.00  0.00     0.109 C 
ATOM     12  C   UNL     1       2.986  -2.464   4.712  1.00  0.00     0.021 C 
BRANCH  11  13
ATOM     13  C   UNL     1       5.394  -2.298   3.781  1.00  0.00     0.204 C 
BRANCH  13  14
ATOM     14  N   UNL     1       6.167  -1.218   4.404  1.00  0.00    -0.340 N 
ATOM     15  C   UNL     1       6.796  -0.232   3.676  1.00  0.00     0.243 C 
ATOM     16  O   UNL     1       6.702  -0.153   2.452  1.00  0.00    -0.273 OA
ATOM     17  H   UNL     1       6.409  -1.310   5.394  1.00  0.00     0.164 HD
BRANCH  15  18
ATOM     18  C   UNL     1       7.719   0.673   4.528  1.00  0.00     0.171 C 
BRANCH  18  19
ATOM     19  N   UNL     1       8.512  -0.217   5.374  1.00  0.00    -0.343 N 
ATOM     20  C   UNL     1       8.436  -0.172   6.752  1.00  0.00     0.242 CG0
ATOM     21  O   UNL     1       7.800   0.705   7.333  1.00  0.00    -0.273 OA
ATOM     22  H   UNL     1       9.142  -0.883   4.941  1.00  0.00     0.164 HD
ATOM     23  G   UNL     1       9.286  -1.239   7.472  1.00  0.00     0.000 G0
ENDBRANCH  18  19
BRANCH  18  24
ATOM     24  C   UNL     1       8.611   1.537   3.629  1.00  0.00     0.038 C 
BRANCH  24  25
ATOM     25  C   UNL     1       9.888   2.072   4.310  1.00  0.00    -0.015 C 
ATOM     26  C   UNL     1       9.617   3.300   5.180  1.00  0.00     0.007 C 
ATOM     27  C   UNL     1      10.934   2.415   3.246  1.00  0.00     0.007 C 
ENDBRANCH  24  25
ENDBRANCH  18  24
ENDBRANCH  15  18
ENDBRANCH  13  14
BRANCH  13  28
ATOM     28  C   UNL     1       5.613  -3.557   4.625  1.00  0.00     0.327 C 
ATOM     29  O   UNL     1       5.846  -3.593   5.823  1.00  0.00    -0.250 OA
BRANCH  28  30
ATOM     30  O   UNL     1       5.642  -4.688   3.890  1.00  0.00    -0.480 OA
ATOM     31  H   UNL     1       5.525  -5.405   4.546  1.00  0.00     0.296 HD
ENDBRANCH  28  30
ENDBRANCH  13  28
ENDBRANCH  11  13
ENDBRANCH   8  11
ENDBRANCH   6   7
BRANCH   6  32
ATOM     32  C   UNL     1       4.191  -1.299  -1.156  1.00  0.00     0.037 C 
BRANCH  32  33
ATOM     33  C   UNL     1       3.033  -0.292  -1.202  1.00  0.00     0.026 C 
BRANCH  33  34
ATOM     34  C   UNL     1       3.430   1.081  -0.657  1.00  0.00     0.146 C 
BRANCH  34  35
ATOM     35  N   UNL     1       3.925   0.921   0.703  1.00  0.00    -0.254 NA
ATOM     36  C   UNL     1       3.442   1.669   1.625  1.00  0.00     0.185 C 
ATOM     37  N   UNL     1       3.887   1.526   2.883  1.00  0.00    -0.370 N 
ATOM     38  N   UNL     1       2.506   2.629   1.529  1.00  0.00    -0.370 N 
ATOM     39  H   UNL     1       4.589   0.813   3.038  1.00  0.00     0.159 HD
ATOM     40  H   UNL     1       3.442   1.945   3.681  1.00  0.00     0.159 HD
ATOM     41  H   UNL     1       2.310   3.245   2.302  1.00  0.00     0.159 HD
ATOM     42  H   UNL     1       2.093   2.856   0.638  1.00  0.00     0.159 HD
ENDBRANCH  34  35
ENDBRANCH  33  34
ENDBRANCH  32  33
ENDBRANCH   6  32
ENDBRANCH   4   6
ENDBRANCH   1   2
BRANCH   1  43
ATOM     43  C   UNL     1       6.077  -5.489  -2.610  1.00  0.00     0.102 C 
ATOM     44  C   UNL     1       6.828  -6.831  -2.581  1.00  0.00     0.020 C 
BRANCH  43  45
ATOM     45  C   UNL     1       5.655  -5.044  -4.014  1.00  0.00     0.225 C 
ATOM     46  O   UNL     1       4.932  -4.074  -4.221  1.00  0.00    -0.275 OA
ATOM     47  N   UNL     1       6.063  -5.862  -5.042  1.00  0.00    -0.342 N 
ATOM     48  H   UNL     1       6.775  -6.559  -4.874  1.00  0.00     0.164 HD
BRANCH  47  49
ATOM     49  C   UNL     1       5.763  -5.542  -6.441  1.00  0.00     0.192 C 
BRANCH  49  50
ATOM     50  C   UNL     1       4.707  -6.513  -6.976  1.00  0.00     0.047 C 
BRANCH  50  51
ATOM     51  C   UNL     1       3.810  -5.868  -8.041  1.00  0.00     0.103 C 
BRANCH  51  52
ATOM     52  C   UNL     1       3.562  -6.803  -9.224  1.00  0.00     0.226 C 
ATOM     53  O   UNL     1       2.732  -7.708  -9.123  1.00  0.00    -0.275 OA
BRANCH  52  54
ATOM     54  N   UNL     1       4.264  -6.513 -10.409  1.00  0.00    -0.311 N 
ATOM     55  C   UNL     1       4.980  -5.241 -10.573  1.00  0.00     0.153 C 
BRANCH  54  56
ATOM     56  C   UNL     1       4.311  -7.428 -11.474  1.00  0.00     0.102 C 
ATOM     57  C   UNL     1       5.226  -8.403 -11.610  1.00  0.00     0.043 C 
BRANCH  56  58
ATOM     58  C   UNL     1       3.265  -7.405 -12.563  1.00  0.00     0.268 C 
ATOM     59  O   UNL     1       3.515  -7.636 -13.738  1.00  0.00    -0.268 OA
ATOM     60  N   UNL     1       1.997  -7.164 -12.089  1.00  0.00    -0.339 N 
ATOM     61  H   UNL     1       1.875  -6.971 -11.102  1.00  0.00     0.164 HD
BRANCH  60  62
ATOM     62  C   UNL     1       0.826  -7.160 -12.964  1.00  0.00     0.168 CG0
ATOM     63  C   UNL     1       0.067  -8.477 -12.868  1.00  0.00     0.041 C 
ATOM     64  G   UNL     1       1.267  -6.888 -14.417  1.00  0.00     0.000 G0
ENDBRANCH  60  62
ENDBRANCH  56  58
ENDBRANCH  54  56
ENDBRANCH  52  54
ENDBRANCH  51  52
ENDBRANCH  50  51
ENDBRANCH  49  50
BRANCH  49  65
ATOM     65  C   UNL     1       7.019  -5.620  -7.322  1.00  0.00     0.326 C 
ATOM     66  O   UNL     1       7.322  -6.557  -8.047  1.00  0.00    -0.250 OA
BRANCH  65  67
ATOM     67  O   UNL     1       7.854  -4.563  -7.210  1.00  0.00    -0.480 OA
ATOM     68  H   UNL     1       8.376  -4.766  -6.404  1.00  0.00     0.296 HD
ENDBRANCH  65  67
ENDBRANCH  49  65
ENDBRANCH  47  49
ENDBRANCH  43  45
ENDBRANCH   1  43
BRANCH   1  69
ATOM     69  C   UNL     1       7.670  -4.692  -0.652  1.00  0.00    -0.001 C 
ATOM     70  C   UNL     1       8.968  -4.401  -0.453  1.00  0.00     0.001 C 
BRANCH  70  71
ATOM     71  C   UNL     1       9.770  -4.722   0.729  1.00  0.00    -0.055 C 
ATOM     72  C   UNL     1       9.148  -4.727   1.927  1.00  0.00    -0.018 C 
ATOM     73  C   UNL     1      11.230  -5.031   0.524  1.00  0.00     0.044 C 
BRANCH  72  74
ATOM     74  C   UNL     1       9.719  -5.023   3.307  1.00  0.00     0.038 C 
ATOM     75  C   UNL     1       9.056  -6.314   3.803  1.00  0.00     0.015 C 
BRANCH  74  76
ATOM     76  C   UNL     1       9.494  -3.781   4.219  1.00  0.00     0.128 C 
BRANCH  76  77
ATOM     77  O   UNL     1       9.102  -4.204   5.536  1.00  0.00    -0.381 OA
ATOM     78  C   UNL     1      10.022  -3.830   6.553  1.00  0.00     0.195 C 
ENDBRANCH  76  77
BRANCH  76  79
ATOM     79  C   UNL     1      10.684  -2.789   4.237  1.00  0.00     0.068 C 
BRANCH  79  80
ATOM     80  C   UNL     1      10.990  -2.029   2.969  1.00  0.00    -0.045 A 
ATOM     81  C   UNL     1      12.300  -1.931   2.484  1.00  0.00     0.004 A 
ATOM     82  C   UNL     1       9.962  -1.380   2.269  1.00  0.00     0.004 A 
ATOM     83  C   UNL     1      12.577  -1.214   1.318  1.00  0.00     0.000 A 
ATOM     84  C   UNL     1      10.239  -0.662   1.104  1.00  0.00     0.000 A 
ATOM     85  C   UNL     1      11.546  -0.580   0.628  1.00  0.00     0.000 A 
ENDBRANCH  79  80
ENDBRANCH  76  79
ENDBRANCH  74  76
ENDBRANCH  72  74
ENDBRANCH  70  71
ENDBRANCH   1  69
TORSDOF 17
ENDMDL
MODEL 4
REMARK VINA RESULT:    -7.956      1.806      2.340
REMARK INTER + INTRA:         -29.438
REMARK INTER:                 -22.243
REMARK INTRA:                  -7.195
REMARK UNBOUND:                -5.667
REMARK SMILES C=C1C(=O)N[C@H](C)C(=O)N[C@@H](CC(C)C)C(=O)N[C@@H](C(=O)O)[C@H](C)C(=O)N[C@@H](CCCN=C(N)N)C(=O)N[C@@H](/C=C/C(C)=C/[C@H](C)[C@H](Cc2ccccc2)OC)[C@H](C)C(=O)N[C@@H](C(=O)O)CCC(=O)N1C
REMARK SMILES IDX 39 1 38 2 37 3 36 4 28 6 27 7 25 8 26 9 23 11 24 12 19 13
REMARK SMILES IDX 18 14 16 15 17 16 11 18 10 19 8 20 9 21 12 24 13 25 14 26
REMARK SMILES IDX 15 27 20 28 21 29 22 30 29 32 30 33 31 34 32 35 33 36 34 37
REMARK SMILES IDX 35 38 57 43 58 44 59 45 60 46 61 47 62 49 66 50 67 51 68 52
REMARK SMILES IDX 69 53 70 54 71 55 2 56 1 57 3 58 4 59 5 60 6 62 7 63 63 65
REMARK SMILES IDX 64 66 65 67 40 69 41 70 42 71 44 72 43 73 45 74 46 75 47 76
REMARK SMILES IDX 55 77 56 78 48 79 49 80 50 81 54 82 51 83 53 84 52 85
REMARK H PARENT 38 5 27 10 18 17 10 22 22 31 34 39 34 40 35 41 35 42 61 48
REMARK H PARENT 5 61 65 68
REMARK Flexibility Score:  369.900
ROOT
ATOM      1  C   UNL     1       6.712  -4.144  -1.827  1.00  0.00     0.117 C 
ENDROOT
BRANCH   1   2
ATOM      2  N   UNL     1       5.680  -3.239  -1.319  1.00  0.00    -0.347 N 
ATOM      3  O   UNL     1       4.261  -4.829  -0.467  1.00  0.00    -0.273 OA
ATOM      4  C   UNL     1       4.577  -3.651  -0.596  1.00  0.00     0.243 C 
ATOM      5  H   UNL     1       5.786  -2.245  -1.451  1.00  0.00     0.164 HD
BRANCH   4   6
ATOM      6  C   UNL     1       3.685  -2.485  -0.102  1.00  0.00     0.171 C 
BRANCH   6   7
ATOM      7  N   UNL     1       3.994  -2.159   1.300  1.00  0.00    -0.344 N 
ATOM      8  C   UNL     1       3.188  -2.614   2.321  1.00  0.00     0.226 C 
ATOM      9  O   UNL     1       2.180  -3.281   2.120  1.00  0.00    -0.275 OA
ATOM     10  H   UNL     1       4.780  -1.554   1.501  1.00  0.00     0.164 HD
BRANCH   8  11
ATOM     11  C   UNL     1       3.670  -2.240   3.712  1.00  0.00     0.109 C 
ATOM     12  C   UNL     1       2.553  -2.460   4.732  1.00  0.00     0.021 C 
BRANCH  11  13
ATOM     13  C   UNL     1       4.987  -2.978   4.023  1.00  0.00     0.204 C 
BRANCH  13  14
ATOM     14  N   UNL     1       6.090  -2.049   4.291  1.00  0.00    -0.340 N 
ATOM     15  C   UNL     1       6.943  -1.597   3.308  1.00  0.00     0.243 C 
ATOM     16  O   UNL     1       6.802  -1.895   2.123  1.00  0.00    -0.273 OA
ATOM     17  H   UNL     1       6.354  -1.885   5.266  1.00  0.00     0.164 HD
BRANCH  15  18
ATOM     18  C   UNL     1       8.150  -0.797   3.856  1.00  0.00     0.171 C 
BRANCH  18  19
ATOM     19  N   UNL     1       7.609   0.433   4.431  1.00  0.00    -0.343 N 
ATOM     20  C   UNL     1       8.309   1.624   4.394  1.00  0.00     0.242 CG0
ATOM     21  O   UNL     1       9.471   1.676   3.996  1.00  0.00    -0.273 OA
ATOM     22  H   UNL     1       6.699   0.416   4.876  1.00  0.00     0.164 HD
ATOM     23  G   UNL     1       7.546   2.830   4.979  1.00  0.00     0.000 G0
ENDBRANCH  18  19
BRANCH  18  24
ATOM     24  C   UNL     1       8.914  -1.618   4.902  1.00  0.00     0.038 C 
BRANCH  24  25
ATOM     25  C   UNL     1      10.332  -2.050   4.471  1.00  0.00    -0.015 C 
ATOM     26  C   UNL     1      10.538  -1.956   2.959  1.00  0.00     0.007 C 
ATOM     27  C   UNL     1      10.597  -3.484   4.938  1.00  0.00     0.007 C 
ENDBRANCH  24  25
ENDBRANCH  18  24
ENDBRANCH  15  18
ENDBRANCH  13  14
BRANCH  13  28
ATOM     28  C   UNL     1       4.883  -3.918   5.228  1.00  0.00     0.327 C 
ATOM     29  O   UNL     1       5.179  -3.649   6.382  1.00  0.00    -0.250 OA
BRANCH  28  30
ATOM     30  O   UNL     1       4.526  -5.174   4.890  1.00  0.00    -0.480 OA
ATOM     31  H   UNL     1       4.755  -5.242   3.940  1.00  0.00     0.296 HD
ENDBRANCH  28  30
ENDBRANCH  13  28
ENDBRANCH  11  13
ENDBRANCH   8  11
ENDBRANCH   6   7
BRANCH   6  32
ATOM     32  C   UNL     1       3.900  -1.267  -1.007  1.00  0.00     0.037 C 
BRANCH  32  33
ATOM     33  C   UNL     1       4.260  -0.007  -0.207  1.00  0.00     0.026 C 
BRANCH  33  34
ATOM     34  C   UNL     1       5.769   0.162  -0.029  1.00  0.00     0.146 C 
BRANCH  34  35
ATOM     35  N   UNL     1       6.436  -0.252  -1.255  1.00  0.00    -0.254 NA
ATOM     36  C   UNL     1       7.676  -0.573  -1.202  1.00  0.00     0.185 C 
ATOM     37  N   UNL     1       8.299  -0.960  -2.325  1.00  0.00    -0.370 N 
ATOM     38  N   UNL     1       8.500  -0.585  -0.140  1.00  0.00    -0.370 N 
ATOM     39  H   UNL     1       7.741  -0.988  -3.169  1.00  0.00     0.159 HD
ATOM     40  H   UNL     1       9.209  -1.389  -2.337  1.00  0.00     0.159 HD
ATOM     41  H   UNL     1       9.491  -0.722  -0.251  1.00  0.00     0.159 HD
ATOM     42  H   UNL     1       8.170  -0.301   0.769  1.00  0.00     0.159 HD
ENDBRANCH  34  35
ENDBRANCH  33  34
ENDBRANCH  32  33
ENDBRANCH   6  32
ENDBRANCH   4   6
ENDBRANCH   1   2
BRANCH   1  43
ATOM     43  C   UNL     1       6.014  -5.355  -2.512  1.00  0.00     0.102 C 
ATOM     44  C   UNL     1       6.807  -6.668  -2.388  1.00  0.00     0.020 C 
BRANCH  43  45
ATOM     45  C   UNL     1       5.600  -5.013  -3.946  1.00  0.00     0.225 C 
ATOM     46  O   UNL     1       4.932  -4.024  -4.233  1.00  0.00    -0.275 OA
ATOM     47  N   UNL     1       5.946  -5.942  -4.900  1.00  0.00    -0.342 N 
ATOM     48  H   UNL     1       6.618  -6.662  -4.677  1.00  0.00     0.164 HD
BRANCH  47  49
ATOM     49  C   UNL     1       5.646  -5.730  -6.320  1.00  0.00     0.192 C 
BRANCH  49  50
ATOM     50  C   UNL     1       4.928  -6.960  -6.883  1.00  0.00     0.047 C 
BRANCH  50  51
ATOM     51  C   UNL     1       3.647  -6.589  -7.641  1.00  0.00     0.103 C 
BRANCH  51  52
ATOM     52  C   UNL     1       3.759  -6.886  -9.136  1.00  0.00     0.226 C 
ATOM     53  O   UNL     1       4.453  -7.829  -9.520  1.00  0.00    -0.275 OA
BRANCH  52  54
ATOM     54  N   UNL     1       2.982  -6.086  -9.994  1.00  0.00    -0.311 N 
ATOM     55  C   UNL     1       3.182  -4.632 -10.060  1.00  0.00     0.153 C 
BRANCH  54  56
ATOM     56  C   UNL     1       1.992  -6.645 -10.819  1.00  0.00     0.102 C 
ATOM     57  C   UNL     1       0.748  -6.959 -10.423  1.00  0.00     0.043 C 
BRANCH  56  58
ATOM     58  C   UNL     1       2.259  -6.900 -12.284  1.00  0.00     0.268 C 
ATOM     59  O   UNL     1       1.846  -6.171 -13.177  1.00  0.00    -0.268 OA
ATOM     60  N   UNL     1       3.063  -7.992 -12.505  1.00  0.00    -0.339 N 
ATOM     61  H   UNL     1       3.355  -8.550 -11.712  1.00  0.00     0.164 HD
BRANCH  60  62
ATOM     62  C   UNL     1       3.497  -8.381 -13.846  1.00  0.00     0.168 CG0
ATOM     63  C   UNL     1       2.706  -9.582 -14.350  1.00  0.00     0.041 C 
ATOM     64  G   UNL     1       5.008  -8.690 -13.831  1.00  0.00     0.000 G0
ENDBRANCH  60  62
ENDBRANCH  56  58
ENDBRANCH  54  56
ENDBRANCH  52  54
ENDBRANCH  51  52
ENDBRANCH  50  51
ENDBRANCH  49  50
BRANCH  49  65
ATOM     65  C   UNL     1       6.921  -5.468  -7.135  1.00  0.00     0.326 C 
ATOM     66  O   UNL     1       7.384  -6.210  -7.990  1.00  0.00    -0.250 OA
BRANCH  65  67
ATOM     67  O   UNL     1       7.579  -4.335  -6.804  1.00  0.00    -0.480 OA
ATOM     68  H   UNL     1       7.933  -4.527  -5.909  1.00  0.00     0.296 HD
ENDBRANCH  65  67
ENDBRANCH  49  65
ENDBRANCH  47  49
ENDBRANCH  43  45
ENDBRANCH   1  43
BRANCH   1  69
ATOM     69  C   UNL     1       7.658  -4.401  -0.669  1.00  0.00    -0.001 C 
ATOM     70  C   UNL     1       7.359  -4.942   0.525  1.00  0.00     0.001 C 
BRANCH  70  71
ATOM     71  C   UNL     1       8.286  -5.206   1.628  1.00  0.00    -0.055 C 
ATOM     72  C   UNL     1       9.559  -5.526   1.315  1.00  0.00    -0.018 C 
ATOM     73  C   UNL     1       7.755  -5.092   3.034  1.00  0.00     0.044 C 
BRANCH  72  74
ATOM     74  C   UNL     1      10.727  -5.844   2.238  1.00  0.00     0.038 C 
ATOM     75  C   UNL     1      11.953  -5.106   1.687  1.00  0.00     0.015 C 
BRANCH  74  76
ATOM     76  C   UNL     1      10.883  -7.390   2.334  1.00  0.00     0.128 C 
BRANCH  76  77
ATOM     77  O   UNL     1      10.016  -7.908   3.357  1.00  0.00    -0.381 OA
ATOM     78  C   UNL     1      10.262  -7.362   4.646  1.00  0.00     0.195 C 
ENDBRANCH  76  77
BRANCH  76  79
ATOM     79  C   UNL     1      10.718  -8.124   0.980  1.00  0.00     0.068 C 
BRANCH  79  80
ATOM     80  C   UNL     1       9.971  -9.436   0.973  1.00  0.00    -0.045 A 
ATOM     81  C   UNL     1       8.619  -9.495   0.610  1.00  0.00     0.004 A 
ATOM     82  C   UNL     1      10.617 -10.620   1.361  1.00  0.00     0.004 A 
ATOM     83  C   UNL     1       7.932 -10.711   0.620  1.00  0.00     0.000 A 
ATOM     84  C   UNL     1       9.928 -11.835   1.371  1.00  0.00     0.000 A 
ATOM     85  C   UNL     1       8.587 -11.880   0.999  1.00  0.00     0.000 A 
ENDBRANCH  79  80
ENDBRANCH  76  79
ENDBRANCH  74  76
ENDBRANCH  72  74
ENDBRANCH  70  71
ENDBRANCH   1  69
TORSDOF 17
ENDMDL
MODEL 5
REMARK VINA RESULT:    -7.824      2.612      4.290
REMARK INTER + INTRA:         -29.042
REMARK INTER:                 -24.943
REMARK INTRA:                  -4.099
REMARK UNBOUND:                -5.667
REMARK SMILES C=C1C(=O)N[C@H](C)C(=O)N[C@@H](CC(C)C)C(=O)N[C@@H](C(=O)O)[C@H](C)C(=O)N[C@@H](CCCN=C(N)N)C(=O)N[C@@H](/C=C/C(C)=C/[C@H](C)[C@H](Cc2ccccc2)OC)[C@H](C)C(=O)N[C@@H](C(=O)O)CCC(=O)N1C
REMARK SMILES IDX 39 1 38 2 37 3 36 4 28 6 27 7 25 8 26 9 23 11 24 12 19 13
REMARK SMILES IDX 18 14 16 15 17 16 11 18 10 19 8 20 9 21 12 24 13 25 14 26
REMARK SMILES IDX 15 27 20 28 21 29 22 30 29 32 30 33 31 34 32 35 33 36 34 37
REMARK SMILES IDX 35 38 57 43 58 44 59 45 60 46 61 47 62 49 66 50 67 51 68 52
REMARK SMILES IDX 69 53 70 54 71 55 2 56 1 57 3 58 4 59 5 60 6 62 7 63 63 65
REMARK SMILES IDX 64 66 65 67 40 69 41 70 42 71 44 72 43 73 45 74 46 75 47 76
REMARK SMILES IDX 55 77 56 78 48 79 49 80 50 81 54 82 51 83 53 84 52 85
REMARK H PARENT 38 5 27 10 18 17 10 22 22 31 34 39 34 40 35 41 35 42 61 48
REMARK H PARENT 5 61 65 68
REMARK Flexibility Score:  369.900
ROOT
ATOM      1  C   UNL     1       6.935  -4.518  -1.520  1.00  0.00     0.117 C 
ENDROOT
BRANCH   1   2
ATOM      2  N   UNL     1       5.948  -4.082  -0.532  1.00  0.00    -0.347 N 
ATOM      3  O   UNL     1       4.628  -2.836  -1.937  1.00  0.00    -0.273 OA
ATOM      4  C   UNL     1       4.819  -3.348  -0.839  1.00  0.00     0.243 C 
ATOM      5  H   UNL     1       6.054  -4.365   0.430  1.00  0.00     0.164 HD
BRANCH   4   6
ATOM      6  C   UNL     1       3.893  -3.091   0.377  1.00  0.00     0.171 C 
BRANCH   6   7
ATOM      7  N   UNL     1       4.595  -3.401   1.633  1.00  0.00    -0.344 N 
ATOM      8  C   UNL     1       4.082  -4.328   2.514  1.00  0.00     0.226 C 
ATOM      9  O   UNL     1       3.025  -4.914   2.315  1.00  0.00    -0.275 OA
ATOM     10  H   UNL     1       5.436  -2.887   1.864  1.00  0.00     0.164 HD
BRANCH   8  11
ATOM     11  C   UNL     1       4.950  -4.576   3.736  1.00  0.00     0.109 C 
ATOM     12  C   UNL     1       6.415  -4.710   3.322  1.00  0.00     0.021 C 
BRANCH  11  13
ATOM     13  C   UNL     1       4.673  -3.495   4.800  1.00  0.00     0.204 C 
BRANCH  13  14
ATOM     14  N   UNL     1       4.413  -4.076   6.121  1.00  0.00    -0.340 N 
ATOM     15  C   UNL     1       3.442  -3.595   6.972  1.00  0.00     0.243 C 
ATOM     16  O   UNL     1       2.681  -2.681   6.657  1.00  0.00    -0.273 OA
ATOM     17  H   UNL     1       5.102  -4.730   6.502  1.00  0.00     0.164 HD
BRANCH  15  18
ATOM     18  C   UNL     1       3.490  -4.226   8.386  1.00  0.00     0.171 C 
BRANCH  18  19
ATOM     19  N   UNL     1       4.902  -4.335   8.747  1.00  0.00    -0.343 N 
ATOM     20  C   UNL     1       5.613  -3.260   9.244  1.00  0.00     0.242 CG0
ATOM     21  O   UNL     1       5.129  -2.131   9.281  1.00  0.00    -0.273 OA
ATOM     22  H   UNL     1       5.380  -5.221   8.625  1.00  0.00     0.164 HD
ATOM     23  G   UNL     1       7.067  -3.586   9.642  1.00  0.00     0.000 G0
ENDBRANCH  18  19
BRANCH  18  24
ATOM     24  C   UNL     1       2.718  -3.362   9.391  1.00  0.00     0.038 C 
BRANCH  24  25
ATOM     25  C   UNL     1       1.469  -4.037   9.994  1.00  0.00    -0.015 C 
ATOM     26  C   UNL     1       0.864  -3.228  11.142  1.00  0.00     0.007 C 
ATOM     27  C   UNL     1       1.830  -5.441  10.488  1.00  0.00     0.007 C 
ENDBRANCH  24  25
ENDBRANCH  18  24
ENDBRANCH  15  18
ENDBRANCH  13  14
BRANCH  13  28
ATOM     28  C   UNL     1       5.824  -2.497   4.961  1.00  0.00     0.327 C 
ATOM     29  O   UNL     1       6.053  -1.537   4.242  1.00  0.00    -0.250 OA
BRANCH  28  30
ATOM     30  O   UNL     1       6.683  -2.835   5.943  1.00  0.00    -0.480 OA
ATOM     31  H   UNL     1       6.960  -1.978   6.327  1.00  0.00     0.296 HD
ENDBRANCH  28  30
ENDBRANCH  13  28
ENDBRANCH  11  13
ENDBRANCH   8  11
ENDBRANCH   6   7
BRANCH   6  32
ATOM     32  C   UNL     1       3.428  -1.631   0.356  1.00  0.00     0.037 C 
BRANCH  32  33
ATOM     33  C   UNL     1       3.673  -0.925   1.697  1.00  0.00     0.026 C 
BRANCH  33  34
ATOM     34  C   UNL     1       4.489   0.359   1.542  1.00  0.00     0.146 C 
BRANCH  34  35
ATOM     35  N   UNL     1       3.716   1.474   2.070  1.00  0.00    -0.254 NA
ATOM     36  C   UNL     1       2.969   2.138   1.268  1.00  0.00     0.185 C 
ATOM     37  N   UNL     1       2.248   3.165   1.745  1.00  0.00    -0.370 N 
ATOM     38  N   UNL     1       2.780   1.962  -0.052  1.00  0.00    -0.370 N 
ATOM     39  H   UNL     1       2.329   3.355   2.736  1.00  0.00     0.159 HD
ATOM     40  H   UNL     1       1.516   3.619   1.226  1.00  0.00     0.159 HD
ATOM     41  H   UNL     1       2.275   2.638  -0.600  1.00  0.00     0.159 HD
ATOM     42  H   UNL     1       3.272   1.235  -0.548  1.00  0.00     0.159 HD
ENDBRANCH  34  35
ENDBRANCH  33  34
ENDBRANCH  32  33
ENDBRANCH   6  32
ENDBRANCH   4   6
ENDBRANCH   1   2
BRANCH   1  43
ATOM     43  C   UNL     1       6.256  -5.533  -2.484  1.00  0.00     0.102 C 
ATOM     44  C   UNL     1       6.807  -6.963  -2.354  1.00  0.00     0.020 C 
BRANCH  43  45
ATOM     45  C   UNL     1       6.240  -5.002  -3.921  1.00  0.00     0.225 C 
ATOM     46  O   UNL     1       6.788  -3.955  -4.255  1.00  0.00    -0.275 OA
ATOM     47  N   UNL     1       5.484  -5.727  -4.812  1.00  0.00    -0.342 N 
ATOM     48  H   UNL     1       5.169  -6.654  -4.563  1.00  0.00     0.164 HD
BRANCH  47  49
ATOM     49  C   UNL     1       5.405  -5.357  -6.229  1.00  0.00     0.192 C 
BRANCH  49  50
ATOM     50  C   UNL     1       4.299  -6.167  -6.911  1.00  0.00     0.047 C 
BRANCH  50  51
ATOM     51  C   UNL     1       3.807  -5.506  -8.206  1.00  0.00     0.103 C 
BRANCH  51  52
ATOM     52  C   UNL     1       3.275  -6.529  -9.206  1.00  0.00     0.226 C 
ATOM     53  O   UNL     1       3.615  -7.710  -9.111  1.00  0.00    -0.275 OA
BRANCH  52  54
ATOM     54  N   UNL     1       2.346  -6.056 -10.152  1.00  0.00    -0.311 N 
ATOM     55  C   UNL     1       1.005  -6.646 -10.255  1.00  0.00     0.153 C 
BRANCH  54  56
ATOM     56  C   UNL     1       2.663  -5.003 -11.026  1.00  0.00     0.102 C 
ATOM     57  C   UNL     1       3.641  -5.036 -11.946  1.00  0.00     0.043 C 
BRANCH  56  58
ATOM     58  C   UNL     1       1.860  -3.723 -11.021  1.00  0.00     0.268 C 
ATOM     59  O   UNL     1       1.557  -3.128  -9.996  1.00  0.00    -0.268 OA
ATOM     60  N   UNL     1       1.565  -3.265 -12.282  1.00  0.00    -0.339 N 
ATOM     61  H   UNL     1       1.843  -3.824 -13.081  1.00  0.00     0.164 HD
BRANCH  60  62
ATOM     62  C   UNL     1       0.850  -2.010 -12.508  1.00  0.00     0.168 CG0
ATOM     63  C   UNL     1       1.768  -0.960 -13.120  1.00  0.00     0.041 C 
ATOM     64  G   UNL     1       0.256  -1.507 -11.176  1.00  0.00     0.000 G0
ENDBRANCH  60  62
ENDBRANCH  56  58
ENDBRANCH  54  56
ENDBRANCH  52  54
ENDBRANCH  51  52
ENDBRANCH  50  51
ENDBRANCH  49  50
BRANCH  49  65
ATOM     65  C   UNL     1       6.737  -5.603  -6.954  1.00  0.00     0.326 C 
ATOM     66  O   UNL     1       7.621  -4.774  -7.115  1.00  0.00    -0.250 OA
BRANCH  65  67
ATOM     67  O   UNL     1       6.870  -6.837  -7.487  1.00  0.00    -0.480 OA
ATOM     68  H   UNL     1       7.660  -7.202  -7.033  1.00  0.00     0.296 HD
ENDBRANCH  65  67
ENDBRANCH  49  65
ENDBRANCH  47  49
ENDBRANCH  43  45
ENDBRANCH   1  43
BRANCH   1  69
ATOM     69  C   UNL     1       8.157  -4.958  -0.734  1.00  0.00    -0.001 C 
ATOM     70  C   UNL     1       9.027  -4.176  -0.072  1.00  0.00     0.001 C 
BRANCH  70  71
ATOM     71  C   UNL     1      10.191  -4.614   0.702  1.00  0.00    -0.055 C 
ATOM     72  C   UNL     1      10.650  -5.866   0.490  1.00  0.00    -0.018 C 
ATOM     73  C   UNL     1      10.798  -3.636   1.673  1.00  0.00     0.044 C 
BRANCH  72  74
ATOM     74  C   UNL     1      11.827  -6.582   1.138  1.00  0.00     0.038 C 
ATOM     75  C   UNL     1      12.462  -7.473   0.063  1.00  0.00     0.015 C 
BRANCH  74  76
ATOM     76  C   UNL     1      11.319  -7.342   2.398  1.00  0.00     0.128 C 
BRANCH  76  77
ATOM     77  O   UNL     1      11.702  -6.630   3.588  1.00  0.00    -0.381 OA
ATOM     78  C   UNL     1      12.020  -7.479   4.683  1.00  0.00     0.195 C 
ENDBRANCH  76  77
BRANCH  76  79
ATOM     79  C   UNL     1       9.807  -7.680   2.363  1.00  0.00     0.068 C 
BRANCH  79  80
ATOM     80  C   UNL     1       9.404  -9.072   1.940  1.00  0.00    -0.045 A 
ATOM     81  C   UNL     1       9.542 -10.160   2.812  1.00  0.00     0.004 A 
ATOM     82  C   UNL     1       8.908  -9.303   0.648  1.00  0.00     0.004 A 
ATOM     83  C   UNL     1       9.179 -11.446   2.409  1.00  0.00     0.000 A 
ATOM     84  C   UNL     1       8.546 -10.590   0.245  1.00  0.00     0.000 A 
ATOM     85  C   UNL     1       8.681 -11.661   1.126  1.00  0.00     0.000 A 
ENDBRANCH  79  80
ENDBRANCH  76  79
ENDBRANCH  74  76
ENDBRANCH  72  74
ENDBRANCH  70  71
ENDBRANCH   1  69
TORSDOF 17
ENDMDL
MODEL 6
REMARK VINA RESULT:    -7.695      3.462     12.856
REMARK INTER + INTRA:         -28.657
REMARK INTER:                 -22.483
REMARK INTRA:                  -6.174
REMARK UNBOUND:                -5.667
REMARK SMILES C=C1C(=O)N[C@H](C)C(=O)N[C@@H](CC(C)C)C(=O)N[C@@H](C(=O)O)[C@H](C)C(=O)N[C@@H](CCCN=C(N)N)C(=O)N[C@@H](/C=C/C(C)=C/[C@H](C)[C@H](Cc2ccccc2)OC)[C@H](C)C(=O)N[C@@H](C(=O)O)CCC(=O)N1C
REMARK SMILES IDX 39 1 38 2 37 3 36 4 28 6 27 7 25 8 26 9 23 11 24 12 19 13
REMARK SMILES IDX 18 14 16 15 17 16 11 18 10 19 8 20 9 21 12 24 13 25 14 26
REMARK SMILES IDX 15 27 20 28 21 29 22 30 29 32 30 33 31 34 32 35 33 36 34 37
REMARK SMILES IDX 35 38 57 43 58 44 59 45 60 46 61 47 62 49 66 50 67 51 68 52
REMARK SMILES IDX 69 53 70 54 71 55 2 56 1 57 3 58 4 59 5 60 6 62 7 63 63 65
REMARK SMILES IDX 64 66 65 67 40 69 41 70 42 71 44 72 43 73 45 74 46 75 47 76
REMARK SMILES IDX 55 77 56 78 48 79 49 80 50 81 54 82 51 83 53 84 52 85
REMARK H PARENT 38 5 27 10 18 17 10 22 22 31 34 39 34 40 35 41 35 42 61 48
REMARK H PARENT 5 61 65 68
REMARK Flexibility Score:  369.900
ROOT
ATOM      1  C   UNL     1       9.221  -2.767   2.167  1.00  0.00     0.117 C 
ENDROOT
BRANCH   1   2
ATOM      2  N   UNL     1       7.980  -3.064   1.451  1.00  0.00    -0.347 N 
ATOM      3  O   UNL     1       6.511  -2.450   3.105  1.00  0.00    -0.273 OA
ATOM      4  C   UNL     1       6.718  -2.794   1.947  1.00  0.00     0.243 C 
ATOM      5  H   UNL     1       8.025  -3.443   0.518  1.00  0.00     0.164 HD
BRANCH   4   6
ATOM      6  C   UNL     1       5.575  -3.125   0.954  1.00  0.00     0.171 C 
BRANCH   6   7
ATOM      7  N   UNL     1       6.123  -3.450  -0.372  1.00  0.00    -0.344 N 
ATOM      8  C   UNL     1       5.412  -3.161  -1.517  1.00  0.00     0.226 C 
ATOM      9  O   UNL     1       4.299  -2.651  -1.491  1.00  0.00    -0.275 OA
ATOM     10  H   UNL     1       7.011  -3.934  -0.432  1.00  0.00     0.164 HD
BRANCH   8  11
ATOM     11  C   UNL     1       6.135  -3.507  -2.807  1.00  0.00     0.109 C 
ATOM     12  C   UNL     1       7.648  -3.415  -2.603  1.00  0.00     0.021 C 
BRANCH  11  13
ATOM     13  C   UNL     1       5.634  -4.865  -3.338  1.00  0.00     0.204 C 
BRANCH  13  14
ATOM     14  N   UNL     1       5.893  -5.026  -4.772  1.00  0.00    -0.340 N 
ATOM     15  C   UNL     1       4.899  -4.964  -5.724  1.00  0.00     0.243 C 
ATOM     16  O   UNL     1       3.729  -4.708  -5.442  1.00  0.00    -0.273 OA
ATOM     17  H   UNL     1       6.807  -5.388  -5.057  1.00  0.00     0.164 HD
BRANCH  15  18
ATOM     18  C   UNL     1       5.373  -5.369  -7.141  1.00  0.00     0.171 C 
BRANCH  18  19
ATOM     19  N   UNL     1       6.831  -5.264  -7.141  1.00  0.00    -0.343 N 
ATOM     20  C   UNL     1       7.522  -4.713  -8.203  1.00  0.00     0.242 CG0
ATOM     21  O   UNL     1       6.956  -4.407  -9.250  1.00  0.00    -0.273 OA
ATOM     22  H   UNL     1       7.354  -5.609  -6.344  1.00  0.00     0.164 HD
ATOM     23  G   UNL     1       9.046  -4.615  -7.988  1.00  0.00     0.000 G0
ENDBRANCH  18  19
BRANCH  18  24
ATOM     24  C   UNL     1       4.912  -6.791  -7.481  1.00  0.00     0.038 C 
BRANCH  24  25
ATOM     25  C   UNL     1       4.124  -6.915  -8.802  1.00  0.00    -0.015 C 
ATOM     26  C   UNL     1       5.009  -7.340  -9.974  1.00  0.00     0.007 C 
ATOM     27  C   UNL     1       3.447  -5.581  -9.125  1.00  0.00     0.007 C 
ENDBRANCH  24  25
ENDBRANCH  18  24
ENDBRANCH  15  18
ENDBRANCH  13  14
BRANCH  13  28
ATOM     28  C   UNL     1       6.267  -6.063  -2.625  1.00  0.00     0.327 C 
ATOM     29  O   UNL     1       6.396  -6.201  -1.418  1.00  0.00    -0.250 OA
BRANCH  28  30
ATOM     30  O   UNL     1       6.807  -6.960  -3.475  1.00  0.00    -0.480 OA
ATOM     31  H   UNL     1       7.555  -6.480  -3.889  1.00  0.00     0.296 HD
ENDBRANCH  28  30
ENDBRANCH  13  28
ENDBRANCH  11  13
ENDBRANCH   8  11
ENDBRANCH   6   7
BRANCH   6  32
ATOM     32  C   UNL     1       4.751  -4.293   1.507  1.00  0.00     0.037 C 
BRANCH  32  33
ATOM     33  C   UNL     1       3.273  -3.921   1.695  1.00  0.00     0.026 C 
BRANCH  33  34
ATOM     34  C   UNL     1       3.073  -2.841   2.759  1.00  0.00     0.146 C 
BRANCH  34  35
ATOM     35  N   UNL     1       2.722  -1.591   2.099  1.00  0.00    -0.254 NA
ATOM     36  C   UNL     1       3.390  -0.536   2.385  1.00  0.00     0.185 C 
ATOM     37  N   UNL     1       3.078   0.620   1.779  1.00  0.00    -0.370 N 
ATOM     38  N   UNL     1       4.415  -0.392   3.244  1.00  0.00    -0.370 N 
ATOM     39  H   UNL     1       2.321   0.591   1.108  1.00  0.00     0.159 HD
ATOM     40  H   UNL     1       3.657   1.441   1.816  1.00  0.00     0.159 HD
ATOM     41  H   UNL     1       4.767   0.519   3.486  1.00  0.00     0.159 HD
ATOM     42  H   UNL     1       4.746  -1.177   3.783  1.00  0.00     0.159 HD
ENDBRANCH  34  35
ENDBRANCH  33  34
ENDBRANCH  32  33
ENDBRANCH   6  32
ENDBRANCH   4   6
ENDBRANCH   1   2
BRANCH   1  43
ATOM     43  C   UNL     1      10.017  -1.703   1.357  1.00  0.00     0.102 C 
ATOM     44  C   UNL     1      11.453  -2.139   1.020  1.00  0.00     0.020 C 
BRANCH  43  45
ATOM     45  C   UNL     1       9.926  -0.326   2.019  1.00  0.00     0.225 C 
ATOM     46  O   UNL     1      10.275   0.711   1.462  1.00  0.00    -0.275 OA
ATOM     47  N   UNL     1       9.509  -0.326   3.331  1.00  0.00    -0.342 N 
ATOM     48  H   UNL     1       9.086  -1.156   3.721  1.00  0.00     0.164 HD
BRANCH  47  49
ATOM     49  C   UNL     1       9.340   0.923   4.081  1.00  0.00     0.192 C 
BRANCH  49  50
ATOM     50  C   UNL     1      10.584   1.181   4.936  1.00  0.00     0.047 C 
BRANCH  50  51
ATOM     51  C   UNL     1      11.531   2.202   4.290  1.00  0.00     0.103 C 
BRANCH  51  52
ATOM     52  C   UNL     1      12.165   3.130   5.324  1.00  0.00     0.226 C 
ATOM     53  O   UNL     1      13.137   2.744   5.977  1.00  0.00    -0.275 OA
BRANCH  52  54
ATOM     54  N   UNL     1      11.628   4.428   5.413  1.00  0.00    -0.311 N 
ATOM     55  C   UNL     1      10.932   5.038   4.273  1.00  0.00     0.153 C 
BRANCH  54  56
ATOM     56  C   UNL     1      11.733   5.185   6.592  1.00  0.00     0.102 C 
ATOM     57  C   UNL     1      11.246   4.815   7.788  1.00  0.00     0.043 C 
BRANCH  56  58
ATOM     58  C   UNL     1      12.472   6.502   6.605  1.00  0.00     0.268 C 
ATOM     59  O   UNL     1      13.640   6.617   6.261  1.00  0.00    -0.268 OA
ATOM     60  N   UNL     1      11.681   7.562   6.978  1.00  0.00    -0.339 N 
ATOM     61  H   UNL     1      10.724   7.381   7.260  1.00  0.00     0.164 HD
BRANCH  60  62
ATOM     62  C   UNL     1      12.179   8.937   6.999  1.00  0.00     0.168 CG0
ATOM     63  C   UNL     1      12.887   9.242   8.313  1.00  0.00     0.041 C 
ATOM     64  G   UNL     1      11.007   9.914   6.770  1.00  0.00     0.000 G0
ENDBRANCH  60  62
ENDBRANCH  56  58
ENDBRANCH  54  56
ENDBRANCH  52  54
ENDBRANCH  51  52
ENDBRANCH  50  51
ENDBRANCH  49  50
BRANCH  49  65
ATOM     65  C   UNL     1       8.100   0.875   4.988  1.00  0.00     0.326 C 
ATOM     66  O   UNL     1       7.931   1.546   5.996  1.00  0.00    -0.250 OA
BRANCH  65  67
ATOM     67  O   UNL     1       7.173  -0.040   4.628  1.00  0.00    -0.480 OA
ATOM     68  H   UNL     1       6.668   0.410   3.917  1.00  0.00     0.296 HD
ENDBRANCH  65  67
ENDBRANCH  49  65
ENDBRANCH  47  49
ENDBRANCH  43  45
ENDBRANCH   1  43
BRANCH   1  69
ATOM     69  C   UNL     1       9.873  -4.106   2.457  1.00  0.00    -0.001 C 
ATOM     70  C   UNL     1       9.298  -5.321   2.417  1.00  0.00     0.001 C 
BRANCH  70  71
ATOM     71  C   UNL     1       9.943  -6.609   2.679  1.00  0.00    -0.055 C 
ATOM     72  C   UNL     1      10.959  -6.978   1.871  1.00  0.00    -0.018 C 
ATOM     73  C   UNL     1       9.432  -7.428   3.836  1.00  0.00     0.044 C 
BRANCH  72  74
ATOM     74  C   UNL     1      11.807  -8.241   1.905  1.00  0.00     0.038 C 
ATOM     75  C   UNL     1      13.036  -7.939   2.771  1.00  0.00     0.015 C 
BRANCH  74  76
ATOM     76  C   UNL     1      12.127  -8.669   0.443  1.00  0.00     0.128 C 
BRANCH  76  77
ATOM     77  O   UNL     1      13.229  -9.593   0.432  1.00  0.00    -0.381 OA
ATOM     78  C   UNL     1      13.558 -10.074  -0.865  1.00  0.00     0.195 C 
ENDBRANCH  76  77
BRANCH  76  79
ATOM     79  C   UNL     1      10.899  -9.191  -0.344  1.00  0.00     0.068 C 
BRANCH  79  80
ATOM     80  C   UNL     1       9.879 -10.017   0.404  1.00  0.00    -0.045 A 
ATOM     81  C   UNL     1      10.276 -11.067   1.242  1.00  0.00     0.004 A 
ATOM     82  C   UNL     1       8.509  -9.760   0.247  1.00  0.00     0.004 A 
ATOM     83  C   UNL     1       9.326 -11.835   1.919  1.00  0.00     0.000 A 
ATOM     84  C   UNL     1       7.560 -10.529   0.923  1.00  0.00     0.000 A 
ATOM     85  C   UNL     1       7.968 -11.565   1.760  1.00  0.00     0.000 A 
ENDBRANCH  79  80
ENDBRANCH  76  79
ENDBRANCH  74  76
ENDBRANCH  72  74
ENDBRANCH  70  71
ENDBRANCH   1  69
TORSDOF 17
ENDMDL
MODEL 7
REMARK VINA RESULT:    -7.619      2.968     12.827
REMARK INTER + INTRA:         -28.432
REMARK INTER:                 -22.400
REMARK INTRA:                  -6.031
REMARK UNBOUND:                -5.667
REMARK SMILES C=C1C(=O)N[C@H](C)C(=O)N[C@@H](CC(C)C)C(=O)N[C@@H](C(=O)O)[C@H](C)C(=O)N[C@@H](CCCN=C(N)N)C(=O)N[C@@H](/C=C/C(C)=C/[C@H](C)[C@H](Cc2ccccc2)OC)[C@H](C)C(=O)N[C@@H](C(=O)O)CCC(=O)N1C
REMARK SMILES IDX 39 1 38 2 37 3 36 4 28 6 27 7 25 8 26 9 23 11 24 12 19 13
REMARK SMILES IDX 18 14 16 15 17 16 11 18 10 19 8 20 9 21 12 24 13 25 14 26
REMARK SMILES IDX 15 27 20 28 21 29 22 30 29 32 30 33 31 34 32 35 33 36 34 37
REMARK SMILES IDX 35 38 57 43 58 44 59 45 60 46 61 47 62 49 66 50 67 51 68 52
REMARK SMILES IDX 69 53 70 54 71 55 2 56 1 57 3 58 4 59 5 60 6 62 7 63 63 65
REMARK SMILES IDX 64 66 65 67 40 69 41 70 42 71 44 72 43 73 45 74 46 75 47 76
REMARK SMILES IDX 55 77 56 78 48 79 49 80 50 81 54 82 51 83 53 84 52 85
REMARK H PARENT 38 5 27 10 18 17 10 22 22 31 34 39 34 40 35 41 35 42 61 48
REMARK H PARENT 5 61 65 68
REMARK Flexibility Score:  369.900
ROOT
ATOM      1  C   UNL     1       8.796  -1.787   3.588  1.00  0.00     0.117 C 
ENDROOT
BRANCH   1   2
ATOM      2  N   UNL     1       7.955  -1.739   2.391  1.00  0.00    -0.347 N 
ATOM      3  O   UNL     1       5.914  -1.818   3.438  1.00  0.00    -0.273 OA
ATOM      4  C   UNL     1       6.576  -1.666   2.417  1.00  0.00     0.243 C 
ATOM      5  H   UNL     1       8.391  -1.707   1.482  1.00  0.00     0.164 HD
BRANCH   4   6
ATOM      6  C   UNL     1       5.932  -1.539   1.013  1.00  0.00     0.171 C 
BRANCH   6   7
ATOM      7  N   UNL     1       6.186  -2.752   0.219  1.00  0.00    -0.344 N 
ATOM      8  C   UNL     1       6.986  -2.703  -0.902  1.00  0.00     0.226 C 
ATOM      9  O   UNL     1       7.498  -1.664  -1.303  1.00  0.00    -0.275 OA
ATOM     10  H   UNL     1       5.726  -3.615   0.480  1.00  0.00     0.164 HD
BRANCH   8  11
ATOM     11  C   UNL     1       7.195  -4.045  -1.580  1.00  0.00     0.109 C 
ATOM     12  C   UNL     1       7.922  -5.004  -0.636  1.00  0.00     0.021 C 
BRANCH  11  13
ATOM     13  C   UNL     1       5.852  -4.569  -2.128  1.00  0.00     0.204 C 
BRANCH  13  14
ATOM     14  N   UNL     1       5.979  -5.093  -3.491  1.00  0.00    -0.340 N 
ATOM     15  C   UNL     1       5.287  -4.570  -4.562  1.00  0.00     0.243 C 
ATOM     16  O   UNL     1       4.558  -3.585  -4.459  1.00  0.00    -0.273 OA
ATOM     17  H   UNL     1       6.445  -5.996  -3.617  1.00  0.00     0.164 HD
BRANCH  15  18
ATOM     18  C   UNL     1       5.418  -5.412  -5.854  1.00  0.00     0.171 C 
BRANCH  18  19
ATOM     19  N   UNL     1       4.601  -4.750  -6.870  1.00  0.00    -0.343 N 
ATOM     20  C   UNL     1       3.785  -5.463  -7.727  1.00  0.00     0.242 CG0
ATOM     21  O   UNL     1       3.809  -6.691  -7.766  1.00  0.00    -0.273 OA
ATOM     22  H   UNL     1       4.634  -3.741  -6.955  1.00  0.00     0.164 HD
ATOM     23  G   UNL     1       2.940  -4.589  -8.676  1.00  0.00     0.000 G0
ENDBRANCH  18  19
BRANCH  18  24
ATOM     24  C   UNL     1       6.885  -5.510  -6.290  1.00  0.00     0.038 C 
BRANCH  24  25
ATOM     25  C   UNL     1       7.103  -5.541  -7.818  1.00  0.00    -0.015 C 
ATOM     26  C   UNL     1       7.312  -6.959  -8.350  1.00  0.00     0.007 C 
ATOM     27  C   UNL     1       8.307  -4.670  -8.184  1.00  0.00     0.007 C 
ENDBRANCH  24  25
ENDBRANCH  18  24
ENDBRANCH  15  18
ENDBRANCH  13  14
BRANCH  13  28
ATOM     28  C   UNL     1       5.242  -5.680  -1.269  1.00  0.00     0.327 C 
ATOM     29  O   UNL     1       5.382  -6.882  -1.437  1.00  0.00    -0.250 OA
BRANCH  28  30
ATOM     30  O   UNL     1       4.399  -5.216  -0.324  1.00  0.00    -0.480 OA
ATOM     31  H   UNL     1       3.654  -4.834  -0.833  1.00  0.00     0.296 HD
ENDBRANCH  28  30
ENDBRANCH  13  28
ENDBRANCH  11  13
ENDBRANCH   8  11
ENDBRANCH   6   7
BRANCH   6  32
ATOM     32  C   UNL     1       4.427  -1.293   1.170  1.00  0.00     0.037 C 
BRANCH  32  33
ATOM     33  C   UNL     1       3.621  -1.868  -0.003  1.00  0.00     0.026 C 
BRANCH  33  34
ATOM     34  C   UNL     1       3.704  -0.993  -1.255  1.00  0.00     0.146 C 
BRANCH  34  35
ATOM     35  N   UNL     1       3.433   0.388  -0.881  1.00  0.00    -0.254 NA
ATOM     36  C   UNL     1       2.457   0.997  -1.446  1.00  0.00     0.185 C 
ATOM     37  N   UNL     1       2.195   2.268  -1.106  1.00  0.00    -0.370 N 
ATOM     38  N   UNL     1       1.603   0.540  -2.379  1.00  0.00    -0.370 N 
ATOM     39  H   UNL     1       2.790   2.681  -0.399  1.00  0.00     0.159 HD
ATOM     40  H   UNL     1       1.354   2.752  -1.369  1.00  0.00     0.159 HD
ATOM     41  H   UNL     1       0.964   1.161  -2.848  1.00  0.00     0.159 HD
ATOM     42  H   UNL     1       1.692  -0.396  -2.742  1.00  0.00     0.159 HD
ENDBRANCH  34  35
ENDBRANCH  33  34
ENDBRANCH  32  33
ENDBRANCH   6  32
ENDBRANCH   4   6
ENDBRANCH   1   2
BRANCH   1  43
ATOM     43  C   UNL     1       9.886  -0.683   3.472  1.00  0.00     0.102 C 
ATOM     44  C   UNL     1      11.165  -1.000   4.266  1.00  0.00     0.020 C 
BRANCH  43  45
ATOM     45  C   UNL     1       9.300   0.702   3.765  1.00  0.00     0.225 C 
ATOM     46  O   UNL     1       8.097   0.944   3.723  1.00  0.00    -0.275 OA
ATOM     47  N   UNL     1      10.221   1.699   3.990  1.00  0.00    -0.342 N 
ATOM     48  H   UNL     1      11.186   1.458   4.170  1.00  0.00     0.164 HD
BRANCH  47  49
ATOM     49  C   UNL     1       9.805   3.066   4.317  1.00  0.00     0.192 C 
BRANCH  49  50
ATOM     50  C   UNL     1      10.771   4.066   3.675  1.00  0.00     0.047 C 
BRANCH  50  51
ATOM     51  C   UNL     1      12.194   3.504   3.552  1.00  0.00     0.103 C 
BRANCH  51  52
ATOM     52  C   UNL     1      13.228   4.412   4.214  1.00  0.00     0.226 C 
ATOM     53  O   UNL     1      13.629   5.415   3.620  1.00  0.00    -0.275 OA
BRANCH  52  54
ATOM     54  N   UNL     1      13.609   4.075   5.526  1.00  0.00    -0.311 N 
ATOM     55  C   UNL     1      13.972   2.696   5.877  1.00  0.00     0.153 C 
BRANCH  54  56
ATOM     56  C   UNL     1      13.663   5.042   6.544  1.00  0.00     0.102 C 
ATOM     57  C   UNL     1      14.782   5.654   6.964  1.00  0.00     0.043 C 
BRANCH  56  58
ATOM     58  C   UNL     1      12.404   5.511   7.235  1.00  0.00     0.268 C 
ATOM     59  O   UNL     1      11.671   6.375   6.776  1.00  0.00    -0.268 OA
ATOM     60  N   UNL     1      12.136   4.822   8.394  1.00  0.00    -0.339 N 
ATOM     61  H   UNL     1      12.800   4.127   8.713  1.00  0.00     0.164 HD
BRANCH  60  62
ATOM     62  C   UNL     1      10.934   5.072   9.188  1.00  0.00     0.168 CG0
ATOM     63  C   UNL     1      10.539   3.837   9.988  1.00  0.00     0.041 C 
ATOM     64  G   UNL     1       9.783   5.512   8.259  1.00  0.00     0.000 G0
ENDBRANCH  60  62
ENDBRANCH  56  58
ENDBRANCH  54  56
ENDBRANCH  52  54
ENDBRANCH  51  52
ENDBRANCH  50  51
ENDBRANCH  49  50
BRANCH  49  65
ATOM     65  C   UNL     1       9.769   3.299   5.836  1.00  0.00     0.326 C 
ATOM     66  O   UNL     1      10.442   2.700   6.663  1.00  0.00    -0.250 OA
BRANCH  65  67
ATOM     67  O   UNL     1       8.862   4.213   6.245  1.00  0.00    -0.480 OA
ATOM     68  H   UNL     1       9.320   4.684   6.974  1.00  0.00     0.296 HD
ENDBRANCH  65  67
ENDBRANCH  49  65
ENDBRANCH  47  49
ENDBRANCH  43  45
ENDBRANCH   1  43
BRANCH   1  69
ATOM     69  C   UNL     1       9.230  -3.233   3.744  1.00  0.00    -0.001 C 
ATOM     70  C   UNL     1       9.343  -4.161   2.778  1.00  0.00     0.001 C 
BRANCH  70  71
ATOM     71  C   UNL     1       9.784  -5.548   2.937  1.00  0.00    -0.055 C 
ATOM     72  C   UNL     1      10.485  -6.104   1.927  1.00  0.00    -0.018 C 
ATOM     73  C   UNL     1       9.431  -6.254   4.220  1.00  0.00     0.044 C 
BRANCH  72  74
ATOM     74  C   UNL     1      11.067  -7.505   1.816  1.00  0.00     0.038 C 
ATOM     75  C   UNL     1      12.370  -7.520   2.625  1.00  0.00     0.015 C 
BRANCH  74  76
ATOM     76  C   UNL     1      11.231  -7.862   0.308  1.00  0.00     0.128 C 
BRANCH  76  77
ATOM     77  O   UNL     1      12.431  -7.262  -0.210  1.00  0.00    -0.381 OA
ATOM     78  C   UNL     1      13.196  -8.134  -1.032  1.00  0.00     0.195 C 
ENDBRANCH  76  77
BRANCH  76  79
ATOM     79  C   UNL     1      11.140  -9.379   0.007  1.00  0.00     0.068 C 
BRANCH  79  80
ATOM     80  C   UNL     1      10.022 -10.162   0.650  1.00  0.00    -0.045 A 
ATOM     81  C   UNL     1      10.285 -11.106   1.652  1.00  0.00     0.004 A 
ATOM     82  C   UNL     1       8.695  -9.974   0.233  1.00  0.00     0.004 A 
ATOM     83  C   UNL     1       9.246 -11.836   2.232  1.00  0.00     0.000 A 
ATOM     84  C   UNL     1       7.657 -10.706   0.813  1.00  0.00     0.000 A 
ATOM     85  C   UNL     1       7.932 -11.635   1.814  1.00  0.00     0.000 A 
ENDBRANCH  79  80
ENDBRANCH  76  79
ENDBRANCH  74  76
ENDBRANCH  72  74
ENDBRANCH  70  71
ENDBRANCH   1  69
TORSDOF 17
ENDMDL
MODEL 8
REMARK VINA RESULT:    -7.576      3.098      7.196
REMARK INTER + INTRA:         -28.301
REMARK INTER:                 -19.804
REMARK INTRA:                  -8.497
REMARK UNBOUND:                -5.667
REMARK SMILES C=C1C(=O)N[C@H](C)C(=O)N[C@@H](CC(C)C)C(=O)N[C@@H](C(=O)O)[C@H](C)C(=O)N[C@@H](CCCN=C(N)N)C(=O)N[C@@H](/C=C/C(C)=C/[C@H](C)[C@H](Cc2ccccc2)OC)[C@H](C)C(=O)N[C@@H](C(=O)O)CCC(=O)N1C
REMARK SMILES IDX 39 1 38 2 37 3 36 4 28 6 27 7 25 8 26 9 23 11 24 12 19 13
REMARK SMILES IDX 18 14 16 15 17 16 11 18 10 19 8 20 9 21 12 24 13 25 14 26
REMARK SMILES IDX 15 27 20 28 21 29 22 30 29 32 30 33 31 34 32 35 33 36 34 37
REMARK SMILES IDX 35 38 57 43 58 44 59 45 60 46 61 47 62 49 66 50 67 51 68 52
REMARK SMILES IDX 69 53 70 54 71 55 2 56 1 57 3 58 4 59 5 60 6 62 7 63 63 65
REMARK SMILES IDX 64 66 65 67 40 69 41 70 42 71 44 72 43 73 45 74 46 75 47 76
REMARK SMILES IDX 55 77 56 78 48 79 49 80 50 81 54 82 51 83 53 84 52 85
REMARK H PARENT 38 5 27 10 18 17 10 22 22 31 34 39 34 40 35 41 35 42 61 48
REMARK H PARENT 5 61 65 68
REMARK Flexibility Score:  369.900
ROOT
ATOM      1  C   UNL     1       8.205  -1.080   0.579  1.00  0.00     0.117 C 
ENDROOT
BRANCH   1   2
ATOM      2  N   UNL     1       8.042  -2.402   1.184  1.00  0.00    -0.347 N 
ATOM      3  O   UNL     1       6.777  -1.766   2.991  1.00  0.00    -0.273 OA
ATOM      4  C   UNL     1       7.261  -2.653   2.296  1.00  0.00     0.243 C 
ATOM      5  H   UNL     1       8.477  -3.202   0.750  1.00  0.00     0.164 HD
BRANCH   4   6
ATOM      6  C   UNL     1       7.188  -4.152   2.682  1.00  0.00     0.171 C 
BRANCH   6   7
ATOM      7  N   UNL     1       8.529  -4.758   2.644  1.00  0.00    -0.344 N 
ATOM      8  C   UNL     1       8.812  -5.785   1.770  1.00  0.00     0.226 C 
ATOM      9  O   UNL     1       7.974  -6.254   1.009  1.00  0.00    -0.275 OA
ATOM     10  H   UNL     1       9.228  -4.443   3.305  1.00  0.00     0.164 HD
BRANCH   8  11
ATOM     11  C   UNL     1      10.252  -6.265   1.814  1.00  0.00     0.109 C 
ATOM     12  C   UNL     1      11.206  -5.082   1.650  1.00  0.00     0.021 C 
BRANCH  11  13
ATOM     13  C   UNL     1      10.481  -7.111   3.083  1.00  0.00     0.204 C 
BRANCH  13  14
ATOM     14  N   UNL     1       9.992  -6.438   4.290  1.00  0.00    -0.340 N 
ATOM     15  C   UNL     1      10.828  -5.805   5.185  1.00  0.00     0.243 C 
ATOM     16  O   UNL     1      12.040  -5.708   5.001  1.00  0.00    -0.273 OA
ATOM     17  H   UNL     1       9.025  -6.611   4.578  1.00  0.00     0.164 HD
BRANCH  15  18
ATOM     18  C   UNL     1      10.115  -5.351   6.482  1.00  0.00     0.171 C 
BRANCH  18  19
ATOM     19  N   UNL     1      10.744  -6.079   7.582  1.00  0.00    -0.343 N 
ATOM     20  C   UNL     1      10.587  -7.443   7.737  1.00  0.00     0.242 CG0
ATOM     21  O   UNL     1       9.807  -8.085   7.037  1.00  0.00    -0.273 OA
ATOM     22  H   UNL     1      11.306  -5.573   8.257  1.00  0.00     0.164 HD
ATOM     23  G   UNL     1      11.389  -8.048   8.908  1.00  0.00     0.000 G0
ENDBRANCH  18  19
BRANCH  18  24
ATOM     24  C   UNL     1      10.243  -3.834   6.667  1.00  0.00     0.038 C 
BRANCH  24  25
ATOM     25  C   UNL     1       9.335  -2.993   5.745  1.00  0.00    -0.015 C 
ATOM     26  C   UNL     1      10.126  -2.005   4.887  1.00  0.00     0.007 C 
ATOM     27  C   UNL     1       8.306  -2.235   6.587  1.00  0.00     0.007 C 
ENDBRANCH  24  25
ENDBRANCH  18  24
ENDBRANCH  15  18
ENDBRANCH  13  14
BRANCH  13  28
ATOM     28  C   UNL     1       9.804  -8.484   3.023  1.00  0.00     0.327 C 
ATOM     29  O   UNL     1       9.507  -9.100   2.011  1.00  0.00    -0.250 OA
BRANCH  28  30
ATOM     30  O   UNL     1       9.436  -8.946   4.235  1.00  0.00    -0.480 OA
ATOM     31  H   UNL     1       9.229  -9.891   4.081  1.00  0.00     0.296 HD
ENDBRANCH  28  30
ENDBRANCH  13  28
ENDBRANCH  11  13
ENDBRANCH   8  11
ENDBRANCH   6   7
BRANCH   6  32
ATOM     32  C   UNL     1       6.567  -4.284   4.076  1.00  0.00     0.037 C 
BRANCH  32  33
ATOM     33  C   UNL     1       5.098  -4.726   4.016  1.00  0.00     0.026 C 
BRANCH  33  34
ATOM     34  C   UNL     1       4.130  -3.542   4.028  1.00  0.00     0.146 C 
BRANCH  34  35
ATOM     35  N   UNL     1       3.661  -3.305   2.669  1.00  0.00    -0.254 NA
ATOM     36  C   UNL     1       3.483  -2.097   2.282  1.00  0.00     0.185 C 
ATOM     37  N   UNL     1       3.057  -1.867   1.031  1.00  0.00    -0.370 N 
ATOM     38  N   UNL     1       3.667  -0.955   2.968  1.00  0.00    -0.370 N 
ATOM     39  H   UNL     1       2.905  -2.679   0.446  1.00  0.00     0.159 HD
ATOM     40  H   UNL     1       3.060  -0.959   0.600  1.00  0.00     0.159 HD
ATOM     41  H   UNL     1       3.359  -0.070   2.598  1.00  0.00     0.159 HD
ATOM     42  H   UNL     1       3.972  -0.977   3.929  1.00  0.00     0.159 HD
ENDBRANCH  34  35
ENDBRANCH  33  34
ENDBRANCH  32  33
ENDBRANCH   6  32
ENDBRANCH   4   6
ENDBRANCH   1   2
BRANCH   1  43
ATOM     43  C   UNL     1       8.123  -1.229  -0.967  1.00  0.00     0.102 C 
ATOM     44  C   UNL     1       7.182  -0.210  -1.632  1.00  0.00     0.020 C 
BRANCH  43  45
ATOM     45  C   UNL     1       7.845  -2.682  -1.366  1.00  0.00     0.225 C 
ATOM     46  O   UNL     1       8.683  -3.575  -1.273  1.00  0.00    -0.275 OA
ATOM     47  N   UNL     1       6.613  -2.916  -1.931  1.00  0.00    -0.342 N 
ATOM     48  H   UNL     1       5.889  -2.215  -1.861  1.00  0.00     0.164 HD
BRANCH  47  49
ATOM     49  C   UNL     1       6.196  -4.265  -2.328  1.00  0.00     0.192 C 
BRANCH  49  50
ATOM     50  C   UNL     1       5.344  -4.187  -3.597  1.00  0.00     0.047 C 
BRANCH  50  51
ATOM     51  C   UNL     1       5.886  -5.085  -4.718  1.00  0.00     0.103 C 
BRANCH  51  52
ATOM     52  C   UNL     1       4.975  -5.086  -5.943  1.00  0.00     0.226 C 
ATOM     53  O   UNL     1       3.807  -4.710  -5.835  1.00  0.00    -0.275 OA
BRANCH  52  54
ATOM     54  N   UNL     1       5.568  -5.457  -7.165  1.00  0.00    -0.311 N 
ATOM     55  C   UNL     1       6.064  -6.823  -7.380  1.00  0.00     0.153 C 
BRANCH  54  56
ATOM     56  C   UNL     1       5.702  -4.542  -8.221  1.00  0.00     0.102 C 
ATOM     57  C   UNL     1       6.734  -3.697  -8.380  1.00  0.00     0.043 C 
BRANCH  56  58
ATOM     58  C   UNL     1       4.671  -4.473  -9.323  1.00  0.00     0.268 C 
ATOM     59  O   UNL     1       4.961  -4.336 -10.504  1.00  0.00    -0.268 OA
ATOM     60  N   UNL     1       3.385  -4.646  -8.871  1.00  0.00    -0.339 N 
ATOM     61  H   UNL     1       3.227  -4.743  -7.875  1.00  0.00     0.164 HD
BRANCH  60  62
ATOM     62  C   UNL     1       2.238  -4.678  -9.778  1.00  0.00     0.168 CG0
ATOM     63  C   UNL     1       1.766  -6.107 -10.013  1.00  0.00     0.041 C 
ATOM     64  G   UNL     1       2.615  -4.001 -11.112  1.00  0.00     0.000 G0
ENDBRANCH  60  62
ENDBRANCH  56  58
ENDBRANCH  54  56
ENDBRANCH  52  54
ENDBRANCH  51  52
ENDBRANCH  50  51
ENDBRANCH  49  50
BRANCH  49  65
ATOM     65  C   UNL     1       5.391  -4.959  -1.217  1.00  0.00     0.326 C 
ATOM     66  O   UNL     1       5.211  -6.164  -1.118  1.00  0.00    -0.250 OA
BRANCH  65  67
ATOM     67  O   UNL     1       4.810  -4.119  -0.333  1.00  0.00    -0.480 OA
ATOM     68  H   UNL     1       5.145  -3.235  -0.598  1.00  0.00     0.296 HD
ENDBRANCH  65  67
ENDBRANCH  49  65
ENDBRANCH  47  49
ENDBRANCH  43  45
ENDBRANCH   1  43
BRANCH   1  69
ATOM     69  C   UNL     1       9.459  -0.485   1.193  1.00  0.00    -0.001 C 
ATOM     70  C   UNL     1      10.728  -0.644   0.776  1.00  0.00     0.001 C 
BRANCH  70  71
ATOM     71  C   UNL     1      11.929  -0.047   1.364  1.00  0.00    -0.055 C 
ATOM     72  C   UNL     1      11.795   0.603   2.539  1.00  0.00    -0.018 C 
ATOM     73  C   UNL     1      13.229  -0.208   0.620  1.00  0.00     0.044 C 
BRANCH  72  74
ATOM     74  C   UNL     1      12.853   1.309   3.374  1.00  0.00     0.038 C 
ATOM     75  C   UNL     1      13.291   0.331   4.471  1.00  0.00     0.015 C 
BRANCH  74  76
ATOM     76  C   UNL     1      12.266   2.654   3.895  1.00  0.00     0.128 C 
BRANCH  76  77
ATOM     77  O   UNL     1      13.060   3.754   3.420  1.00  0.00    -0.381 OA
ATOM     78  C   UNL     1      14.310   3.360   2.869  1.00  0.00     0.195 C 
ENDBRANCH  76  77
BRANCH  76  79
ATOM     79  C   UNL     1      10.755   2.835   3.604  1.00  0.00     0.068 C 
BRANCH  79  80
ATOM     80  C   UNL     1       9.770   2.257   4.591  1.00  0.00    -0.045 A 
ATOM     81  C   UNL     1       8.577   1.663   4.158  1.00  0.00     0.004 A 
ATOM     82  C   UNL     1      10.023   2.333   5.969  1.00  0.00     0.004 A 
ATOM     83  C   UNL     1       7.665   1.143   5.079  1.00  0.00     0.000 A 
ATOM     84  C   UNL     1       9.110   1.813   6.889  1.00  0.00     0.000 A 
ATOM     85  C   UNL     1       7.932   1.218   6.444  1.00  0.00     0.000 A 
ENDBRANCH  79  80
ENDBRANCH  76  79
ENDBRANCH  74  76
ENDBRANCH  72  74
ENDBRANCH  70  71
ENDBRANCH   1  69
TORSDOF 17
ENDMDL
MODEL 9
REMARK VINA RESULT:    -7.552      3.084      5.235
REMARK INTER + INTRA:         -28.230
REMARK INTER:                 -23.651
REMARK INTRA:                  -4.579
REMARK UNBOUND:                -5.667
REMARK SMILES C=C1C(=O)N[C@H](C)C(=O)N[C@@H](CC(C)C)C(=O)N[C@@H](C(=O)O)[C@H](C)C(=O)N[C@@H](CCCN=C(N)N)C(=O)N[C@@H](/C=C/C(C)=C/[C@H](C)[C@H](Cc2ccccc2)OC)[C@H](C)C(=O)N[C@@H](C(=O)O)CCC(=O)N1C
REMARK SMILES IDX 39 1 38 2 37 3 36 4 28 6 27 7 25 8 26 9 23 11 24 12 19 13
REMARK SMILES IDX 18 14 16 15 17 16 11 18 10 19 8 20 9 21 12 24 13 25 14 26
REMARK SMILES IDX 15 27 20 28 21 29 22 30 29 32 30 33 31 34 32 35 33 36 34 37
REMARK SMILES IDX 35 38 57 43 58 44 59 45 60 46 61 47 62 49 66 50 67 51 68 52
REMARK SMILES IDX 69 53 70 54 71 55 2 56 1 57 3 58 4 59 5 60 6 62 7 63 63 65
REMARK SMILES IDX 64 66 65 67 40 69 41 70 42 71 44 72 43 73 45 74 46 75 47 76
REMARK SMILES IDX 55 77 56 78 48 79 49 80 50 81 54 82 51 83 53 84 52 85
REMARK H PARENT 38 5 27 10 18 17 10 22 22 31 34 39 34 40 35 41 35 42 61 48
REMARK H PARENT 5 61 65 68
REMARK Flexibility Score:  369.900
ROOT
ATOM      1  C   UNL     1       9.029  -2.024  -0.555  1.00  0.00     0.117 C 
ENDROOT
BRANCH   1   2
ATOM      2  N   UNL     1       8.279  -1.654   0.646  1.00  0.00    -0.347 N 
ATOM      3  O   UNL     1      10.003  -0.676   1.804  1.00  0.00    -0.273 OA
ATOM      4  C   UNL     1       8.807  -0.926   1.694  1.00  0.00     0.243 C 
ATOM      5  H   UNL     1       7.301  -1.893   0.711  1.00  0.00     0.164 HD
BRANCH   4   6
ATOM      6  C   UNL     1       7.778  -0.594   2.804  1.00  0.00     0.171 C 
BRANCH   6   7
ATOM      7  N   UNL     1       8.467  -0.220   4.050  1.00  0.00    -0.344 N 
ATOM      8  C   UNL     1       8.113  -0.799   5.249  1.00  0.00     0.226 C 
ATOM      9  O   UNL     1       7.209  -1.622   5.344  1.00  0.00    -0.275 OA
ATOM     10  H   UNL     1       9.172   0.505   4.022  1.00  0.00     0.164 HD
BRANCH   8  11
ATOM     11  C   UNL     1       8.952  -0.350   6.432  1.00  0.00     0.109 C 
ATOM     12  C   UNL     1      10.405  -0.151   6.001  1.00  0.00     0.021 C 
BRANCH  11  13
ATOM     13  C   UNL     1       8.300   0.877   7.099  1.00  0.00     0.204 C 
BRANCH  13  14
ATOM     14  N   UNL     1       8.645   0.982   8.520  1.00  0.00    -0.340 N 
ATOM     15  C   UNL     1       7.845   0.478   9.523  1.00  0.00     0.243 C 
ATOM     16  O   UNL     1       6.814  -0.150   9.293  1.00  0.00    -0.273 OA
ATOM     17  H   UNL     1       9.402   1.618   8.785  1.00  0.00     0.164 HD
BRANCH  15  18
ATOM     18  C   UNL     1       8.304   0.888  10.944  1.00  0.00     0.171 C 
BRANCH  18  19
ATOM     19  N   UNL     1       8.060  -0.263  11.811  1.00  0.00    -0.343 N 
ATOM     20  C   UNL     1       6.906  -0.378  12.562  1.00  0.00     0.242 CG0
ATOM     21  O   UNL     1       6.095   0.542  12.639  1.00  0.00    -0.273 OA
ATOM     22  H   UNL     1       8.756  -0.998  11.871  1.00  0.00     0.164 HD
ATOM     23  G   UNL     1       6.790  -1.697  13.353  1.00  0.00     0.000 G0
ENDBRANCH  18  19
BRANCH  18  24
ATOM     24  C   UNL     1       9.786   1.285  10.941  1.00  0.00     0.038 C 
BRANCH  24  25
ATOM     25  C   UNL     1      10.075   2.699  11.487  1.00  0.00    -0.015 C 
ATOM     26  C   UNL     1      10.208   3.740  10.375  1.00  0.00     0.007 C 
ATOM     27  C   UNL     1      11.356   2.675  12.325  1.00  0.00     0.007 C 
ENDBRANCH  24  25
ENDBRANCH  18  24
ENDBRANCH  15  18
ENDBRANCH  13  14
BRANCH  13  28
ATOM     28  C   UNL     1       8.691   2.202   6.438  1.00  0.00     0.327 C 
ATOM     29  O   UNL     1       8.376   2.572   5.317  1.00  0.00    -0.250 OA
BRANCH  28  30
ATOM     30  O   UNL     1       9.552   2.929   7.179  1.00  0.00    -0.480 OA
ATOM     31  H   UNL     1      10.389   2.422   7.142  1.00  0.00     0.296 HD
ENDBRANCH  28  30
ENDBRANCH  13  28
ENDBRANCH  11  13
ENDBRANCH   8  11
ENDBRANCH   6   7
BRANCH   6  32
ATOM     32  C   UNL     1       6.866   0.540   2.322  1.00  0.00     0.037 C 
BRANCH  32  33
ATOM     33  C   UNL     1       5.414   0.352   2.783  1.00  0.00     0.026 C 
BRANCH  33  34
ATOM     34  C   UNL     1       4.698  -0.765   2.023  1.00  0.00     0.146 C 
BRANCH  34  35
ATOM     35  N   UNL     1       4.195  -0.230   0.765  1.00  0.00    -0.254 NA
ATOM     36  C   UNL     1       3.458  -0.977   0.031  1.00  0.00     0.185 C 
ATOM     37  N   UNL     1       2.985  -0.492  -1.128  1.00  0.00    -0.370 N 
ATOM     38  N   UNL     1       3.057  -2.242   0.246  1.00  0.00    -0.370 N 
ATOM     39  H   UNL     1       3.235   0.462  -1.357  1.00  0.00     0.159 HD
ATOM     40  H   UNL     1       2.268  -0.944  -1.669  1.00  0.00     0.159 HD
ATOM     41  H   UNL     1       2.592  -2.771  -0.473  1.00  0.00     0.159 HD
ATOM     42  H   UNL     1       3.351  -2.739   1.073  1.00  0.00     0.159 HD
ENDBRANCH  34  35
ENDBRANCH  33  34
ENDBRANCH  32  33
ENDBRANCH   6  32
ENDBRANCH   4   6
ENDBRANCH   1   2
BRANCH   1  43
ATOM     43  C   UNL     1       8.206  -1.598  -1.804  1.00  0.00     0.102 C 
ATOM     44  C   UNL     1       7.181  -0.489  -1.513  1.00  0.00     0.020 C 
BRANCH  43  45
ATOM     45  C   UNL     1       7.614  -2.819  -2.515  1.00  0.00     0.225 C 
ATOM     46  O   UNL     1       7.949  -3.166  -3.644  1.00  0.00    -0.275 OA
ATOM     47  N   UNL     1       6.600  -3.463  -1.843  1.00  0.00    -0.342 N 
ATOM     48  H   UNL     1       6.443  -3.263  -0.865  1.00  0.00     0.164 HD
BRANCH  47  49
ATOM     49  C   UNL     1       5.965  -4.667  -2.386  1.00  0.00     0.192 C 
BRANCH  49  50
ATOM     50  C   UNL     1       5.259  -4.328  -3.701  1.00  0.00     0.047 C 
BRANCH  50  51
ATOM     51  C   UNL     1       5.633  -5.298  -4.830  1.00  0.00     0.103 C 
BRANCH  51  52
ATOM     52  C   UNL     1       4.651  -5.226  -5.997  1.00  0.00     0.226 C 
ATOM     53  O   UNL     1       3.529  -4.746  -5.822  1.00  0.00    -0.275 OA
BRANCH  52  54
ATOM     54  N   UNL     1       5.132  -5.656  -7.248  1.00  0.00    -0.311 N 
ATOM     55  C   UNL     1       6.559  -5.935  -7.455  1.00  0.00     0.153 C 
BRANCH  54  56
ATOM     56  C   UNL     1       4.268  -5.840  -8.340  1.00  0.00     0.102 C 
ATOM     57  C   UNL     1       3.655  -6.994  -8.650  1.00  0.00     0.043 C 
BRANCH  56  58
ATOM     58  C   UNL     1       3.920  -4.689  -9.255  1.00  0.00     0.268 C 
ATOM     59  O   UNL     1       4.761  -3.960  -9.764  1.00  0.00    -0.268 OA
ATOM     60  N   UNL     1       2.572  -4.588  -9.508  1.00  0.00    -0.339 N 
ATOM     61  H   UNL     1       1.940  -5.225  -9.038  1.00  0.00     0.164 HD
BRANCH  60  62
ATOM     62  C   UNL     1       2.023  -3.583 -10.417  1.00  0.00     0.168 CG0
ATOM     63  C   UNL     1       1.181  -4.234 -11.508  1.00  0.00     0.041 C 
ATOM     64  G   UNL     1       3.173  -2.761 -11.033  1.00  0.00     0.000 G0
ENDBRANCH  60  62
ENDBRANCH  56  58
ENDBRANCH  54  56
ENDBRANCH  52  54
ENDBRANCH  51  52
ENDBRANCH  50  51
ENDBRANCH  49  50
BRANCH  49  65
ATOM     65  C   UNL     1       4.947  -5.264  -1.401  1.00  0.00     0.326 C 
ATOM     66  O   UNL     1       4.248  -4.625  -0.628  1.00  0.00    -0.250 OA
BRANCH  65  67
ATOM     67  O   UNL     1       4.899  -6.614  -1.389  1.00  0.00    -0.480 OA
ATOM     68  H   UNL     1       3.955  -6.810  -1.202  1.00  0.00     0.296 HD
ENDBRANCH  65  67
ENDBRANCH  49  65
ENDBRANCH  47  49
ENDBRANCH  43  45
ENDBRANCH   1  43
BRANCH   1  69
ATOM     69  C   UNL     1       9.404  -3.485  -0.387  1.00  0.00    -0.001 C 
ATOM     70  C   UNL     1       8.884  -4.367   0.485  1.00  0.00     0.001 C 
BRANCH  70  71
ATOM     71  C   UNL     1       9.239  -5.781   0.623  1.00  0.00    -0.055 C 
ATOM     72  C   UNL     1      10.354  -6.083   1.321  1.00  0.00    -0.018 C 
ATOM     73  C   UNL     1       8.331  -6.799  -0.016  1.00  0.00     0.044 C 
BRANCH  72  74
ATOM     74  C   UNL     1      10.960  -7.445   1.628  1.00  0.00     0.038 C 
ATOM     75  C   UNL     1      11.792  -7.293   2.906  1.00  0.00     0.015 C 
BRANCH  74  76
ATOM     76  C   UNL     1      11.758  -7.930   0.382  1.00  0.00     0.128 C 
BRANCH  76  77
ATOM     77  O   UNL     1      13.170  -7.866   0.648  1.00  0.00    -0.381 OA
ATOM     78  C   UNL     1      13.978  -8.079  -0.501  1.00  0.00     0.195 C 
ENDBRANCH  76  77
BRANCH  76  79
ATOM     79  C   UNL     1      11.311  -9.314  -0.153  1.00  0.00     0.068 C 
BRANCH  79  80
ATOM     80  C   UNL     1      10.187 -10.020   0.566  1.00  0.00    -0.045 A 
ATOM     81  C   UNL     1      10.399 -10.640   1.805  1.00  0.00     0.004 A 
ATOM     82  C   UNL     1       8.911 -10.091  -0.014  1.00  0.00     0.004 A 
ATOM     83  C   UNL     1       9.357 -11.303   2.456  1.00  0.00     0.000 A 
ATOM     84  C   UNL     1       7.870 -10.755   0.638  1.00  0.00     0.000 A 
ATOM     85  C   UNL     1       8.093 -11.360   1.874  1.00  0.00     0.000 A 
ENDBRANCH  79  80
ENDBRANCH  76  79
ENDBRANCH  74  76
ENDBRANCH  72  74
ENDBRANCH  70  71
ENDBRANCH   1  69
TORSDOF 17
ENDMDL
MODEL 10
REMARK VINA RESULT:    -7.546      4.204      8.889
REMARK INTER + INTRA:         -28.213
REMARK INTER:                 -21.049
REMARK INTRA:                  -7.164
REMARK UNBOUND:                -5.667
REMARK SMILES C=C1C(=O)N[C@H](C)C(=O)N[C@@H](CC(C)C)C(=O)N[C@@H](C(=O)O)[C@H](C)C(=O)N[C@@H](CCCN=C(N)N)C(=O)N[C@@H](/C=C/C(C)=C/[C@H](C)[C@H](Cc2ccccc2)OC)[C@H](C)C(=O)N[C@@H](C(=O)O)CCC(=O)N1C
REMARK SMILES IDX 39 1 38 2 37 3 36 4 28 6 27 7 25 8 26 9 23 11 24 12 19 13
REMARK SMILES IDX 18 14 16 15 17 16 11 18 10 19 8 20 9 21 12 24 13 25 14 26
REMARK SMILES IDX 15 27 20 28 21 29 22 30 29 32 30 33 31 34 32 35 33 36 34 37
REMARK SMILES IDX 35 38 57 43 58 44 59 45 60 46 61 47 62 49 66 50 67 51 68 52
REMARK SMILES IDX 69 53 70 54 71 55 2 56 1 57 3 58 4 59 5 60 6 62 7 63 63 65
REMARK SMILES IDX 64 66 65 67 40 69 41 70 42 71 44 72 43 73 45 74 46 75 47 76
REMARK SMILES IDX 55 77 56 78 48 79 49 80 50 81 54 82 51 83 53 84 52 85
REMARK H PARENT 38 5 27 10 18 17 10 22 22 31 34 39 34 40 35 41 35 42 61 48
REMARK H PARENT 5 61 65 68
REMARK Flexibility Score:  369.900
ROOT
ATOM      1  C   UNL     1       7.759  -2.019   3.518  1.00  0.00     0.117 C 
ENDROOT
BRANCH   1   2
ATOM      2  N   UNL     1       8.229  -1.235   4.661  1.00  0.00    -0.347 N 
ATOM      3  O   UNL     1       6.790   0.540   4.435  1.00  0.00    -0.273 OA
ATOM      4  C   UNL     1       7.643  -0.057   5.084  1.00  0.00     0.243 C 
ATOM      5  H   UNL     1       8.994  -1.582   5.218  1.00  0.00     0.164 HD
BRANCH   4   6
ATOM      6  C   UNL     1       8.278   0.529   6.370  1.00  0.00     0.171 C 
BRANCH   6   7
ATOM      7  N   UNL     1       8.617  -0.549   7.313  1.00  0.00    -0.344 N 
ATOM      8  C   UNL     1       8.006  -0.622   8.546  1.00  0.00     0.226 C 
ATOM      9  O   UNL     1       7.182   0.202   8.924  1.00  0.00    -0.275 OA
ATOM     10  H   UNL     1       9.342  -1.210   7.063  1.00  0.00     0.164 HD
BRANCH   8  11
ATOM     11  C   UNL     1       8.422  -1.821   9.380  1.00  0.00     0.109 C 
ATOM     12  C   UNL     1       8.644  -1.399  10.833  1.00  0.00     0.021 C 
BRANCH  11  13
ATOM     13  C   UNL     1       7.410  -2.968   9.186  1.00  0.00     0.204 C 
BRANCH  13  14
ATOM     14  N   UNL     1       6.099  -2.651   9.759  1.00  0.00    -0.340 N 
ATOM     15  C   UNL     1       5.369  -3.552  10.503  1.00  0.00     0.243 C 
ATOM     16  O   UNL     1       5.796  -4.669  10.790  1.00  0.00    -0.273 OA
ATOM     17  H   UNL     1       5.625  -1.804   9.434  1.00  0.00     0.164 HD
BRANCH  15  18
ATOM     18  C   UNL     1       3.933  -3.071  10.825  1.00  0.00     0.171 C 
BRANCH  18  19
ATOM     19  N   UNL     1       3.946  -2.615  12.213  1.00  0.00    -0.343 N 
ATOM     20  C   UNL     1       3.503  -3.418  13.247  1.00  0.00     0.242 CG0
ATOM     21  O   UNL     1       2.957  -4.498  13.035  1.00  0.00    -0.273 OA
ATOM     22  H   UNL     1       4.281  -1.683  12.428  1.00  0.00     0.164 HD
ATOM     23  G   UNL     1       3.666  -2.797  14.650  1.00  0.00     0.000 G0
ENDBRANCH  18  19
BRANCH  18  24
ATOM     24  C   UNL     1       3.512  -1.948   9.869  1.00  0.00     0.038 C 
BRANCH  24  25
ATOM     25  C   UNL     1       2.136  -2.152   9.201  1.00  0.00    -0.015 C 
ATOM     26  C   UNL     1       1.182  -2.975  10.067  1.00  0.00     0.007 C 
ATOM     27  C   UNL     1       2.319  -2.836   7.844  1.00  0.00     0.007 C 
ENDBRANCH  24  25
ENDBRANCH  18  24
ENDBRANCH  15  18
ENDBRANCH  13  14
BRANCH  13  28
ATOM     28  C   UNL     1       7.187  -3.332   7.715  1.00  0.00     0.327 C 
ATOM     29  O   UNL     1       8.054  -3.587   6.893  1.00  0.00    -0.250 OA
BRANCH  28  30
ATOM     30  O   UNL     1       5.896  -3.237   7.337  1.00  0.00    -0.480 OA
ATOM     31  H   UNL     1       5.855  -2.401   6.828  1.00  0.00     0.296 HD
ENDBRANCH  28  30
ENDBRANCH  13  28
ENDBRANCH  11  13
ENDBRANCH   8  11
ENDBRANCH   6   7
BRANCH   6  32
ATOM     32  C   UNL     1       9.524   1.337   5.993  1.00  0.00     0.037 C 
BRANCH  32  33
ATOM     33  C   UNL     1       9.186   2.541   5.102  1.00  0.00     0.026 C 
BRANCH  33  34
ATOM     34  C   UNL     1       9.211   3.863   5.871  1.00  0.00     0.146 C 
BRANCH  34  35
ATOM     35  N   UNL     1      10.579   4.138   6.287  1.00  0.00    -0.254 NA
ATOM     36  C   UNL     1      11.321   4.853   5.525  1.00  0.00     0.185 C 
ATOM     37  N   UNL     1      12.582   5.118   5.901  1.00  0.00    -0.370 N 
ATOM     38  N   UNL     1      11.022   5.416   4.341  1.00  0.00    -0.370 N 
ATOM     39  H   UNL     1      12.880   4.736   6.790  1.00  0.00     0.159 HD
ATOM     40  H   UNL     1      13.164   5.804   5.453  1.00  0.00     0.159 HD
ATOM     41  H   UNL     1      11.735   5.839   3.770  1.00  0.00     0.159 HD
ATOM     42  H   UNL     1      10.112   5.286   3.927  1.00  0.00     0.159 HD
ENDBRANCH  34  35
ENDBRANCH  33  34
ENDBRANCH  32  33
ENDBRANCH   6  32
ENDBRANCH   4   6
ENDBRANCH   1   2
BRANCH   1  43
ATOM     43  C   UNL     1       6.819  -3.143   4.041  1.00  0.00     0.102 C 
ATOM     44  C   UNL     1       7.206  -4.545   3.543  1.00  0.00     0.020 C 
BRANCH  43  45
ATOM     45  C   UNL     1       5.349  -2.783   3.807  1.00  0.00     0.225 C 
ATOM     46  O   UNL     1       4.576  -2.493   4.715  1.00  0.00    -0.275 OA
ATOM     47  N   UNL     1       4.911  -2.896   2.507  1.00  0.00    -0.342 N 
ATOM     48  H   UNL     1       5.584  -2.986   1.759  1.00  0.00     0.164 HD
BRANCH  47  49
ATOM     49  C   UNL     1       3.538  -2.551   2.128  1.00  0.00     0.192 C 
BRANCH  49  50
ATOM     50  C   UNL     1       3.057  -3.494   1.021  1.00  0.00     0.047 C 
BRANCH  50  51
ATOM     51  C   UNL     1       4.179  -4.404   0.504  1.00  0.00     0.103 C 
BRANCH  51  52
ATOM     52  C   UNL     1       4.858  -3.829  -0.738  1.00  0.00     0.226 C 
ATOM     53  O   UNL     1       4.287  -2.957  -1.396  1.00  0.00    -0.275 OA
BRANCH  52  54
ATOM     54  N   UNL     1       6.159  -4.291  -1.012  1.00  0.00    -0.311 N 
ATOM     55  C   UNL     1       7.320  -3.757  -0.287  1.00  0.00     0.153 C 
BRANCH  54  56
ATOM     56  C   UNL     1       6.395  -5.280  -1.981  1.00  0.00     0.102 C 
ATOM     57  C   UNL     1       6.567  -6.586  -1.720  1.00  0.00     0.043 C 
BRANCH  56  58
ATOM     58  C   UNL     1       6.428  -4.933  -3.451  1.00  0.00     0.268 C 
ATOM     59  O   UNL     1       6.892  -3.885  -3.881  1.00  0.00    -0.268 OA
ATOM     60  N   UNL     1       5.947  -5.938  -4.255  1.00  0.00    -0.339 N 
ATOM     61  H   UNL     1       5.571  -6.772  -3.820  1.00  0.00     0.164 HD
BRANCH  60  62
ATOM     62  C   UNL     1       5.946  -5.836  -5.714  1.00  0.00     0.168 CG0
ATOM     63  C   UNL     1       4.557  -5.493  -6.237  1.00  0.00     0.041 C 
ATOM     64  G   UNL     1       6.447  -7.161  -6.325  1.00  0.00     0.000 G0
ENDBRANCH  60  62
ENDBRANCH  56  58
ENDBRANCH  54  56
ENDBRANCH  52  54
ENDBRANCH  51  52
ENDBRANCH  50  51
ENDBRANCH  49  50
BRANCH  49  65
ATOM     65  C   UNL     1       3.434  -1.098   1.639  1.00  0.00     0.326 C 
ATOM     66  O   UNL     1       3.612  -0.103   2.326  1.00  0.00    -0.250 OA
BRANCH  65  67
ATOM     67  O   UNL     1       3.057  -0.963   0.348  1.00  0.00    -0.480 OA
ATOM     68  H   UNL     1       3.886  -1.120  -0.153  1.00  0.00     0.296 HD
ENDBRANCH  65  67
ENDBRANCH  49  65
ENDBRANCH  47  49
ENDBRANCH  43  45
ENDBRANCH   1  43
BRANCH   1  69
ATOM     69  C   UNL     1       8.999  -2.406   2.732  1.00  0.00    -0.001 C 
ATOM     70  C   UNL     1      10.023  -3.172   3.147  1.00  0.00     0.001 C 
BRANCH  70  71
ATOM     71  C   UNL     1      11.204  -3.557   2.372  1.00  0.00    -0.055 C 
ATOM     72  C   UNL     1      12.233  -2.686   2.323  1.00  0.00    -0.018 C 
ATOM     73  C   UNL     1      11.190  -4.901   1.692  1.00  0.00     0.044 C 
BRANCH  72  74
ATOM     74  C   UNL     1      13.571  -2.815   1.608  1.00  0.00     0.038 C 
ATOM     75  C   UNL     1      14.668  -2.669   2.669  1.00  0.00     0.015 C 
BRANCH  74  76
ATOM     76  C   UNL     1      13.629  -1.764   0.460  1.00  0.00     0.128 C 
BRANCH  76  77
ATOM     77  O   UNL     1      13.520  -2.421  -0.814  1.00  0.00    -0.381 OA
ATOM     78  C   UNL     1      13.877  -3.796  -0.779  1.00  0.00     0.195 C 
ENDBRANCH  76  77
BRANCH  76  79
ATOM     79  C   UNL     1      12.620  -0.599   0.622  1.00  0.00     0.068 C 
BRANCH  79  80
ATOM     80  C   UNL     1      12.995   0.538   1.542  1.00  0.00    -0.045 A 
ATOM     81  C   UNL     1      14.318   0.989   1.631  1.00  0.00     0.004 A 
ATOM     82  C   UNL     1      12.020   1.146   2.348  1.00  0.00     0.004 A 
ATOM     83  C   UNL     1      14.659   2.032   2.494  1.00  0.00     0.000 A 
ATOM     84  C   UNL     1      12.362   2.188   3.212  1.00  0.00     0.000 A 
ATOM     85  C   UNL     1      13.681   2.632   3.284  1.00  0.00     0.000 A 
ENDBRANCH  79  80
ENDBRANCH  76  79
ENDBRANCH  74  76
ENDBRANCH  72  74
ENDBRANCH  70  71
ENDBRANCH   1  69
TORSDOF 17
ENDMDL
MODEL 11
REMARK VINA RESULT:    -7.537      1.899      2.509
REMARK INTER + INTRA:         -28.184
REMARK INTER:                 -22.411
REMARK INTRA:                  -5.774
REMARK UNBOUND:                -5.667
REMARK SMILES C=C1C(=O)N[C@H](C)C(=O)N[C@@H](CC(C)C)C(=O)N[C@@H](C(=O)O)[C@H](C)C(=O)N[C@@H](CCCN=C(N)N)C(=O)N[C@@H](/C=C/C(C)=C/[C@H](C)[C@H](Cc2ccccc2)OC)[C@H](C)C(=O)N[C@@H](C(=O)O)CCC(=O)N1C
REMARK SMILES IDX 39 1 38 2 37 3 36 4 28 6 27 7 25 8 26 9 23 11 24 12 19 13
REMARK SMILES IDX 18 14 16 15 17 16 11 18 10 19 8 20 9 21 12 24 13 25 14 26
REMARK SMILES IDX 15 27 20 28 21 29 22 30 29 32 30 33 31 34 32 35 33 36 34 37
REMARK SMILES IDX 35 38 57 43 58 44 59 45 60 46 61 47 62 49 66 50 67 51 68 52
REMARK SMILES IDX 69 53 70 54 71 55 2 56 1 57 3 58 4 59 5 60 6 62 7 63 63 65
REMARK SMILES IDX 64 66 65 67 40 69 41 70 42 71 44 72 43 73 45 74 46 75 47 76
REMARK SMILES IDX 55 77 56 78 48 79 49 80 50 81 54 82 51 83 53 84 52 85
REMARK H PARENT 38 5 27 10 18 17 10 22 22 31 34 39 34 40 35 41 35 42 61 48
REMARK H PARENT 5 61 65 68
REMARK Flexibility Score:  369.900
ROOT
ATOM      1  C   UNL     1       6.748  -4.678  -1.445  1.00  0.00     0.117 C 
ENDROOT
BRANCH   1   2
ATOM      2  N   UNL     1       5.760  -3.661  -1.083  1.00  0.00    -0.347 N 
ATOM      3  O   UNL     1       4.146  -5.072  -0.262  1.00  0.00    -0.273 OA
ATOM      4  C   UNL     1       4.571  -3.934  -0.434  1.00  0.00     0.243 C 
ATOM      5  H   UNL     1       5.961  -2.689  -1.265  1.00  0.00     0.164 HD
BRANCH   4   6
ATOM      6  C   UNL     1       3.744  -2.670  -0.089  1.00  0.00     0.171 C 
BRANCH   6   7
ATOM      7  N   UNL     1       4.020  -2.235   1.289  1.00  0.00    -0.344 N 
ATOM      8  C   UNL     1       3.224  -2.656   2.332  1.00  0.00     0.226 C 
ATOM      9  O   UNL     1       2.251  -3.382   2.168  1.00  0.00    -0.275 OA
ATOM     10  H   UNL     1       4.775  -1.581   1.455  1.00  0.00     0.164 HD
BRANCH   8  11
ATOM     11  C   UNL     1       3.671  -2.166   3.698  1.00  0.00     0.109 C 
ATOM     12  C   UNL     1       2.486  -2.148   4.664  1.00  0.00     0.021 C 
BRANCH  11  13
ATOM     13  C   UNL     1       4.885  -2.988   4.176  1.00  0.00     0.204 C 
BRANCH  13  14
ATOM     14  N   UNL     1       6.019  -2.134   4.544  1.00  0.00    -0.340 N 
ATOM     15  C   UNL     1       6.888  -1.603   3.616  1.00  0.00     0.243 C 
ATOM     16  O   UNL     1       6.737  -1.758   2.405  1.00  0.00    -0.273 OA
ATOM     17  H   UNL     1       6.287  -2.091   5.531  1.00  0.00     0.164 HD
BRANCH  15  18
ATOM     18  C   UNL     1       8.121  -0.912   4.247  1.00  0.00     0.171 C 
BRANCH  18  19
ATOM     19  N   UNL     1       9.234  -1.114   3.322  1.00  0.00    -0.343 N 
ATOM     20  C   UNL     1      10.235  -2.032   3.576  1.00  0.00     0.242 CG0
ATOM     21  O   UNL     1      10.309  -2.623   4.650  1.00  0.00    -0.273 OA
ATOM     22  H   UNL     1       9.280  -0.564   2.472  1.00  0.00     0.164 HD
ATOM     23  G   UNL     1      11.281  -2.161   2.449  1.00  0.00     0.000 G0
ENDBRANCH  18  19
BRANCH  18  24
ATOM     24  C   UNL     1       7.847   0.579   4.479  1.00  0.00     0.038 C 
BRANCH  24  25
ATOM     25  C   UNL     1       8.928   1.313   5.301  1.00  0.00    -0.015 C 
ATOM     26  C   UNL     1       9.101   0.722   6.700  1.00  0.00     0.007 C 
ATOM     27  C   UNL     1       8.572   2.798   5.410  1.00  0.00     0.007 C 
ENDBRANCH  24  25
ENDBRANCH  18  24
ENDBRANCH  15  18
ENDBRANCH  13  14
BRANCH  13  28
ATOM     28  C   UNL     1       4.574  -3.876   5.384  1.00  0.00     0.327 C 
ATOM     29  O   UNL     1       4.742  -3.584   6.558  1.00  0.00    -0.250 OA
BRANCH  28  30
ATOM     30  O   UNL     1       4.184  -5.120   5.040  1.00  0.00    -0.480 OA
ATOM     31  H   UNL     1       4.997  -5.660   5.123  1.00  0.00     0.296 HD
ENDBRANCH  28  30
ENDBRANCH  13  28
ENDBRANCH  11  13
ENDBRANCH   8  11
ENDBRANCH   6   7
BRANCH   6  32
ATOM     32  C   UNL     1       4.080  -1.560  -1.091  1.00  0.00     0.037 C 
BRANCH  32  33
ATOM     33  C   UNL     1       4.336  -0.213  -0.400  1.00  0.00     0.026 C 
BRANCH  33  34
ATOM     34  C   UNL     1       5.826   0.070  -0.205  1.00  0.00     0.146 C 
BRANCH  34  35
ATOM     35  N   UNL     1       6.574  -0.603  -1.258  1.00  0.00    -0.254 NA
ATOM     36  C   UNL     1       7.816  -0.852  -1.067  1.00  0.00     0.185 C 
ATOM     37  N   UNL     1       8.514  -1.476  -2.029  1.00  0.00    -0.370 N 
ATOM     38  N   UNL     1       8.578  -0.573   0.005  1.00  0.00    -0.370 N 
ATOM     39  H   UNL     1       8.006  -1.729  -2.867  1.00  0.00     0.159 HD
ATOM     40  H   UNL     1       9.433  -1.858  -1.890  1.00  0.00     0.159 HD
ATOM     41  H   UNL     1       9.577  -0.694  -0.020  1.00  0.00     0.159 HD
ATOM     42  H   UNL     1       8.188  -0.090   0.800  1.00  0.00     0.159 HD
ENDBRANCH  34  35
ENDBRANCH  33  34
ENDBRANCH  32  33
ENDBRANCH   6  32
ENDBRANCH   4   6
ENDBRANCH   1   2
BRANCH   1  43
ATOM     43  C   UNL     1       6.073  -5.707  -2.397  1.00  0.00     0.102 C 
ATOM     44  C   UNL     1       6.822  -7.049  -2.476  1.00  0.00     0.020 C 
BRANCH  43  45
ATOM     45  C   UNL     1       5.774  -5.081  -3.762  1.00  0.00     0.225 C 
ATOM     46  O   UNL     1       5.301  -3.956  -3.894  1.00  0.00    -0.275 OA
ATOM     47  N   UNL     1       5.982  -5.900  -4.848  1.00  0.00    -0.342 N 
ATOM     48  H   UNL     1       6.508  -6.755  -4.736  1.00  0.00     0.164 HD
BRANCH  47  49
ATOM     49  C   UNL     1       5.771  -5.423  -6.218  1.00  0.00     0.192 C 
BRANCH  49  50
ATOM     50  C   UNL     1       4.764  -6.331  -6.929  1.00  0.00     0.047 C 
BRANCH  50  51
ATOM     51  C   UNL     1       4.264  -5.724  -8.248  1.00  0.00     0.103 C 
BRANCH  51  52
ATOM     52  C   UNL     1       3.431  -6.717  -9.056  1.00  0.00     0.226 C 
ATOM     53  O   UNL     1       2.957  -7.710  -8.501  1.00  0.00    -0.275 OA
BRANCH  52  54
ATOM     54  N   UNL     1       3.190  -6.383 -10.402  1.00  0.00    -0.311 N 
ATOM     55  C   UNL     1       4.261  -6.459 -11.403  1.00  0.00     0.153 C 
BRANCH  54  56
ATOM     56  C   UNL     1       1.919  -5.972 -10.838  1.00  0.00     0.102 C 
ATOM     57  C   UNL     1       1.179  -5.014 -10.256  1.00  0.00     0.043 C 
BRANCH  56  58
ATOM     58  C   UNL     1       1.291  -6.575 -12.072  1.00  0.00     0.268 C 
ATOM     59  O   UNL     1       1.291  -6.020 -13.163  1.00  0.00    -0.268 OA
ATOM     60  N   UNL     1       0.781  -7.833 -11.859  1.00  0.00    -0.339 N 
ATOM     61  H   UNL     1       0.810  -8.219 -10.923  1.00  0.00     0.164 HD
BRANCH  60  62
ATOM     62  C   UNL     1       0.183  -8.624 -12.934  1.00  0.00     0.168 CG0
ATOM     63  C   UNL     1      -0.702  -7.759 -13.822  1.00  0.00     0.041 C 
ATOM     64  G   UNL     1      -0.624  -9.792 -12.330  1.00  0.00     0.000 G0
ENDBRANCH  60  62
ENDBRANCH  56  58
ENDBRANCH  54  56
ENDBRANCH  52  54
ENDBRANCH  51  52
ENDBRANCH  50  51
ENDBRANCH  49  50
BRANCH  49  65
ATOM     65  C   UNL     1       7.084  -5.396  -7.017  1.00  0.00     0.326 C 
ATOM     66  O   UNL     1       7.761  -4.403  -7.237  1.00  0.00    -0.250 OA
BRANCH  65  67
ATOM     67  O   UNL     1       7.448  -6.586  -7.545  1.00  0.00    -0.480 OA
ATOM     68  H   UNL     1       6.776  -6.744  -8.242  1.00  0.00     0.296 HD
ENDBRANCH  65  67
ENDBRANCH  49  65
ENDBRANCH  47  49
ENDBRANCH  43  45
ENDBRANCH   1  43
BRANCH   1  69
ATOM     69  C   UNL     1       7.349  -5.168  -0.141  1.00  0.00    -0.001 C 
ATOM     70  C   UNL     1       8.151  -4.487   0.697  1.00  0.00     0.001 C 
BRANCH  70  71
ATOM     71  C   UNL     1       8.707  -4.965   1.964  1.00  0.00    -0.055 C 
ATOM     72  C   UNL     1       9.995  -5.370   1.972  1.00  0.00    -0.018 C 
ATOM     73  C   UNL     1       7.807  -4.962   3.172  1.00  0.00     0.044 C 
BRANCH  72  74
ATOM     74  C   UNL     1      10.830  -5.905   3.126  1.00  0.00     0.038 C 
ATOM     75  C   UNL     1      12.267  -5.415   2.911  1.00  0.00     0.015 C 
BRANCH  74  76
ATOM     76  C   UNL     1      10.669  -7.453   3.186  1.00  0.00     0.128 C 
BRANCH  76  77
ATOM     77  O   UNL     1       9.865  -7.819   4.320  1.00  0.00    -0.381 OA
ATOM     78  C   UNL     1      10.195  -7.110   5.507  1.00  0.00     0.195 C 
ENDBRANCH  76  77
BRANCH  76  79
ATOM     79  C   UNL     1      10.165  -8.085   1.864  1.00  0.00     0.068 C 
BRANCH  79  80
ATOM     80  C   UNL     1      10.341  -9.573   1.680  1.00  0.00    -0.045 A 
ATOM     81  C   UNL     1       9.290 -10.461   1.939  1.00  0.00     0.004 A 
ATOM     82  C   UNL     1      11.578 -10.093   1.271  1.00  0.00     0.004 A 
ATOM     83  C   UNL     1       9.465 -11.838   1.780  1.00  0.00     0.000 A 
ATOM     84  C   UNL     1      11.752 -11.470   1.113  1.00  0.00     0.000 A 
ATOM     85  C   UNL     1      10.696 -12.341   1.366  1.00  0.00     0.000 A 
ENDBRANCH  79  80
ENDBRANCH  76  79
ENDBRANCH  74  76
ENDBRANCH  72  74
ENDBRANCH  70  71
ENDBRANCH   1  69
TORSDOF 17
ENDMDL
MODEL 12
REMARK VINA RESULT:    -7.524      3.023     12.668
REMARK INTER + INTRA:         -28.147
REMARK INTER:                 -22.740
REMARK INTRA:                  -5.407
REMARK UNBOUND:                -5.667
REMARK SMILES C=C1C(=O)N[C@H](C)C(=O)N[C@@H](CC(C)C)C(=O)N[C@@H](C(=O)O)[C@H](C)C(=O)N[C@@H](CCCN=C(N)N)C(=O)N[C@@H](/C=C/C(C)=C/[C@H](C)[C@H](Cc2ccccc2)OC)[C@H](C)C(=O)N[C@@H](C(=O)O)CCC(=O)N1C
REMARK SMILES IDX 39 1 38 2 37 3 36 4 28 6 27 7 25 8 26 9 23 11 24 12 19 13
REMARK SMILES IDX 18 14 16 15 17 16 11 18 10 19 8 20 9 21 12 24 13 25 14 26
REMARK SMILES IDX 15 27 20 28 21 29 22 30 29 32 30 33 31 34 32 35 33 36 34 37
REMARK SMILES IDX 35 38 57 43 58 44 59 45 60 46 61 47 62 49 66 50 67 51 68 52
REMARK SMILES IDX 69 53 70 54 71 55 2 56 1 57 3 58 4 59 5 60 6 62 7 63 63 65
REMARK SMILES IDX 64 66 65 67 40 69 41 70 42 71 44 72 43 73 45 74 46 75 47 76
REMARK SMILES IDX 55 77 56 78 48 79 49 80 50 81 54 82 51 83 53 84 52 85
REMARK H PARENT 38 5 27 10 18 17 10 22 22 31 34 39 34 40 35 41 35 42 61 48
REMARK H PARENT 5 61 65 68
REMARK Flexibility Score:  369.900
ROOT
ATOM      1  C   UNL     1       9.873  -1.979   2.224  1.00  0.00     0.117 C 
ENDROOT
BRANCH   1   2
ATOM      2  N   UNL     1       8.691  -2.682   1.726  1.00  0.00    -0.347 N 
ATOM      3  O   UNL     1       7.131  -1.082   2.249  1.00  0.00    -0.273 OA
ATOM      4  C   UNL     1       7.422  -2.137   1.695  1.00  0.00     0.243 C 
ATOM      5  H   UNL     1       8.795  -3.605   1.331  1.00  0.00     0.164 HD
BRANCH   4   6
ATOM      6  C   UNL     1       6.363  -3.058   1.039  1.00  0.00     0.171 C 
BRANCH   6   7
ATOM      7  N   UNL     1       6.652  -3.235  -0.394  1.00  0.00    -0.344 N 
ATOM      8  C   UNL     1       5.627  -3.356  -1.307  1.00  0.00     0.226 C 
ATOM      9  O   UNL     1       4.446  -3.347  -0.980  1.00  0.00    -0.275 OA
ATOM     10  H   UNL     1       7.615  -3.315  -0.694  1.00  0.00     0.164 HD
BRANCH   8  11
ATOM     11  C   UNL     1       6.086  -3.476  -2.750  1.00  0.00     0.109 C 
ATOM     12  C   UNL     1       7.577  -3.158  -2.855  1.00  0.00     0.021 C 
BRANCH  11  13
ATOM     13  C   UNL     1       5.674  -4.850  -3.315  1.00  0.00     0.204 C 
BRANCH  13  14
ATOM     14  N   UNL     1       5.926  -4.951  -4.756  1.00  0.00    -0.340 N 
ATOM     15  C   UNL     1       4.915  -5.067  -5.686  1.00  0.00     0.243 C 
ATOM     16  O   UNL     1       3.726  -5.032  -5.376  1.00  0.00    -0.273 OA
ATOM     17  H   UNL     1       6.884  -5.138  -5.065  1.00  0.00     0.164 HD
BRANCH  15  18
ATOM     18  C   UNL     1       5.423  -5.369  -7.117  1.00  0.00     0.171 C 
BRANCH  18  19
ATOM     19  N   UNL     1       4.618  -4.555  -8.027  1.00  0.00    -0.343 N 
ATOM     20  C   UNL     1       3.696  -5.119  -8.886  1.00  0.00     0.242 CG0
ATOM     21  O   UNL     1       3.603  -6.337  -9.021  1.00  0.00    -0.273 OA
ATOM     22  H   UNL     1       4.742  -3.549  -8.035  1.00  0.00     0.164 HD
ATOM     23  G   UNL     1       2.887  -4.097  -9.712  1.00  0.00     0.000 G0
ENDBRANCH  18  19
BRANCH  18  24
ATOM     24  C   UNL     1       6.916  -5.042  -7.242  1.00  0.00     0.038 C 
BRANCH  24  25
ATOM     25  C   UNL     1       7.545  -5.413  -8.602  1.00  0.00    -0.015 C 
ATOM     26  C   UNL     1       7.727  -6.922  -8.769  1.00  0.00     0.007 C 
ATOM     27  C   UNL     1       8.898  -4.712  -8.751  1.00  0.00     0.007 C 
ENDBRANCH  24  25
ENDBRANCH  18  24
ENDBRANCH  15  18
ENDBRANCH  13  14
BRANCH  13  28
ATOM     28  C   UNL     1       6.399  -6.021  -2.644  1.00  0.00     0.327 C 
ATOM     29  O   UNL     1       6.698  -6.105  -1.463  1.00  0.00    -0.250 OA
BRANCH  28  30
ATOM     30  O   UNL     1       6.810  -6.960  -3.520  1.00  0.00    -0.480 OA
ATOM     31  H   UNL     1       7.669  -6.622  -3.851  1.00  0.00     0.296 HD
ENDBRANCH  28  30
ENDBRANCH  13  28
ENDBRANCH  11  13
ENDBRANCH   8  11
ENDBRANCH   6   7
BRANCH   6  32
ATOM     32  C   UNL     1       6.352  -4.408   1.765  1.00  0.00     0.037 C 
BRANCH  32  33
ATOM     33  C   UNL     1       5.797  -4.294   3.192  1.00  0.00     0.026 C 
BRANCH  33  34
ATOM     34  C   UNL     1       4.678  -3.258   3.303  1.00  0.00     0.146 C 
BRANCH  34  35
ATOM     35  N   UNL     1       3.412  -3.898   2.972  1.00  0.00    -0.254 NA
ATOM     36  C   UNL     1       2.679  -3.374   2.061  1.00  0.00     0.185 C 
ATOM     37  N   UNL     1       1.512  -3.958   1.745  1.00  0.00    -0.370 N 
ATOM     38  N   UNL     1       2.903  -2.270   1.327  1.00  0.00    -0.370 N 
ATOM     39  H   UNL     1       1.276  -4.804   2.249  1.00  0.00     0.159 HD
ATOM     40  H   UNL     1       0.970  -3.714   0.934  1.00  0.00     0.159 HD
ATOM     41  H   UNL     1       2.185  -1.882   0.738  1.00  0.00     0.159 HD
ATOM     42  H   UNL     1       3.736  -1.720   1.469  1.00  0.00     0.159 HD
ENDBRANCH  34  35
ENDBRANCH  33  34
ENDBRANCH  32  33
ENDBRANCH   6  32
ENDBRANCH   4   6
ENDBRANCH   1   2
BRANCH   1  43
ATOM     43  C   UNL     1      10.019  -0.640   1.444  1.00  0.00     0.102 C 
ATOM     44  C   UNL     1      11.122  -0.673   0.373  1.00  0.00     0.020 C 
BRANCH  43  45
ATOM     45  C   UNL     1      10.120   0.548   2.405  1.00  0.00     0.225 C 
ATOM     46  O   UNL     1      10.742   1.573   2.140  1.00  0.00    -0.275 OA
ATOM     47  N   UNL     1       9.543   0.363   3.640  1.00  0.00    -0.342 N 
ATOM     48  H   UNL     1       8.912  -0.413   3.786  1.00  0.00     0.164 HD
BRANCH  47  49
ATOM     49  C   UNL     1       9.531   1.427   4.648  1.00  0.00     0.192 C 
BRANCH  49  50
ATOM     50  C   UNL     1      10.506   1.078   5.775  1.00  0.00     0.047 C 
BRANCH  50  51
ATOM     51  C   UNL     1      11.562   2.171   5.992  1.00  0.00     0.103 C 
BRANCH  51  52
ATOM     52  C   UNL     1      12.630   2.161   4.900  1.00  0.00     0.226 C 
ATOM     53  O   UNL     1      13.218   1.111   4.631  1.00  0.00    -0.275 OA
BRANCH  52  54
ATOM     54  N   UNL     1      12.825   3.367   4.202  1.00  0.00    -0.311 N 
ATOM     55  C   UNL     1      13.749   3.441   3.063  1.00  0.00     0.153 C 
BRANCH  54  56
ATOM     56  C   UNL     1      12.141   4.540   4.563  1.00  0.00     0.102 C 
ATOM     57  C   UNL     1      10.952   4.920   4.068  1.00  0.00     0.043 C 
BRANCH  56  58
ATOM     58  C   UNL     1      12.702   5.473   5.611  1.00  0.00     0.268 C 
ATOM     59  O   UNL     1      13.880   5.801   5.654  1.00  0.00    -0.268 OA
ATOM     60  N   UNL     1      11.744   5.964   6.465  1.00  0.00    -0.339 N 
ATOM     61  H   UNL     1      10.791   5.634   6.370  1.00  0.00     0.164 HD
BRANCH  60  62
ATOM     62  C   UNL     1      12.059   6.931   7.516  1.00  0.00     0.168 CG0
ATOM     63  C   UNL     1      11.946   8.359   6.996  1.00  0.00     0.041 C 
ATOM     64  G   UNL     1      13.476   6.659   8.061  1.00  0.00     0.000 G0
ENDBRANCH  60  62
ENDBRANCH  56  58
ENDBRANCH  54  56
ENDBRANCH  52  54
ENDBRANCH  51  52
ENDBRANCH  50  51
ENDBRANCH  49  50
BRANCH  49  65
ATOM     65  C   UNL     1       8.127   1.636   5.236  1.00  0.00     0.326 C 
ATOM     66  O   UNL     1       7.189   0.859   5.128  1.00  0.00    -0.250 OA
BRANCH  65  67
ATOM     67  O   UNL     1       7.951   2.816   5.869  1.00  0.00    -0.480 OA
ATOM     68  H   UNL     1       8.588   2.776   6.615  1.00  0.00     0.296 HD
ENDBRANCH  65  67
ENDBRANCH  49  65
ENDBRANCH  47  49
ENDBRANCH  43  45
ENDBRANCH   1  43
BRANCH   1  69
ATOM     69  C   UNL     1      11.013  -2.981   2.181  1.00  0.00    -0.001 C 
ATOM     70  C   UNL     1      10.940  -4.287   1.870  1.00  0.00     0.001 C 
BRANCH  70  71
ATOM     71  C   UNL     1      12.051  -5.240   1.811  1.00  0.00    -0.055 C 
ATOM     72  C   UNL     1      12.166  -6.001   0.702  1.00  0.00    -0.018 C 
ATOM     73  C   UNL     1      12.991  -5.297   2.987  1.00  0.00     0.044 C 
BRANCH  72  74
ATOM     74  C   UNL     1      13.206  -7.059   0.364  1.00  0.00     0.038 C 
ATOM     75  C   UNL     1      13.726  -6.749  -1.044  1.00  0.00     0.015 C 
BRANCH  74  76
ATOM     76  C   UNL     1      12.560  -8.467   0.527  1.00  0.00     0.128 C 
BRANCH  76  77
ATOM     77  O   UNL     1      13.582  -9.479   0.526  1.00  0.00    -0.381 OA
ATOM     78  C   UNL     1      13.312 -10.561  -0.356  1.00  0.00     0.195 C 
ENDBRANCH  76  77
BRANCH  76  79
ATOM     79  C   UNL     1      11.602  -8.584   1.739  1.00  0.00     0.068 C 
BRANCH  79  80
ATOM     80  C   UNL     1      10.345  -9.402   1.570  1.00  0.00    -0.045 A 
ATOM     81  C   UNL     1       9.639  -9.399   0.359  1.00  0.00     0.004 A 
ATOM     82  C   UNL     1       9.846 -10.162   2.639  1.00  0.00     0.004 A 
ATOM     83  C   UNL     1       8.469 -10.148   0.216  1.00  0.00     0.000 A 
ATOM     84  C   UNL     1       8.676 -10.910   2.494  1.00  0.00     0.000 A 
ATOM     85  C   UNL     1       7.989 -10.904   1.283  1.00  0.00     0.000 A 
ENDBRANCH  79  80
ENDBRANCH  76  79
ENDBRANCH  74  76
ENDBRANCH  72  74
ENDBRANCH  70  71
ENDBRANCH   1  69
TORSDOF 17
ENDMDL
MODEL 13
REMARK VINA RESULT:    -7.497      2.071      2.982
REMARK INTER + INTRA:         -28.065
REMARK INTER:                 -21.242
REMARK INTRA:                  -6.823
REMARK UNBOUND:                -5.667
REMARK SMILES C=C1C(=O)N[C@H](C)C(=O)N[C@@H](CC(C)C)C(=O)N[C@@H](C(=O)O)[C@H](C)C(=O)N[C@@H](CCCN=C(N)N)C(=O)N[C@@H](/C=C/C(C)=C/[C@H](C)[C@H](Cc2ccccc2)OC)[C@H](C)C(=O)N[C@@H](C(=O)O)CCC(=O)N1C
REMARK SMILES IDX 39 1 38 2 37 3 36 4 28 6 27 7 25 8 26 9 23 11 24 12 19 13
REMARK SMILES IDX 18 14 16 15 17 16 11 18 10 19 8 20 9 21 12 24 13 25 14 26
REMARK SMILES IDX 15 27 20 28 21 29 22 30 29 32 30 33 31 34 32 35 33 36 34 37
REMARK SMILES IDX 35 38 57 43 58 44 59 45 60 46 61 47 62 49 66 50 67 51 68 52
REMARK SMILES IDX 69 53 70 54 71 55 2 56 1 57 3 58 4 59 5 60 6 62 7 63 63 65
REMARK SMILES IDX 64 66 65 67 40 69 41 70 42 71 44 72 43 73 45 74 46 75 47 76
REMARK SMILES IDX 55 77 56 78 48 79 49 80 50 81 54 82 51 83 53 84 52 85
REMARK H PARENT 38 5 27 10 18 17 10 22 22 31 34 39 34 40 35 41 35 42 61 48
REMARK H PARENT 5 61 65 68
REMARK Flexibility Score:  369.900
ROOT
ATOM      1  C   UNL     1       6.872  -4.804  -1.281  1.00  0.00     0.117 C 
ENDROOT
BRANCH   1   2
ATOM      2  N   UNL     1       5.861  -3.817  -0.903  1.00  0.00    -0.347 N 
ATOM      3  O   UNL     1       4.236  -5.283  -0.211  1.00  0.00    -0.273 OA
ATOM      4  C   UNL     1       4.654  -4.134  -0.311  1.00  0.00     0.243 C 
ATOM      5  H   UNL     1       6.056  -2.835  -1.029  1.00  0.00     0.164 HD
BRANCH   4   6
ATOM      6  C   UNL     1       3.801  -2.897   0.068  1.00  0.00     0.171 C 
BRANCH   6   7
ATOM      7  N   UNL     1       4.069  -2.493   1.458  1.00  0.00    -0.344 N 
ATOM      8  C   UNL     1       3.128  -2.700   2.444  1.00  0.00     0.226 C 
ATOM      9  O   UNL     1       2.033  -3.200   2.217  1.00  0.00    -0.275 OA
ATOM     10  H   UNL     1       4.936  -2.016   1.672  1.00  0.00     0.164 HD
BRANCH   8  11
ATOM     11  C   UNL     1       3.575  -2.281   3.833  1.00  0.00     0.109 C 
ATOM     12  C   UNL     1       2.431  -2.461   4.831  1.00  0.00     0.021 C 
BRANCH  11  13
ATOM     13  C   UNL     1       4.881  -3.012   4.204  1.00  0.00     0.204 C 
BRANCH  13  14
ATOM     14  N   UNL     1       5.949  -2.080   4.578  1.00  0.00    -0.340 N 
ATOM     15  C   UNL     1       6.863  -1.587   3.673  1.00  0.00     0.243 C 
ATOM     16  O   UNL     1       6.810  -1.848   2.472  1.00  0.00    -0.273 OA
ATOM     17  H   UNL     1       6.140  -1.944   5.574  1.00  0.00     0.164 HD
BRANCH  15  18
ATOM     18  C   UNL     1       8.017  -0.790   4.330  1.00  0.00     0.171 C 
BRANCH  18  19
ATOM     19  N   UNL     1       8.492  -1.593   5.455  1.00  0.00    -0.343 N 
ATOM     20  C   UNL     1       8.342  -1.176   6.763  1.00  0.00     0.242 CG0
ATOM     21  O   UNL     1       7.924  -0.053   7.036  1.00  0.00    -0.273 OA
ATOM     22  H   UNL     1       8.951  -2.479   5.275  1.00  0.00     0.164 HD
ATOM     23  G   UNL     1       8.833  -2.191   7.816  1.00  0.00     0.000 G0
ENDBRANCH  18  19
BRANCH  18  24
ATOM     24  C   UNL     1       9.137  -0.524   3.317  1.00  0.00     0.038 C 
BRANCH  24  25
ATOM     25  C   UNL     1      10.413  -1.365   3.531  1.00  0.00    -0.015 C 
ATOM     26  C   UNL     1      11.615  -0.512   3.938  1.00  0.00     0.007 C 
ATOM     27  C   UNL     1      10.740  -2.139   2.251  1.00  0.00     0.007 C 
ENDBRANCH  24  25
ENDBRANCH  18  24
ENDBRANCH  15  18
ENDBRANCH  13  14
BRANCH  13  28
ATOM     28  C   UNL     1       4.711  -3.998   5.364  1.00  0.00     0.327 C 
ATOM     29  O   UNL     1       4.169  -5.091   5.311  1.00  0.00    -0.250 OA
BRANCH  28  30
ATOM     30  O   UNL     1       5.127  -3.499   6.546  1.00  0.00    -0.480 OA
ATOM     31  H   UNL     1       5.691  -2.736   6.301  1.00  0.00     0.296 HD
ENDBRANCH  28  30
ENDBRANCH  13  28
ENDBRANCH  11  13
ENDBRANCH   8  11
ENDBRANCH   6   7
BRANCH   6  32
ATOM     32  C   UNL     1       4.113  -1.753  -0.903  1.00  0.00     0.037 C 
BRANCH  32  33
ATOM     33  C   UNL     1       4.889  -0.614  -0.227  1.00  0.00     0.026 C 
BRANCH  33  34
ATOM     34  C   UNL     1       6.138  -0.211  -1.012  1.00  0.00     0.146 C 
BRANCH  34  35
ATOM     35  N   UNL     1       7.255  -1.039  -0.575  1.00  0.00    -0.254 NA
ATOM     36  C   UNL     1       8.177  -1.320  -1.418  1.00  0.00     0.185 C 
ATOM     37  N   UNL     1       9.213  -2.077  -1.025  1.00  0.00    -0.370 N 
ATOM     38  N   UNL     1       8.282  -0.957  -2.709  1.00  0.00    -0.370 N 
ATOM     39  H   UNL     1       9.212  -2.383  -0.060  1.00  0.00     0.159 HD
ATOM     40  H   UNL     1      10.053  -2.196  -1.566  1.00  0.00     0.159 HD
ATOM     41  H   UNL     1       8.986  -1.358  -3.307  1.00  0.00     0.159 HD
ATOM     42  H   UNL     1       7.565  -0.398  -3.144  1.00  0.00     0.159 HD
ENDBRANCH  34  35
ENDBRANCH  33  34
ENDBRANCH  32  33
ENDBRANCH   6  32
ENDBRANCH   4   6
ENDBRANCH   1   2
BRANCH   1  43
ATOM     43  C   UNL     1       6.245  -5.787  -2.311  1.00  0.00     0.102 C 
ATOM     44  C   UNL     1       6.922  -7.167  -2.331  1.00  0.00     0.020 C 
BRANCH  43  45
ATOM     45  C   UNL     1       6.123  -5.134  -3.691  1.00  0.00     0.225 C 
ATOM     46  O   UNL     1       6.366  -3.948  -3.896  1.00  0.00    -0.275 OA
ATOM     47  N   UNL     1       5.629  -5.944  -4.688  1.00  0.00    -0.342 N 
ATOM     48  H   UNL     1       5.581  -6.943  -4.543  1.00  0.00     0.164 HD
BRANCH  47  49
ATOM     49  C   UNL     1       5.493  -5.466  -6.067  1.00  0.00     0.192 C 
BRANCH  49  50
ATOM     50  C   UNL     1       4.413  -6.277  -6.788  1.00  0.00     0.047 C 
BRANCH  50  51
ATOM     51  C   UNL     1       3.842  -5.534  -8.004  1.00  0.00     0.103 C 
BRANCH  51  52
ATOM     52  C   UNL     1       3.244  -6.492  -9.033  1.00  0.00     0.226 C 
ATOM     53  O   UNL     1       3.210  -7.700  -8.793  1.00  0.00    -0.275 OA
BRANCH  52  54
ATOM     54  N   UNL     1       2.688  -5.907 -10.185  1.00  0.00    -0.311 N 
ATOM     55  C   UNL     1       1.523  -5.017 -10.095  1.00  0.00     0.153 C 
BRANCH  54  56
ATOM     56  C   UNL     1       3.228  -6.145 -11.460  1.00  0.00     0.102 C 
ATOM     57  C   UNL     1       2.666  -6.925 -12.399  1.00  0.00     0.043 C 
BRANCH  56  58
ATOM     58  C   UNL     1       4.509  -5.476 -11.898  1.00  0.00     0.268 C 
ATOM     59  O   UNL     1       4.538  -4.397 -12.473  1.00  0.00    -0.268 OA
ATOM     60  N   UNL     1       5.636  -6.170 -11.525  1.00  0.00    -0.339 N 
ATOM     61  H   UNL     1       5.526  -7.063 -11.059  1.00  0.00     0.164 HD
BRANCH  60  62
ATOM     62  C   UNL     1       6.983  -5.669 -11.793  1.00  0.00     0.168 CG0
ATOM     63  C   UNL     1       7.615  -5.097 -10.530  1.00  0.00     0.041 C 
ATOM     64  G   UNL     1       6.927  -4.603 -12.906  1.00  0.00     0.000 G0
ENDBRANCH  60  62
ENDBRANCH  56  58
ENDBRANCH  54  56
ENDBRANCH  52  54
ENDBRANCH  51  52
ENDBRANCH  50  51
ENDBRANCH  49  50
BRANCH  49  65
ATOM     65  C   UNL     1       6.816  -5.579  -6.840  1.00  0.00     0.326 C 
ATOM     66  O   UNL     1       7.630  -4.679  -6.991  1.00  0.00    -0.250 OA
BRANCH  65  67
ATOM     67  O   UNL     1       7.024  -6.776  -7.430  1.00  0.00    -0.480 OA
ATOM     68  H   UNL     1       7.674  -6.576  -8.137  1.00  0.00     0.296 HD
ENDBRANCH  65  67
ENDBRANCH  49  65
ENDBRANCH  47  49
ENDBRANCH  43  45
ENDBRANCH   1  43
BRANCH   1  69
ATOM     69  C   UNL     1       7.429  -5.359   0.017  1.00  0.00    -0.001 C 
ATOM     70  C   UNL     1       8.146  -4.701   0.946  1.00  0.00     0.001 C 
BRANCH  70  71
ATOM     71  C   UNL     1       8.660  -5.242   2.206  1.00  0.00    -0.055 C 
ATOM     72  C   UNL     1       9.856  -5.866   2.179  1.00  0.00    -0.018 C 
ATOM     73  C   UNL     1       7.821  -5.056   3.444  1.00  0.00     0.044 C 
BRANCH  72  74
ATOM     74  C   UNL     1      10.630  -6.514   3.318  1.00  0.00     0.038 C 
ATOM     75  C   UNL     1      11.646  -5.481   3.821  1.00  0.00     0.015 C 
BRANCH  74  76
ATOM     76  C   UNL     1      11.252  -7.847   2.807  1.00  0.00     0.128 C 
BRANCH  76  77
ATOM     77  O   UNL     1      10.981  -8.905   3.741  1.00  0.00    -0.381 OA
ATOM     78  C   UNL     1       9.797  -8.706   4.502  1.00  0.00     0.195 C 
ENDBRANCH  76  77
BRANCH  76  79
ATOM     79  C   UNL     1      10.852  -8.212   1.355  1.00  0.00     0.068 C 
BRANCH  79  80
ATOM     80  C   UNL     1      10.045  -9.469   1.139  1.00  0.00    -0.045 A 
ATOM     81  C   UNL     1      10.636 -10.735   1.254  1.00  0.00     0.004 A 
ATOM     82  C   UNL     1       8.689  -9.388   0.789  1.00  0.00     0.004 A 
ATOM     83  C   UNL     1       9.886 -11.893   1.038  1.00  0.00     0.000 A 
ATOM     84  C   UNL     1       7.940 -10.547   0.573  1.00  0.00     0.000 A 
ATOM     85  C   UNL     1       8.538 -11.798   0.699  1.00  0.00     0.000 A 
ENDBRANCH  79  80
ENDBRANCH  76  79
ENDBRANCH  74  76
ENDBRANCH  72  74
ENDBRANCH  70  71
ENDBRANCH   1  69
TORSDOF 17
ENDMDL
MODEL 14
REMARK VINA RESULT:    -7.449      5.084     14.039
REMARK INTER + INTRA:         -27.923
REMARK INTER:                 -22.130
REMARK INTRA:                  -5.793
REMARK UNBOUND:                -5.667
REMARK SMILES C=C1C(=O)N[C@H](C)C(=O)N[C@@H](CC(C)C)C(=O)N[C@@H](C(=O)O)[C@H](C)C(=O)N[C@@H](CCCN=C(N)N)C(=O)N[C@@H](/C=C/C(C)=C/[C@H](C)[C@H](Cc2ccccc2)OC)[C@H](C)C(=O)N[C@@H](C(=O)O)CCC(=O)N1C
REMARK SMILES IDX 39 1 38 2 37 3 36 4 28 6 27 7 25 8 26 9 23 11 24 12 19 13
REMARK SMILES IDX 18 14 16 15 17 16 11 18 10 19 8 20 9 21 12 24 13 25 14 26
REMARK SMILES IDX 15 27 20 28 21 29 22 30 29 32 30 33 31 34 32 35 33 36 34 37
REMARK SMILES IDX 35 38 57 43 58 44 59 45 60 46 61 47 62 49 66 50 67 51 68 52
REMARK SMILES IDX 69 53 70 54 71 55 2 56 1 57 3 58 4 59 5 60 6 62 7 63 63 65
REMARK SMILES IDX 64 66 65 67 40 69 41 70 42 71 44 72 43 73 45 74 46 75 47 76
REMARK SMILES IDX 55 77 56 78 48 79 49 80 50 81 54 82 51 83 53 84 52 85
REMARK H PARENT 38 5 27 10 18 17 10 22 22 31 34 39 34 40 35 41 35 42 61 48
REMARK H PARENT 5 61 65 68
REMARK Flexibility Score:  369.900
ROOT
ATOM      1  C   UNL     1       9.106   0.487   7.087  1.00  0.00     0.117 C 
ENDROOT
BRANCH   1   2
ATOM      2  N   UNL     1       8.456   0.263   5.795  1.00  0.00    -0.347 N 
ATOM      3  O   UNL     1       8.159   2.463   5.209  1.00  0.00    -0.273 OA
ATOM      4  C   UNL     1       8.116   1.273   4.915  1.00  0.00     0.243 C 
ATOM      5  H   UNL     1       8.281  -0.681   5.487  1.00  0.00     0.164 HD
BRANCH   4   6
ATOM      6  C   UNL     1       7.519   0.761   3.580  1.00  0.00     0.171 C 
BRANCH   6   7
ATOM      7  N   UNL     1       7.942  -0.625   3.325  1.00  0.00    -0.344 N 
ATOM      8  C   UNL     1       8.364  -1.012   2.072  1.00  0.00     0.226 C 
ATOM      9  O   UNL     1       8.388  -0.244   1.117  1.00  0.00    -0.275 OA
ATOM     10  H   UNL     1       7.872  -1.305   4.072  1.00  0.00     0.164 HD
BRANCH   8  11
ATOM     11  C   UNL     1       8.819  -2.458   1.984  1.00  0.00     0.109 C 
ATOM     12  C   UNL     1       7.809  -3.371   2.679  1.00  0.00     0.021 C 
BRANCH  11  13
ATOM     13  C   UNL     1       9.119  -2.822   0.516  1.00  0.00     0.204 C 
BRANCH  13  14
ATOM     14  N   UNL     1       7.906  -2.834  -0.308  1.00  0.00    -0.340 N 
ATOM     15  C   UNL     1       7.393  -3.984  -0.868  1.00  0.00     0.243 C 
ATOM     16  O   UNL     1       7.883  -5.093  -0.664  1.00  0.00    -0.273 OA
ATOM     17  H   UNL     1       7.541  -1.936  -0.639  1.00  0.00     0.164 HD
BRANCH  15  18
ATOM     18  C   UNL     1       6.235  -3.724  -1.863  1.00  0.00     0.171 C 
BRANCH  18  19
ATOM     19  N   UNL     1       6.048  -4.961  -2.619  1.00  0.00    -0.343 N 
ATOM     20  C   UNL     1       5.452  -4.969  -3.866  1.00  0.00     0.242 CG0
ATOM     21  O   UNL     1       4.932  -3.961  -4.337  1.00  0.00    -0.273 OA
ATOM     22  H   UNL     1       6.358  -5.840  -2.220  1.00  0.00     0.164 HD
ATOM     23  G   UNL     1       5.414  -6.355  -4.544  1.00  0.00     0.000 G0
ENDBRANCH  18  19
BRANCH  18  24
ATOM     24  C   UNL     1       4.957  -3.325  -1.114  1.00  0.00     0.038 C 
BRANCH  24  25
ATOM     25  C   UNL     1       4.681  -4.137   0.169  1.00  0.00    -0.015 C 
ATOM     26  C   UNL     1       4.183  -5.551  -0.130  1.00  0.00     0.007 C 
ATOM     27  C   UNL     1       3.655  -3.401   1.033  1.00  0.00     0.007 C 
ENDBRANCH  24  25
ENDBRANCH  18  24
ENDBRANCH  15  18
ENDBRANCH  13  14
BRANCH  13  28
ATOM     28  C   UNL     1      10.112  -1.866  -0.152  1.00  0.00     0.327 C 
ATOM     29  O   UNL     1      11.235  -1.597   0.246  1.00  0.00    -0.250 OA
BRANCH  28  30
ATOM     30  O   UNL     1       9.590  -1.218  -1.213  1.00  0.00    -0.480 OA
ATOM     31  H   UNL     1       9.057  -0.497  -0.817  1.00  0.00     0.296 HD
ENDBRANCH  28  30
ENDBRANCH  13  28
ENDBRANCH  11  13
ENDBRANCH   8  11
ENDBRANCH   6   7
BRANCH   6  32
ATOM     32  C   UNL     1       5.991   0.865   3.640  1.00  0.00     0.037 C 
BRANCH  32  33
ATOM     33  C   UNL     1       5.302  -0.278   2.880  1.00  0.00     0.026 C 
BRANCH  33  34
ATOM     34  C   UNL     1       4.916   0.117   1.454  1.00  0.00     0.146 C 
BRANCH  34  35
ATOM     35  N   UNL     1       3.945   1.200   1.513  1.00  0.00    -0.254 NA
ATOM     36  C   UNL     1       3.209   1.422   0.489  1.00  0.00     0.185 C 
ATOM     37  N   UNL     1       2.307   2.415   0.534  1.00  0.00    -0.370 N 
ATOM     38  N   UNL     1       3.191   0.782  -0.694  1.00  0.00    -0.370 N 
ATOM     39  H   UNL     1       2.252   2.939   1.398  1.00  0.00     0.159 HD
ATOM     40  H   UNL     1       1.582   2.540  -0.151  1.00  0.00     0.159 HD
ATOM     41  H   UNL     1       2.662   1.140  -1.472  1.00  0.00     0.159 HD
ATOM     42  H   UNL     1       3.829   0.022  -0.875  1.00  0.00     0.159 HD
ENDBRANCH  34  35
ENDBRANCH  33  34
ENDBRANCH  32  33
ENDBRANCH   6  32
ENDBRANCH   4   6
ENDBRANCH   1   2
BRANCH   1  43
ATOM     43  C   UNL     1      10.602   0.076   6.966  1.00  0.00     0.102 C 
ATOM     44  C   UNL     1      11.527   0.844   7.926  1.00  0.00     0.020 C 
BRANCH  43  45
ATOM     45  C   UNL     1      11.063   0.102   5.506  1.00  0.00     0.225 C 
ATOM     46  O   UNL     1      10.859  -0.820   4.721  1.00  0.00    -0.275 OA
ATOM     47  N   UNL     1      11.814   1.196   5.141  1.00  0.00    -0.342 N 
ATOM     48  H   UNL     1      11.844   2.006   5.744  1.00  0.00     0.164 HD
BRANCH  47  49
ATOM     49  C   UNL     1      12.293   1.372   3.767  1.00  0.00     0.192 C 
BRANCH  49  50
ATOM     50  C   UNL     1      13.510   2.302   3.761  1.00  0.00     0.047 C 
BRANCH  50  51
ATOM     51  C   UNL     1      13.614   3.132   5.048  1.00  0.00     0.103 C 
BRANCH  51  52
ATOM     52  C   UNL     1      13.452   4.627   4.781  1.00  0.00     0.226 C 
ATOM     53  O   UNL     1      13.359   5.033   3.621  1.00  0.00    -0.275 OA
BRANCH  52  54
ATOM     54  N   UNL     1      13.340   5.457   5.912  1.00  0.00    -0.311 N 
ATOM     55  C   UNL     1      14.535   6.011   6.564  1.00  0.00     0.153 C 
BRANCH  54  56
ATOM     56  C   UNL     1      12.089   5.791   6.455  1.00  0.00     0.102 C 
ATOM     57  C   UNL     1      10.964   5.075   6.292  1.00  0.00     0.043 C 
BRANCH  56  58
ATOM     58  C   UNL     1      11.925   7.009   7.333  1.00  0.00     0.268 C 
ATOM     59  O   UNL     1      12.055   6.980   8.550  1.00  0.00    -0.268 OA
ATOM     60  N   UNL     1      11.682   8.160   6.622  1.00  0.00    -0.339 N 
ATOM     61  H   UNL     1      11.577   8.098   5.616  1.00  0.00     0.164 HD
BRANCH  60  62
ATOM     62  C   UNL     1      11.553   9.464   7.271  1.00  0.00     0.168 CG0
ATOM     63  C   UNL     1      10.932  10.486   6.326  1.00  0.00     0.041 C 
ATOM     64  G   UNL     1      12.938   9.939   7.756  1.00  0.00     0.000 G0
ENDBRANCH  60  62
ENDBRANCH  56  58
ENDBRANCH  54  56
ENDBRANCH  52  54
ENDBRANCH  51  52
ENDBRANCH  50  51
ENDBRANCH  49  50
BRANCH  49  65
ATOM     65  C   UNL     1      11.202   1.957   2.857  1.00  0.00     0.326 C 
ATOM     66  O   UNL     1      10.597   3.001   3.053  1.00  0.00    -0.250 OA
BRANCH  65  67
ATOM     67  O   UNL     1      10.883   1.188   1.792  1.00  0.00    -0.480 OA
ATOM     68  H   UNL     1      10.131   0.646   2.115  1.00  0.00     0.296 HD
ENDBRANCH  65  67
ENDBRANCH  49  65
ENDBRANCH  47  49
ENDBRANCH  43  45
ENDBRANCH   1  43
BRANCH   1  69
ATOM     69  C   UNL     1       8.238  -0.202   8.124  1.00  0.00    -0.001 C 
ATOM     70  C   UNL     1       7.605   0.364   9.166  1.00  0.00     0.001 C 
BRANCH  70  71
ATOM     71  C   UNL     1       6.752  -0.308  10.148  1.00  0.00    -0.055 C 
ATOM     72  C   UNL     1       6.153  -1.459   9.776  1.00  0.00    -0.018 C 
ATOM     73  C   UNL     1       6.610   0.327  11.507  1.00  0.00     0.044 C 
BRANCH  72  74
ATOM     74  C   UNL     1       5.227  -2.365  10.574  1.00  0.00     0.038 C 
ATOM     75  C   UNL     1       6.052  -3.581  11.014  1.00  0.00     0.015 C 
BRANCH  74  76
ATOM     76  C   UNL     1       3.981  -2.702   9.703  1.00  0.00     0.128 C 
BRANCH  76  77
ATOM     77  O   UNL     1       4.368  -2.836   8.325  1.00  0.00    -0.381 OA
ATOM     78  C   UNL     1       3.857  -4.006   7.700  1.00  0.00     0.195 C 
ENDBRANCH  76  77
BRANCH  76  79
ATOM     79  C   UNL     1       3.162  -3.912  10.217  1.00  0.00     0.068 C 
BRANCH  79  80
ATOM     80  C   UNL     1       1.939  -3.633  11.057  1.00  0.00    -0.045 A 
ATOM     81  C   UNL     1       1.547  -2.319  11.347  1.00  0.00     0.004 A 
ATOM     82  C   UNL     1       1.189  -4.693  11.588  1.00  0.00     0.004 A 
ATOM     83  C   UNL     1       0.423  -2.069  12.137  1.00  0.00     0.000 A 
ATOM     84  C   UNL     1       0.065  -4.441  12.379  1.00  0.00     0.000 A 
ATOM     85  C   UNL     1      -0.318  -3.130  12.652  1.00  0.00     0.000 A 
ENDBRANCH  79  80
ENDBRANCH  76  79
ENDBRANCH  74  76
ENDBRANCH  72  74
ENDBRANCH  70  71
ENDBRANCH   1  69
TORSDOF 17
ENDMDL
MODEL 15
REMARK VINA RESULT:    -7.408      3.234     12.808
REMARK INTER + INTRA:         -27.800
REMARK INTER:                 -21.172
REMARK INTRA:                  -6.628
REMARK UNBOUND:                -5.667
REMARK SMILES C=C1C(=O)N[C@H](C)C(=O)N[C@@H](CC(C)C)C(=O)N[C@@H](C(=O)O)[C@H](C)C(=O)N[C@@H](CCCN=C(N)N)C(=O)N[C@@H](/C=C/C(C)=C/[C@H](C)[C@H](Cc2ccccc2)OC)[C@H](C)C(=O)N[C@@H](C(=O)O)CCC(=O)N1C
REMARK SMILES IDX 39 1 38 2 37 3 36 4 28 6 27 7 25 8 26 9 23 11 24 12 19 13
REMARK SMILES IDX 18 14 16 15 17 16 11 18 10 19 8 20 9 21 12 24 13 25 14 26
REMARK SMILES IDX 15 27 20 28 21 29 22 30 29 32 30 33 31 34 32 35 33 36 34 37
REMARK SMILES IDX 35 38 57 43 58 44 59 45 60 46 61 47 62 49 66 50 67 51 68 52
REMARK SMILES IDX 69 53 70 54 71 55 2 56 1 57 3 58 4 59 5 60 6 62 7 63 63 65
REMARK SMILES IDX 64 66 65 67 40 69 41 70 42 71 44 72 43 73 45 74 46 75 47 76
REMARK SMILES IDX 55 77 56 78 48 79 49 80 50 81 54 82 51 83 53 84 52 85
REMARK H PARENT 38 5 27 10 18 17 10 22 22 31 34 39 34 40 35 41 35 42 61 48
REMARK H PARENT 5 61 65 68
REMARK Flexibility Score:  369.900
ROOT
ATOM      1  C   UNL     1       9.162  -2.980   2.179  1.00  0.00     0.117 C 
ENDROOT
BRANCH   1   2
ATOM      2  N   UNL     1       7.904  -3.267   1.490  1.00  0.00    -0.347 N 
ATOM      3  O   UNL     1       6.499  -2.159   2.927  1.00  0.00    -0.273 OA
ATOM      4  C   UNL     1       6.679  -2.755   1.871  1.00  0.00     0.243 C 
ATOM      5  H   UNL     1       7.916  -3.833   0.654  1.00  0.00     0.164 HD
BRANCH   4   6
ATOM      6  C   UNL     1       5.518  -3.145   0.921  1.00  0.00     0.171 C 
BRANCH   6   7
ATOM      7  N   UNL     1       6.031  -3.426  -0.430  1.00  0.00    -0.344 N 
ATOM      8  C   UNL     1       5.367  -2.960  -1.544  1.00  0.00     0.226 C 
ATOM      9  O   UNL     1       4.325  -2.319  -1.473  1.00  0.00    -0.275 OA
ATOM     10  H   UNL     1       6.852  -4.008  -0.532  1.00  0.00     0.164 HD
BRANCH   8  11
ATOM     11  C   UNL     1       6.051  -3.285  -2.861  1.00  0.00     0.109 C 
ATOM     12  C   UNL     1       7.566  -3.337  -2.668  1.00  0.00     0.021 C 
BRANCH  11  13
ATOM     13  C   UNL     1       5.431  -4.559  -3.469  1.00  0.00     0.204 C 
BRANCH  13  14
ATOM     14  N   UNL     1       5.601  -4.615  -4.924  1.00  0.00    -0.340 N 
ATOM     15  C   UNL     1       4.628  -5.097  -5.773  1.00  0.00     0.243 C 
ATOM     16  O   UNL     1       3.523  -5.459  -5.374  1.00  0.00    -0.273 OA
ATOM     17  H   UNL     1       6.541  -4.474  -5.304  1.00  0.00     0.164 HD
BRANCH  15  18
ATOM     18  C   UNL     1       5.108  -5.253  -7.238  1.00  0.00     0.171 C 
BRANCH  18  19
ATOM     19  N   UNL     1       4.188  -4.475  -8.065  1.00  0.00    -0.343 N 
ATOM     20  C   UNL     1       3.758  -4.925  -9.298  1.00  0.00     0.242 CG0
ATOM     21  O   UNL     1       4.230  -5.934  -9.815  1.00  0.00    -0.273 OA
ATOM     22  H   UNL     1       3.858  -3.576  -7.731  1.00  0.00     0.164 HD
ATOM     23  G   UNL     1       2.729  -4.006  -9.988  1.00  0.00     0.000 G0
ENDBRANCH  18  19
BRANCH  18  24
ATOM     24  C   UNL     1       6.553  -4.762  -7.390  1.00  0.00     0.038 C 
BRANCH  24  25
ATOM     25  C   UNL     1       7.329  -5.398  -8.562  1.00  0.00    -0.015 C 
ATOM     26  C   UNL     1       7.531  -6.903  -8.383  1.00  0.00     0.007 C 
ATOM     27  C   UNL     1       8.688  -4.710  -8.712  1.00  0.00     0.007 C 
ENDBRANCH  24  25
ENDBRANCH  18  24
ENDBRANCH  15  18
ENDBRANCH  13  14
BRANCH  13  28
ATOM     28  C   UNL     1       6.019  -5.851  -2.894  1.00  0.00     0.327 C 
ATOM     29  O   UNL     1       6.806  -6.599  -3.454  1.00  0.00    -0.250 OA
BRANCH  28  30
ATOM     30  O   UNL     1       5.493  -6.185  -1.698  1.00  0.00    -0.480 OA
ATOM     31  H   UNL     1       6.245  -6.572  -1.203  1.00  0.00     0.296 HD
ENDBRANCH  28  30
ENDBRANCH  13  28
ENDBRANCH  11  13
ENDBRANCH   8  11
ENDBRANCH   6   7
BRANCH   6  32
ATOM     32  C   UNL     1       4.787  -4.364   1.493  1.00  0.00     0.037 C 
BRANCH  32  33
ATOM     33  C   UNL     1       3.610  -3.964   2.394  1.00  0.00     0.026 C 
BRANCH  33  34
ATOM     34  C   UNL     1       2.836  -2.764   1.847  1.00  0.00     0.146 C 
BRANCH  34  35
ATOM     35  N   UNL     1       3.118  -1.603   2.679  1.00  0.00    -0.254 NA
ATOM     36  C   UNL     1       3.379  -0.487   2.107  1.00  0.00     0.185 C 
ATOM     37  N   UNL     1       3.636   0.591   2.864  1.00  0.00    -0.370 N 
ATOM     38  N   UNL     1       3.439  -0.204   0.794  1.00  0.00    -0.370 N 
ATOM     39  H   UNL     1       3.599   0.461   3.867  1.00  0.00     0.159 HD
ATOM     40  H   UNL     1       3.676   1.529   2.502  1.00  0.00     0.159 HD
ATOM     41  H   UNL     1       3.791   0.681   0.467  1.00  0.00     0.159 HD
ATOM     42  H   UNL     1       3.283  -0.924   0.106  1.00  0.00     0.159 HD
ENDBRANCH  34  35
ENDBRANCH  33  34
ENDBRANCH  32  33
ENDBRANCH   6  32
ENDBRANCH   4   6
ENDBRANCH   1   2
BRANCH   1  43
ATOM     43  C   UNL     1       9.970  -1.957   1.329  1.00  0.00     0.102 C 
ATOM     44  C   UNL     1      11.473  -2.272   1.257  1.00  0.00     0.020 C 
BRANCH  43  45
ATOM     45  C   UNL     1       9.656  -0.519   1.754  1.00  0.00     0.225 C 
ATOM     46  O   UNL     1       9.926   0.459   1.063  1.00  0.00    -0.275 OA
ATOM     47  N   UNL     1       9.131  -0.376   3.018  1.00  0.00    -0.342 N 
ATOM     48  H   UNL     1       8.778  -1.187   3.507  1.00  0.00     0.164 HD
BRANCH  47  49
ATOM     49  C   UNL     1       8.749   0.937   3.545  1.00  0.00     0.192 C 
BRANCH  49  50
ATOM     50  C   UNL     1       9.924   1.543   4.318  1.00  0.00     0.047 C 
BRANCH  50  51
ATOM     51  C   UNL     1      10.481   2.801   3.637  1.00  0.00     0.103 C 
BRANCH  51  52
ATOM     52  C   UNL     1      10.899   3.864   4.651  1.00  0.00     0.226 C 
ATOM     53  O   UNL     1      10.044   4.407   5.353  1.00  0.00    -0.275 OA
BRANCH  52  54
ATOM     54  N   UNL     1      12.280   4.105   4.773  1.00  0.00    -0.311 N 
ATOM     55  C   UNL     1      13.177   3.966   3.618  1.00  0.00     0.153 C 
BRANCH  54  56
ATOM     56  C   UNL     1      12.851   4.491   5.997  1.00  0.00     0.102 C 
ATOM     57  C   UNL     1      13.260   3.644   6.956  1.00  0.00     0.043 C 
BRANCH  56  58
ATOM     58  C   UNL     1      13.095   5.948   6.313  1.00  0.00     0.268 C 
ATOM     59  O   UNL     1      14.085   6.559   5.933  1.00  0.00    -0.268 OA
ATOM     60  N   UNL     1      12.064   6.530   7.011  1.00  0.00    -0.339 N 
ATOM     61  H   UNL     1      11.283   5.952   7.298  1.00  0.00     0.164 HD
BRANCH  60  62
ATOM     62  C   UNL     1      12.066   7.948   7.366  1.00  0.00     0.168 CG0
ATOM     63  C   UNL     1      11.750   8.143   8.844  1.00  0.00     0.041 C 
ATOM     64  G   UNL     1      11.048   8.703   6.486  1.00  0.00     0.000 G0
ENDBRANCH  60  62
ENDBRANCH  56  58
ENDBRANCH  54  56
ENDBRANCH  52  54
ENDBRANCH  51  52
ENDBRANCH  50  51
ENDBRANCH  49  50
BRANCH  49  65
ATOM     65  C   UNL     1       7.526   0.843   4.471  1.00  0.00     0.326 C 
ATOM     66  O   UNL     1       7.559   0.826   5.693  1.00  0.00    -0.250 OA
BRANCH  65  67
ATOM     67  O   UNL     1       6.343   0.713   3.831  1.00  0.00    -0.480 OA
ATOM     68  H   UNL     1       6.584   0.277   2.985  1.00  0.00     0.296 HD
ENDBRANCH  65  67
ENDBRANCH  49  65
ENDBRANCH  47  49
ENDBRANCH  43  45
ENDBRANCH   1  43
BRANCH   1  69
ATOM     69  C   UNL     1       9.789  -4.325   2.498  1.00  0.00    -0.001 C 
ATOM     70  C   UNL     1       9.239  -5.339   3.188  1.00  0.00     0.001 C 
BRANCH  70  71
ATOM     71  C   UNL     1       9.845  -6.642   3.471  1.00  0.00    -0.055 C 
ATOM     72  C   UNL     1      10.740  -7.124   2.582  1.00  0.00    -0.018 C 
ATOM     73  C   UNL     1       9.434  -7.348   4.736  1.00  0.00     0.044 C 
BRANCH  72  74
ATOM     74  C   UNL     1      11.522  -8.429   2.615  1.00  0.00     0.038 C 
ATOM     75  C   UNL     1      12.836  -8.151   3.354  1.00  0.00     0.015 C 
BRANCH  74  76
ATOM     76  C   UNL     1      11.690  -8.948   1.156  1.00  0.00     0.128 C 
BRANCH  76  77
ATOM     77  O   UNL     1      10.670  -8.386   0.314  1.00  0.00    -0.381 OA
ATOM     78  C   UNL     1       9.722  -9.338  -0.149  1.00  0.00     0.195 C 
ENDBRANCH  76  77
BRANCH  76  79
ATOM     79  C   UNL     1      13.116  -8.756   0.580  1.00  0.00     0.068 C 
BRANCH  79  80
ATOM     80  C   UNL     1      13.357  -7.578  -0.332  1.00  0.00    -0.045 A 
ATOM     81  C   UNL     1      13.698  -7.765  -1.678  1.00  0.00     0.004 A 
ATOM     82  C   UNL     1      13.270  -6.269   0.166  1.00  0.00     0.004 A 
ATOM     83  C   UNL     1      13.934  -6.670  -2.512  1.00  0.00     0.000 A 
ATOM     84  C   UNL     1      13.507  -5.175  -0.669  1.00  0.00     0.000 A 
ATOM     85  C   UNL     1      13.837  -5.375  -2.007  1.00  0.00     0.000 A 
ENDBRANCH  79  80
ENDBRANCH  76  79
ENDBRANCH  74  76
ENDBRANCH  72  74
ENDBRANCH  70  71
ENDBRANCH   1  69
TORSDOF 17
ENDMDL
MODEL 16
REMARK VINA RESULT:    -7.407      5.603     10.788
REMARK INTER + INTRA:         -27.798
REMARK INTER:                 -19.204
REMARK INTRA:                  -8.595
REMARK UNBOUND:                -5.667
REMARK SMILES C=C1C(=O)N[C@H](C)C(=O)N[C@@H](CC(C)C)C(=O)N[C@@H](C(=O)O)[C@H](C)C(=O)N[C@@H](CCCN=C(N)N)C(=O)N[C@@H](/C=C/C(C)=C/[C@H](C)[C@H](Cc2ccccc2)OC)[C@H](C)C(=O)N[C@@H](C(=O)O)CCC(=O)N1C
REMARK SMILES IDX 39 1 38 2 37 3 36 4 28 6 27 7 25 8 26 9 23 11 24 12 19 13
REMARK SMILES IDX 18 14 16 15 17 16 11 18 10 19 8 20 9 21 12 24 13 25 14 26
REMARK SMILES IDX 15 27 20 28 21 29 22 30 29 32 30 33 31 34 32 35 33 36 34 37
REMARK SMILES IDX 35 38 57 43 58 44 59 45 60 46 61 47 62 49 66 50 67 51 68 52
REMARK SMILES IDX 69 53 70 54 71 55 2 56 1 57 3 58 4 59 5 60 6 62 7 63 63 65
REMARK SMILES IDX 64 66 65 67 40 69 41 70 42 71 44 72 43 73 45 74 46 75 47 76
REMARK SMILES IDX 55 77 56 78 48 79 49 80 50 81 54 82 51 83 53 84 52 85
REMARK H PARENT 38 5 27 10 18 17 10 22 22 31 34 39 34 40 35 41 35 42 61 48
REMARK H PARENT 5 61 65 68
REMARK Flexibility Score:  369.900
ROOT
ATOM      1  C   UNL     1       7.676  -2.258   4.957  1.00  0.00     0.117 C 
ENDROOT
BRANCH   1   2
ATOM      2  N   UNL     1       8.538  -1.141   4.570  1.00  0.00    -0.347 N 
ATOM      3  O   UNL     1       7.257   0.556   5.435  1.00  0.00    -0.273 OA
ATOM      4  C   UNL     1       8.304   0.174   4.922  1.00  0.00     0.243 C 
ATOM      5  H   UNL     1       9.387  -1.326   4.057  1.00  0.00     0.164 HD
BRANCH   4   6
ATOM      6  C   UNL     1       9.415   1.151   4.459  1.00  0.00     0.171 C 
BRANCH   6   7
ATOM      7  N   UNL     1      10.064   1.779   5.621  1.00  0.00    -0.344 N 
ATOM      8  C   UNL     1       9.672   3.027   6.055  1.00  0.00     0.226 C 
ATOM      9  O   UNL     1       8.796   3.676   5.495  1.00  0.00    -0.275 OA
ATOM     10  H   UNL     1      10.837   1.303   6.068  1.00  0.00     0.164 HD
BRANCH   8  11
ATOM     11  C   UNL     1      10.398   3.514   7.296  1.00  0.00     0.109 C 
ATOM     12  C   UNL     1      10.555   2.369   8.297  1.00  0.00     0.021 C 
BRANCH  11  13
ATOM     13  C   UNL     1      11.715   4.207   6.892  1.00  0.00     0.204 C 
BRANCH  13  14
ATOM     14  N   UNL     1      11.957   5.426   7.669  1.00  0.00    -0.340 N 
ATOM     15  C   UNL     1      12.143   6.661   7.086  1.00  0.00     0.243 C 
ATOM     16  O   UNL     1      12.057   6.837   5.872  1.00  0.00    -0.273 OA
ATOM     17  H   UNL     1      12.190   5.326   8.661  1.00  0.00     0.164 HD
BRANCH  15  18
ATOM     18  C   UNL     1      12.589   7.757   8.085  1.00  0.00     0.171 C 
BRANCH  18  19
ATOM     19  N   UNL     1      13.926   7.387   8.543  1.00  0.00    -0.343 N 
ATOM     20  C   UNL     1      14.198   7.138   9.874  1.00  0.00     0.242 CG0
ATOM     21  O   UNL     1      13.362   7.346  10.751  1.00  0.00    -0.273 OA
ATOM     22  H   UNL     1      14.680   7.314   7.869  1.00  0.00     0.164 HD
ATOM     23  G   UNL     1      15.645   6.685  10.155  1.00  0.00     0.000 G0
ENDBRANCH  18  19
BRANCH  18  24
ATOM     24  C   UNL     1      12.586   9.136   7.413  1.00  0.00     0.038 C 
BRANCH  24  25
ATOM     25  C   UNL     1      11.253   9.905   7.525  1.00  0.00    -0.015 C 
ATOM     26  C   UNL     1      10.906  10.665   6.245  1.00  0.00     0.007 C 
ATOM     27  C   UNL     1      11.319  10.881   8.702  1.00  0.00     0.007 C 
ENDBRANCH  24  25
ENDBRANCH  18  24
ENDBRANCH  15  18
ENDBRANCH  13  14
BRANCH  13  28
ATOM     28  C   UNL     1      12.945   3.310   7.059  1.00  0.00     0.327 C 
ATOM     29  O   UNL     1      13.791   3.400   7.935  1.00  0.00    -0.250 OA
BRANCH  28  30
ATOM     30  O   UNL     1      13.100   2.431   6.048  1.00  0.00    -0.480 OA
ATOM     31  H   UNL     1      12.473   2.741   5.361  1.00  0.00     0.296 HD
ENDBRANCH  28  30
ENDBRANCH  13  28
ENDBRANCH  11  13
ENDBRANCH   8  11
ENDBRANCH   6   7
BRANCH   6  32
ATOM     32  C   UNL     1      10.436   0.385   3.610  1.00  0.00     0.037 C 
BRANCH  32  33
ATOM     33  C   UNL     1      10.544   0.950   2.186  1.00  0.00     0.026 C 
BRANCH  33  34
ATOM     34  C   UNL     1      11.137  -0.058   1.200  1.00  0.00     0.146 C 
BRANCH  34  35
ATOM     35  N   UNL     1      10.319  -0.073  -0.005  1.00  0.00    -0.254 NA
ATOM     36  C   UNL     1       9.425  -0.981  -0.130  1.00  0.00     0.185 C 
ATOM     37  N   UNL     1       8.663  -1.001  -1.235  1.00  0.00    -0.370 N 
ATOM     38  N   UNL     1       9.108  -1.977   0.717  1.00  0.00    -0.370 N 
ATOM     39  H   UNL     1       8.835  -0.275  -1.918  1.00  0.00     0.159 HD
ATOM     40  H   UNL     1       7.836  -1.565  -1.329  1.00  0.00     0.159 HD
ATOM     41  H   UNL     1       8.479  -2.713   0.442  1.00  0.00     0.159 HD
ATOM     42  H   UNL     1       9.612  -2.093   1.582  1.00  0.00     0.159 HD
ENDBRANCH  34  35
ENDBRANCH  33  34
ENDBRANCH  32  33
ENDBRANCH   6  32
ENDBRANCH   4   6
ENDBRANCH   1   2
BRANCH   1  43
ATOM     43  C   UNL     1       8.577  -3.462   5.358  1.00  0.00     0.102 C 
ATOM     44  C   UNL     1       8.853  -3.543   6.869  1.00  0.00     0.020 C 
BRANCH  43  45
ATOM     45  C   UNL     1       9.839  -3.518   4.492  1.00  0.00     0.225 C 
ATOM     46  O   UNL     1       9.840  -3.264   3.291  1.00  0.00    -0.275 OA
ATOM     47  N   UNL     1      10.974  -3.968   5.127  1.00  0.00    -0.342 N 
ATOM     48  H   UNL     1      10.993  -4.026   6.136  1.00  0.00     0.164 HD
BRANCH  47  49
ATOM     49  C   UNL     1      12.263  -4.040   4.433  1.00  0.00     0.192 C 
BRANCH  49  50
ATOM     50  C   UNL     1      12.606  -5.502   4.135  1.00  0.00     0.047 C 
BRANCH  50  51
ATOM     51  C   UNL     1      12.406  -5.856   2.655  1.00  0.00     0.103 C 
BRANCH  51  52
ATOM     52  C   UNL     1      10.999  -6.382   2.376  1.00  0.00     0.226 C 
ATOM     53  O   UNL     1      10.450  -7.120   3.196  1.00  0.00    -0.275 OA
BRANCH  52  54
ATOM     54  N   UNL     1      10.376  -5.915   1.204  1.00  0.00    -0.311 N 
ATOM     55  C   UNL     1      11.108  -5.085   0.238  1.00  0.00     0.153 C 
BRANCH  54  56
ATOM     56  C   UNL     1       9.038  -6.228   0.910  1.00  0.00     0.102 C 
ATOM     57  C   UNL     1       7.983  -5.460   1.225  1.00  0.00     0.043 C 
BRANCH  56  58
ATOM     58  C   UNL     1       8.686  -7.483   0.148  1.00  0.00     0.268 C 
ATOM     59  O   UNL     1       8.038  -7.476  -0.890  1.00  0.00    -0.268 OA
ATOM     60  N   UNL     1       9.221  -8.621   0.703  1.00  0.00    -0.339 N 
ATOM     61  H   UNL     1       9.737  -8.543   1.571  1.00  0.00     0.164 HD
BRANCH  60  62
ATOM     62  C   UNL     1       9.055  -9.939   0.091  1.00  0.00     0.168 CG0
ATOM     63  C   UNL     1       7.932 -10.717   0.764  1.00  0.00     0.041 C 
ATOM     64  G   UNL     1      10.385 -10.717   0.173  1.00  0.00     0.000 G0
ENDBRANCH  60  62
ENDBRANCH  56  58
ENDBRANCH  54  56
ENDBRANCH  52  54
ENDBRANCH  51  52
ENDBRANCH  50  51
ENDBRANCH  49  50
BRANCH  49  65
ATOM     65  C   UNL     1      13.391  -3.412   5.266  1.00  0.00     0.326 C 
ATOM     66  O   UNL     1      14.588  -3.551   5.060  1.00  0.00    -0.250 OA
BRANCH  65  67
ATOM     67  O   UNL     1      12.973  -2.702   6.337  1.00  0.00    -0.480 OA
ATOM     68  H   UNL     1      12.902  -1.786   5.994  1.00  0.00     0.296 HD
ENDBRANCH  65  67
ENDBRANCH  49  65
ENDBRANCH  47  49
ENDBRANCH  43  45
ENDBRANCH   1  43
BRANCH   1  69
ATOM     69  C   UNL     1       6.677  -2.434   3.828  1.00  0.00    -0.001 C 
ATOM     70  C   UNL     1       5.435  -2.943   3.908  1.00  0.00     0.001 C 
BRANCH  70  71
ATOM     71  C   UNL     1       4.472  -3.087   2.815  1.00  0.00    -0.055 C 
ATOM     72  C   UNL     1       4.945  -3.457   1.606  1.00  0.00    -0.018 C 
ATOM     73  C   UNL     1       3.020  -2.822   3.118  1.00  0.00     0.044 C 
BRANCH  72  74
ATOM     74  C   UNL     1       4.189  -3.686   0.305  1.00  0.00     0.038 C 
ATOM     75  C   UNL     1       4.182  -5.197   0.046  1.00  0.00     0.015 C 
BRANCH  74  76
ATOM     76  C   UNL     1       4.854  -2.834  -0.817  1.00  0.00     0.128 C 
BRANCH  76  77
ATOM     77  O   UNL     1       4.747  -3.515  -2.078  1.00  0.00    -0.381 OA
ATOM     78  C   UNL     1       5.975  -3.598  -2.788  1.00  0.00     0.195 C 
ENDBRANCH  76  77
BRANCH  76  79
ATOM     79  C   UNL     1       4.348  -1.371  -0.880  1.00  0.00     0.068 C 
BRANCH  79  80
ATOM     80  C   UNL     1       4.560  -0.496   0.332  1.00  0.00    -0.045 A 
ATOM     81  C   UNL     1       3.482   0.136   0.965  1.00  0.00     0.004 A 
ATOM     82  C   UNL     1       5.854  -0.280   0.830  1.00  0.00     0.004 A 
ATOM     83  C   UNL     1       3.689   0.955   2.077  1.00  0.00     0.000 A 
ATOM     84  C   UNL     1       6.060   0.540   1.942  1.00  0.00     0.000 A 
ATOM     85  C   UNL     1       4.978   1.156   2.565  1.00  0.00     0.000 A 
ENDBRANCH  79  80
ENDBRANCH  76  79
ENDBRANCH  74  76
ENDBRANCH  72  74
ENDBRANCH  70  71
ENDBRANCH   1  69
TORSDOF 17
ENDMDL
MODEL 17
REMARK VINA RESULT:    -7.393      3.730      7.953
REMARK INTER + INTRA:         -27.757
REMARK INTER:                 -21.866
REMARK INTRA:                  -5.891
REMARK UNBOUND:                -5.667
REMARK SMILES C=C1C(=O)N[C@H](C)C(=O)N[C@@H](CC(C)C)C(=O)N[C@@H](C(=O)O)[C@H](C)C(=O)N[C@@H](CCCN=C(N)N)C(=O)N[C@@H](/C=C/C(C)=C/[C@H](C)[C@H](Cc2ccccc2)OC)[C@H](C)C(=O)N[C@@H](C(=O)O)CCC(=O)N1C
REMARK SMILES IDX 39 1 38 2 37 3 36 4 28 6 27 7 25 8 26 9 23 11 24 12 19 13
REMARK SMILES IDX 18 14 16 15 17 16 11 18 10 19 8 20 9 21 12 24 13 25 14 26
REMARK SMILES IDX 15 27 20 28 21 29 22 30 29 32 30 33 31 34 32 35 33 36 34 37
REMARK SMILES IDX 35 38 57 43 58 44 59 45 60 46 61 47 62 49 66 50 67 51 68 52
REMARK SMILES IDX 69 53 70 54 71 55 2 56 1 57 3 58 4 59 5 60 6 62 7 63 63 65
REMARK SMILES IDX 64 66 65 67 40 69 41 70 42 71 44 72 43 73 45 74 46 75 47 76
REMARK SMILES IDX 55 77 56 78 48 79 49 80 50 81 54 82 51 83 53 84 52 85
REMARK H PARENT 38 5 27 10 18 17 10 22 22 31 34 39 34 40 35 41 35 42 61 48
REMARK H PARENT 5 61 65 68
REMARK Flexibility Score:  369.900
ROOT
ATOM      1  C   UNL     1       6.755  -2.863   3.597  1.00  0.00     0.117 C 
ENDROOT
BRANCH   1   2
ATOM      2  N   UNL     1       7.653  -1.854   4.160  1.00  0.00    -0.347 N 
ATOM      3  O   UNL     1       7.889  -0.560   2.279  1.00  0.00    -0.273 OA
ATOM      4  C   UNL     1       8.077  -0.729   3.479  1.00  0.00     0.243 C 
ATOM      5  H   UNL     1       7.955  -1.941   5.118  1.00  0.00     0.164 HD
BRANCH   4   6
ATOM      6  C   UNL     1       8.954   0.222   4.332  1.00  0.00     0.171 C 
BRANCH   6   7
ATOM      7  N   UNL     1      10.174   0.594   3.597  1.00  0.00    -0.344 N 
ATOM      8  C   UNL     1      11.380   0.714   4.252  1.00  0.00     0.226 C 
ATOM      9  O   UNL     1      11.495   0.544   5.460  1.00  0.00    -0.275 OA
ATOM     10  H   UNL     1      10.106   0.809   2.610  1.00  0.00     0.164 HD
BRANCH   8  11
ATOM     11  C   UNL     1      12.553   1.050   3.348  1.00  0.00     0.109 C 
ATOM     12  C   UNL     1      12.312   0.492   1.945  1.00  0.00     0.021 C 
BRANCH  11  13
ATOM     13  C   UNL     1      12.838   2.564   3.403  1.00  0.00     0.204 C 
BRANCH  13  14
ATOM     14  N   UNL     1      12.533   3.135   4.719  1.00  0.00    -0.340 N 
ATOM     15  C   UNL     1      11.754   4.260   4.884  1.00  0.00     0.243 C 
ATOM     16  O   UNL     1      11.209   4.830   3.941  1.00  0.00    -0.273 OA
ATOM     17  H   UNL     1      13.073   2.804   5.523  1.00  0.00     0.164 HD
BRANCH  15  18
ATOM     18  C   UNL     1      11.742   4.796   6.337  1.00  0.00     0.171 C 
BRANCH  18  19
ATOM     19  N   UNL     1      11.673   6.253   6.245  1.00  0.00    -0.343 N 
ATOM     20  C   UNL     1      12.210   7.071   7.220  1.00  0.00     0.242 CG0
ATOM     21  O   UNL     1      12.650   6.614   8.272  1.00  0.00    -0.273 OA
ATOM     22  H   UNL     1      11.215   6.680   5.448  1.00  0.00     0.164 HD
ATOM     23  G   UNL     1      12.111   8.579   6.912  1.00  0.00     0.000 G0
ENDBRANCH  18  19
BRANCH  18  24
ATOM     24  C   UNL     1      10.551   4.225   7.115  1.00  0.00     0.038 C 
BRANCH  24  25
ATOM     25  C   UNL     1      10.931   3.413   8.372  1.00  0.00    -0.015 C 
ATOM     26  C   UNL     1      10.557   4.131   9.668  1.00  0.00     0.007 C 
ATOM     27  C   UNL     1      12.434   3.120   8.360  1.00  0.00     0.007 C 
ENDBRANCH  24  25
ENDBRANCH  18  24
ENDBRANCH  15  18
ENDBRANCH  13  14
BRANCH  13  28
ATOM     28  C   UNL     1      14.293   2.916   3.081  1.00  0.00     0.327 C 
ATOM     29  O   UNL     1      14.682   3.915   2.495  1.00  0.00    -0.250 OA
BRANCH  28  30
ATOM     30  O   UNL     1      15.160   1.937   3.410  1.00  0.00    -0.480 OA
ATOM     31  H   UNL     1      14.594   1.146   3.531  1.00  0.00     0.296 HD
ENDBRANCH  28  30
ENDBRANCH  13  28
ENDBRANCH  11  13
ENDBRANCH   8  11
ENDBRANCH   6   7
BRANCH   6  32
ATOM     32  C   UNL     1       8.137   1.465   4.700  1.00  0.00     0.037 C 
BRANCH  32  33
ATOM     33  C   UNL     1       8.307   1.853   6.176  1.00  0.00     0.026 C 
BRANCH  33  34
ATOM     34  C   UNL     1       8.642   0.653   7.062  1.00  0.00     0.146 C 
BRANCH  34  35
ATOM     35  N   UNL     1       7.557   0.454   8.013  1.00  0.00    -0.254 NA
ATOM     36  C   UNL     1       7.814   0.540   9.265  1.00  0.00     0.185 C 
ATOM     37  N   UNL     1       6.821   0.364  10.151  1.00  0.00    -0.370 N 
ATOM     38  N   UNL     1       8.988   0.794   9.871  1.00  0.00    -0.370 N 
ATOM     39  H   UNL     1       5.902   0.178   9.771  1.00  0.00     0.159 HD
ATOM     40  H   UNL     1       6.902   0.584  11.128  1.00  0.00     0.159 HD
ATOM     41  H   UNL     1       9.091   0.697  10.868  1.00  0.00     0.159 HD
ATOM     42  H   UNL     1       9.826   0.932   9.328  1.00  0.00     0.159 HD
ENDBRANCH  34  35
ENDBRANCH  33  34
ENDBRANCH  32  33
ENDBRANCH   6  32
ENDBRANCH   4   6
ENDBRANCH   1   2
BRANCH   1  43
ATOM     43  C   UNL     1       5.374  -2.745   4.304  1.00  0.00     0.102 C 
ATOM     44  C   UNL     1       4.853  -4.083   4.856  1.00  0.00     0.020 C 
BRANCH  43  45
ATOM     45  C   UNL     1       4.365  -2.002   3.423  1.00  0.00     0.225 C 
ATOM     46  O   UNL     1       3.156  -2.210   3.465  1.00  0.00    -0.275 OA
ATOM     47  N   UNL     1       4.909  -1.141   2.498  1.00  0.00    -0.342 N 
ATOM     48  H   UNL     1       5.879  -0.869   2.576  1.00  0.00     0.164 HD
BRANCH  47  49
ATOM     49  C   UNL     1       4.064  -0.336   1.611  1.00  0.00     0.192 C 
BRANCH  49  50
ATOM     50  C   UNL     1       4.735  -0.203   0.241  1.00  0.00     0.047 C 
BRANCH  50  51
ATOM     51  C   UNL     1       5.831  -1.255   0.025  1.00  0.00     0.103 C 
BRANCH  51  52
ATOM     52  C   UNL     1       5.386  -2.357  -0.935  1.00  0.00     0.226 C 
ATOM     53  O   UNL     1       4.320  -2.243  -1.542  1.00  0.00    -0.275 OA
BRANCH  52  54
ATOM     54  N   UNL     1       6.285  -3.423  -1.125  1.00  0.00    -0.311 N 
ATOM     55  C   UNL     1       7.626  -3.397  -0.527  1.00  0.00     0.153 C 
BRANCH  54  56
ATOM     56  C   UNL     1       5.933  -4.551  -1.884  1.00  0.00     0.102 C 
ATOM     57  C   UNL     1       5.308  -5.638  -1.402  1.00  0.00     0.043 C 
BRANCH  56  58
ATOM     58  C   UNL     1       6.205  -4.601  -3.369  1.00  0.00     0.268 C 
ATOM     59  O   UNL     1       7.057  -3.915  -3.917  1.00  0.00    -0.268 OA
ATOM     60  N   UNL     1       5.445  -5.540  -4.026  1.00  0.00    -0.339 N 
ATOM     61  H   UNL     1       4.753  -6.061  -3.501  1.00  0.00     0.164 HD
BRANCH  60  62
ATOM     62  C   UNL     1       5.593  -5.798  -5.458  1.00  0.00     0.168 CG0
ATOM     63  C   UNL     1       4.558  -5.022  -6.263  1.00  0.00     0.041 C 
ATOM     64  G   UNL     1       5.470  -7.312  -5.726  1.00  0.00     0.000 G0
ENDBRANCH  60  62
ENDBRANCH  56  58
ENDBRANCH  54  56
ENDBRANCH  52  54
ENDBRANCH  51  52
ENDBRANCH  50  51
ENDBRANCH  49  50
BRANCH  49  65
ATOM     65  C   UNL     1       3.807   1.065   2.190  1.00  0.00     0.326 C 
ATOM     66  O   UNL     1       3.015   1.883   1.746  1.00  0.00    -0.250 OA
BRANCH  65  67
ATOM     67  O   UNL     1       4.587   1.390   3.244  1.00  0.00    -0.480 OA
ATOM     68  H   UNL     1       4.680   0.545   3.733  1.00  0.00     0.296 HD
ENDBRANCH  65  67
ENDBRANCH  49  65
ENDBRANCH  47  49
ENDBRANCH  43  45
ENDBRANCH   1  43
BRANCH   1  69
ATOM     69  C   UNL     1       7.503  -4.181   3.663  1.00  0.00    -0.001 C 
ATOM     70  C   UNL     1       8.512  -4.589   2.873  1.00  0.00     0.001 C 
BRANCH  70  71
ATOM     71  C   UNL     1       9.241  -5.856   2.960  1.00  0.00    -0.055 C 
ATOM     72  C   UNL     1      10.037  -6.194   1.924  1.00  0.00    -0.018 C 
ATOM     73  C   UNL     1       9.057  -6.688   4.202  1.00  0.00     0.044 C 
BRANCH  72  74
ATOM     74  C   UNL     1      10.905  -7.431   1.740  1.00  0.00     0.038 C 
ATOM     75  C   UNL     1      12.068  -7.320   2.733  1.00  0.00     0.015 C 
BRANCH  74  76
ATOM     76  C   UNL     1      11.330  -7.527   0.245  1.00  0.00     0.128 C 
BRANCH  76  77
ATOM     77  O   UNL     1      12.741  -7.281   0.119  1.00  0.00    -0.381 OA
ATOM     78  C   UNL     1      13.066  -6.320  -0.876  1.00  0.00     0.195 C 
ENDBRANCH  76  77
BRANCH  76  79
ATOM     79  C   UNL     1      10.885  -8.837  -0.453  1.00  0.00     0.068 C 
BRANCH  79  80
ATOM     80  C   UNL     1      10.047  -9.811   0.339  1.00  0.00    -0.045 A 
ATOM     81  C   UNL     1       8.649  -9.805   0.245  1.00  0.00     0.004 A 
ATOM     82  C   UNL     1      10.660 -10.725   1.210  1.00  0.00     0.004 A 
ATOM     83  C   UNL     1       7.881 -10.700   0.993  1.00  0.00     0.000 A 
ATOM     84  C   UNL     1       9.891 -11.619   1.957  1.00  0.00     0.000 A 
ATOM     85  C   UNL     1       8.502 -11.608   1.847  1.00  0.00     0.000 A 
ENDBRANCH  79  80
ENDBRANCH  76  79
ENDBRANCH  74  76
ENDBRANCH  72  74
ENDBRANCH  70  71
ENDBRANCH   1  69
TORSDOF 17
ENDMDL
MODEL 18
REMARK VINA RESULT:    -7.389      5.621     10.559
REMARK INTER + INTRA:         -27.744
REMARK INTER:                 -19.674
REMARK INTRA:                  -8.069
REMARK UNBOUND:                -5.667
REMARK SMILES C=C1C(=O)N[C@H](C)C(=O)N[C@@H](CC(C)C)C(=O)N[C@@H](C(=O)O)[C@H](C)C(=O)N[C@@H](CCCN=C(N)N)C(=O)N[C@@H](/C=C/C(C)=C/[C@H](C)[C@H](Cc2ccccc2)OC)[C@H](C)C(=O)N[C@@H](C(=O)O)CCC(=O)N1C
REMARK SMILES IDX 39 1 38 2 37 3 36 4 28 6 27 7 25 8 26 9 23 11 24 12 19 13
REMARK SMILES IDX 18 14 16 15 17 16 11 18 10 19 8 20 9 21 12 24 13 25 14 26
REMARK SMILES IDX 15 27 20 28 21 29 22 30 29 32 30 33 31 34 32 35 33 36 34 37
REMARK SMILES IDX 35 38 57 43 58 44 59 45 60 46 61 47 62 49 66 50 67 51 68 52
REMARK SMILES IDX 69 53 70 54 71 55 2 56 1 57 3 58 4 59 5 60 6 62 7 63 63 65
REMARK SMILES IDX 64 66 65 67 40 69 41 70 42 71 44 72 43 73 45 74 46 75 47 76
REMARK SMILES IDX 55 77 56 78 48 79 49 80 50 81 54 82 51 83 53 84 52 85
REMARK H PARENT 38 5 27 10 18 17 10 22 22 31 34 39 34 40 35 41 35 42 61 48
REMARK H PARENT 5 61 65 68
REMARK Flexibility Score:  369.900
ROOT
ATOM      1  C   UNL     1       7.474  -2.630   4.515  1.00  0.00     0.117 C 
ENDROOT
BRANCH   1   2
ATOM      2  N   UNL     1       8.332  -1.503   4.147  1.00  0.00    -0.347 N 
ATOM      3  O   UNL     1       7.090   0.166   5.119  1.00  0.00    -0.273 OA
ATOM      4  C   UNL     1       8.117  -0.201   4.559  1.00  0.00     0.243 C 
ATOM      5  H   UNL     1       9.163  -1.671   3.601  1.00  0.00     0.164 HD
BRANCH   4   6
ATOM      6  C   UNL     1       9.221   0.786   4.102  1.00  0.00     0.171 C 
BRANCH   6   7
ATOM      7  N   UNL     1       9.919   1.353   5.267  1.00  0.00    -0.344 N 
ATOM      8  C   UNL     1       9.487   2.528   5.842  1.00  0.00     0.226 C 
ATOM      9  O   UNL     1       8.533   3.164   5.409  1.00  0.00    -0.275 OA
ATOM     10  H   UNL     1      10.752   0.892   5.612  1.00  0.00     0.164 HD
BRANCH   8  11
ATOM     11  C   UNL     1      10.277   2.952   7.068  1.00  0.00     0.109 C 
ATOM     12  C   UNL     1      10.459   1.764   8.013  1.00  0.00     0.021 C 
BRANCH  11  13
ATOM     13  C   UNL     1      11.586   3.641   6.633  1.00  0.00     0.204 C 
BRANCH  13  14
ATOM     14  N   UNL     1      11.789   4.922   7.317  1.00  0.00    -0.340 N 
ATOM     15  C   UNL     1      12.043   6.097   6.645  1.00  0.00     0.243 C 
ATOM     16  O   UNL     1      12.057   6.166   5.417  1.00  0.00    -0.273 OA
ATOM     17  H   UNL     1      11.941   4.907   8.329  1.00  0.00     0.164 HD
BRANCH  15  18
ATOM     18  C   UNL     1      12.429   7.272   7.577  1.00  0.00     0.171 C 
BRANCH  18  19
ATOM     19  N   UNL     1      13.885   7.241   7.709  1.00  0.00    -0.343 N 
ATOM     20  C   UNL     1      14.511   6.501   8.694  1.00  0.00     0.242 CG0
ATOM     21  O   UNL     1      13.873   5.943   9.583  1.00  0.00    -0.273 OA
ATOM     22  H   UNL     1      14.454   7.780   7.067  1.00  0.00     0.164 HD
ATOM     23  G   UNL     1      16.052   6.528   8.627  1.00  0.00     0.000 G0
ENDBRANCH  18  19
BRANCH  18  24
ATOM     24  C   UNL     1      11.947   8.606   6.995  1.00  0.00     0.038 C 
BRANCH  24  25
ATOM     25  C   UNL     1      11.887   9.768   8.009  1.00  0.00    -0.015 C 
ATOM     26  C   UNL     1      11.359   9.326   9.375  1.00  0.00     0.007 C 
ATOM     27  C   UNL     1      11.006  10.891   7.455  1.00  0.00     0.007 C 
ENDBRANCH  24  25
ENDBRANCH  18  24
ENDBRANCH  15  18
ENDBRANCH  13  14
BRANCH  13  28
ATOM     28  C   UNL     1      12.831   2.787   6.888  1.00  0.00     0.327 C 
ATOM     29  O   UNL     1      13.665   2.968   7.762  1.00  0.00    -0.250 OA
BRANCH  28  30
ATOM     30  O   UNL     1      13.016   1.829   5.957  1.00  0.00    -0.480 OA
ATOM     31  H   UNL     1      12.920   2.301   5.104  1.00  0.00     0.296 HD
ENDBRANCH  28  30
ENDBRANCH  13  28
ENDBRANCH  11  13
ENDBRANCH   8  11
ENDBRANCH   6   7
BRANCH   6  32
ATOM     32  C   UNL     1      10.202   0.054   3.179  1.00  0.00     0.037 C 
BRANCH  32  33
ATOM     33  C   UNL     1      10.556   0.882   1.936  1.00  0.00     0.026 C 
BRANCH  33  34
ATOM     34  C   UNL     1      10.286   0.128   0.634  1.00  0.00     0.146 C 
BRANCH  34  35
ATOM     35  N   UNL     1      11.191  -1.011   0.554  1.00  0.00    -0.254 NA
ATOM     36  C   UNL     1      10.697  -2.192   0.597  1.00  0.00     0.185 C 
ATOM     37  N   UNL     1      11.521  -3.248   0.519  1.00  0.00    -0.370 N 
ATOM     38  N   UNL     1       9.411  -2.566   0.715  1.00  0.00    -0.370 N 
ATOM     39  H   UNL     1      12.508  -3.048   0.418  1.00  0.00     0.159 HD
ATOM     40  H   UNL     1      11.204  -4.191   0.372  1.00  0.00     0.159 HD
ATOM     41  H   UNL     1       9.161  -3.528   0.878  1.00  0.00     0.159 HD
ATOM     42  H   UNL     1       8.681  -1.876   0.800  1.00  0.00     0.159 HD
ENDBRANCH  34  35
ENDBRANCH  33  34
ENDBRANCH  32  33
ENDBRANCH   6  32
ENDBRANCH   4   6
ENDBRANCH   1   2
BRANCH   1  43
ATOM     43  C   UNL     1       8.373  -3.785   5.041  1.00  0.00     0.102 C 
ATOM     44  C   UNL     1       8.973  -3.510   6.430  1.00  0.00     0.020 C 
BRANCH  43  45
ATOM     45  C   UNL     1       9.406  -4.201   3.989  1.00  0.00     0.225 C 
ATOM     46  O   UNL     1      10.287  -3.450   3.581  1.00  0.00    -0.275 OA
ATOM     47  N   UNL     1       9.230  -5.455   3.449  1.00  0.00    -0.342 N 
ATOM     48  H   UNL     1       8.603  -6.109   3.897  1.00  0.00     0.164 HD
BRANCH  47  49
ATOM     49  C   UNL     1      10.162  -6.000   2.458  1.00  0.00     0.192 C 
BRANCH  49  50
ATOM     50  C   UNL     1       9.431  -7.001   1.560  1.00  0.00     0.047 C 
BRANCH  50  51
ATOM     51  C   UNL     1      10.093  -7.138   0.182  1.00  0.00     0.103 C 
BRANCH  51  52
ATOM     52  C   UNL     1      10.290  -8.600  -0.216  1.00  0.00     0.226 C 
ATOM     53  O   UNL     1       9.391  -9.195  -0.815  1.00  0.00    -0.275 OA
BRANCH  52  54
ATOM     54  N   UNL     1      11.547  -9.164   0.068  1.00  0.00    -0.311 N 
ATOM     55  C   UNL     1      12.663  -9.040  -0.879  1.00  0.00     0.153 C 
BRANCH  54  56
ATOM     56  C   UNL     1      11.784  -9.858   1.266  1.00  0.00     0.102 C 
ATOM     57  C   UNL     1      12.956  -9.880   1.922  1.00  0.00     0.043 C 
BRANCH  56  58
ATOM     58  C   UNL     1      10.676 -10.623   1.950  1.00  0.00     0.268 C 
ATOM     59  O   UNL     1      10.420 -10.509   3.141  1.00  0.00    -0.268 OA
ATOM     60  N   UNL     1       9.948 -11.407   1.087  1.00  0.00    -0.339 N 
ATOM     61  H   UNL     1      10.232 -11.455   0.116  1.00  0.00     0.164 HD
BRANCH  60  62
ATOM     62  C   UNL     1       8.791 -12.184   1.529  1.00  0.00     0.168 CG0
ATOM     63  C   UNL     1       7.557 -11.300   1.663  1.00  0.00     0.041 C 
ATOM     64  G   UNL     1       9.115 -12.877   2.869  1.00  0.00     0.000 G0
ENDBRANCH  60  62
ENDBRANCH  56  58
ENDBRANCH  54  56
ENDBRANCH  52  54
ENDBRANCH  51  52
ENDBRANCH  50  51
ENDBRANCH  49  50
BRANCH  49  65
ATOM     65  C   UNL     1      11.358  -6.695   3.127  1.00  0.00     0.326 C 
ATOM     66  O   UNL     1      11.297  -7.437   4.097  1.00  0.00    -0.250 OA
BRANCH  65  67
ATOM     67  O   UNL     1      12.561  -6.385   2.596  1.00  0.00    -0.480 OA
ATOM     68  H   UNL     1      12.797  -5.540   3.036  1.00  0.00     0.296 HD
ENDBRANCH  65  67
ENDBRANCH  49  65
ENDBRANCH  47  49
ENDBRANCH  43  45
ENDBRANCH   1  43
BRANCH   1  69
ATOM     69  C   UNL     1       6.575  -2.886   3.319  1.00  0.00    -0.001 C 
ATOM     70  C   UNL     1       5.499  -3.691   3.263  1.00  0.00     0.001 C 
BRANCH  70  71
ATOM     71  C   UNL     1       4.626  -3.914   2.109  1.00  0.00    -0.055 C 
ATOM     72  C   UNL     1       5.208  -4.244   0.937  1.00  0.00    -0.018 C 
ATOM     73  C   UNL     1       3.141  -3.768   2.313  1.00  0.00     0.044 C 
BRANCH  72  74
ATOM     74  C   UNL     1       4.562  -4.534  -0.411  1.00  0.00     0.038 C 
ATOM     75  C   UNL     1       4.933  -5.973  -0.790  1.00  0.00     0.015 C 
BRANCH  74  76
ATOM     76  C   UNL     1       5.022  -3.450  -1.430  1.00  0.00     0.128 C 
BRANCH  76  77
ATOM     77  O   UNL     1       4.933  -3.966  -2.769  1.00  0.00    -0.381 OA
ATOM     78  C   UNL     1       6.187  -4.057  -3.431  1.00  0.00     0.195 C 
ENDBRANCH  76  77
BRANCH  76  79
ATOM     79  C   UNL     1       4.307  -2.086  -1.264  1.00  0.00     0.068 C 
BRANCH  79  80
ATOM     80  C   UNL     1       4.794  -1.160  -0.176  1.00  0.00    -0.045 A 
ATOM     81  C   UNL     1       6.163  -0.978   0.058  1.00  0.00     0.004 A 
ATOM     82  C   UNL     1       3.875  -0.485   0.642  1.00  0.00     0.004 A 
ATOM     83  C   UNL     1       6.605  -0.130   1.076  1.00  0.00     0.000 A 
ATOM     84  C   UNL     1       4.318   0.361   1.661  1.00  0.00     0.000 A 
ATOM     85  C   UNL     1       5.682   0.540   1.876  1.00  0.00     0.000 A 
ENDBRANCH  79  80
ENDBRANCH  76  79
ENDBRANCH  74  76
ENDBRANCH  72  74
ENDBRANCH  70  71
ENDBRANCH   1  69
TORSDOF 17
ENDMDL
MODEL 19
REMARK VINA RESULT:    -7.384      6.229     14.961
REMARK INTER + INTRA:         -27.728
REMARK INTER:                 -20.843
REMARK INTRA:                  -6.884
REMARK UNBOUND:                -5.667
REMARK SMILES C=C1C(=O)N[C@H](C)C(=O)N[C@@H](CC(C)C)C(=O)N[C@@H](C(=O)O)[C@H](C)C(=O)N[C@@H](CCCN=C(N)N)C(=O)N[C@@H](/C=C/C(C)=C/[C@H](C)[C@H](Cc2ccccc2)OC)[C@H](C)C(=O)N[C@@H](C(=O)O)CCC(=O)N1C
REMARK SMILES IDX 39 1 38 2 37 3 36 4 28 6 27 7 25 8 26 9 23 11 24 12 19 13
REMARK SMILES IDX 18 14 16 15 17 16 11 18 10 19 8 20 9 21 12 24 13 25 14 26
REMARK SMILES IDX 15 27 20 28 21 29 22 30 29 32 30 33 31 34 32 35 33 36 34 37
REMARK SMILES IDX 35 38 57 43 58 44 59 45 60 46 61 47 62 49 66 50 67 51 68 52
REMARK SMILES IDX 69 53 70 54 71 55 2 56 1 57 3 58 4 59 5 60 6 62 7 63 63 65
REMARK SMILES IDX 64 66 65 67 40 69 41 70 42 71 44 72 43 73 45 74 46 75 47 76
REMARK SMILES IDX 55 77 56 78 48 79 49 80 50 81 54 82 51 83 53 84 52 85
REMARK H PARENT 38 5 27 10 18 17 10 22 22 31 34 39 34 40 35 41 35 42 61 48
REMARK H PARENT 5 61 65 68
REMARK Flexibility Score:  369.900
ROOT
ATOM      1  C   UNL     1       8.608   0.540   7.861  1.00  0.00     0.117 C 
ENDROOT
BRANCH   1   2
ATOM      2  N   UNL     1       8.306   0.079   6.506  1.00  0.00    -0.347 N 
ATOM      3  O   UNL     1       7.875   2.129   5.566  1.00  0.00    -0.273 OA
ATOM      4  C   UNL     1       8.052   0.922   5.441  1.00  0.00     0.243 C 
ATOM      5  H   UNL     1       8.328  -0.909   6.303  1.00  0.00     0.164 HD
BRANCH   4   6
ATOM      6  C   UNL     1       7.848   0.181   4.095  1.00  0.00     0.171 C 
BRANCH   6   7
ATOM      7  N   UNL     1       6.534   0.511   3.520  1.00  0.00    -0.344 N 
ATOM      8  C   UNL     1       5.519  -0.420   3.506  1.00  0.00     0.226 C 
ATOM      9  O   UNL     1       5.660  -1.557   3.942  1.00  0.00    -0.275 OA
ATOM     10  H   UNL     1       6.401   1.418   3.090  1.00  0.00     0.164 HD
BRANCH   8  11
ATOM     11  C   UNL     1       4.210   0.090   2.931  1.00  0.00     0.109 C 
ATOM     12  C   UNL     1       4.471   1.267   1.991  1.00  0.00     0.021 C 
BRANCH  11  13
ATOM     13  C   UNL     1       3.426  -1.080   2.301  1.00  0.00     0.204 C 
BRANCH  13  14
ATOM     14  N   UNL     1       4.283  -1.939   1.479  1.00  0.00    -0.340 N 
ATOM     15  C   UNL     1       4.173  -2.013   0.107  1.00  0.00     0.243 C 
ATOM     16  O   UNL     1       3.387  -1.315  -0.531  1.00  0.00    -0.273 OA
ATOM     17  H   UNL     1       4.847  -2.650   1.953  1.00  0.00     0.164 HD
BRANCH  15  18
ATOM     18  C   UNL     1       5.035  -3.135  -0.523  1.00  0.00     0.171 C 
BRANCH  18  19
ATOM     19  N   UNL     1       4.182  -4.318  -0.610  1.00  0.00    -0.343 N 
ATOM     20  C   UNL     1       3.830  -5.047   0.510  1.00  0.00     0.242 CG0
ATOM     21  O   UNL     1       4.324  -4.815   1.610  1.00  0.00    -0.273 OA
ATOM     22  H   UNL     1       3.841  -4.620  -1.516  1.00  0.00     0.164 HD
ATOM     23  G   UNL     1       2.861  -6.215   0.231  1.00  0.00     0.000 G0
ENDBRANCH  18  19
BRANCH  18  24
ATOM     24  C   UNL     1       5.551  -2.711  -1.903  1.00  0.00     0.038 C 
BRANCH  24  25
ATOM     25  C   UNL     1       7.031  -3.055  -2.172  1.00  0.00    -0.015 C 
ATOM     26  C   UNL     1       7.558  -4.142  -1.235  1.00  0.00     0.007 C 
ATOM     27  C   UNL     1       7.887  -1.793  -2.030  1.00  0.00     0.007 C 
ENDBRANCH  24  25
ENDBRANCH  18  24
ENDBRANCH  15  18
ENDBRANCH  13  14
BRANCH  13  28
ATOM     28  C   UNL     1       2.745  -1.977   3.339  1.00  0.00     0.327 C 
ATOM     29  O   UNL     1       1.737  -1.710   3.976  1.00  0.00    -0.250 OA
BRANCH  28  30
ATOM     30  O   UNL     1       3.438  -3.105   3.599  1.00  0.00    -0.480 OA
ATOM     31  H   UNL     1       2.925  -3.811   3.154  1.00  0.00     0.296 HD
ENDBRANCH  28  30
ENDBRANCH  13  28
ENDBRANCH  11  13
ENDBRANCH   8  11
ENDBRANCH   6   7
BRANCH   6  32
ATOM     32  C   UNL     1       8.978   0.565   3.133  1.00  0.00     0.037 C 
BRANCH  32  33
ATOM     33  C   UNL     1       8.927  -0.242   1.828  1.00  0.00     0.026 C 
BRANCH  33  34
ATOM     34  C   UNL     1       9.449  -1.669   2.001  1.00  0.00     0.146 C 
BRANCH  34  35
ATOM     35  N   UNL     1       8.362  -2.602   1.740  1.00  0.00    -0.254 NA
ATOM     36  C   UNL     1       7.917  -3.312   2.709  1.00  0.00     0.185 C 
ATOM     37  N   UNL     1       6.912  -4.172   2.482  1.00  0.00    -0.370 N 
ATOM     38  N   UNL     1       8.317  -3.335   3.993  1.00  0.00    -0.370 N 
ATOM     39  H   UNL     1       6.548  -4.206   1.538  1.00  0.00     0.159 HD
ATOM     40  H   UNL     1       6.396  -4.631   3.213  1.00  0.00     0.159 HD
ATOM     41  H   UNL     1       7.981  -4.039   4.630  1.00  0.00     0.159 HD
ATOM     42  H   UNL     1       9.076  -2.750   4.304  1.00  0.00     0.159 HD
ENDBRANCH  34  35
ENDBRANCH  33  34
ENDBRANCH  32  33
ENDBRANCH   6  32
ENDBRANCH   4   6
ENDBRANCH   1   2
BRANCH   1  43
ATOM     43  C   UNL     1      10.148   0.480   8.073  1.00  0.00     0.102 C 
ATOM     44  C   UNL     1      10.594   0.961   9.465  1.00  0.00     0.020 C 
BRANCH  43  45
ATOM     45  C   UNL     1      10.890   1.155   6.916  1.00  0.00     0.225 C 
ATOM     46  O   UNL     1      11.564   0.535   6.098  1.00  0.00    -0.275 OA
ATOM     47  N   UNL     1      10.834   2.530   6.898  1.00  0.00    -0.342 N 
ATOM     48  H   UNL     1      10.160   3.010   7.477  1.00  0.00     0.164 HD
BRANCH  47  49
ATOM     49  C   UNL     1      11.466   3.308   5.829  1.00  0.00     0.192 C 
BRANCH  49  50
ATOM     50  C   UNL     1      12.643   4.104   6.400  1.00  0.00     0.047 C 
BRANCH  50  51
ATOM     51  C   UNL     1      12.205   5.087   7.493  1.00  0.00     0.103 C 
BRANCH  51  52
ATOM     52  C   UNL     1      12.658   6.515   7.195  1.00  0.00     0.226 C 
ATOM     53  O   UNL     1      12.086   7.166   6.319  1.00  0.00    -0.275 OA
BRANCH  52  54
ATOM     54  N   UNL     1      13.678   7.033   8.015  1.00  0.00    -0.311 N 
ATOM     55  C   UNL     1      15.057   6.537   7.911  1.00  0.00     0.153 C 
BRANCH  54  56
ATOM     56  C   UNL     1      13.419   8.044   8.955  1.00  0.00     0.102 C 
ATOM     57  C   UNL     1      14.209   8.342  10.000  1.00  0.00     0.043 C 
BRANCH  56  58
ATOM     58  C   UNL     1      12.205   8.933   8.824  1.00  0.00     0.268 C 
ATOM     59  O   UNL     1      11.225   8.839   9.551  1.00  0.00    -0.268 OA
ATOM     60  N   UNL     1      12.341   9.894   7.851  1.00  0.00    -0.339 N 
ATOM     61  H   UNL     1      13.181   9.898   7.284  1.00  0.00     0.164 HD
BRANCH  60  62
ATOM     62  C   UNL     1      11.309  10.899   7.599  1.00  0.00     0.168 CG0
ATOM     63  C   UNL     1      10.645  10.672   6.246  1.00  0.00     0.041 C 
ATOM     64  G   UNL     1      11.931  12.309   7.672  1.00  0.00     0.000 G0
ENDBRANCH  60  62
ENDBRANCH  56  58
ENDBRANCH  54  56
ENDBRANCH  52  54
ENDBRANCH  51  52
ENDBRANCH  50  51
ENDBRANCH  49  50
BRANCH  49  65
ATOM     65  C   UNL     1      10.472   4.275   5.167  1.00  0.00     0.326 C 
ATOM     66  O   UNL     1      10.665   4.893   4.130  1.00  0.00    -0.250 OA
BRANCH  65  67
ATOM     67  O   UNL     1       9.327   4.466   5.858  1.00  0.00    -0.480 OA
ATOM     68  H   UNL     1       8.777   3.690   5.614  1.00  0.00     0.296 HD
ENDBRANCH  65  67
ENDBRANCH  49  65
ENDBRANCH  47  49
ENDBRANCH  43  45
ENDBRANCH   1  43
BRANCH   1  69
ATOM     69  C   UNL     1       7.708  -0.255   8.789  1.00  0.00    -0.001 C 
ATOM     70  C   UNL     1       6.956   0.216   9.799  1.00  0.00     0.001 C 
BRANCH  70  71
ATOM     71  C   UNL     1       6.074  -0.558  10.675  1.00  0.00    -0.055 C 
ATOM     72  C   UNL     1       5.263  -1.471  10.101  1.00  0.00    -0.018 C 
ATOM     73  C   UNL     1       6.141  -0.287  12.156  1.00  0.00     0.044 C 
BRANCH  72  74
ATOM     74  C   UNL     1       4.257  -2.410  10.751  1.00  0.00     0.038 C 
ATOM     75  C   UNL     1       4.992  -3.722  11.053  1.00  0.00     0.015 C 
BRANCH  74  76
ATOM     76  C   UNL     1       3.025  -2.554   9.809  1.00  0.00     0.128 C 
BRANCH  76  77
ATOM     77  O   UNL     1       3.443  -2.461   8.437  1.00  0.00    -0.381 OA
ATOM     78  C   UNL     1       3.058  -3.577   7.646  1.00  0.00     0.195 C 
ENDBRANCH  76  77
BRANCH  76  79
ATOM     79  C   UNL     1       2.161  -3.809  10.090  1.00  0.00     0.068 C 
BRANCH  79  80
ATOM     80  C   UNL     1       1.173  -3.748  11.229  1.00  0.00    -0.045 A 
ATOM     81  C   UNL     1       0.781  -4.909  11.908  1.00  0.00     0.004 A 
ATOM     82  C   UNL     1       0.608  -2.521  11.610  1.00  0.00     0.004 A 
ATOM     83  C   UNL     1      -0.145  -4.845  12.952  1.00  0.00     0.000 A 
ATOM     84  C   UNL     1      -0.318  -2.459  12.654  1.00  0.00     0.000 A 
ATOM     85  C   UNL     1      -0.693  -3.620  13.325  1.00  0.00     0.000 A 
ENDBRANCH  79  80
ENDBRANCH  76  79
ENDBRANCH  74  76
ENDBRANCH  72  74
ENDBRANCH  70  71
ENDBRANCH   1  69
TORSDOF 17
ENDMDL
MODEL 20
REMARK VINA RESULT:    -7.356      3.024      5.319
REMARK INTER + INTRA:         -27.644
REMARK INTER:                 -23.005
REMARK INTRA:                  -4.639
REMARK UNBOUND:                -5.667
REMARK SMILES C=C1C(=O)N[C@H](C)C(=O)N[C@@H](CC(C)C)C(=O)N[C@@H](C(=O)O)[C@H](C)C(=O)N[C@@H](CCCN=C(N)N)C(=O)N[C@@H](/C=C/C(C)=C/[C@H](C)[C@H](Cc2ccccc2)OC)[C@H](C)C(=O)N[C@@H](C(=O)O)CCC(=O)N1C
REMARK SMILES IDX 39 1 38 2 37 3 36 4 28 6 27 7 25 8 26 9 23 11 24 12 19 13
REMARK SMILES IDX 18 14 16 15 17 16 11 18 10 19 8 20 9 21 12 24 13 25 14 26
REMARK SMILES IDX 15 27 20 28 21 29 22 30 29 32 30 33 31 34 32 35 33 36 34 37
REMARK SMILES IDX 35 38 57 43 58 44 59 45 60 46 61 47 62 49 66 50 67 51 68 52
REMARK SMILES IDX 69 53 70 54 71 55 2 56 1 57 3 58 4 59 5 60 6 62 7 63 63 65
REMARK SMILES IDX 64 66 65 67 40 69 41 70 42 71 44 72 43 73 45 74 46 75 47 76
REMARK SMILES IDX 55 77 56 78 48 79 49 80 50 81 54 82 51 83 53 84 52 85
REMARK H PARENT 38 5 27 10 18 17 10 22 22 31 34 39 34 40 35 41 35 42 61 48
REMARK H PARENT 5 61 65 68
REMARK Flexibility Score:  369.900
ROOT
ATOM      1  C   UNL     1       8.818  -1.655  -0.566  1.00  0.00     0.117 C 
ENDROOT
BRANCH   1   2
ATOM      2  N   UNL     1       8.161  -1.461   0.727  1.00  0.00    -0.347 N 
ATOM      3  O   UNL     1       7.504  -3.633   1.073  1.00  0.00    -0.273 OA
ATOM      4  C   UNL     1       7.634  -2.487   1.488  1.00  0.00     0.243 C 
ATOM      5  H   UNL     1       8.122  -0.536   1.129  1.00  0.00     0.164 HD
BRANCH   4   6
ATOM      6  C   UNL     1       7.072  -2.023   2.856  1.00  0.00     0.171 C 
BRANCH   6   7
ATOM      7  N   UNL     1       7.878  -2.573   3.957  1.00  0.00    -0.344 N 
ATOM      8  C   UNL     1       7.281  -2.979   5.131  1.00  0.00     0.226 C 
ATOM      9  O   UNL     1       6.075  -2.885   5.324  1.00  0.00    -0.275 OA
ATOM     10  H   UNL     1       8.886  -2.604   3.860  1.00  0.00     0.164 HD
BRANCH   8  11
ATOM     11  C   UNL     1       8.239  -3.574   6.147  1.00  0.00     0.109 C 
ATOM     12  C   UNL     1       9.683  -3.390   5.680  1.00  0.00     0.021 C 
BRANCH  11  13
ATOM     13  C   UNL     1       7.933  -3.006   7.547  1.00  0.00     0.204 C 
BRANCH  13  14
ATOM     14  N   UNL     1       6.607  -3.405   8.027  1.00  0.00    -0.340 N 
ATOM     15  C   UNL     1       5.875  -2.651   8.918  1.00  0.00     0.243 C 
ATOM     16  O   UNL     1       6.257  -1.556   9.327  1.00  0.00    -0.273 OA
ATOM     17  H   UNL     1       6.300  -4.365   7.848  1.00  0.00     0.164 HD
BRANCH  15  18
ATOM     18  C   UNL     1       4.605  -3.368   9.439  1.00  0.00     0.171 C 
BRANCH  18  19
ATOM     19  N   UNL     1       4.835  -3.649  10.855  1.00  0.00    -0.343 N 
ATOM     20  C   UNL     1       4.670  -4.915  11.383  1.00  0.00     0.242 CG0
ATOM     21  O   UNL     1       4.196  -5.833  10.718  1.00  0.00    -0.273 OA
ATOM     22  H   UNL     1       5.117  -2.896  11.472  1.00  0.00     0.164 HD
ATOM     23  G   UNL     1       5.034  -5.034  12.877  1.00  0.00     0.000 G0
ENDBRANCH  18  19
BRANCH  18  24
ATOM     24  C   UNL     1       3.364  -2.490   9.234  1.00  0.00     0.038 C 
BRANCH  24  25
ATOM     25  C   UNL     1       2.119  -3.244   8.720  1.00  0.00    -0.015 C 
ATOM     26  C   UNL     1       1.365  -2.463   7.644  1.00  0.00     0.007 C 
ATOM     27  C   UNL     1       1.181  -3.546   9.892  1.00  0.00     0.007 C 
ENDBRANCH  24  25
ENDBRANCH  18  24
ENDBRANCH  15  18
ENDBRANCH  13  14
BRANCH  13  28
ATOM     28  C   UNL     1       8.949  -3.437   8.609  1.00  0.00     0.327 C 
ATOM     29  O   UNL     1       9.881  -2.770   9.031  1.00  0.00    -0.250 OA
BRANCH  28  30
ATOM     30  O   UNL     1       8.803  -4.723   8.989  1.00  0.00    -0.480 OA
ATOM     31  H   UNL     1       7.840  -4.888   8.917  1.00  0.00     0.296 HD
ENDBRANCH  28  30
ENDBRANCH  13  28
ENDBRANCH  11  13
ENDBRANCH   8  11
ENDBRANCH   6   7
BRANCH   6  32
ATOM     32  C   UNL     1       7.058  -0.491   2.901  1.00  0.00     0.037 C 
BRANCH  32  33
ATOM     33  C   UNL     1       5.652   0.068   3.160  1.00  0.00     0.026 C 
BRANCH  33  34
ATOM     34  C   UNL     1       4.743  -0.042   1.936  1.00  0.00     0.146 C 
BRANCH  34  35
ATOM     35  N   UNL     1       4.056  -1.326   1.975  1.00  0.00    -0.254 NA
ATOM     36  C   UNL     1       3.318  -1.658   0.982  1.00  0.00     0.185 C 
ATOM     37  N   UNL     1       2.685  -2.841   1.005  1.00  0.00    -0.370 N 
ATOM     38  N   UNL     1       3.061  -0.973  -0.146  1.00  0.00    -0.370 N 
ATOM     39  H   UNL     1       2.837  -3.422   1.820  1.00  0.00     0.159 HD
ATOM     40  H   UNL     1       2.234  -3.247   0.203  1.00  0.00     0.159 HD
ATOM     41  H   UNL     1       2.351  -1.280  -0.792  1.00  0.00     0.159 HD
ATOM     42  H   UNL     1       3.458  -0.058  -0.292  1.00  0.00     0.159 HD
ENDBRANCH  34  35
ENDBRANCH  33  34
ENDBRANCH  32  33
ENDBRANCH   6  32
ENDBRANCH   4   6
ENDBRANCH   1   2
BRANCH   1  43
ATOM     43  C   UNL     1       7.750  -1.525  -1.689  1.00  0.00     0.102 C 
ATOM     44  C   UNL     1       6.450  -0.849  -1.222  1.00  0.00     0.020 C 
BRANCH  43  45
ATOM     45  C   UNL     1       7.533  -2.864  -2.400  1.00  0.00     0.225 C 
ATOM     46  O   UNL     1       8.009  -3.124  -3.501  1.00  0.00    -0.275 OA
ATOM     47  N   UNL     1       6.683  -3.740  -1.765  1.00  0.00    -0.342 N 
ATOM     48  H   UNL     1       6.425  -3.578  -0.802  1.00  0.00     0.164 HD
BRANCH  47  49
ATOM     49  C   UNL     1       6.410  -5.074  -2.310  1.00  0.00     0.192 C 
BRANCH  49  50
ATOM     50  C   UNL     1       5.379  -4.967  -3.438  1.00  0.00     0.047 C 
BRANCH  50  51
ATOM     51  C   UNL     1       5.864  -5.631  -4.734  1.00  0.00     0.103 C 
BRANCH  51  52
ATOM     52  C   UNL     1       4.922  -5.358  -5.905  1.00  0.00     0.226 C 
ATOM     53  O   UNL     1       3.807  -4.878  -5.692  1.00  0.00    -0.275 OA
BRANCH  52  54
ATOM     54  N   UNL     1       5.433  -5.610  -7.192  1.00  0.00    -0.311 N 
ATOM     55  C   UNL     1       6.793  -6.133  -7.377  1.00  0.00     0.153 C 
BRANCH  54  56
ATOM     56  C   UNL     1       4.662  -5.378  -8.343  1.00  0.00     0.102 C 
ATOM     57  C   UNL     1       4.823  -4.338  -9.178  1.00  0.00     0.043 C 
BRANCH  56  58
ATOM     58  C   UNL     1       3.584  -6.349  -8.763  1.00  0.00     0.268 C 
ATOM     59  O   UNL     1       3.516  -7.496  -8.344  1.00  0.00    -0.268 OA
ATOM     60  N   UNL     1       2.655  -5.791  -9.610  1.00  0.00    -0.339 N 
ATOM     61  H   UNL     1       2.789  -4.836  -9.919  1.00  0.00     0.164 HD
BRANCH  60  62
ATOM     62  C   UNL     1       1.492  -6.537 -10.089  1.00  0.00     0.168 CG0
ATOM     63  C   UNL     1       1.655  -6.922 -11.554  1.00  0.00     0.041 C 
ATOM     64  G   UNL     1       0.217  -5.693  -9.885  1.00  0.00     0.000 G0
ENDBRANCH  60  62
ENDBRANCH  56  58
ENDBRANCH  54  56
ENDBRANCH  52  54
ENDBRANCH  51  52
ENDBRANCH  50  51
ENDBRANCH  49  50
BRANCH  49  65
ATOM     65  C   UNL     1       5.884  -6.031  -1.230  1.00  0.00     0.326 C 
ATOM     66  O   UNL     1       6.567  -6.592  -0.384  1.00  0.00    -0.250 OA
BRANCH  65  67
ATOM     67  O   UNL     1       4.559  -6.285  -1.297  1.00  0.00    -0.480 OA
ATOM     68  H   UNL     1       4.210  -5.915  -0.457  1.00  0.00     0.296 HD
ENDBRANCH  65  67
ENDBRANCH  49  65
ENDBRANCH  47  49
ENDBRANCH  43  45
ENDBRANCH   1  43
BRANCH   1  69
ATOM     69  C   UNL     1       9.608  -2.946  -0.451  1.00  0.00    -0.001 C 
ATOM     70  C   UNL     1      10.944  -3.093  -0.495  1.00  0.00     0.001 C 
BRANCH  70  71
ATOM     71  C   UNL     1      11.696  -4.342  -0.361  1.00  0.00    -0.055 C 
ATOM     72  C   UNL     1      11.218  -5.275   0.490  1.00  0.00    -0.018 C 
ATOM     73  C   UNL     1      12.945  -4.502  -1.187  1.00  0.00     0.044 C 
BRANCH  72  74
ATOM     74  C   UNL     1      11.778  -6.649   0.826  1.00  0.00     0.038 C 
ATOM     75  C   UNL     1      11.871  -7.434  -0.488  1.00  0.00     0.015 C 
BRANCH  74  76
ATOM     76  C   UNL     1      10.878  -7.304   1.915  1.00  0.00     0.128 C 
BRANCH  76  77
ATOM     77  O   UNL     1      10.812  -6.455   3.073  1.00  0.00    -0.381 OA
ATOM     78  C   UNL     1       9.493  -6.261   3.564  1.00  0.00     0.195 C 
ENDBRANCH  76  77
BRANCH  76  79
ATOM     79  C   UNL     1       9.479  -7.730   1.403  1.00  0.00     0.068 C 
BRANCH  79  80
ATOM     80  C   UNL     1       9.147  -9.202   1.395  1.00  0.00    -0.045 A 
ATOM     81  C   UNL     1       9.452 -10.017   2.493  1.00  0.00     0.004 A 
ATOM     82  C   UNL     1       8.548  -9.786   0.268  1.00  0.00     0.004 A 
ATOM     83  C   UNL     1       9.154 -11.382   2.472  1.00  0.00     0.000 A 
ATOM     84  C   UNL     1       8.251 -11.150   0.248  1.00  0.00     0.000 A 
ATOM     85  C   UNL     1       8.553 -11.947   1.350  1.00  0.00     0.000 A 
ENDBRANCH  79  80
ENDBRANCH  76  79
ENDBRANCH  74  76
ENDBRANCH  72  74
ENDBRANCH  70  71
ENDBRANCH   1  69
TORSDOF 17
ENDMDL
MODEL 21
REMARK VINA RESULT:    -7.330      3.613      7.850
REMARK INTER + INTRA:         -27.568
REMARK INTER:                 -18.887
REMARK INTRA:                  -8.681
REMARK UNBOUND:                -5.667
REMARK SMILES C=C1C(=O)N[C@H](C)C(=O)N[C@@H](CC(C)C)C(=O)N[C@@H](C(=O)O)[C@H](C)C(=O)N[C@@H](CCCN=C(N)N)C(=O)N[C@@H](/C=C/C(C)=C/[C@H](C)[C@H](Cc2ccccc2)OC)[C@H](C)C(=O)N[C@@H](C(=O)O)CCC(=O)N1C
REMARK SMILES IDX 39 1 38 2 37 3 36 4 28 6 27 7 25 8 26 9 23 11 24 12 19 13
REMARK SMILES IDX 18 14 16 15 17 16 11 18 10 19 8 20 9 21 12 24 13 25 14 26
REMARK SMILES IDX 15 27 20 28 21 29 22 30 29 32 30 33 31 34 32 35 33 36 34 37
REMARK SMILES IDX 35 38 57 43 58 44 59 45 60 46 61 47 62 49 66 50 67 51 68 52
REMARK SMILES IDX 69 53 70 54 71 55 2 56 1 57 3 58 4 59 5 60 6 62 7 63 63 65
REMARK SMILES IDX 64 66 65 67 40 69 41 70 42 71 44 72 43 73 45 74 46 75 47 76
REMARK SMILES IDX 55 77 56 78 48 79 49 80 50 81 54 82 51 83 53 84 52 85
REMARK H PARENT 38 5 27 10 18 17 10 22 22 31 34 39 34 40 35 41 35 42 61 48
REMARK H PARENT 5 61 65 68
REMARK Flexibility Score:  369.900
ROOT
ATOM      1  C   UNL     1       8.553  -2.417   1.019  1.00  0.00     0.117 C 
ENDROOT
BRANCH   1   2
ATOM      2  N   UNL     1       9.091  -3.744   0.718  1.00  0.00    -0.347 N 
ATOM      3  O   UNL     1       8.311  -4.829   2.585  1.00  0.00    -0.273 OA
ATOM      4  C   UNL     1       8.848  -4.869   1.483  1.00  0.00     0.243 C 
ATOM      5  H   UNL     1       9.634  -3.879  -0.121  1.00  0.00     0.164 HD
BRANCH   4   6
ATOM      6  C   UNL     1       9.462  -6.166   0.897  1.00  0.00     0.171 C 
BRANCH   6   7
ATOM      7  N   UNL     1      10.137  -6.938   1.952  1.00  0.00    -0.344 N 
ATOM      8  C   UNL     1      11.385  -6.568   2.405  1.00  0.00     0.226 C 
ATOM      9  O   UNL     1      11.996  -5.610   1.947  1.00  0.00    -0.275 OA
ATOM     10  H   UNL     1       9.692  -7.775   2.308  1.00  0.00     0.164 HD
BRANCH   8  11
ATOM     11  C   UNL     1      11.922  -7.431   3.533  1.00  0.00     0.109 C 
ATOM     12  C   UNL     1      13.450  -7.445   3.502  1.00  0.00     0.021 C 
BRANCH  11  13
ATOM     13  C   UNL     1      11.305  -6.982   4.873  1.00  0.00     0.204 C 
BRANCH  13  14
ATOM     14  N   UNL     1      10.681  -5.659   4.777  1.00  0.00    -0.340 N 
ATOM     15  C   UNL     1      10.436  -4.865   5.877  1.00  0.00     0.243 C 
ATOM     16  O   UNL     1      10.780  -5.187   7.013  1.00  0.00    -0.273 OA
ATOM     17  H   UNL     1      10.238  -5.400   3.891  1.00  0.00     0.164 HD
BRANCH  15  18
ATOM     18  C   UNL     1       9.586  -3.611   5.558  1.00  0.00     0.171 C 
BRANCH  18  19
ATOM     19  N   UNL     1       9.156  -3.059   6.841  1.00  0.00    -0.343 N 
ATOM     20  C   UNL     1       7.878  -2.573   7.034  1.00  0.00     0.242 CG0
ATOM     21  O   UNL     1       7.085  -2.459   6.102  1.00  0.00    -0.273 OA
ATOM     22  H   UNL     1       9.813  -3.025   7.613  1.00  0.00     0.164 HD
ATOM     23  G   UNL     1       7.585  -2.105   8.475  1.00  0.00     0.000 G0
ENDBRANCH  18  19
BRANCH  18  24
ATOM     24  C   UNL     1      10.403  -2.593   4.754  1.00  0.00     0.038 C 
BRANCH  24  25
ATOM     25  C   UNL     1      11.693  -2.109   5.449  1.00  0.00    -0.015 C 
ATOM     26  C   UNL     1      11.701  -0.598   5.682  1.00  0.00     0.007 C 
ATOM     27  C   UNL     1      12.910  -2.507   4.610  1.00  0.00     0.007 C 
ENDBRANCH  24  25
ENDBRANCH  18  24
ENDBRANCH  15  18
ENDBRANCH  13  14
BRANCH  13  28
ATOM     28  C   UNL     1      10.240  -7.949   5.400  1.00  0.00     0.327 C 
ATOM     29  O   UNL     1       9.364  -8.488   4.742  1.00  0.00    -0.250 OA
BRANCH  28  30
ATOM     30  O   UNL     1      10.268  -8.085   6.742  1.00  0.00    -0.480 OA
ATOM     31  H   UNL     1      11.190  -8.352   6.938  1.00  0.00     0.296 HD
ENDBRANCH  28  30
ENDBRANCH  13  28
ENDBRANCH  11  13
ENDBRANCH   8  11
ENDBRANCH   6   7
BRANCH   6  32
ATOM     32  C   UNL     1       8.354  -6.994   0.236  1.00  0.00     0.037 C 
BRANCH  32  33
ATOM     33  C   UNL     1       8.895  -8.282  -0.399  1.00  0.00     0.026 C 
BRANCH  33  34
ATOM     34  C   UNL     1       8.311  -9.541   0.243  1.00  0.00     0.146 C 
BRANCH  34  35
ATOM     35  N   UNL     1       9.120  -9.897   1.400  1.00  0.00    -0.254 NA
ATOM     36  C   UNL     1       8.693 -10.810   2.191  1.00  0.00     0.185 C 
ATOM     37  N   UNL     1       9.433 -11.149   3.258  1.00  0.00    -0.370 N 
ATOM     38  N   UNL     1       7.557 -11.525   2.120  1.00  0.00    -0.370 N 
ATOM     39  H   UNL     1      10.311 -10.660   3.376  1.00  0.00     0.159 HD
ATOM     40  H   UNL     1       9.256 -11.963   3.821  1.00  0.00     0.159 HD
ATOM     41  H   UNL     1       7.266 -12.118   2.880  1.00  0.00     0.159 HD
ATOM     42  H   UNL     1       6.895 -11.365   1.376  1.00  0.00     0.159 HD
ENDBRANCH  34  35
ENDBRANCH  33  34
ENDBRANCH  32  33
ENDBRANCH   6  32
ENDBRANCH   4   6
ENDBRANCH   1   2
BRANCH   1  43
ATOM     43  C   UNL     1       7.476  -2.065  -0.047  1.00  0.00     0.102 C 
ATOM     44  C   UNL     1       6.045  -2.039   0.514  1.00  0.00     0.020 C 
BRANCH  43  45
ATOM     45  C   UNL     1       7.637  -2.933  -1.299  1.00  0.00     0.225 C 
ATOM     46  O   UNL     1       8.652  -2.932  -1.990  1.00  0.00    -0.275 OA
ATOM     47  N   UNL     1       6.526  -3.657  -1.664  1.00  0.00    -0.342 N 
ATOM     48  H   UNL     1       5.762  -3.765  -1.011  1.00  0.00     0.164 HD
BRANCH  47  49
ATOM     49  C   UNL     1       6.545  -4.559  -2.820  1.00  0.00     0.192 C 
BRANCH  49  50
ATOM     50  C   UNL     1       5.564  -4.056  -3.882  1.00  0.00     0.047 C 
BRANCH  50  51
ATOM     51  C   UNL     1       5.156  -5.159  -4.867  1.00  0.00     0.103 C 
BRANCH  51  52
ATOM     52  C   UNL     1       6.021  -5.151  -6.126  1.00  0.00     0.226 C 
ATOM     53  O   UNL     1       7.171  -4.710  -6.074  1.00  0.00    -0.275 OA
BRANCH  52  54
ATOM     54  N   UNL     1       5.458  -5.734  -7.277  1.00  0.00    -0.311 N 
ATOM     55  C   UNL     1       4.264  -6.585  -7.187  1.00  0.00     0.153 C 
BRANCH  54  56
ATOM     56  C   UNL     1       6.010  -5.519  -8.551  1.00  0.00     0.102 C 
ATOM     57  C   UNL     1       5.732  -4.470  -9.342  1.00  0.00     0.043 C 
BRANCH  56  58
ATOM     58  C   UNL     1       7.032  -6.473  -9.124  1.00  0.00     0.268 C 
ATOM     59  O   UNL     1       7.627  -7.301  -8.448  1.00  0.00    -0.268 OA
ATOM     60  N   UNL     1       7.173  -6.360 -10.486  1.00  0.00    -0.339 N 
ATOM     61  H   UNL     1       6.650  -5.641 -10.972  1.00  0.00     0.164 HD
BRANCH  60  62
ATOM     62  C   UNL     1       8.064  -7.230 -11.252  1.00  0.00     0.168 CG0
ATOM     63  C   UNL     1       9.431  -6.585 -11.439  1.00  0.00     0.041 C 
ATOM     64  G   UNL     1       7.422  -7.554 -12.617  1.00  0.00     0.000 G0
ENDBRANCH  60  62
ENDBRANCH  56  58
ENDBRANCH  54  56
ENDBRANCH  52  54
ENDBRANCH  51  52
ENDBRANCH  50  51
ENDBRANCH  49  50
BRANCH  49  65
ATOM     65  C   UNL     1       6.172  -5.996  -2.423  1.00  0.00     0.326 C 
ATOM     66  O   UNL     1       5.412  -6.309  -1.518  1.00  0.00    -0.250 OA
BRANCH  65  67
ATOM     67  O   UNL     1       6.807  -6.958  -3.129  1.00  0.00    -0.480 OA
ATOM     68  H   UNL     1       6.577  -7.785  -2.651  1.00  0.00     0.296 HD
ENDBRANCH  65  67
ENDBRANCH  49  65
ENDBRANCH  47  49
ENDBRANCH  43  45
ENDBRANCH   1  43
BRANCH   1  69
ATOM     69  C   UNL     1       9.752  -1.501   1.181  1.00  0.00    -0.001 C 
ATOM     70  C   UNL     1      11.052  -1.829   1.075  1.00  0.00     0.001 C 
BRANCH  70  71
ATOM     71  C   UNL     1      12.200  -0.931   1.212  1.00  0.00    -0.055 C 
ATOM     72  C   UNL     1      12.118   0.059   2.126  1.00  0.00    -0.018 C 
ATOM     73  C   UNL     1      13.396  -1.180   0.330  1.00  0.00     0.044 C 
BRANCH  72  74
ATOM     74  C   UNL     1      13.142   1.125   2.486  1.00  0.00     0.038 C 
ATOM     75  C   UNL     1      14.261   0.432   3.271  1.00  0.00     0.015 C 
BRANCH  74  76
ATOM     76  C   UNL     1      12.421   2.274   3.252  1.00  0.00     0.128 C 
BRANCH  76  77
ATOM     77  O   UNL     1      13.171   3.493   3.128  1.00  0.00    -0.381 OA
ATOM     78  C   UNL     1      12.727   4.528   3.995  1.00  0.00     0.195 C 
ENDBRANCH  76  77
BRANCH  76  79
ATOM     79  C   UNL     1      10.929   2.446   2.870  1.00  0.00     0.068 C 
BRANCH  79  80
ATOM     80  C   UNL     1       9.888   2.030   3.880  1.00  0.00    -0.045 A 
ATOM     81  C   UNL     1       9.047   0.935   3.641  1.00  0.00     0.004 A 
ATOM     82  C   UNL     1       9.727   2.756   5.070  1.00  0.00     0.004 A 
ATOM     83  C   UNL     1       8.076   0.565   4.575  1.00  0.00     0.000 A 
ATOM     84  C   UNL     1       8.756   2.385   6.003  1.00  0.00     0.000 A 
ATOM     85  C   UNL     1       7.932   1.290   5.756  1.00  0.00     0.000 A 
ENDBRANCH  79  80
ENDBRANCH  76  79
ENDBRANCH  74  76
ENDBRANCH  72  74
ENDBRANCH  70  71
ENDBRANCH   1  69
TORSDOF 17
ENDMDL
MODEL 22
REMARK VINA RESULT:    -7.324      2.612      5.150
REMARK INTER + INTRA:         -27.550
REMARK INTER:                 -21.238
REMARK INTRA:                  -6.312
REMARK UNBOUND:                -5.667
REMARK SMILES C=C1C(=O)N[C@H](C)C(=O)N[C@@H](CC(C)C)C(=O)N[C@@H](C(=O)O)[C@H](C)C(=O)N[C@@H](CCCN=C(N)N)C(=O)N[C@@H](/C=C/C(C)=C/[C@H](C)[C@H](Cc2ccccc2)OC)[C@H](C)C(=O)N[C@@H](C(=O)O)CCC(=O)N1C
REMARK SMILES IDX 39 1 38 2 37 3 36 4 28 6 27 7 25 8 26 9 23 11 24 12 19 13
REMARK SMILES IDX 18 14 16 15 17 16 11 18 10 19 8 20 9 21 12 24 13 25 14 26
REMARK SMILES IDX 15 27 20 28 21 29 22 30 29 32 30 33 31 34 32 35 33 36 34 37
REMARK SMILES IDX 35 38 57 43 58 44 59 45 60 46 61 47 62 49 66 50 67 51 68 52
REMARK SMILES IDX 69 53 70 54 71 55 2 56 1 57 3 58 4 59 5 60 6 62 7 63 63 65
REMARK SMILES IDX 64 66 65 67 40 69 41 70 42 71 44 72 43 73 45 74 46 75 47 76
REMARK SMILES IDX 55 77 56 78 48 79 49 80 50 81 54 82 51 83 53 84 52 85
REMARK H PARENT 38 5 27 10 18 17 10 22 22 31 34 39 34 40 35 41 35 42 61 48
REMARK H PARENT 5 61 65 68
REMARK Flexibility Score:  369.900
ROOT
ATOM      1  C   UNL     1       9.341  -2.137  -0.276  1.00  0.00     0.117 C 
ENDROOT
BRANCH   1   2
ATOM      2  N   UNL     1       8.262  -1.927   0.691  1.00  0.00    -0.347 N 
ATOM      3  O   UNL     1       8.952   0.112   1.490  1.00  0.00    -0.273 OA
ATOM      4  C   UNL     1       8.104  -0.773   1.434  1.00  0.00     0.243 C 
ATOM      5  H   UNL     1       7.552  -2.635   0.802  1.00  0.00     0.164 HD
BRANCH   4   6
ATOM      6  C   UNL     1       6.832  -0.771   2.319  1.00  0.00     0.171 C 
BRANCH   6   7
ATOM      7  N   UNL     1       6.939  -1.791   3.375  1.00  0.00    -0.344 N 
ATOM      8  C   UNL     1       6.543  -3.090   3.140  1.00  0.00     0.226 C 
ATOM      9  O   UNL     1       6.070  -3.452   2.069  1.00  0.00    -0.275 OA
ATOM     10  H   UNL     1       7.262  -1.514   4.294  1.00  0.00     0.164 HD
BRANCH   8  11
ATOM     11  C   UNL     1       6.767  -4.033   4.309  1.00  0.00     0.109 C 
ATOM     12  C   UNL     1       7.913  -4.995   3.996  1.00  0.00     0.021 C 
BRANCH  11  13
ATOM     13  C   UNL     1       6.938  -3.222   5.608  1.00  0.00     0.204 C 
BRANCH  13  14
ATOM     14  N   UNL     1       6.146  -3.774   6.712  1.00  0.00    -0.340 N 
ATOM     15  C   UNL     1       4.771  -3.696   6.758  1.00  0.00     0.243 C 
ATOM     16  O   UNL     1       4.106  -3.210   5.845  1.00  0.00    -0.273 OA
ATOM     17  H   UNL     1       6.639  -4.052   7.565  1.00  0.00     0.164 HD
BRANCH  15  18
ATOM     18  C   UNL     1       4.171  -4.158   8.109  1.00  0.00     0.171 C 
BRANCH  18  19
ATOM     19  N   UNL     1       4.826  -3.369   9.150  1.00  0.00    -0.343 N 
ATOM     20  C   UNL     1       5.230  -3.932  10.345  1.00  0.00     0.242 CG0
ATOM     21  O   UNL     1       4.939  -5.088  10.643  1.00  0.00    -0.273 OA
ATOM     22  H   UNL     1       4.985  -2.380   8.998  1.00  0.00     0.164 HD
ATOM     23  G   UNL     1       5.973  -2.962  11.287  1.00  0.00     0.000 G0
ENDBRANCH  18  19
BRANCH  18  24
ATOM     24  C   UNL     1       2.650  -3.956   8.123  1.00  0.00     0.038 C 
BRANCH  24  25
ATOM     25  C   UNL     1       2.182  -2.641   8.782  1.00  0.00    -0.015 C 
ATOM     26  C   UNL     1       1.257  -2.882   9.976  1.00  0.00     0.007 C 
ATOM     27  C   UNL     1       1.467  -1.772   7.744  1.00  0.00     0.007 C 
ENDBRANCH  24  25
ENDBRANCH  18  24
ENDBRANCH  15  18
ENDBRANCH  13  14
BRANCH  13  28
ATOM     28  C   UNL     1       8.391  -3.146   6.086  1.00  0.00     0.327 C 
ATOM     29  O   UNL     1       9.295  -2.518   5.556  1.00  0.00    -0.250 OA
BRANCH  28  30
ATOM     30  O   UNL     1       8.647  -3.960   7.131  1.00  0.00    -0.480 OA
ATOM     31  H   UNL     1       9.624  -4.030   7.148  1.00  0.00     0.296 HD
ENDBRANCH  28  30
ENDBRANCH  13  28
ENDBRANCH  11  13
ENDBRANCH   8  11
ENDBRANCH   6   7
BRANCH   6  32
ATOM     32  C   UNL     1       6.641   0.624   2.924  1.00  0.00     0.037 C 
BRANCH  32  33
ATOM     33  C   UNL     1       5.185   1.101   2.832  1.00  0.00     0.026 C 
BRANCH  33  34
ATOM     34  C   UNL     1       4.367   0.293   1.825  1.00  0.00     0.146 C 
BRANCH  34  35
ATOM     35  N   UNL     1       3.242  -0.320   2.517  1.00  0.00    -0.254 NA
ATOM     36  C   UNL     1       2.932  -1.530   2.234  1.00  0.00     0.185 C 
ATOM     37  N   UNL     1       1.900  -2.106   2.870  1.00  0.00    -0.370 N 
ATOM     38  N   UNL     1       3.509  -2.366   1.353  1.00  0.00    -0.370 N 
ATOM     39  H   UNL     1       1.419  -1.543   3.559  1.00  0.00     0.159 HD
ATOM     40  H   UNL     1       1.705  -3.092   2.834  1.00  0.00     0.159 HD
ATOM     41  H   UNL     1       3.086  -3.250   1.119  1.00  0.00     0.159 HD
ATOM     42  H   UNL     1       4.288  -2.061   0.791  1.00  0.00     0.159 HD
ENDBRANCH  34  35
ENDBRANCH  33  34
ENDBRANCH  32  33
ENDBRANCH   6  32
ENDBRANCH   4   6
ENDBRANCH   1   2
BRANCH   1  43
ATOM     43  C   UNL     1       8.727  -2.716  -1.583  1.00  0.00     0.102 C 
ATOM     44  C   UNL     1       7.982  -1.667  -2.426  1.00  0.00     0.020 C 
BRANCH  43  45
ATOM     45  C   UNL     1       7.908  -3.978  -1.295  1.00  0.00     0.225 C 
ATOM     46  O   UNL     1       8.250  -4.826  -0.476  1.00  0.00    -0.275 OA
ATOM     47  N   UNL     1       6.796  -4.156  -2.086  1.00  0.00    -0.342 N 
ATOM     48  H   UNL     1       6.449  -3.386  -2.641  1.00  0.00     0.164 HD
BRANCH  47  49
ATOM     49  C   UNL     1       5.899  -5.300  -1.899  1.00  0.00     0.192 C 
BRANCH  49  50
ATOM     50  C   UNL     1       5.368  -5.765  -3.258  1.00  0.00     0.047 C 
BRANCH  50  51
ATOM     51  C   UNL     1       5.910  -4.915  -4.416  1.00  0.00     0.103 C 
BRANCH  51  52
ATOM     52  C   UNL     1       5.004  -4.976  -5.644  1.00  0.00     0.226 C 
ATOM     53  O   UNL     1       3.807  -4.705  -5.534  1.00  0.00    -0.275 OA
BRANCH  52  54
ATOM     54  N   UNL     1       5.630  -5.273  -6.870  1.00  0.00    -0.311 N 
ATOM     55  C   UNL     1       7.078  -5.099  -7.041  1.00  0.00     0.153 C 
BRANCH  54  56
ATOM     56  C   UNL     1       4.897  -5.750  -7.969  1.00  0.00     0.102 C 
ATOM     57  C   UNL     1       4.206  -6.902  -7.991  1.00  0.00     0.043 C 
BRANCH  56  58
ATOM     58  C   UNL     1       4.795  -4.942  -9.242  1.00  0.00     0.268 C 
ATOM     59  O   UNL     1       4.931  -3.727  -9.276  1.00  0.00    -0.268 OA
ATOM     60  N   UNL     1       4.600  -5.718 -10.360  1.00  0.00    -0.339 N 
ATOM     61  H   UNL     1       4.487  -6.718 -10.245  1.00  0.00     0.164 HD
BRANCH  60  62
ATOM     62  C   UNL     1       4.535  -5.146 -11.704  1.00  0.00     0.168 CG0
ATOM     63  C   UNL     1       3.132  -4.642 -12.016  1.00  0.00     0.041 C 
ATOM     64  G   UNL     1       4.980  -6.201 -12.737  1.00  0.00     0.000 G0
ENDBRANCH  60  62
ENDBRANCH  56  58
ENDBRANCH  54  56
ENDBRANCH  52  54
ENDBRANCH  51  52
ENDBRANCH  50  51
ENDBRANCH  49  50
BRANCH  49  65
ATOM     65  C   UNL     1       4.715  -4.948  -0.985  1.00  0.00     0.326 C 
ATOM     66  O   UNL     1       4.182  -5.707  -0.189  1.00  0.00    -0.250 OA
BRANCH  65  67
ATOM     67  O   UNL     1       4.225  -3.700  -1.151  1.00  0.00    -0.480 OA
ATOM     68  H   UNL     1       3.550  -3.808  -1.855  1.00  0.00     0.296 HD
ENDBRANCH  65  67
ENDBRANCH  49  65
ENDBRANCH  47  49
ENDBRANCH  43  45
ENDBRANCH   1  43
BRANCH   1  69
ATOM     69  C   UNL     1      10.410  -2.934   0.448  1.00  0.00    -0.001 C 
ATOM     70  C   UNL     1      11.373  -3.695  -0.100  1.00  0.00     0.001 C 
BRANCH  70  71
ATOM     71  C   UNL     1      12.413  -4.444   0.609  1.00  0.00    -0.055 C 
ATOM     72  C   UNL     1      12.150  -5.726   0.938  1.00  0.00    -0.018 C 
ATOM     73  C   UNL     1      13.706  -3.732   0.914  1.00  0.00     0.044 C 
BRANCH  72  74
ATOM     74  C   UNL     1      13.030  -6.734   1.664  1.00  0.00     0.038 C 
ATOM     75  C   UNL     1      13.835  -7.484   0.596  1.00  0.00     0.015 C 
BRANCH  74  76
ATOM     76  C   UNL     1      12.127  -7.637   2.555  1.00  0.00     0.128 C 
BRANCH  76  77
ATOM     77  O   UNL     1      12.484  -7.475   3.938  1.00  0.00    -0.381 OA
ATOM     78  C   UNL     1      13.799  -7.921   4.244  1.00  0.00     0.195 C 
ENDBRANCH  76  77
BRANCH  76  79
ATOM     79  C   UNL     1      10.609  -7.454   2.302  1.00  0.00     0.068 C 
BRANCH  79  80
ATOM     80  C   UNL     1       9.807  -8.669   1.905  1.00  0.00    -0.045 A 
ATOM     81  C   UNL     1       9.653  -9.751   2.783  1.00  0.00     0.004 A 
ATOM     82  C   UNL     1       9.223  -8.746   0.632  1.00  0.00     0.004 A 
ATOM     83  C   UNL     1       8.921 -10.878   2.403  1.00  0.00     0.000 A 
ATOM     84  C   UNL     1       8.492  -9.874   0.253  1.00  0.00     0.000 A 
ATOM     85  C   UNL     1       8.340 -10.938   1.138  1.00  0.00     0.000 A 
ENDBRANCH  79  80
ENDBRANCH  76  79
ENDBRANCH  74  76
ENDBRANCH  72  74
ENDBRANCH  70  71
ENDBRANCH   1  69
TORSDOF 17
ENDMDL
MODEL 23
REMARK VINA RESULT:    -7.302      5.351     10.011
REMARK INTER + INTRA:         -27.485
REMARK INTER:                 -17.606
REMARK INTRA:                  -9.878
REMARK UNBOUND:                -5.667
REMARK SMILES C=C1C(=O)N[C@H](C)C(=O)N[C@@H](CC(C)C)C(=O)N[C@@H](C(=O)O)[C@H](C)C(=O)N[C@@H](CCCN=C(N)N)C(=O)N[C@@H](/C=C/C(C)=C/[C@H](C)[C@H](Cc2ccccc2)OC)[C@H](C)C(=O)N[C@@H](C(=O)O)CCC(=O)N1C
REMARK SMILES IDX 39 1 38 2 37 3 36 4 28 6 27 7 25 8 26 9 23 11 24 12 19 13
REMARK SMILES IDX 18 14 16 15 17 16 11 18 10 19 8 20 9 21 12 24 13 25 14 26
REMARK SMILES IDX 15 27 20 28 21 29 22 30 29 32 30 33 31 34 32 35 33 36 34 37
REMARK SMILES IDX 35 38 57 43 58 44 59 45 60 46 61 47 62 49 66 50 67 51 68 52
REMARK SMILES IDX 69 53 70 54 71 55 2 56 1 57 3 58 4 59 5 60 6 62 7 63 63 65
REMARK SMILES IDX 64 66 65 67 40 69 41 70 42 71 44 72 43 73 45 74 46 75 47 76
REMARK SMILES IDX 55 77 56 78 48 79 49 80 50 81 54 82 51 83 53 84 52 85
REMARK H PARENT 38 5 27 10 18 17 10 22 22 31 34 39 34 40 35 41 35 42 61 48
REMARK H PARENT 5 61 65 68
REMARK Flexibility Score:  369.900
ROOT
ATOM      1  C   UNL     1       8.552  -3.850   4.213  1.00  0.00     0.117 C 
ENDROOT
BRANCH   1   2
ATOM      2  N   UNL     1       7.547  -3.782   3.152  1.00  0.00    -0.347 N 
ATOM      3  O   UNL     1       6.064  -2.389   4.215  1.00  0.00    -0.273 OA
ATOM      4  C   UNL     1       6.423  -2.981   3.202  1.00  0.00     0.243 C 
ATOM      5  H   UNL     1       7.689  -4.307   2.302  1.00  0.00     0.164 HD
BRANCH   4   6
ATOM      6  C   UNL     1       5.565  -3.029   1.912  1.00  0.00     0.171 C 
BRANCH   6   7
ATOM      7  N   UNL     1       6.339  -2.536   0.762  1.00  0.00    -0.344 N 
ATOM      8  C   UNL     1       5.711  -2.222  -0.425  1.00  0.00     0.226 C 
ATOM      9  O   UNL     1       4.504  -2.356  -0.589  1.00  0.00    -0.275 OA
ATOM     10  H   UNL     1       7.346  -2.476   0.837  1.00  0.00     0.164 HD
BRANCH   8  11
ATOM     11  C   UNL     1       6.637  -1.675  -1.497  1.00  0.00     0.109 C 
ATOM     12  C   UNL     1       7.515  -0.565  -0.917  1.00  0.00     0.021 C 
BRANCH  11  13
ATOM     13  C   UNL     1       7.410  -2.833  -2.159  1.00  0.00     0.204 C 
BRANCH  13  14
ATOM     14  N   UNL     1       8.224  -3.577  -1.192  1.00  0.00    -0.340 N 
ATOM     15  C   UNL     1       9.575  -3.359  -1.027  1.00  0.00     0.243 C 
ATOM     16  O   UNL     1      10.182  -2.482  -1.638  1.00  0.00    -0.273 OA
ATOM     17  H   UNL     1       7.819  -4.415  -0.767  1.00  0.00     0.164 HD
BRANCH  15  18
ATOM     18  C   UNL     1      10.261  -4.399  -0.107  1.00  0.00     0.171 C 
BRANCH  18  19
ATOM     19  N   UNL     1      11.097  -3.645   0.825  1.00  0.00    -0.343 N 
ATOM     20  C   UNL     1      12.458  -3.505   0.634  1.00  0.00     0.242 CG0
ATOM     21  O   UNL     1      13.050  -4.117  -0.252  1.00  0.00    -0.273 OA
ATOM     22  H   UNL     1      10.672  -3.216   1.639  1.00  0.00     0.164 HD
ATOM     23  G   UNL     1      13.159  -2.610   1.677  1.00  0.00     0.000 G0
ENDBRANCH  18  19
BRANCH  18  24
ATOM     24  C   UNL     1       9.215  -5.242   0.632  1.00  0.00     0.038 C 
BRANCH  24  25
ATOM     25  C   UNL     1       9.407  -6.768   0.500  1.00  0.00    -0.015 C 
ATOM     26  C   UNL     1      10.846  -7.148   0.151  1.00  0.00     0.007 C 
ATOM     27  C   UNL     1       8.455  -7.316  -0.566  1.00  0.00     0.007 C 
ENDBRANCH  24  25
ENDBRANCH  18  24
ENDBRANCH  15  18
ENDBRANCH  13  14
BRANCH  13  28
ATOM     28  C   UNL     1       6.498  -3.846  -2.858  1.00  0.00     0.327 C 
ATOM     29  O   UNL     1       5.526  -3.585  -3.550  1.00  0.00    -0.250 OA
BRANCH  28  30
ATOM     30  O   UNL     1       6.792  -5.125  -2.548  1.00  0.00    -0.480 OA
ATOM     31  H   UNL     1       6.044  -5.640  -2.915  1.00  0.00     0.296 HD
ENDBRANCH  28  30
ENDBRANCH  13  28
ENDBRANCH  11  13
ENDBRANCH   8  11
ENDBRANCH   6   7
BRANCH   6  32
ATOM     32  C   UNL     1       5.091  -4.467   1.676  1.00  0.00     0.037 C 
BRANCH  32  33
ATOM     33  C   UNL     1       3.599  -4.645   1.992  1.00  0.00     0.026 C 
BRANCH  33  34
ATOM     34  C   UNL     1       2.816  -3.336   1.874  1.00  0.00     0.146 C 
BRANCH  34  35
ATOM     35  N   UNL     1       2.182  -3.051   3.154  1.00  0.00    -0.254 NA
ATOM     36  C   UNL     1       2.514  -1.985   3.781  1.00  0.00     0.185 C 
ATOM     37  N   UNL     1       1.932  -1.710   4.958  1.00  0.00    -0.370 N 
ATOM     38  N   UNL     1       3.404  -1.040   3.428  1.00  0.00    -0.370 N 
ATOM     39  H   UNL     1       1.240  -2.371   5.288  1.00  0.00     0.159 HD
ATOM     40  H   UNL     1       2.007  -0.821   5.422  1.00  0.00     0.159 HD
ATOM     41  H   UNL     1       3.681  -0.318   4.073  1.00  0.00     0.159 HD
ATOM     42  H   UNL     1       3.930  -1.125   2.572  1.00  0.00     0.159 HD
ENDBRANCH  34  35
ENDBRANCH  33  34
ENDBRANCH  32  33
ENDBRANCH   6  32
ENDBRANCH   4   6
ENDBRANCH   1   2
BRANCH   1  43
ATOM     43  C   UNL     1       9.704  -2.863   3.867  1.00  0.00     0.102 C 
ATOM     44  C   UNL     1      10.591  -2.510   5.074  1.00  0.00     0.020 C 
BRANCH  43  45
ATOM     45  C   UNL     1       9.174  -1.643   3.108  1.00  0.00     0.225 C 
ATOM     46  O   UNL     1       9.181  -1.560   1.883  1.00  0.00    -0.275 OA
ATOM     47  N   UNL     1       8.768  -0.587   3.892  1.00  0.00    -0.342 N 
ATOM     48  H   UNL     1       8.626  -0.726   4.883  1.00  0.00     0.164 HD
BRANCH  47  49
ATOM     49  C   UNL     1       8.205   0.632   3.304  1.00  0.00     0.192 C 
BRANCH  49  50
ATOM     50  C   UNL     1       8.588   1.841   4.162  1.00  0.00     0.047 C 
BRANCH  50  51
ATOM     51  C   UNL     1      10.065   1.812   4.581  1.00  0.00     0.103 C 
BRANCH  51  52
ATOM     52  C   UNL     1      10.930   2.705   3.694  1.00  0.00     0.226 C 
ATOM     53  O   UNL     1      10.690   3.912   3.624  1.00  0.00    -0.275 OA
BRANCH  52  54
ATOM     54  N   UNL     1      12.020   2.086   3.055  1.00  0.00    -0.311 N 
ATOM     55  C   UNL     1      13.385   2.608   3.212  1.00  0.00     0.153 C 
BRANCH  54  56
ATOM     56  C   UNL     1      11.848   0.947   2.251  1.00  0.00     0.102 C 
ATOM     57  C   UNL     1      11.112   0.903   1.129  1.00  0.00     0.043 C 
BRANCH  56  58
ATOM     58  C   UNL     1      12.545  -0.351   2.586  1.00  0.00     0.268 C 
ATOM     59  O   UNL     1      12.998  -0.601   3.695  1.00  0.00    -0.268 OA
ATOM     60  N   UNL     1      12.560  -1.242   1.540  1.00  0.00    -0.339 N 
ATOM     61  H   UNL     1      12.174  -0.953   0.649  1.00  0.00     0.164 HD
BRANCH  60  62
ATOM     62  C   UNL     1      13.130  -2.583   1.666  1.00  0.00     0.168 CG0
ATOM     63  C   UNL     1      14.639  -2.558   1.454  1.00  0.00     0.041 C 
ATOM     64  G   UNL     1      12.452  -3.530   0.655  1.00  0.00     0.000 G0
ENDBRANCH  60  62
ENDBRANCH  56  58
ENDBRANCH  54  56
ENDBRANCH  52  54
ENDBRANCH  51  52
ENDBRANCH  50  51
ENDBRANCH  49  50
BRANCH  49  65
ATOM     65  C   UNL     1       6.675   0.552   3.192  1.00  0.00     0.326 C 
ATOM     66  O   UNL     1       6.042   0.458   2.150  1.00  0.00    -0.250 OA
BRANCH  65  67
ATOM     67  O   UNL     1       6.017   0.654   4.368  1.00  0.00    -0.480 OA
ATOM     68  H   UNL     1       6.671   1.081   4.963  1.00  0.00     0.296 HD
ENDBRANCH  65  67
ENDBRANCH  49  65
ENDBRANCH  47  49
ENDBRANCH  43  45
ENDBRANCH   1  43
BRANCH   1  69
ATOM     69  C   UNL     1       8.877  -5.321   4.396  1.00  0.00    -0.001 C 
ATOM     70  C   UNL     1       9.853  -6.023   3.793  1.00  0.00     0.001 C 
BRANCH  70  71
ATOM     71  C   UNL     1      10.170  -7.439   3.994  1.00  0.00    -0.055 C 
ATOM     72  C   UNL     1      11.457  -7.820   3.847  1.00  0.00    -0.018 C 
ATOM     73  C   UNL     1       9.041  -8.367   4.358  1.00  0.00     0.044 C 
BRANCH  72  74
ATOM     74  C   UNL     1      12.074  -9.204   3.995  1.00  0.00     0.038 C 
ATOM     75  C   UNL     1      13.199  -9.089   5.030  1.00  0.00     0.015 C 
BRANCH  74  76
ATOM     76  C   UNL     1      12.526  -9.703   2.591  1.00  0.00     0.128 C 
BRANCH  76  77
ATOM     77  O   UNL     1      13.962  -9.735   2.521  1.00  0.00    -0.381 OA
ATOM     78  C   UNL     1      14.474 -10.857   1.814  1.00  0.00     0.195 C 
ENDBRANCH  76  77
BRANCH  76  79
ATOM     79  C   UNL     1      11.875 -11.041   2.159  1.00  0.00     0.068 C 
BRANCH  79  80
ATOM     80  C   UNL     1      10.421 -11.021   1.754  1.00  0.00    -0.045 A 
ATOM     81  C   UNL     1       9.431 -11.557   2.589  1.00  0.00     0.004 A 
ATOM     82  C   UNL     1      10.039 -10.487   0.514  1.00  0.00     0.004 A 
ATOM     83  C   UNL     1       8.090 -11.548   2.201  1.00  0.00     0.000 A 
ATOM     84  C   UNL     1       8.697 -10.478   0.127  1.00  0.00     0.000 A 
ATOM     85  C   UNL     1       7.723 -11.007   0.971  1.00  0.00     0.000 A 
ENDBRANCH  79  80
ENDBRANCH  76  79
ENDBRANCH  74  76
ENDBRANCH  72  74
ENDBRANCH  70  71
ENDBRANCH   1  69
TORSDOF 17
ENDMDL
MODEL 24
REMARK VINA RESULT:    -7.299      2.859      5.383
REMARK INTER + INTRA:         -27.474
REMARK INTER:                 -20.720
REMARK INTRA:                  -6.754
REMARK UNBOUND:                -5.667
REMARK SMILES C=C1C(=O)N[C@H](C)C(=O)N[C@@H](CC(C)C)C(=O)N[C@@H](C(=O)O)[C@H](C)C(=O)N[C@@H](CCCN=C(N)N)C(=O)N[C@@H](/C=C/C(C)=C/[C@H](C)[C@H](Cc2ccccc2)OC)[C@H](C)C(=O)N[C@@H](C(=O)O)CCC(=O)N1C
REMARK SMILES IDX 39 1 38 2 37 3 36 4 28 6 27 7 25 8 26 9 23 11 24 12 19 13
REMARK SMILES IDX 18 14 16 15 17 16 11 18 10 19 8 20 9 21 12 24 13 25 14 26
REMARK SMILES IDX 15 27 20 28 21 29 22 30 29 32 30 33 31 34 32 35 33 36 34 37
REMARK SMILES IDX 35 38 57 43 58 44 59 45 60 46 61 47 62 49 66 50 67 51 68 52
REMARK SMILES IDX 69 53 70 54 71 55 2 56 1 57 3 58 4 59 5 60 6 62 7 63 63 65
REMARK SMILES IDX 64 66 65 67 40 69 41 70 42 71 44 72 43 73 45 74 46 75 47 76
REMARK SMILES IDX 55 77 56 78 48 79 49 80 50 81 54 82 51 83 53 84 52 85
REMARK H PARENT 38 5 27 10 18 17 10 22 22 31 34 39 34 40 35 41 35 42 61 48
REMARK H PARENT 5 61 65 68
REMARK Flexibility Score:  369.900
ROOT
ATOM      1  C   UNL     1       9.517  -2.015  -0.853  1.00  0.00     0.117 C 
ENDROOT
BRANCH   1   2
ATOM      2  N   UNL     1       8.822  -1.702   0.396  1.00  0.00    -0.347 N 
ATOM      3  O   UNL     1      10.018   0.176   0.957  1.00  0.00    -0.273 OA
ATOM      4  C   UNL     1       9.069  -0.575   1.157  1.00  0.00     0.243 C 
ATOM      5  H   UNL     1       8.080  -2.306   0.714  1.00  0.00     0.164 HD
BRANCH   4   6
ATOM      6  C   UNL     1       8.136  -0.437   2.386  1.00  0.00     0.171 C 
BRANCH   6   7
ATOM      7  N   UNL     1       8.327   0.871   3.033  1.00  0.00    -0.344 N 
ATOM      8  C   UNL     1       9.094   0.986   4.172  1.00  0.00     0.226 C 
ATOM      9  O   UNL     1       9.628   0.022   4.709  1.00  0.00    -0.275 OA
ATOM     10  H   UNL     1       7.848   1.679   2.657  1.00  0.00     0.164 HD
BRANCH   8  11
ATOM     11  C   UNL     1       9.241   2.407   4.687  1.00  0.00     0.109 C 
ATOM     12  C   UNL     1       8.314   2.632   5.882  1.00  0.00     0.021 C 
BRANCH  11  13
ATOM     13  C   UNL     1      10.728   2.715   4.953  1.00  0.00     0.204 C 
BRANCH  13  14
ATOM     14  N   UNL     1      11.604   2.125   3.936  1.00  0.00    -0.340 N 
ATOM     15  C   UNL     1      12.751   1.429   4.249  1.00  0.00     0.243 C 
ATOM     16  O   UNL     1      13.089   1.201   5.409  1.00  0.00    -0.273 OA
ATOM     17  H   UNL     1      11.465   2.405   2.961  1.00  0.00     0.164 HD
BRANCH  15  18
ATOM     18  C   UNL     1      13.620   1.082   3.015  1.00  0.00     0.171 C 
BRANCH  18  19
ATOM     19  N   UNL     1      14.888   1.789   3.183  1.00  0.00    -0.343 N 
ATOM     20  C   UNL     1      14.961   3.169   3.163  1.00  0.00     0.242 CG0
ATOM     21  O   UNL     1      13.988   3.860   2.870  1.00  0.00    -0.273 OA
ATOM     22  H   UNL     1      15.741   1.257   3.313  1.00  0.00     0.164 HD
ATOM     23  G   UNL     1      16.369   3.736   3.436  1.00  0.00     0.000 G0
ENDBRANCH  18  19
BRANCH  18  24
ATOM     24  C   UNL     1      13.832  -0.434   2.911  1.00  0.00     0.038 C 
BRANCH  24  25
ATOM     25  C   UNL     1      12.982  -1.130   1.827  1.00  0.00    -0.015 C 
ATOM     26  C   UNL     1      12.266  -2.374   2.353  1.00  0.00     0.007 C 
ATOM     27  C   UNL     1      13.873  -1.512   0.641  1.00  0.00     0.007 C 
ENDBRANCH  24  25
ENDBRANCH  18  24
ENDBRANCH  15  18
ENDBRANCH  13  14
BRANCH  13  28
ATOM     28  C   UNL     1      11.034   4.215   5.001  1.00  0.00     0.327 C 
ATOM     29  O   UNL     1      10.940   5.002   4.072  1.00  0.00    -0.250 OA
BRANCH  28  30
ATOM     30  O   UNL     1      11.554   4.611   6.181  1.00  0.00    -0.480 OA
ATOM     31  H   UNL     1      11.595   3.790   6.714  1.00  0.00     0.296 HD
ENDBRANCH  28  30
ENDBRANCH  13  28
ENDBRANCH  11  13
ENDBRANCH   8  11
ENDBRANCH   6   7
BRANCH   6  32
ATOM     32  C   UNL     1       6.682  -0.618   1.937  1.00  0.00     0.037 C 
BRANCH  32  33
ATOM     33  C   UNL     1       5.757   0.460   2.521  1.00  0.00     0.026 C 
BRANCH  33  34
ATOM     34  C   UNL     1       4.515   0.693   1.660  1.00  0.00     0.146 C 
BRANCH  34  35
ATOM     35  N   UNL     1       4.333  -0.450   0.777  1.00  0.00    -0.254 NA
ATOM     36  C   UNL     1       3.432  -1.313   1.067  1.00  0.00     0.185 C 
ATOM     37  N   UNL     1       3.252  -2.369   0.258  1.00  0.00    -0.370 N 
ATOM     38  N   UNL     1       2.587  -1.333   2.113  1.00  0.00    -0.370 N 
ATOM     39  H   UNL     1       3.846  -2.420  -0.560  1.00  0.00     0.159 HD
ATOM     40  H   UNL     1       2.462  -2.988   0.319  1.00  0.00     0.159 HD
ATOM     41  H   UNL     1       2.017  -2.140   2.307  1.00  0.00     0.159 HD
ATOM     42  H   UNL     1       2.620  -0.608   2.813  1.00  0.00     0.159 HD
ENDBRANCH  34  35
ENDBRANCH  33  34
ENDBRANCH  32  33
ENDBRANCH   6  32
ENDBRANCH   4   6
ENDBRANCH   1   2
BRANCH   1  43
ATOM     43  C   UNL     1       8.475  -2.032  -2.009  1.00  0.00     0.102 C 
ATOM     44  C   UNL     1       7.552  -0.802  -2.019  1.00  0.00     0.020 C 
BRANCH  43  45
ATOM     45  C   UNL     1       7.729  -3.369  -2.056  1.00  0.00     0.225 C 
ATOM     46  O   UNL     1       7.827  -4.224  -1.180  1.00  0.00    -0.275 OA
ATOM     47  N   UNL     1       7.002  -3.601  -3.201  1.00  0.00    -0.342 N 
ATOM     48  H   UNL     1       6.809  -2.839  -3.835  1.00  0.00     0.164 HD
BRANCH  47  49
ATOM     49  C   UNL     1       6.209  -4.823  -3.370  1.00  0.00     0.192 C 
BRANCH  49  50
ATOM     50  C   UNL     1       5.353  -4.709  -4.634  1.00  0.00     0.047 C 
BRANCH  50  51
ATOM     51  C   UNL     1       5.683  -5.801  -5.661  1.00  0.00     0.103 C 
BRANCH  51  52
ATOM     52  C   UNL     1       6.641  -5.301  -6.741  1.00  0.00     0.226 C 
ATOM     53  O   UNL     1       7.495  -4.460  -6.456  1.00  0.00    -0.275 OA
BRANCH  52  54
ATOM     54  N   UNL     1       6.531  -5.908  -8.006  1.00  0.00    -0.311 N 
ATOM     55  C   UNL     1       7.522  -6.891  -8.462  1.00  0.00     0.153 C 
BRANCH  54  56
ATOM     56  C   UNL     1       5.470  -5.602  -8.875  1.00  0.00     0.102 C 
ATOM     57  C   UNL     1       5.016  -4.363  -9.126  1.00  0.00     0.043 C 
BRANCH  56  58
ATOM     58  C   UNL     1       4.767  -6.689  -9.653  1.00  0.00     0.268 C 
ATOM     59  O   UNL     1       4.180  -7.621  -9.120  1.00  0.00    -0.268 OA
ATOM     60  N   UNL     1       4.800  -6.488 -11.012  1.00  0.00    -0.339 N 
ATOM     61  H   UNL     1       5.317  -5.697 -11.375  1.00  0.00     0.164 HD
BRANCH  60  62
ATOM     62  C   UNL     1       4.128  -7.388 -11.949  1.00  0.00     0.168 CG0
ATOM     63  C   UNL     1       2.738  -6.872 -12.300  1.00  0.00     0.041 C 
ATOM     64  G   UNL     1       4.047  -8.802 -11.340  1.00  0.00     0.000 G0
ENDBRANCH  60  62
ENDBRANCH  56  58
ENDBRANCH  54  56
ENDBRANCH  52  54
ENDBRANCH  51  52
ENDBRANCH  50  51
ENDBRANCH  49  50
BRANCH  49  65
ATOM     65  C   UNL     1       5.297  -5.079  -2.160  1.00  0.00     0.326 C 
ATOM     66  O   UNL     1       4.561  -4.254  -1.637  1.00  0.00    -0.250 OA
BRANCH  65  67
ATOM     67  O   UNL     1       5.396  -6.319  -1.632  1.00  0.00    -0.480 OA
ATOM     68  H   UNL     1       5.578  -6.152  -0.682  1.00  0.00     0.296 HD
ENDBRANCH  65  67
ENDBRANCH  49  65
ENDBRANCH  47  49
ENDBRANCH  43  45
ENDBRANCH   1  43
BRANCH   1  69
ATOM     69  C   UNL     1      10.333  -3.265  -0.583  1.00  0.00    -0.001 C 
ATOM     70  C   UNL     1      11.534  -3.585  -1.098  1.00  0.00     0.001 C 
BRANCH  70  71
ATOM     71  C   UNL     1      12.322  -4.786  -0.812  1.00  0.00    -0.055 C 
ATOM     72  C   UNL     1      11.778  -5.714   0.003  1.00  0.00    -0.018 C 
ATOM     73  C   UNL     1      13.679  -4.904  -1.455  1.00  0.00     0.044 C 
BRANCH  72  74
ATOM     74  C   UNL     1      12.355  -7.044   0.468  1.00  0.00     0.038 C 
ATOM     75  C   UNL     1      11.683  -8.144  -0.363  1.00  0.00     0.015 C 
BRANCH  74  76
ATOM     76  C   UNL     1      12.148  -7.169   2.006  1.00  0.00     0.128 C 
BRANCH  76  77
ATOM     77  O   UNL     1      12.615  -5.978   2.662  1.00  0.00    -0.381 OA
ATOM     78  C   UNL     1      14.031  -5.899   2.763  1.00  0.00     0.195 C 
ENDBRANCH  76  77
BRANCH  76  79
ATOM     79  C   UNL     1      10.705  -7.554   2.418  1.00  0.00     0.068 C 
BRANCH  79  80
ATOM     80  C   UNL     1       9.769  -6.445   2.834  1.00  0.00    -0.045 A 
ATOM     81  C   UNL     1       9.014  -5.744   1.884  1.00  0.00     0.004 A 
ATOM     82  C   UNL     1       9.661  -6.079   4.184  1.00  0.00     0.004 A 
ATOM     83  C   UNL     1       8.161  -4.710   2.275  1.00  0.00     0.000 A 
ATOM     84  C   UNL     1       8.808  -5.045   4.574  1.00  0.00     0.000 A 
ATOM     85  C   UNL     1       8.057  -4.362   3.620  1.00  0.00     0.000 A 
ENDBRANCH  79  80
ENDBRANCH  76  79
ENDBRANCH  74  76
ENDBRANCH  72  74
ENDBRANCH  70  71
ENDBRANCH   1  69
TORSDOF 17
ENDMDL
MODEL 25
REMARK VINA RESULT:    -7.293      5.730     10.799
REMARK INTER + INTRA:         -27.455
REMARK INTER:                 -19.483
REMARK INTRA:                  -7.972
REMARK UNBOUND:                -5.667
REMARK SMILES C=C1C(=O)N[C@H](C)C(=O)N[C@@H](CC(C)C)C(=O)N[C@@H](C(=O)O)[C@H](C)C(=O)N[C@@H](CCCN=C(N)N)C(=O)N[C@@H](/C=C/C(C)=C/[C@H](C)[C@H](Cc2ccccc2)OC)[C@H](C)C(=O)N[C@@H](C(=O)O)CCC(=O)N1C
REMARK SMILES IDX 39 1 38 2 37 3 36 4 28 6 27 7 25 8 26 9 23 11 24 12 19 13
REMARK SMILES IDX 18 14 16 15 17 16 11 18 10 19 8 20 9 21 12 24 13 25 14 26
REMARK SMILES IDX 15 27 20 28 21 29 22 30 29 32 30 33 31 34 32 35 33 36 34 37
REMARK SMILES IDX 35 38 57 43 58 44 59 45 60 46 61 47 62 49 66 50 67 51 68 52
REMARK SMILES IDX 69 53 70 54 71 55 2 56 1 57 3 58 4 59 5 60 6 62 7 63 63 65
REMARK SMILES IDX 64 66 65 67 40 69 41 70 42 71 44 72 43 73 45 74 46 75 47 76
REMARK SMILES IDX 55 77 56 78 48 79 49 80 50 81 54 82 51 83 53 84 52 85
REMARK H PARENT 38 5 27 10 18 17 10 22 22 31 34 39 34 40 35 41 35 42 61 48
REMARK H PARENT 5 61 65 68
REMARK Flexibility Score:  369.900
ROOT
ATOM      1  C   UNL     1       8.163  -2.470   5.091  1.00  0.00     0.117 C 
ENDROOT
BRANCH   1   2
ATOM      2  N   UNL     1       8.953  -1.266   4.832  1.00  0.00    -0.347 N 
ATOM      3  O   UNL     1       7.851   0.146   6.268  1.00  0.00    -0.273 OA
ATOM      4  C   UNL     1       8.791  -0.074   5.511  1.00  0.00     0.243 C 
ATOM      5  H   UNL     1       9.700  -1.301   4.154  1.00  0.00     0.164 HD
BRANCH   4   6
ATOM      6  C   UNL     1       9.813   1.018   5.105  1.00  0.00     0.171 C 
BRANCH   6   7
ATOM      7  N   UNL     1      10.316   1.721   6.296  1.00  0.00    -0.344 N 
ATOM      8  C   UNL     1      10.012   3.048   6.510  1.00  0.00     0.226 C 
ATOM      9  O   UNL     1       9.340   3.706   5.724  1.00  0.00    -0.275 OA
ATOM     10  H   UNL     1      10.929   1.229   6.934  1.00  0.00     0.164 HD
BRANCH   8  11
ATOM     11  C   UNL     1      10.558   3.614   7.809  1.00  0.00     0.109 C 
ATOM     12  C   UNL     1      10.765   2.491   8.825  1.00  0.00     0.021 C 
BRANCH  11  13
ATOM     13  C   UNL     1      11.809   4.467   7.521  1.00  0.00     0.204 C 
BRANCH  13  14
ATOM     14  N   UNL     1      11.637   5.860   7.944  1.00  0.00    -0.340 N 
ATOM     15  C   UNL     1      12.155   6.925   7.240  1.00  0.00     0.243 C 
ATOM     16  O   UNL     1      12.748   6.785   6.172  1.00  0.00    -0.273 OA
ATOM     17  H   UNL     1      11.290   6.035   8.891  1.00  0.00     0.164 HD
BRANCH  15  18
ATOM     18  C   UNL     1      12.028   8.278   7.982  1.00  0.00     0.171 C 
BRANCH  18  19
ATOM     19  N   UNL     1      13.303   8.506   8.658  1.00  0.00    -0.343 N 
ATOM     20  C   UNL     1      13.568   7.985   9.910  1.00  0.00     0.242 CG0
ATOM     21  O   UNL     1      12.699   7.420  10.569  1.00  0.00    -0.273 OA
ATOM     22  H   UNL     1      14.015   9.067   8.202  1.00  0.00     0.164 HD
ATOM     23  G   UNL     1      14.994   8.265  10.427  1.00  0.00     0.000 G0
ENDBRANCH  18  19
BRANCH  18  24
ATOM     24  C   UNL     1      11.704   9.408   6.997  1.00  0.00     0.038 C 
BRANCH  24  25
ATOM     25  C   UNL     1      11.214  10.716   7.655  1.00  0.00    -0.015 C 
ATOM     26  C   UNL     1      10.225  10.463   8.794  1.00  0.00     0.007 C 
ATOM     27  C   UNL     1      10.564  11.611   6.597  1.00  0.00     0.007 C 
ENDBRANCH  24  25
ENDBRANCH  18  24
ENDBRANCH  15  18
ENDBRANCH  13  14
BRANCH  13  28
ATOM     28  C   UNL     1      13.072   3.937   8.208  1.00  0.00     0.327 C 
ATOM     29  O   UNL     1      13.482   4.258   9.313  1.00  0.00    -0.250 OA
BRANCH  28  30
ATOM     30  O   UNL     1      13.804   3.127   7.416  1.00  0.00    -0.480 OA
ATOM     31  H   UNL     1      13.227   2.959   6.643  1.00  0.00     0.296 HD
ENDBRANCH  28  30
ENDBRANCH  13  28
ENDBRANCH  11  13
ENDBRANCH   8  11
ENDBRANCH   6   7
BRANCH   6  32
ATOM     32  C   UNL     1      10.963   0.368   4.328  1.00  0.00     0.037 C 
BRANCH  32  33
ATOM     33  C   UNL     1      11.086   0.924   2.902  1.00  0.00     0.026 C 
BRANCH  33  34
ATOM     34  C   UNL     1      11.114   2.453   2.870  1.00  0.00     0.146 C 
BRANCH  34  35
ATOM     35  N   UNL     1      12.388   2.910   3.406  1.00  0.00    -0.254 NA
ATOM     36  C   UNL     1      12.458   4.088   3.905  1.00  0.00     0.185 C 
ATOM     37  N   UNL     1      13.626   4.518   4.406  1.00  0.00    -0.370 N 
ATOM     38  N   UNL     1      11.492   5.017   4.015  1.00  0.00    -0.370 N 
ATOM     39  H   UNL     1      14.402   3.870   4.370  1.00  0.00     0.159 HD
ATOM     40  H   UNL     1      13.719   5.349   4.965  1.00  0.00     0.159 HD
ATOM     41  H   UNL     1      11.705   5.959   4.300  1.00  0.00     0.159 HD
ATOM     42  H   UNL     1      10.564   4.836   3.664  1.00  0.00     0.159 HD
ENDBRANCH  34  35
ENDBRANCH  33  34
ENDBRANCH  32  33
ENDBRANCH   6  32
ENDBRANCH   4   6
ENDBRANCH   1   2
BRANCH   1  43
ATOM     43  C   UNL     1       9.129  -3.688   5.172  1.00  0.00     0.102 C 
ATOM     44  C   UNL     1      10.611  -3.289   5.261  1.00  0.00     0.020 C 
BRANCH  43  45
ATOM     45  C   UNL     1       8.824  -4.705   4.068  1.00  0.00     0.225 C 
ATOM     46  O   UNL     1       8.178  -5.731   4.261  1.00  0.00    -0.275 OA
ATOM     47  N   UNL     1       9.405  -4.446   2.848  1.00  0.00    -0.342 N 
ATOM     48  H   UNL     1       9.800  -3.534   2.665  1.00  0.00     0.164 HD
BRANCH  47  49
ATOM     49  C   UNL     1       9.173  -5.314   1.689  1.00  0.00     0.192 C 
BRANCH  49  50
ATOM     50  C   UNL     1      10.510  -5.659   1.028  1.00  0.00     0.047 C 
BRANCH  50  51
ATOM     51  C   UNL     1      11.529  -6.215   2.032  1.00  0.00     0.103 C 
BRANCH  51  52
ATOM     52  C   UNL     1      11.329  -7.708   2.285  1.00  0.00     0.226 C 
ATOM     53  O   UNL     1      10.407  -8.085   3.011  1.00  0.00    -0.275 OA
BRANCH  52  54
ATOM     54  N   UNL     1      12.189  -8.581   1.594  1.00  0.00    -0.311 N 
ATOM     55  C   UNL     1      13.532  -8.882   2.106  1.00  0.00     0.153 C 
BRANCH  54  56
ATOM     56  C   UNL     1      11.795  -9.201   0.396  1.00  0.00     0.102 C 
ATOM     57  C   UNL     1      12.636  -9.686  -0.531  1.00  0.00     0.043 C 
BRANCH  56  58
ATOM     58  C   UNL     1      10.333  -9.414   0.078  1.00  0.00     0.268 C 
ATOM     59  O   UNL     1       9.748  -8.816  -0.814  1.00  0.00    -0.268 OA
ATOM     60  N   UNL     1       9.750 -10.392   0.848  1.00  0.00    -0.339 N 
ATOM     61  H   UNL     1      10.301 -10.834   1.574  1.00  0.00     0.164 HD
BRANCH  60  62
ATOM     62  C   UNL     1       8.359 -10.803   0.663  1.00  0.00     0.168 CG0
ATOM     63  C   UNL     1       7.928 -11.781   1.749  1.00  0.00     0.041 C 
ATOM     64  G   UNL     1       8.186 -11.429  -0.736  1.00  0.00     0.000 G0
ENDBRANCH  60  62
ENDBRANCH  56  58
ENDBRANCH  54  56
ENDBRANCH  52  54
ENDBRANCH  51  52
ENDBRANCH  50  51
ENDBRANCH  49  50
BRANCH  49  65
ATOM     65  C   UNL     1       8.252  -4.646   0.656  1.00  0.00     0.326 C 
ATOM     66  O   UNL     1       8.375  -3.509   0.225  1.00  0.00    -0.250 OA
BRANCH  65  67
ATOM     67  O   UNL     1       7.202  -5.401   0.265  1.00  0.00    -0.480 OA
ATOM     68  H   UNL     1       7.599  -6.284   0.104  1.00  0.00     0.296 HD
ENDBRANCH  65  67
ENDBRANCH  49  65
ENDBRANCH  47  49
ENDBRANCH  43  45
ENDBRANCH   1  43
BRANCH   1  69
ATOM     69  C   UNL     1       7.054  -2.481   4.055  1.00  0.00    -0.001 C 
ATOM     70  C   UNL     1       5.778  -2.870   4.228  1.00  0.00     0.001 C 
BRANCH  70  71
ATOM     71  C   UNL     1       4.711  -2.855   3.226  1.00  0.00    -0.055 C 
ATOM     72  C   UNL     1       5.030  -3.214   1.964  1.00  0.00    -0.018 C 
ATOM     73  C   UNL     1       3.332  -2.449   3.674  1.00  0.00     0.044 C 
BRANCH  72  74
ATOM     74  C   UNL     1       4.140  -3.295   0.732  1.00  0.00     0.038 C 
ATOM     75  C   UNL     1       3.660  -4.747   0.615  1.00  0.00     0.015 C 
BRANCH  74  76
ATOM     76  C   UNL     1       4.939  -2.771  -0.498  1.00  0.00     0.128 C 
BRANCH  76  77
ATOM     77  O   UNL     1       4.557  -3.498  -1.678  1.00  0.00    -0.381 OA
ATOM     78  C   UNL     1       5.657  -3.880  -2.493  1.00  0.00     0.195 C 
ENDBRANCH  76  77
BRANCH  76  79
ATOM     79  C   UNL     1       4.862  -1.235  -0.690  1.00  0.00     0.068 C 
BRANCH  79  80
ATOM     80  C   UNL     1       4.944  -0.364   0.540  1.00  0.00    -0.045 A 
ATOM     81  C   UNL     1       6.154  -0.193   1.225  1.00  0.00     0.004 A 
ATOM     82  C   UNL     1       3.793   0.269   1.036  1.00  0.00     0.004 A 
ATOM     83  C   UNL     1       6.217   0.604   2.371  1.00  0.00     0.000 A 
ATOM     84  C   UNL     1       3.858   1.064   2.182  1.00  0.00     0.000 A 
ATOM     85  C   UNL     1       5.070   1.233   2.848  1.00  0.00     0.000 A 
ENDBRANCH  79  80
ENDBRANCH  76  79
ENDBRANCH  74  76
ENDBRANCH  72  74
ENDBRANCH  70  71
ENDBRANCH   1  69
TORSDOF 17
ENDMDL
MODEL 26
REMARK VINA RESULT:    -7.269      3.306      7.035
REMARK INTER + INTRA:         -27.386
REMARK INTER:                 -20.106
REMARK INTRA:                  -7.280
REMARK UNBOUND:                -5.667
REMARK SMILES C=C1C(=O)N[C@H](C)C(=O)N[C@@H](CC(C)C)C(=O)N[C@@H](C(=O)O)[C@H](C)C(=O)N[C@@H](CCCN=C(N)N)C(=O)N[C@@H](/C=C/C(C)=C/[C@H](C)[C@H](Cc2ccccc2)OC)[C@H](C)C(=O)N[C@@H](C(=O)O)CCC(=O)N1C
REMARK SMILES IDX 39 1 38 2 37 3 36 4 28 6 27 7 25 8 26 9 23 11 24 12 19 13
REMARK SMILES IDX 18 14 16 15 17 16 11 18 10 19 8 20 9 21 12 24 13 25 14 26
REMARK SMILES IDX 15 27 20 28 21 29 22 30 29 32 30 33 31 34 32 35 33 36 34 37
REMARK SMILES IDX 35 38 57 43 58 44 59 45 60 46 61 47 62 49 66 50 67 51 68 52
REMARK SMILES IDX 69 53 70 54 71 55 2 56 1 57 3 58 4 59 5 60 6 62 7 63 63 65
REMARK SMILES IDX 64 66 65 67 40 69 41 70 42 71 44 72 43 73 45 74 46 75 47 76
REMARK SMILES IDX 55 77 56 78 48 79 49 80 50 81 54 82 51 83 53 84 52 85
REMARK H PARENT 38 5 27 10 18 17 10 22 22 31 34 39 34 40 35 41 35 42 61 48
REMARK H PARENT 5 61 65 68
REMARK Flexibility Score:  369.900
ROOT
ATOM      1  C   UNL     1       8.168  -0.971   0.516  1.00  0.00     0.117 C 
ENDROOT
BRANCH   1   2
ATOM      2  N   UNL     1       7.960  -2.264   1.169  1.00  0.00    -0.347 N 
ATOM      3  O   UNL     1       6.717  -1.519   2.950  1.00  0.00    -0.273 OA
ATOM      4  C   UNL     1       7.172  -2.447   2.289  1.00  0.00     0.243 C 
ATOM      5  H   UNL     1       8.370  -3.093   0.766  1.00  0.00     0.164 HD
BRANCH   4   6
ATOM      6  C   UNL     1       7.049  -3.928   2.729  1.00  0.00     0.171 C 
BRANCH   6   7
ATOM      7  N   UNL     1       7.634  -4.116   4.067  1.00  0.00    -0.344 N 
ATOM      8  C   UNL     1       8.801  -4.832   4.229  1.00  0.00     0.226 C 
ATOM      9  O   UNL     1       9.389  -5.357   3.291  1.00  0.00    -0.275 OA
ATOM     10  H   UNL     1       7.141  -3.754   4.873  1.00  0.00     0.164 HD
BRANCH   8  11
ATOM     11  C   UNL     1       9.304  -4.890   5.660  1.00  0.00     0.109 C 
ATOM     12  C   UNL     1      10.623  -5.662   5.723  1.00  0.00     0.021 C 
BRANCH  11  13
ATOM     13  C   UNL     1       9.357  -3.468   6.253  1.00  0.00     0.204 C 
BRANCH  13  14
ATOM     14  N   UNL     1       8.637  -3.375   7.527  1.00  0.00    -0.340 N 
ATOM     15  C   UNL     1       7.303  -3.039   7.610  1.00  0.00     0.243 C 
ATOM     16  O   UNL     1       6.606  -2.854   6.614  1.00  0.00    -0.273 OA
ATOM     17  H   UNL     1       9.187  -3.367   8.390  1.00  0.00     0.164 HD
BRANCH  15  18
ATOM     18  C   UNL     1       6.814  -2.799   9.059  1.00  0.00     0.171 C 
BRANCH  18  19
ATOM     19  N   UNL     1       6.044  -3.981   9.443  1.00  0.00    -0.343 N 
ATOM     20  C   UNL     1       4.952  -3.897  10.284  1.00  0.00     0.242 CG0
ATOM     21  O   UNL     1       4.657  -2.849  10.854  1.00  0.00    -0.273 OA
ATOM     22  H   UNL     1       6.319  -4.890   9.089  1.00  0.00     0.164 HD
ATOM     23  G   UNL     1       4.219  -5.236  10.512  1.00  0.00     0.000 G0
ENDBRANCH  18  19
BRANCH  18  24
ATOM     24  C   UNL     1       8.003  -2.573  10.001  1.00  0.00     0.038 C 
BRANCH  24  25
ATOM     25  C   UNL     1       8.250  -1.098  10.385  1.00  0.00    -0.015 C 
ATOM     26  C   UNL     1       7.083  -0.190   9.998  1.00  0.00     0.007 C 
ATOM     27  C   UNL     1       9.534  -0.601   9.716  1.00  0.00     0.007 C 
ENDBRANCH  24  25
ENDBRANCH  18  24
ENDBRANCH  15  18
ENDBRANCH  13  14
BRANCH  13  28
ATOM     28  C   UNL     1      10.784  -2.970   6.501  1.00  0.00     0.327 C 
ATOM     29  O   UNL     1      11.372  -2.963   7.572  1.00  0.00    -0.250 OA
BRANCH  28  30
ATOM     30  O   UNL     1      11.342  -2.402   5.413  1.00  0.00    -0.480 OA
ATOM     31  H   UNL     1      11.236  -1.439   5.562  1.00  0.00     0.296 HD
ENDBRANCH  28  30
ENDBRANCH  13  28
ENDBRANCH  11  13
ENDBRANCH   8  11
ENDBRANCH   6   7
BRANCH   6  32
ATOM     32  C   UNL     1       5.572  -4.337   2.715  1.00  0.00     0.037 C 
BRANCH  32  33
ATOM     33  C   UNL     1       4.909  -4.160   4.088  1.00  0.00     0.026 C 
BRANCH  33  34
ATOM     34  C   UNL     1       3.805  -3.102   4.074  1.00  0.00     0.146 C 
BRANCH  34  35
ATOM     35  N   UNL     1       3.419  -2.846   2.693  1.00  0.00    -0.254 NA
ATOM     36  C   UNL     1       3.407  -1.636   2.272  1.00  0.00     0.185 C 
ATOM     37  N   UNL     1       3.057  -1.389   1.001  1.00  0.00    -0.370 N 
ATOM     38  N   UNL     1       3.707  -0.507   2.939  1.00  0.00    -0.370 N 
ATOM     39  H   UNL     1       2.826  -2.191   0.429  1.00  0.00     0.159 HD
ATOM     40  H   UNL     1       3.189  -0.499   0.550  1.00  0.00     0.159 HD
ATOM     41  H   UNL     1       3.525   0.399   2.538  1.00  0.00     0.159 HD
ATOM     42  H   UNL     1       3.972  -0.540   3.911  1.00  0.00     0.159 HD
ENDBRANCH  34  35
ENDBRANCH  33  34
ENDBRANCH  32  33
ENDBRANCH   6  32
ENDBRANCH   4   6
ENDBRANCH   1   2
BRANCH   1  43
ATOM     43  C   UNL     1       8.070  -1.173  -1.024  1.00  0.00     0.102 C 
ATOM     44  C   UNL     1       7.186  -0.126  -1.723  1.00  0.00     0.020 C 
BRANCH  43  45
ATOM     45  C   UNL     1       7.709  -2.621  -1.367  1.00  0.00     0.225 C 
ATOM     46  O   UNL     1       8.499  -3.554  -1.255  1.00  0.00    -0.275 OA
ATOM     47  N   UNL     1       6.456  -2.807  -1.905  1.00  0.00    -0.342 N 
ATOM     48  H   UNL     1       5.772  -2.066  -1.849  1.00  0.00     0.164 HD
BRANCH  47  49
ATOM     49  C   UNL     1       5.961  -4.144  -2.248  1.00  0.00     0.192 C 
BRANCH  49  50
ATOM     50  C   UNL     1       5.307  -4.110  -3.632  1.00  0.00     0.047 C 
BRANCH  50  51
ATOM     51  C   UNL     1       5.932  -5.128  -4.596  1.00  0.00     0.103 C 
BRANCH  51  52
ATOM     52  C   UNL     1       5.018  -5.433  -5.780  1.00  0.00     0.226 C 
ATOM     53  O   UNL     1       3.807  -5.573  -5.596  1.00  0.00    -0.275 OA
BRANCH  52  54
ATOM     54  N   UNL     1       5.624  -5.462  -7.050  1.00  0.00    -0.311 N 
ATOM     55  C   UNL     1       6.859  -4.711  -7.314  1.00  0.00     0.153 C 
BRANCH  54  56
ATOM     56  C   UNL     1       5.078  -6.210  -8.106  1.00  0.00     0.102 C 
ATOM     57  C   UNL     1       5.658  -7.283  -8.668  1.00  0.00     0.043 C 
BRANCH  56  58
ATOM     58  C   UNL     1       3.721  -5.870  -8.676  1.00  0.00     0.268 C 
ATOM     59  O   UNL     1       3.271  -4.732  -8.700  1.00  0.00    -0.268 OA
ATOM     60  N   UNL     1       3.077  -6.954  -9.222  1.00  0.00    -0.339 N 
ATOM     61  H   UNL     1       3.514  -7.866  -9.152  1.00  0.00     0.164 HD
BRANCH  60  62
ATOM     62  C   UNL     1       1.779  -6.837  -9.883  1.00  0.00     0.168 CG0
ATOM     63  C   UNL     1       1.946  -6.594 -11.378  1.00  0.00     0.041 C 
ATOM     64  G   UNL     1       0.967  -5.698  -9.232  1.00  0.00     0.000 G0
ENDBRANCH  60  62
ENDBRANCH  56  58
ENDBRANCH  54  56
ENDBRANCH  52  54
ENDBRANCH  51  52
ENDBRANCH  50  51
ENDBRANCH  49  50
BRANCH  49  65
ATOM     65  C   UNL     1       4.942  -4.653  -1.216  1.00  0.00     0.326 C 
ATOM     66  O   UNL     1       4.203  -3.951  -0.541  1.00  0.00    -0.250 OA
BRANCH  65  67
ATOM     67  O   UNL     1       4.941  -5.992  -1.038  1.00  0.00    -0.480 OA
ATOM     68  H   UNL     1       5.601  -6.131  -0.325  1.00  0.00     0.296 HD
ENDBRANCH  65  67
ENDBRANCH  49  65
ENDBRANCH  47  49
ENDBRANCH  43  45
ENDBRANCH   1  43
BRANCH   1  69
ATOM     69  C   UNL     1       9.447  -0.400   1.101  1.00  0.00    -0.001 C 
ATOM     70  C   UNL     1      10.697  -0.543   0.627  1.00  0.00     0.001 C 
BRANCH  70  71
ATOM     71  C   UNL     1      11.921   0.031   1.189  1.00  0.00    -0.055 C 
ATOM     72  C   UNL     1      11.795   0.894   2.219  1.00  0.00    -0.018 C 
ATOM     73  C   UNL     1      13.236  -0.388   0.584  1.00  0.00     0.044 C 
BRANCH  72  74
ATOM     74  C   UNL     1      12.876   1.633   2.995  1.00  0.00     0.038 C 
ATOM     75  C   UNL     1      13.530   0.617   3.940  1.00  0.00     0.015 C 
BRANCH  74  76
ATOM     76  C   UNL     1      12.234   2.863   3.701  1.00  0.00     0.128 C 
BRANCH  76  77
ATOM     77  O   UNL     1      12.895   4.069   3.283  1.00  0.00    -0.381 OA
ATOM     78  C   UNL     1      13.703   4.657   4.295  1.00  0.00     0.195 C 
ENDBRANCH  76  77
BRANCH  76  79
ATOM     79  C   UNL     1      10.694   2.941   3.551  1.00  0.00     0.068 C 
BRANCH  79  80
ATOM     80  C   UNL     1       9.846   2.306   4.627  1.00  0.00    -0.045 A 
ATOM     81  C   UNL     1       8.716   1.545   4.300  1.00  0.00     0.004 A 
ATOM     82  C   UNL     1      10.163   2.494   5.981  1.00  0.00     0.004 A 
ATOM     83  C   UNL     1       7.928   0.973   5.301  1.00  0.00     0.000 A 
ATOM     84  C   UNL     1       9.375   1.922   6.981  1.00  0.00     0.000 A 
ATOM     85  C   UNL     1       8.259   1.160   6.642  1.00  0.00     0.000 A 
ENDBRANCH  79  80
ENDBRANCH  76  79
ENDBRANCH  74  76
ENDBRANCH  72  74
ENDBRANCH  70  71
ENDBRANCH   1  69
TORSDOF 17
ENDMDL
MODEL 27
REMARK VINA RESULT:    -7.249      2.386      4.093
REMARK INTER + INTRA:         -27.326
REMARK INTER:                 -21.632
REMARK INTRA:                  -5.694
REMARK UNBOUND:                -5.667
REMARK SMILES C=C1C(=O)N[C@H](C)C(=O)N[C@@H](CC(C)C)C(=O)N[C@@H](C(=O)O)[C@H](C)C(=O)N[C@@H](CCCN=C(N)N)C(=O)N[C@@H](/C=C/C(C)=C/[C@H](C)[C@H](Cc2ccccc2)OC)[C@H](C)C(=O)N[C@@H](C(=O)O)CCC(=O)N1C
REMARK SMILES IDX 39 1 38 2 37 3 36 4 28 6 27 7 25 8 26 9 23 11 24 12 19 13
REMARK SMILES IDX 18 14 16 15 17 16 11 18 10 19 8 20 9 21 12 24 13 25 14 26
REMARK SMILES IDX 15 27 20 28 21 29 22 30 29 32 30 33 31 34 32 35 33 36 34 37
REMARK SMILES IDX 35 38 57 43 58 44 59 45 60 46 61 47 62 49 66 50 67 51 68 52
REMARK SMILES IDX 69 53 70 54 71 55 2 56 1 57 3 58 4 59 5 60 6 62 7 63 63 65
REMARK SMILES IDX 64 66 65 67 40 69 41 70 42 71 44 72 43 73 45 74 46 75 47 76
REMARK SMILES IDX 55 77 56 78 48 79 49 80 50 81 54 82 51 83 53 84 52 85
REMARK H PARENT 38 5 27 10 18 17 10 22 22 31 34 39 34 40 35 41 35 42 61 48
REMARK H PARENT 5 61 65 68
REMARK Flexibility Score:  369.900
ROOT
ATOM      1  C   UNL     1       8.950  -2.049  -0.455  1.00  0.00     0.117 C 
ENDROOT
BRANCH   1   2
ATOM      2  N   UNL     1       7.907  -1.913   0.562  1.00  0.00    -0.347 N 
ATOM      3  O   UNL     1       8.559   0.117   1.411  1.00  0.00    -0.273 OA
ATOM      4  C   UNL     1       7.740  -0.794   1.354  1.00  0.00     0.243 C 
ATOM      5  H   UNL     1       7.226  -2.650   0.673  1.00  0.00     0.164 HD
BRANCH   4   6
ATOM      6  C   UNL     1       6.507  -0.871   2.290  1.00  0.00     0.171 C 
BRANCH   6   7
ATOM      7  N   UNL     1       6.931  -0.905   3.699  1.00  0.00    -0.344 N 
ATOM      8  C   UNL     1       7.542  -2.025   4.221  1.00  0.00     0.226 C 
ATOM      9  O   UNL     1       7.740  -3.038   3.561  1.00  0.00    -0.275 OA
ATOM     10  H   UNL     1       6.724  -0.113   4.293  1.00  0.00     0.164 HD
BRANCH   8  11
ATOM     11  C   UNL     1       7.969  -1.884   5.672  1.00  0.00     0.109 C 
ATOM     12  C   UNL     1       7.799  -3.217   6.401  1.00  0.00     0.021 C 
BRANCH  11  13
ATOM     13  C   UNL     1       9.386  -1.282   5.742  1.00  0.00     0.204 C 
BRANCH  13  14
ATOM     14  N   UNL     1       9.399   0.142   5.396  1.00  0.00    -0.340 N 
ATOM     15  C   UNL     1      10.212   0.667   4.415  1.00  0.00     0.243 C 
ATOM     16  O   UNL     1      10.943  -0.035   3.718  1.00  0.00    -0.273 OA
ATOM     17  H   UNL     1       8.933   0.795   6.032  1.00  0.00     0.164 HD
BRANCH  15  18
ATOM     18  C   UNL     1      10.207   2.215   4.369  1.00  0.00     0.171 C 
BRANCH  18  19
ATOM     19  N   UNL     1      10.655   2.674   5.682  1.00  0.00    -0.343 N 
ATOM     20  C   UNL     1       9.982   3.661   6.378  1.00  0.00     0.242 CG0
ATOM     21  O   UNL     1       9.057   4.290   5.869  1.00  0.00    -0.273 OA
ATOM     22  H   UNL     1      11.485   2.265   6.096  1.00  0.00     0.164 HD
ATOM     23  G   UNL     1      10.557   3.956   7.778  1.00  0.00     0.000 G0
ENDBRANCH  18  19
BRANCH  18  24
ATOM     24  C   UNL     1      11.124   2.727   3.252  1.00  0.00     0.038 C 
BRANCH  24  25
ATOM     25  C   UNL     1      12.545   3.116   3.712  1.00  0.00    -0.015 C 
ATOM     26  C   UNL     1      12.795   4.622   3.626  1.00  0.00     0.007 C 
ATOM     27  C   UNL     1      13.582   2.373   2.866  1.00  0.00     0.007 C 
ENDBRANCH  24  25
ENDBRANCH  18  24
ENDBRANCH  15  18
ENDBRANCH  13  14
BRANCH  13  28
ATOM     28  C   UNL     1      10.032  -1.419   7.125  1.00  0.00     0.327 C 
ATOM     29  O   UNL     1      10.888  -2.229   7.446  1.00  0.00    -0.250 OA
BRANCH  28  30
ATOM     30  O   UNL     1       9.478  -0.608   8.049  1.00  0.00    -0.480 OA
ATOM     31  H   UNL     1       9.620  -1.077   8.897  1.00  0.00     0.296 HD
ENDBRANCH  28  30
ENDBRANCH  13  28
ENDBRANCH  11  13
ENDBRANCH   8  11
ENDBRANCH   6   7
BRANCH   6  32
ATOM     32  C   UNL     1       5.596   0.333   2.022  1.00  0.00     0.037 C 
BRANCH  32  33
ATOM     33  C   UNL     1       4.353  -0.051   1.207  1.00  0.00     0.026 C 
BRANCH  33  34
ATOM     34  C   UNL     1       4.252   0.725  -0.107  1.00  0.00     0.146 C 
BRANCH  34  35
ATOM     35  N   UNL     1       3.287   0.061  -0.972  1.00  0.00    -0.254 NA
ATOM     36  C   UNL     1       2.448   0.778  -1.621  1.00  0.00     0.185 C 
ATOM     37  N   UNL     1       1.557   0.177  -2.424  1.00  0.00    -0.370 N 
ATOM     38  N   UNL     1       2.307   2.116  -1.627  1.00  0.00    -0.370 N 
ATOM     39  H   UNL     1       1.605  -0.832  -2.482  1.00  0.00     0.159 HD
ATOM     40  H   UNL     1       0.988   0.670  -3.092  1.00  0.00     0.159 HD
ATOM     41  H   UNL     1       1.518   2.555  -2.072  1.00  0.00     0.159 HD
ATOM     42  H   UNL     1       2.901   2.696  -1.056  1.00  0.00     0.159 HD
ENDBRANCH  34  35
ENDBRANCH  33  34
ENDBRANCH  32  33
ENDBRANCH   6  32
ENDBRANCH   4   6
ENDBRANCH   1   2
BRANCH   1  43
ATOM     43  C   UNL     1       8.282  -2.003  -1.860  1.00  0.00     0.102 C 
ATOM     44  C   UNL     1       7.933  -0.580  -2.326  1.00  0.00     0.020 C 
BRANCH  43  45
ATOM     45  C   UNL     1       7.113  -2.989  -1.945  1.00  0.00     0.225 C 
ATOM     46  O   UNL     1       6.012  -2.770  -1.446  1.00  0.00    -0.275 OA
ATOM     47  N   UNL     1       7.398  -4.196  -2.542  1.00  0.00    -0.342 N 
ATOM     48  H   UNL     1       8.249  -4.302  -3.075  1.00  0.00     0.164 HD
BRANCH  47  49
ATOM     49  C   UNL     1       6.367  -5.223  -2.725  1.00  0.00     0.192 C 
BRANCH  49  50
ATOM     50  C   UNL     1       5.347  -4.747  -3.762  1.00  0.00     0.047 C 
BRANCH  50  51
ATOM     51  C   UNL     1       5.331  -5.637  -5.013  1.00  0.00     0.103 C 
BRANCH  51  52
ATOM     52  C   UNL     1       6.296  -5.136  -6.085  1.00  0.00     0.226 C 
ATOM     53  O   UNL     1       7.182  -4.335  -5.782  1.00  0.00    -0.275 OA
BRANCH  52  54
ATOM     54  N   UNL     1       6.152  -5.696  -7.369  1.00  0.00    -0.311 N 
ATOM     55  C   UNL     1       7.154  -6.626  -7.905  1.00  0.00     0.153 C 
BRANCH  54  56
ATOM     56  C   UNL     1       5.046  -5.391  -8.180  1.00  0.00     0.102 C 
ATOM     57  C   UNL     1       4.884  -4.243  -8.858  1.00  0.00     0.043 C 
BRANCH  56  58
ATOM     58  C   UNL     1       3.939  -6.397  -8.391  1.00  0.00     0.268 C 
ATOM     59  O   UNL     1       3.731  -7.333  -7.631  1.00  0.00    -0.268 OA
ATOM     60  N   UNL     1       3.152  -6.114  -9.481  1.00  0.00    -0.339 N 
ATOM     61  H   UNL     1       3.397  -5.325 -10.067  1.00  0.00     0.164 HD
BRANCH  60  62
ATOM     62  C   UNL     1       1.986  -6.923  -9.832  1.00  0.00     0.168 CG0
ATOM     63  C   UNL     1       1.638  -6.771 -11.307  1.00  0.00     0.041 C 
ATOM     64  G   UNL     1       0.790  -6.519  -8.944  1.00  0.00     0.000 G0
ENDBRANCH  60  62
ENDBRANCH  56  58
ENDBRANCH  54  56
ENDBRANCH  52  54
ENDBRANCH  51  52
ENDBRANCH  50  51
ENDBRANCH  49  50
BRANCH  49  65
ATOM     65  C   UNL     1       5.643  -5.540  -1.407  1.00  0.00     0.326 C 
ATOM     66  O   UNL     1       6.068  -6.266  -0.520  1.00  0.00    -0.250 OA
BRANCH  65  67
ATOM     67  O   UNL     1       4.414  -4.991  -1.293  1.00  0.00    -0.480 OA
ATOM     68  H   UNL     1       4.435  -4.556  -0.413  1.00  0.00     0.296 HD
ENDBRANCH  65  67
ENDBRANCH  49  65
ENDBRANCH  47  49
ENDBRANCH  43  45
ENDBRANCH   1  43
BRANCH   1  69
ATOM     69  C   UNL     1       9.762  -3.271  -0.069  1.00  0.00    -0.001 C 
ATOM     70  C   UNL     1       9.498  -4.151   0.914  1.00  0.00     0.001 C 
BRANCH  70  71
ATOM     71  C   UNL     1      10.278  -5.340   1.263  1.00  0.00    -0.055 C 
ATOM     72  C   UNL     1      11.506  -5.467   0.718  1.00  0.00    -0.018 C 
ATOM     73  C   UNL     1       9.659  -6.331   2.213  1.00  0.00     0.044 C 
BRANCH  72  74
ATOM     74  C   UNL     1      12.529  -6.579   0.899  1.00  0.00     0.038 C 
ATOM     75  C   UNL     1      13.841  -5.919   1.343  1.00  0.00     0.015 C 
BRANCH  74  76
ATOM     76  C   UNL     1      12.623  -7.394  -0.424  1.00  0.00     0.128 C 
BRANCH  76  77
ATOM     77  O   UNL     1      13.887  -7.148  -1.064  1.00  0.00    -0.381 OA
ATOM     78  C   UNL     1      13.829  -6.153  -2.077  1.00  0.00     0.195 C 
ENDBRANCH  76  77
BRANCH  76  79
ATOM     79  C   UNL     1      12.321  -8.905  -0.256  1.00  0.00     0.068 C 
BRANCH  79  80
ATOM     80  C   UNL     1      10.900  -9.311   0.052  1.00  0.00    -0.045 A 
ATOM     81  C   UNL     1       9.815  -8.604  -0.482  1.00  0.00     0.004 A 
ATOM     82  C   UNL     1      10.644 -10.395   0.905  1.00  0.00     0.004 A 
ATOM     83  C   UNL     1       8.504  -8.978  -0.182  1.00  0.00     0.000 A 
ATOM     84  C   UNL     1       9.332 -10.768   1.206  1.00  0.00     0.000 A 
ATOM     85  C   UNL     1       8.263 -10.061   0.661  1.00  0.00     0.000 A 
ENDBRANCH  79  80
ENDBRANCH  76  79
ENDBRANCH  74  76
ENDBRANCH  72  74
ENDBRANCH  70  71
ENDBRANCH   1  69
TORSDOF 17
ENDMDL
MODEL 28
REMARK VINA RESULT:    -7.237      4.518      9.783
REMARK INTER + INTRA:         -27.289
REMARK INTER:                 -18.779
REMARK INTRA:                  -8.509
REMARK UNBOUND:                -5.667
REMARK SMILES C=C1C(=O)N[C@H](C)C(=O)N[C@@H](CC(C)C)C(=O)N[C@@H](C(=O)O)[C@H](C)C(=O)N[C@@H](CCCN=C(N)N)C(=O)N[C@@H](/C=C/C(C)=C/[C@H](C)[C@H](Cc2ccccc2)OC)[C@H](C)C(=O)N[C@@H](C(=O)O)CCC(=O)N1C
REMARK SMILES IDX 39 1 38 2 37 3 36 4 28 6 27 7 25 8 26 9 23 11 24 12 19 13
REMARK SMILES IDX 18 14 16 15 17 16 11 18 10 19 8 20 9 21 12 24 13 25 14 26
REMARK SMILES IDX 15 27 20 28 21 29 22 30 29 32 30 33 31 34 32 35 33 36 34 37
REMARK SMILES IDX 35 38 57 43 58 44 59 45 60 46 61 47 62 49 66 50 67 51 68 52
REMARK SMILES IDX 69 53 70 54 71 55 2 56 1 57 3 58 4 59 5 60 6 62 7 63 63 65
REMARK SMILES IDX 64 66 65 67 40 69 41 70 42 71 44 72 43 73 45 74 46 75 47 76
REMARK SMILES IDX 55 77 56 78 48 79 49 80 50 81 54 82 51 83 53 84 52 85
REMARK H PARENT 38 5 27 10 18 17 10 22 22 31 34 39 34 40 35 41 35 42 61 48
REMARK H PARENT 5 61 65 68
REMARK Flexibility Score:  369.900
ROOT
ATOM      1  C   UNL     1       8.285   0.141   3.629  1.00  0.00     0.117 C 
ENDROOT
BRANCH   1   2
ATOM      2  N   UNL     1       8.714  -0.908   4.555  1.00  0.00    -0.347 N 
ATOM      3  O   UNL     1       7.932   0.045   6.492  1.00  0.00    -0.273 OA
ATOM      4  C   UNL     1       8.421  -0.915   5.905  1.00  0.00     0.243 C 
ATOM      5  H   UNL     1       9.213  -1.709   4.198  1.00  0.00     0.164 HD
BRANCH   4   6
ATOM      6  C   UNL     1       8.918  -2.184   6.644  1.00  0.00     0.171 C 
BRANCH   6   7
ATOM      7  N   UNL     1       8.259  -2.307   7.954  1.00  0.00    -0.344 N 
ATOM      8  C   UNL     1       9.002  -2.499   9.099  1.00  0.00     0.226 C 
ATOM      9  O   UNL     1      10.223  -2.599   9.084  1.00  0.00    -0.275 OA
ATOM     10  H   UNL     1       7.248  -2.297   7.998  1.00  0.00     0.164 HD
BRANCH   8  11
ATOM     11  C   UNL     1       8.182  -2.551  10.376  1.00  0.00     0.109 C 
ATOM     12  C   UNL     1       8.827  -3.510  11.376  1.00  0.00     0.021 C 
BRANCH  11  13
ATOM     13  C   UNL     1       7.950  -1.122  10.905  1.00  0.00     0.204 C 
BRANCH  13  14
ATOM     14  N   UNL     1       8.957  -0.179  10.407  1.00  0.00    -0.340 N 
ATOM     15  C   UNL     1       9.351   0.937  11.113  1.00  0.00     0.243 C 
ATOM     16  O   UNL     1       8.928   1.189  12.241  1.00  0.00    -0.273 OA
ATOM     17  H   UNL     1       9.232  -0.245   9.424  1.00  0.00     0.164 HD
BRANCH  15  18
ATOM     18  C   UNL     1      10.264   1.891  10.304  1.00  0.00     0.171 C 
BRANCH  18  19
ATOM     19  N   UNL     1      11.100   2.594  11.275  1.00  0.00    -0.343 N 
ATOM     20  C   UNL     1      11.204   3.971  11.285  1.00  0.00     0.242 CG0
ATOM     21  O   UNL     1      10.705   4.661  10.398  1.00  0.00    -0.273 OA
ATOM     22  H   UNL     1      11.625   2.060  11.958  1.00  0.00     0.164 HD
ATOM     23  G   UNL     1      12.069   4.536  12.430  1.00  0.00     0.000 G0
ENDBRANCH  18  19
BRANCH  18  24
ATOM     24  C   UNL     1      11.112   1.104   9.297  1.00  0.00     0.038 C 
BRANCH  24  25
ATOM     25  C   UNL     1      11.423   1.859   7.988  1.00  0.00    -0.015 C 
ATOM     26  C   UNL     1      12.649   2.764   8.111  1.00  0.00     0.007 C 
ATOM     27  C   UNL     1      10.207   2.691   7.572  1.00  0.00     0.007 C 
ENDBRANCH  24  25
ENDBRANCH  18  24
ENDBRANCH  15  18
ENDBRANCH  13  14
BRANCH  13  28
ATOM     28  C   UNL     1       6.576  -0.556  10.534  1.00  0.00     0.327 C 
ATOM     29  O   UNL     1       5.588  -0.528  11.252  1.00  0.00    -0.250 OA
BRANCH  28  30
ATOM     30  O   UNL     1       6.494  -0.170   9.245  1.00  0.00    -0.480 OA
ATOM     31  H   UNL     1       6.010  -0.900   8.805  1.00  0.00     0.296 HD
ENDBRANCH  28  30
ENDBRANCH  13  28
ENDBRANCH  11  13
ENDBRANCH   8  11
ENDBRANCH   6   7
BRANCH   6  32
ATOM     32  C   UNL     1       8.639  -3.415   5.774  1.00  0.00     0.037 C 
BRANCH  32  33
ATOM     33  C   UNL     1       7.182  -3.885   5.885  1.00  0.00     0.026 C 
BRANCH  33  34
ATOM     34  C   UNL     1       6.419  -3.744   4.568  1.00  0.00     0.146 C 
BRANCH  34  35
ATOM     35  N   UNL     1       5.311  -2.819   4.763  1.00  0.00    -0.254 NA
ATOM     36  C   UNL     1       4.280  -2.928   4.010  1.00  0.00     0.185 C 
ATOM     37  N   UNL     1       3.251  -2.084   4.184  1.00  0.00    -0.370 N 
ATOM     38  N   UNL     1       4.049  -3.803   3.015  1.00  0.00    -0.370 N 
ATOM     39  H   UNL     1       3.345  -1.399   4.924  1.00  0.00     0.159 HD
ATOM     40  H   UNL     1       2.349  -2.212   3.760  1.00  0.00     0.159 HD
ATOM     41  H   UNL     1       3.256  -3.698   2.403  1.00  0.00     0.159 HD
ATOM     42  H   UNL     1       4.745  -4.487   2.762  1.00  0.00     0.159 HD
ENDBRANCH  34  35
ENDBRANCH  33  34
ENDBRANCH  32  33
ENDBRANCH   6  32
ENDBRANCH   4   6
ENDBRANCH   1   2
BRANCH   1  43
ATOM     43  C   UNL     1       7.636  -0.531   2.385  1.00  0.00     0.102 C 
ATOM     44  C   UNL     1       8.344  -0.185   1.064  1.00  0.00     0.020 C 
BRANCH  43  45
ATOM     45  C   UNL     1       6.123  -0.296   2.360  1.00  0.00     0.225 C 
ATOM     46  O   UNL     1       5.509   0.222   3.288  1.00  0.00    -0.275 OA
ATOM     47  N   UNL     1       5.465  -0.793   1.258  1.00  0.00    -0.342 N 
ATOM     48  H   UNL     1       5.994  -1.076   0.445  1.00  0.00     0.164 HD
BRANCH  47  49
ATOM     49  C   UNL     1       4.021  -0.610   1.081  1.00  0.00     0.192 C 
BRANCH  49  50
ATOM     50  C   UNL     1       3.497  -1.620   0.057  1.00  0.00     0.047 C 
BRANCH  50  51
ATOM     51  C   UNL     1       4.611  -2.161  -0.850  1.00  0.00     0.103 C 
BRANCH  51  52
ATOM     52  C   UNL     1       4.896  -3.639  -0.588  1.00  0.00     0.226 C 
ATOM     53  O   UNL     1       4.009  -4.359  -0.125  1.00  0.00    -0.275 OA
BRANCH  52  54
ATOM     54  N   UNL     1       6.165  -4.110  -0.973  1.00  0.00    -0.311 N 
ATOM     55  C   UNL     1       7.391  -3.520  -0.419  1.00  0.00     0.153 C 
BRANCH  54  56
ATOM     56  C   UNL     1       6.307  -5.162  -1.892  1.00  0.00     0.102 C 
ATOM     57  C   UNL     1       6.377  -6.463  -1.567  1.00  0.00     0.043 C 
BRANCH  56  58
ATOM     58  C   UNL     1       6.348  -4.893  -3.378  1.00  0.00     0.268 C 
ATOM     59  O   UNL     1       6.938  -3.940  -3.870  1.00  0.00    -0.268 OA
ATOM     60  N   UNL     1       5.713  -5.860  -4.120  1.00  0.00    -0.339 N 
ATOM     61  H   UNL     1       5.238  -6.613  -3.636  1.00  0.00     0.164 HD
BRANCH  60  62
ATOM     62  C   UNL     1       5.686  -5.828  -5.582  1.00  0.00     0.168 CG0
ATOM     63  C   UNL     1       4.478  -5.052  -6.090  1.00  0.00     0.041 C 
ATOM     64  G   UNL     1       5.679  -7.270  -6.130  1.00  0.00     0.000 G0
ENDBRANCH  60  62
ENDBRANCH  56  58
ENDBRANCH  54  56
ENDBRANCH  52  54
ENDBRANCH  51  52
ENDBRANCH  50  51
ENDBRANCH  49  50
BRANCH  49  65
ATOM     65  C   UNL     1       3.683   0.813   0.612  1.00  0.00     0.326 C 
ATOM     66  O   UNL     1       3.759   1.219  -0.539  1.00  0.00    -0.250 OA
BRANCH  65  67
ATOM     67  O   UNL     1       3.331   1.664   1.601  1.00  0.00    -0.480 OA
ATOM     68  H   UNL     1       3.818   2.488   1.382  1.00  0.00     0.296 HD
ENDBRANCH  65  67
ENDBRANCH  49  65
ENDBRANCH  47  49
ENDBRANCH  43  45
ENDBRANCH   1  43
BRANCH   1  69
ATOM     69  C   UNL     1       9.487   1.047   3.430  1.00  0.00    -0.001 C 
ATOM     70  C   UNL     1       9.707   2.248   3.995  1.00  0.00     0.001 C 
BRANCH  70  71
ATOM     71  C   UNL     1      10.880   3.104   3.812  1.00  0.00    -0.055 C 
ATOM     72  C   UNL     1      12.067   2.502   3.583  1.00  0.00    -0.018 C 
ATOM     73  C   UNL     1      10.680   4.595   3.884  1.00  0.00     0.044 C 
BRANCH  72  74
ATOM     74  C   UNL     1      13.436   3.128   3.355  1.00  0.00     0.038 C 
ATOM     75  C   UNL     1      14.211   2.191   2.422  1.00  0.00     0.015 C 
BRANCH  74  76
ATOM     76  C   UNL     1      14.109   3.376   4.737  1.00  0.00     0.128 C 
BRANCH  76  77
ATOM     77  O   UNL     1      15.211   2.471   4.917  1.00  0.00    -0.381 OA
ATOM     78  C   UNL     1      15.047   1.582   6.014  1.00  0.00     0.195 C 
ENDBRANCH  76  77
BRANCH  76  79
ATOM     79  C   UNL     1      14.501   4.854   4.990  1.00  0.00     0.068 C 
BRANCH  79  80
ATOM     80  C   UNL     1      13.942   5.534   6.216  1.00  0.00    -0.045 A 
ATOM     81  C   UNL     1      12.570   5.787   6.340  1.00  0.00     0.004 A 
ATOM     82  C   UNL     1      14.800   5.951   7.246  1.00  0.00     0.004 A 
ATOM     83  C   UNL     1      12.063   6.429   7.472  1.00  0.00     0.000 A 
ATOM     84  C   UNL     1      14.292   6.594   8.377  1.00  0.00     0.000 A 
ATOM     85  C   UNL     1      12.924   6.831   8.491  1.00  0.00     0.000 A 
ENDBRANCH  79  80
ENDBRANCH  76  79
ENDBRANCH  74  76
ENDBRANCH  72  74
ENDBRANCH  70  71
ENDBRANCH   1  69
TORSDOF 17
ENDMDL
MODEL 29
REMARK VINA RESULT:    -7.221      5.246     15.102
REMARK INTER + INTRA:         -27.241
REMARK INTER:                 -21.110
REMARK INTRA:                  -6.131
REMARK UNBOUND:                -5.667
REMARK SMILES C=C1C(=O)N[C@H](C)C(=O)N[C@@H](CC(C)C)C(=O)N[C@@H](C(=O)O)[C@H](C)C(=O)N[C@@H](CCCN=C(N)N)C(=O)N[C@@H](/C=C/C(C)=C/[C@H](C)[C@H](Cc2ccccc2)OC)[C@H](C)C(=O)N[C@@H](C(=O)O)CCC(=O)N1C
REMARK SMILES IDX 39 1 38 2 37 3 36 4 28 6 27 7 25 8 26 9 23 11 24 12 19 13
REMARK SMILES IDX 18 14 16 15 17 16 11 18 10 19 8 20 9 21 12 24 13 25 14 26
REMARK SMILES IDX 15 27 20 28 21 29 22 30 29 32 30 33 31 34 32 35 33 36 34 37
REMARK SMILES IDX 35 38 57 43 58 44 59 45 60 46 61 47 62 49 66 50 67 51 68 52
REMARK SMILES IDX 69 53 70 54 71 55 2 56 1 57 3 58 4 59 5 60 6 62 7 63 63 65
REMARK SMILES IDX 64 66 65 67 40 69 41 70 42 71 44 72 43 73 45 74 46 75 47 76
REMARK SMILES IDX 55 77 56 78 48 79 49 80 50 81 54 82 51 83 53 84 52 85
REMARK H PARENT 38 5 27 10 18 17 10 22 22 31 34 39 34 40 35 41 35 42 61 48
REMARK H PARENT 5 61 65 68
REMARK Flexibility Score:  369.900
ROOT
ATOM      1  C   UNL     1       8.709   0.793   7.693  1.00  0.00     0.117 C 
ENDROOT
BRANCH   1   2
ATOM      2  N   UNL     1       8.347   0.439   6.320  1.00  0.00    -0.347 N 
ATOM      3  O   UNL     1       8.747  -1.817   6.461  1.00  0.00    -0.273 OA
ATOM      4  C   UNL     1       8.308  -0.855   5.839  1.00  0.00     0.243 C 
ATOM      5  H   UNL     1       8.058   1.166   5.683  1.00  0.00     0.164 HD
BRANCH   4   6
ATOM      6  C   UNL     1       7.809  -0.962   4.376  1.00  0.00     0.171 C 
BRANCH   6   7
ATOM      7  N   UNL     1       6.640  -1.852   4.294  1.00  0.00    -0.344 N 
ATOM      8  C   UNL     1       6.438  -2.646   3.187  1.00  0.00     0.226 C 
ATOM      9  O   UNL     1       7.193  -2.638   2.221  1.00  0.00    -0.275 OA
ATOM     10  H   UNL     1       5.959  -1.837   5.043  1.00  0.00     0.164 HD
BRANCH   8  11
ATOM     11  C   UNL     1       5.219  -3.548   3.277  1.00  0.00     0.109 C 
ATOM     12  C   UNL     1       4.403  -3.205   4.524  1.00  0.00     0.021 C 
BRANCH  11  13
ATOM     13  C   UNL     1       4.432  -3.496   1.953  1.00  0.00     0.204 C 
BRANCH  13  14
ATOM     14  N   UNL     1       5.018  -4.366   0.928  1.00  0.00    -0.340 N 
ATOM     15  C   UNL     1       4.978  -4.070  -0.417  1.00  0.00     0.243 C 
ATOM     16  O   UNL     1       4.501  -3.023  -0.849  1.00  0.00    -0.273 OA
ATOM     17  H   UNL     1       5.292  -5.314   1.203  1.00  0.00     0.164 HD
BRANCH  15  18
ATOM     18  C   UNL     1       5.471  -5.228  -1.320  1.00  0.00     0.171 C 
BRANCH  18  19
ATOM     19  N   UNL     1       6.407  -4.643  -2.277  1.00  0.00    -0.343 N 
ATOM     20  C   UNL     1       6.030  -4.337  -3.571  1.00  0.00     0.242 CG0
ATOM     21  O   UNL     1       4.932  -4.664  -4.015  1.00  0.00    -0.273 OA
ATOM     22  H   UNL     1       7.362  -4.460  -1.991  1.00  0.00     0.164 HD
ATOM     23  G   UNL     1       7.130  -3.654  -4.410  1.00  0.00     0.000 G0
ENDBRANCH  18  19
BRANCH  18  24
ATOM     24  C   UNL     1       6.139  -6.324  -0.479  1.00  0.00     0.038 C 
BRANCH  24  25
ATOM     25  C   UNL     1       7.681  -6.335  -0.543  1.00  0.00    -0.015 C 
ATOM     26  C   UNL     1       8.253  -7.751  -0.620  1.00  0.00     0.007 C 
ATOM     27  C   UNL     1       8.252  -5.615   0.681  1.00  0.00     0.007 C 
ENDBRANCH  24  25
ENDBRANCH  18  24
ENDBRANCH  15  18
ENDBRANCH  13  14
BRANCH  13  28
ATOM     28  C   UNL     1       2.963  -3.901   2.107  1.00  0.00     0.327 C 
ATOM     29  O   UNL     1       2.526  -5.041   2.119  1.00  0.00    -0.250 OA
BRANCH  28  30
ATOM     30  O   UNL     1       2.122  -2.847   2.116  1.00  0.00    -0.480 OA
ATOM     31  H   UNL     1       2.461  -2.275   2.836  1.00  0.00     0.296 HD
ENDBRANCH  28  30
ENDBRANCH  13  28
ENDBRANCH  11  13
ENDBRANCH   8  11
ENDBRANCH   6   7
BRANCH   6  32
ATOM     32  C   UNL     1       7.467   0.440   3.858  1.00  0.00     0.037 C 
BRANCH  32  33
ATOM     33  C   UNL     1       5.962   0.615   3.612  1.00  0.00     0.026 C 
BRANCH  33  34
ATOM     34  C   UNL     1       5.638   0.912   2.148  1.00  0.00     0.146 C 
BRANCH  34  35
ATOM     35  N   UNL     1       4.400   0.233   1.793  1.00  0.00    -0.254 NA
ATOM     36  C   UNL     1       4.193  -0.066   0.565  1.00  0.00     0.185 C 
ATOM     37  N   UNL     1       3.057  -0.696   0.228  1.00  0.00    -0.370 N 
ATOM     38  N   UNL     1       4.977   0.161  -0.504  1.00  0.00    -0.370 N 
ATOM     39  H   UNL     1       2.417  -0.913   0.981  1.00  0.00     0.159 HD
ATOM     40  H   UNL     1       2.900  -1.116  -0.672  1.00  0.00     0.159 HD
ATOM     41  H   UNL     1       4.641   0.002  -1.439  1.00  0.00     0.159 HD
ATOM     42  H   UNL     1       5.857   0.642  -0.401  1.00  0.00     0.159 HD
ENDBRANCH  34  35
ENDBRANCH  33  34
ENDBRANCH  32  33
ENDBRANCH   6  32
ENDBRANCH   4   6
ENDBRANCH   1   2
BRANCH   1  43
ATOM     43  C   UNL     1      10.254   0.686   7.841  1.00  0.00     0.102 C 
ATOM     44  C   UNL     1      10.775   1.183   9.201  1.00  0.00     0.020 C 
BRANCH  43  45
ATOM     45  C   UNL     1      10.967   1.310   6.637  1.00  0.00     0.225 C 
ATOM     46  O   UNL     1      11.378   0.652   5.686  1.00  0.00    -0.275 OA
ATOM     47  N   UNL     1      11.207   2.662   6.727  1.00  0.00    -0.342 N 
ATOM     48  H   UNL     1      10.735   3.208   7.433  1.00  0.00     0.164 HD
BRANCH  47  49
ATOM     49  C   UNL     1      11.848   3.400   5.634  1.00  0.00     0.192 C 
BRANCH  49  50
ATOM     50  C   UNL     1      13.219   3.906   6.090  1.00  0.00     0.047 C 
BRANCH  50  51
ATOM     51  C   UNL     1      13.408   3.787   7.609  1.00  0.00     0.103 C 
BRANCH  51  52
ATOM     52  C   UNL     1      13.579   5.151   8.274  1.00  0.00     0.226 C 
ATOM     53  O   UNL     1      14.712   5.598   8.464  1.00  0.00    -0.275 OA
BRANCH  52  54
ATOM     54  N   UNL     1      12.399   5.858   8.567  1.00  0.00    -0.311 N 
ATOM     55  C   UNL     1      11.269   5.201   9.237  1.00  0.00     0.153 C 
BRANCH  54  56
ATOM     56  C   UNL     1      12.258   7.217   8.236  1.00  0.00     0.102 C 
ATOM     57  C   UNL     1      12.057   7.688   6.995  1.00  0.00     0.043 C 
BRANCH  56  58
ATOM     58  C   UNL     1      12.280   8.281   9.307  1.00  0.00     0.268 C 
ATOM     59  O   UNL     1      11.315   8.540  10.014  1.00  0.00    -0.268 OA
ATOM     60  N   UNL     1      13.509   8.879   9.450  1.00  0.00    -0.339 N 
ATOM     61  H   UNL     1      14.255   8.616   8.817  1.00  0.00     0.164 HD
BRANCH  60  62
ATOM     62  C   UNL     1      13.769   9.893  10.471  1.00  0.00     0.168 CG0
ATOM     63  C   UNL     1      15.129   9.677  11.123  1.00  0.00     0.041 C 
ATOM     64  G   UNL     1      12.645   9.862  11.528  1.00  0.00     0.000 G0
ENDBRANCH  60  62
ENDBRANCH  56  58
ENDBRANCH  54  56
ENDBRANCH  52  54
ENDBRANCH  51  52
ENDBRANCH  50  51
ENDBRANCH  49  50
BRANCH  49  65
ATOM     65  C   UNL     1      10.992   4.591   5.176  1.00  0.00     0.326 C 
ATOM     66  O   UNL     1      11.315   5.416   4.334  1.00  0.00    -0.250 OA
BRANCH  65  67
ATOM     67  O   UNL     1       9.817   4.725   5.829  1.00  0.00    -0.480 OA
ATOM     68  H   UNL     1       9.959   5.507   6.405  1.00  0.00     0.296 HD
ENDBRANCH  65  67
ENDBRANCH  49  65
ENDBRANCH  47  49
ENDBRANCH  43  45
ENDBRANCH   1  43
BRANCH   1  69
ATOM     69  C   UNL     1       7.826  -0.051   8.595  1.00  0.00    -0.001 C 
ATOM     70  C   UNL     1       7.183   0.343   9.708  1.00  0.00     0.001 C 
BRANCH  70  71
ATOM     71  C   UNL     1       6.316  -0.475  10.559  1.00  0.00    -0.055 C 
ATOM     72  C   UNL     1       5.592  -1.448   9.965  1.00  0.00    -0.018 C 
ATOM     73  C   UNL     1       6.299  -0.179  12.036  1.00  0.00     0.044 C 
BRANCH  72  74
ATOM     74  C   UNL     1       4.621  -2.441  10.588  1.00  0.00     0.038 C 
ATOM     75  C   UNL     1       5.445  -3.646  11.057  1.00  0.00     0.015 C 
BRANCH  74  76
ATOM     76  C   UNL     1       3.511  -2.775   9.548  1.00  0.00     0.128 C 
BRANCH  76  77
ATOM     77  O   UNL     1       4.098  -2.981   8.252  1.00  0.00    -0.381 OA
ATOM     78  C   UNL     1       4.023  -4.325   7.798  1.00  0.00     0.195 C 
ENDBRANCH  76  77
BRANCH  76  79
ATOM     79  C   UNL     1       2.578  -3.936   9.974  1.00  0.00     0.068 C 
BRANCH  79  80
ATOM     80  C   UNL     1       1.524  -3.650  11.017  1.00  0.00    -0.045 A 
ATOM     81  C   UNL     1       1.072  -2.344  11.247  1.00  0.00     0.004 A 
ATOM     82  C   UNL     1       1.000  -4.692  11.797  1.00  0.00     0.004 A 
ATOM     83  C   UNL     1       0.107  -2.086  12.223  1.00  0.00     0.000 A 
ATOM     84  C   UNL     1       0.035  -4.433  12.773  1.00  0.00     0.000 A 
ATOM     85  C   UNL     1      -0.411  -3.131  12.985  1.00  0.00     0.000 A 
ENDBRANCH  79  80
ENDBRANCH  76  79
ENDBRANCH  74  76
ENDBRANCH  72  74
ENDBRANCH  70  71
ENDBRANCH   1  69
TORSDOF 17
ENDMDL
MODEL 30
REMARK VINA RESULT:    -7.209      5.618     10.431
REMARK INTER + INTRA:         -27.206
REMARK INTER:                 -19.823
REMARK INTRA:                  -7.383
REMARK UNBOUND:                -5.667
REMARK SMILES C=C1C(=O)N[C@H](C)C(=O)N[C@@H](CC(C)C)C(=O)N[C@@H](C(=O)O)[C@H](C)C(=O)N[C@@H](CCCN=C(N)N)C(=O)N[C@@H](/C=C/C(C)=C/[C@H](C)[C@H](Cc2ccccc2)OC)[C@H](C)C(=O)N[C@@H](C(=O)O)CCC(=O)N1C
REMARK SMILES IDX 39 1 38 2 37 3 36 4 28 6 27 7 25 8 26 9 23 11 24 12 19 13
REMARK SMILES IDX 18 14 16 15 17 16 11 18 10 19 8 20 9 21 12 24 13 25 14 26
REMARK SMILES IDX 15 27 20 28 21 29 22 30 29 32 30 33 31 34 32 35 33 36 34 37
REMARK SMILES IDX 35 38 57 43 58 44 59 45 60 46 61 47 62 49 66 50 67 51 68 52
REMARK SMILES IDX 69 53 70 54 71 55 2 56 1 57 3 58 4 59 5 60 6 62 7 63 63 65
REMARK SMILES IDX 64 66 65 67 40 69 41 70 42 71 44 72 43 73 45 74 46 75 47 76
REMARK SMILES IDX 55 77 56 78 48 79 49 80 50 81 54 82 51 83 53 84 52 85
REMARK H PARENT 38 5 27 10 18 17 10 22 22 31 34 39 34 40 35 41 35 42 61 48
REMARK H PARENT 5 61 65 68
REMARK Flexibility Score:  369.900
ROOT
ATOM      1  C   UNL     1       5.741  -4.051   3.796  1.00  0.00     0.117 C 
ENDROOT
BRANCH   1   2
ATOM      2  N   UNL     1       6.918  -3.553   4.508  1.00  0.00    -0.347 N 
ATOM      3  O   UNL     1       8.454  -5.021   3.639  1.00  0.00    -0.273 OA
ATOM      4  C   UNL     1       8.202  -4.021   4.302  1.00  0.00     0.243 C 
ATOM      5  H   UNL     1       6.816  -2.788   5.157  1.00  0.00     0.164 HD
BRANCH   4   6
ATOM      6  C   UNL     1       9.280  -3.264   5.120  1.00  0.00     0.171 C 
BRANCH   6   7
ATOM      7  N   UNL     1       9.074  -1.810   5.021  1.00  0.00    -0.344 N 
ATOM      8  C   UNL     1      10.128  -0.969   4.738  1.00  0.00     0.226 C 
ATOM      9  O   UNL     1      11.273  -1.375   4.579  1.00  0.00    -0.275 OA
ATOM     10  H   UNL     1       8.155  -1.431   5.212  1.00  0.00     0.164 HD
BRANCH   8  11
ATOM     11  C   UNL     1       9.744   0.495   4.615  1.00  0.00     0.109 C 
ATOM     12  C   UNL     1      10.995   1.373   4.666  1.00  0.00     0.021 C 
BRANCH  11  13
ATOM     13  C   UNL     1       8.859   0.700   3.370  1.00  0.00     0.204 C 
BRANCH  13  14
ATOM     14  N   UNL     1       9.060  -0.354   2.371  1.00  0.00    -0.340 N 
ATOM     15  C   UNL     1       9.874  -0.197   1.270  1.00  0.00     0.243 C 
ATOM     16  O   UNL     1      10.539   0.820   1.081  1.00  0.00    -0.273 OA
ATOM     17  H   UNL     1       8.426  -1.158   2.386  1.00  0.00     0.164 HD
BRANCH  15  18
ATOM     18  C   UNL     1       9.769  -1.358   0.251  1.00  0.00     0.171 C 
BRANCH  18  19
ATOM     19  N   UNL     1      10.486  -2.491   0.832  1.00  0.00    -0.343 N 
ATOM     20  C   UNL     1      11.301  -3.306   0.069  1.00  0.00     0.242 CG0
ATOM     21  O   UNL     1      11.355  -3.198  -1.154  1.00  0.00    -0.273 OA
ATOM     22  H   UNL     1      10.383  -2.692   1.820  1.00  0.00     0.164 HD
ATOM     23  G   UNL     1      12.036  -4.400   0.870  1.00  0.00     0.000 G0
ENDBRANCH  18  19
BRANCH  18  24
ATOM     24  C   UNL     1       8.300  -1.704  -0.025  1.00  0.00     0.038 C 
BRANCH  24  25
ATOM     25  C   UNL     1       7.558  -0.694  -0.925  1.00  0.00    -0.015 C 
ATOM     26  C   UNL     1       6.041  -0.760  -0.751  1.00  0.00     0.007 C 
ATOM     27  C   UNL     1       7.920  -0.948  -2.391  1.00  0.00     0.007 C 
ENDBRANCH  24  25
ENDBRANCH  18  24
ENDBRANCH  15  18
ENDBRANCH  13  14
BRANCH  13  28
ATOM     28  C   UNL     1       7.362   0.739   3.693  1.00  0.00     0.327 C 
ATOM     29  O   UNL     1       6.452   0.880   2.890  1.00  0.00    -0.250 OA
BRANCH  28  30
ATOM     30  O   UNL     1       7.106   0.717   5.017  1.00  0.00    -0.480 OA
ATOM     31  H   UNL     1       7.753   1.347   5.398  1.00  0.00     0.296 HD
ENDBRANCH  28  30
ENDBRANCH  13  28
ENDBRANCH  11  13
ENDBRANCH   8  11
ENDBRANCH   6   7
BRANCH   6  32
ATOM     32  C   UNL     1       9.221  -3.727   6.579  1.00  0.00     0.037 C 
BRANCH  32  33
ATOM     33  C   UNL     1       7.940  -3.259   7.285  1.00  0.00     0.026 C 
BRANCH  33  34
ATOM     34  C   UNL     1       8.208  -2.164   8.318  1.00  0.00     0.146 C 
BRANCH  34  35
ATOM     35  N   UNL     1       8.027  -0.865   7.684  1.00  0.00    -0.254 NA
ATOM     36  C   UNL     1       8.464   0.179   8.285  1.00  0.00     0.185 C 
ATOM     37  N   UNL     1       8.306   1.380   7.707  1.00  0.00    -0.370 N 
ATOM     38  N   UNL     1       9.092   0.270   9.470  1.00  0.00    -0.370 N 
ATOM     39  H   UNL     1       7.849   1.393   6.804  1.00  0.00     0.159 HD
ATOM     40  H   UNL     1       8.768   2.214   8.025  1.00  0.00     0.159 HD
ATOM     41  H   UNL     1       9.263   1.163   9.902  1.00  0.00     0.159 HD
ATOM     42  H   UNL     1       9.264  -0.555  10.024  1.00  0.00     0.159 HD
ENDBRANCH  34  35
ENDBRANCH  33  34
ENDBRANCH  32  33
ENDBRANCH   6  32
ENDBRANCH   4   6
ENDBRANCH   1   2
BRANCH   1  43
ATOM     43  C   UNL     1       5.586  -3.249   2.472  1.00  0.00     0.102 C 
ATOM     44  C   UNL     1       4.629  -2.051   2.591  1.00  0.00     0.020 C 
BRANCH  43  45
ATOM     45  C   UNL     1       5.272  -4.181   1.298  1.00  0.00     0.225 C 
ATOM     46  O   UNL     1       4.199  -4.765   1.173  1.00  0.00    -0.275 OA
ATOM     47  N   UNL     1       6.311  -4.403   0.424  1.00  0.00    -0.342 N 
ATOM     48  H   UNL     1       7.125  -3.806   0.452  1.00  0.00     0.164 HD
BRANCH  47  49
ATOM     49  C   UNL     1       6.145  -5.244  -0.766  1.00  0.00     0.192 C 
BRANCH  49  50
ATOM     50  C   UNL     1       7.394  -6.106  -0.965  1.00  0.00     0.047 C 
BRANCH  50  51
ATOM     51  C   UNL     1       7.964  -6.621   0.364  1.00  0.00     0.103 C 
BRANCH  51  52
ATOM     52  C   UNL     1       8.691  -7.954   0.198  1.00  0.00     0.226 C 
ATOM     53  O   UNL     1       8.267  -8.784  -0.608  1.00  0.00    -0.275 OA
BRANCH  52  54
ATOM     54  N   UNL     1       9.873  -8.119   0.944  1.00  0.00    -0.311 N 
ATOM     55  C   UNL     1       9.826  -8.381   2.388  1.00  0.00     0.153 C 
BRANCH  54  56
ATOM     56  C   UNL     1      11.138  -8.046   0.337  1.00  0.00     0.102 C 
ATOM     57  C   UNL     1      11.641  -8.965  -0.504  1.00  0.00     0.043 C 
BRANCH  56  58
ATOM     58  C   UNL     1      12.039  -6.855   0.563  1.00  0.00     0.268 C 
ATOM     59  O   UNL     1      13.261  -6.930   0.559  1.00  0.00    -0.268 OA
ATOM     60  N   UNL     1      11.349  -5.676   0.708  1.00  0.00    -0.339 N 
ATOM     61  H   UNL     1      10.336  -5.701   0.710  1.00  0.00     0.164 HD
BRANCH  60  62
ATOM     62  C   UNL     1      12.028  -4.391   0.875  1.00  0.00     0.168 CG0
ATOM     63  C   UNL     1      12.109  -4.003   2.346  1.00  0.00     0.041 C 
ATOM     64  G   UNL     1      11.290  -3.307   0.064  1.00  0.00     0.000 G0
ENDBRANCH  60  62
ENDBRANCH  56  58
ENDBRANCH  54  56
ENDBRANCH  52  54
ENDBRANCH  51  52
ENDBRANCH  50  51
ENDBRANCH  49  50
BRANCH  49  65
ATOM     65  C   UNL     1       5.902  -4.400  -2.027  1.00  0.00     0.326 C 
ATOM     66  O   UNL     1       6.736  -4.150  -2.886  1.00  0.00    -0.250 OA
BRANCH  65  67
ATOM     67  O   UNL     1       4.664  -3.868  -2.120  1.00  0.00    -0.480 OA
ATOM     68  H   UNL     1       4.184  -4.263  -1.360  1.00  0.00     0.296 HD
ENDBRANCH  65  67
ENDBRANCH  49  65
ENDBRANCH  47  49
ENDBRANCH  43  45
ENDBRANCH   1  43
BRANCH   1  69
ATOM     69  C   UNL     1       4.602  -4.038   4.799  1.00  0.00    -0.001 C 
ATOM     70  C   UNL     1       4.694  -3.971   6.139  1.00  0.00     0.001 C 
BRANCH  70  71
ATOM     71  C   UNL     1       3.587  -3.937   7.097  1.00  0.00    -0.055 C 
ATOM     72  C   UNL     1       2.745  -2.883   7.046  1.00  0.00    -0.018 C 
ATOM     73  C   UNL     1       3.460  -5.085   8.064  1.00  0.00     0.044 C 
BRANCH  72  74
ATOM     74  C   UNL     1       1.522  -2.585   7.901  1.00  0.00     0.038 C 
ATOM     75  C   UNL     1       0.854  -1.335   7.316  1.00  0.00     0.015 C 
BRANCH  74  76
ATOM     76  C   UNL     1       1.970  -2.451   9.387  1.00  0.00     0.128 C 
BRANCH  76  77
ATOM     77  O   UNL     1       3.034  -1.489   9.493  1.00  0.00    -0.381 OA
ATOM     78  C   UNL     1       3.188  -0.951  10.800  1.00  0.00     0.195 C 
ENDBRANCH  76  77
BRANCH  76  79
ATOM     79  C   UNL     1       0.808  -2.170  10.372  1.00  0.00     0.068 C 
BRANCH  79  80
ATOM     80  C   UNL     1       0.463  -3.239  11.381  1.00  0.00    -0.045 A 
ATOM     81  C   UNL     1       0.859  -4.569  11.188  1.00  0.00     0.004 A 
ATOM     82  C   UNL     1      -0.289  -2.918  12.521  1.00  0.00     0.004 A 
ATOM     83  C   UNL     1       0.524  -5.554  12.119  1.00  0.00     0.000 A 
ATOM     84  C   UNL     1      -0.624  -3.905  13.452  1.00  0.00     0.000 A 
ATOM     85  C   UNL     1      -0.216  -5.221  13.251  1.00  0.00     0.000 A 
ENDBRANCH  79  80
ENDBRANCH  76  79
ENDBRANCH  74  76
ENDBRANCH  72  74
ENDBRANCH  70  71
ENDBRANCH   1  69
TORSDOF 17
ENDMDL
MODEL 31
REMARK VINA RESULT:    -7.190      3.805      8.513
REMARK INTER + INTRA:         -27.149
REMARK INTER:                 -18.820
REMARK INTRA:                  -8.329
REMARK UNBOUND:                -5.667
REMARK SMILES C=C1C(=O)N[C@H](C)C(=O)N[C@@H](CC(C)C)C(=O)N[C@@H](C(=O)O)[C@H](C)C(=O)N[C@@H](CCCN=C(N)N)C(=O)N[C@@H](/C=C/C(C)=C/[C@H](C)[C@H](Cc2ccccc2)OC)[C@H](C)C(=O)N[C@@H](C(=O)O)CCC(=O)N1C
REMARK SMILES IDX 39 1 38 2 37 3 36 4 28 6 27 7 25 8 26 9 23 11 24 12 19 13
REMARK SMILES IDX 18 14 16 15 17 16 11 18 10 19 8 20 9 21 12 24 13 25 14 26
REMARK SMILES IDX 15 27 20 28 21 29 22 30 29 32 30 33 31 34 32 35 33 36 34 37
REMARK SMILES IDX 35 38 57 43 58 44 59 45 60 46 61 47 62 49 66 50 67 51 68 52
REMARK SMILES IDX 69 53 70 54 71 55 2 56 1 57 3 58 4 59 5 60 6 62 7 63 63 65
REMARK SMILES IDX 64 66 65 67 40 69 41 70 42 71 44 72 43 73 45 74 46 75 47 76
REMARK SMILES IDX 55 77 56 78 48 79 49 80 50 81 54 82 51 83 53 84 52 85
REMARK H PARENT 38 5 27 10 18 17 10 22 22 31 34 39 34 40 35 41 35 42 61 48
REMARK H PARENT 5 61 65 68
REMARK Flexibility Score:  369.900
ROOT
ATOM      1  C   UNL     1       7.397  -2.011   3.097  1.00  0.00     0.117 C 
ENDROOT
BRANCH   1   2
ATOM      2  N   UNL     1       8.311  -1.236   3.937  1.00  0.00    -0.347 N 
ATOM      3  O   UNL     1       7.412   0.840   3.545  1.00  0.00    -0.273 OA
ATOM      4  C   UNL     1       8.187   0.121   4.166  1.00  0.00     0.243 C 
ATOM      5  H   UNL     1       9.054  -1.710   4.427  1.00  0.00     0.164 HD
BRANCH   4   6
ATOM      6  C   UNL     1       9.233   0.682   5.163  1.00  0.00     0.171 C 
BRANCH   6   7
ATOM      7  N   UNL     1      10.302   1.391   4.442  1.00  0.00    -0.344 N 
ATOM      8  C   UNL     1      11.583   1.434   4.949  1.00  0.00     0.226 C 
ATOM      9  O   UNL     1      11.888   0.914   6.016  1.00  0.00    -0.275 OA
ATOM     10  H   UNL     1      10.073   1.890   3.592  1.00  0.00     0.164 HD
BRANCH   8  11
ATOM     11  C   UNL     1      12.583   2.156   4.063  1.00  0.00     0.109 C 
ATOM     12  C   UNL     1      12.292   1.859   2.592  1.00  0.00     0.021 C 
BRANCH  11  13
ATOM     13  C   UNL     1      12.616   3.654   4.427  1.00  0.00     0.204 C 
BRANCH  13  14
ATOM     14  N   UNL     1      12.522   3.872   5.874  1.00  0.00    -0.340 N 
ATOM     15  C   UNL     1      11.498   4.585   6.459  1.00  0.00     0.243 C 
ATOM     16  O   UNL     1      10.556   5.038   5.812  1.00  0.00    -0.273 OA
ATOM     17  H   UNL     1      13.343   3.656   6.446  1.00  0.00     0.164 HD
BRANCH  15  18
ATOM     18  C   UNL     1      11.719   4.862   7.966  1.00  0.00     0.171 C 
BRANCH  18  19
ATOM     19  N   UNL     1      11.835   6.311   8.113  1.00  0.00    -0.343 N 
ATOM     20  C   UNL     1      12.838   6.889   8.867  1.00  0.00     0.242 CG0
ATOM     21  O   UNL     1      13.598   6.211   9.555  1.00  0.00    -0.273 OA
ATOM     22  H   UNL     1      11.159   6.913   7.656  1.00  0.00     0.164 HD
ATOM     23  G   UNL     1      12.846   8.432   8.840  1.00  0.00     0.000 G0
ENDBRANCH  18  19
BRANCH  18  24
ATOM     24  C   UNL     1      10.556   4.304   8.795  1.00  0.00     0.038 C 
BRANCH  24  25
ATOM     25  C   UNL     1      10.979   3.405   9.977  1.00  0.00    -0.015 C 
ATOM     26  C   UNL     1      11.234   4.202  11.256  1.00  0.00     0.007 C 
ATOM     27  C   UNL     1      12.237   2.618   9.600  1.00  0.00     0.007 C 
ENDBRANCH  24  25
ENDBRANCH  18  24
ENDBRANCH  15  18
ENDBRANCH  13  14
BRANCH  13  28
ATOM     28  C   UNL     1      13.883   4.365   3.942  1.00  0.00     0.327 C 
ATOM     29  O   UNL     1      14.330   5.418   4.370  1.00  0.00    -0.250 OA
BRANCH  28  30
ATOM     30  O   UNL     1      14.445   3.771   2.870  1.00  0.00    -0.480 OA
ATOM     31  H   UNL     1      15.019   3.076   3.253  1.00  0.00     0.296 HD
ENDBRANCH  28  30
ENDBRANCH  13  28
ENDBRANCH  11  13
ENDBRANCH   8  11
ENDBRANCH   6   7
BRANCH   6  32
ATOM     32  C   UNL     1       8.531   1.614   6.157  1.00  0.00     0.037 C 
BRANCH  32  33
ATOM     33  C   UNL     1       8.093   0.879   7.431  1.00  0.00     0.026 C 
BRANCH  33  34
ATOM     34  C   UNL     1       9.261   0.607   8.381  1.00  0.00     0.146 C 
BRANCH  34  35
ATOM     35  N   UNL     1       9.153  -0.757   8.880  1.00  0.00    -0.254 NA
ATOM     36  C   UNL     1       9.935  -1.651   8.399  1.00  0.00     0.185 C 
ATOM     37  N   UNL     1       9.847  -2.910   8.855  1.00  0.00    -0.370 N 
ATOM     38  N   UNL     1      10.886  -1.523   7.457  1.00  0.00    -0.370 N 
ATOM     39  H   UNL     1       9.159  -3.085   9.576  1.00  0.00     0.159 HD
ATOM     40  H   UNL     1      10.531  -3.620   8.660  1.00  0.00     0.159 HD
ATOM     41  H   UNL     1      11.341  -2.330   7.063  1.00  0.00     0.159 HD
ATOM     42  H   UNL     1      11.051  -0.633   7.013  1.00  0.00     0.159 HD
ENDBRANCH  34  35
ENDBRANCH  33  34
ENDBRANCH  32  33
ENDBRANCH   6  32
ENDBRANCH   4   6
ENDBRANCH   1   2
BRANCH   1  43
ATOM     43  C   UNL     1       6.100  -2.296   3.907  1.00  0.00     0.102 C 
ATOM     44  C   UNL     1       5.933  -3.775   4.295  1.00  0.00     0.020 C 
BRANCH  43  45
ATOM     45  C   UNL     1       4.875  -1.693   3.214  1.00  0.00     0.225 C 
ATOM     46  O   UNL     1       3.726  -2.066   3.438  1.00  0.00    -0.275 OA
ATOM     47  N   UNL     1       5.144  -0.758   2.241  1.00  0.00    -0.342 N 
ATOM     48  H   UNL     1       6.069  -0.356   2.176  1.00  0.00     0.164 HD
BRANCH  47  49
ATOM     49  C   UNL     1       4.069  -0.071   1.520  1.00  0.00     0.192 C 
BRANCH  49  50
ATOM     50  C   UNL     1       4.477   0.131   0.058  1.00  0.00     0.047 C 
BRANCH  50  51
ATOM     51  C   UNL     1       5.717  -0.691  -0.319  1.00  0.00     0.103 C 
BRANCH  51  52
ATOM     52  C   UNL     1       5.360  -1.917  -1.158  1.00  0.00     0.226 C 
ATOM     53  O   UNL     1       4.179  -2.245  -1.286  1.00  0.00    -0.275 OA
BRANCH  52  54
ATOM     54  N   UNL     1       6.427  -2.563  -1.809  1.00  0.00    -0.311 N 
ATOM     55  C   UNL     1       7.740  -1.917  -1.933  1.00  0.00     0.153 C 
BRANCH  54  56
ATOM     56  C   UNL     1       6.279  -3.848  -2.357  1.00  0.00     0.102 C 
ATOM     57  C   UNL     1       6.150  -4.978  -1.643  1.00  0.00     0.043 C 
BRANCH  56  58
ATOM     58  C   UNL     1       6.208  -4.049  -3.852  1.00  0.00     0.268 C 
ATOM     59  O   UNL     1       7.182  -3.961  -4.587  1.00  0.00    -0.268 OA
ATOM     60  N   UNL     1       4.955  -4.406  -4.290  1.00  0.00    -0.339 N 
ATOM     61  H   UNL     1       4.197  -4.447  -3.619  1.00  0.00     0.164 HD
BRANCH  60  62
ATOM     62  C   UNL     1       4.677  -4.709  -5.693  1.00  0.00     0.168 CG0
ATOM     63  C   UNL     1       4.958  -6.175  -6.002  1.00  0.00     0.041 C 
ATOM     64  G   UNL     1       5.522  -3.789  -6.598  1.00  0.00     0.000 G0
ENDBRANCH  60  62
ENDBRANCH  56  58
ENDBRANCH  54  56
ENDBRANCH  52  54
ENDBRANCH  51  52
ENDBRANCH  50  51
ENDBRANCH  49  50
BRANCH  49  65
ATOM     65  C   UNL     1       3.744   1.292   2.150  1.00  0.00     0.326 C 
ATOM     66  O   UNL     1       2.899   2.078   1.747  1.00  0.00    -0.250 OA
BRANCH  65  67
ATOM     67  O   UNL     1       4.522   1.626   3.203  1.00  0.00    -0.480 OA
ATOM     68  H   UNL     1       5.240   0.957   3.182  1.00  0.00     0.296 HD
ENDBRANCH  65  67
ENDBRANCH  49  65
ENDBRANCH  47  49
ENDBRANCH  43  45
ENDBRANCH   1  43
BRANCH   1  69
ATOM     69  C   UNL     1       8.202  -3.182   2.564  1.00  0.00    -0.001 C 
ATOM     70  C   UNL     1       8.320  -3.578   1.284  1.00  0.00     0.001 C 
BRANCH  70  71
ATOM     71  C   UNL     1       9.117  -4.698   0.780  1.00  0.00    -0.055 C 
ATOM     72  C   UNL     1       8.588  -5.937   0.873  1.00  0.00    -0.018 C 
ATOM     73  C   UNL     1      10.467  -4.389   0.187  1.00  0.00     0.044 C 
BRANCH  72  74
ATOM     74  C   UNL     1       9.177  -7.270   0.435  1.00  0.00     0.038 C 
ATOM     75  C   UNL     1       8.148  -7.939  -0.485  1.00  0.00     0.015 C 
BRANCH  74  76
ATOM     76  C   UNL     1       9.550  -8.093   1.703  1.00  0.00     0.128 C 
BRANCH  76  77
ATOM     77  O   UNL     1       9.611  -9.493   1.380  1.00  0.00    -0.381 OA
ATOM     78  C   UNL     1       9.067 -10.336   2.386  1.00  0.00     0.195 C 
ENDBRANCH  76  77
BRANCH  76  79
ATOM     79  C   UNL     1      10.824  -7.589   2.428  1.00  0.00     0.068 C 
BRANCH  79  80
ATOM     80  C   UNL     1      10.672  -6.466   3.425  1.00  0.00    -0.045 A 
ATOM     81  C   UNL     1      11.634  -5.451   3.521  1.00  0.00     0.004 A 
ATOM     82  C   UNL     1       9.571  -6.436   4.295  1.00  0.00     0.004 A 
ATOM     83  C   UNL     1      11.493  -4.423   4.456  1.00  0.00     0.000 A 
ATOM     84  C   UNL     1       9.432  -5.408   5.230  1.00  0.00     0.000 A 
ATOM     85  C   UNL     1      10.392  -4.401   5.309  1.00  0.00     0.000 A 
ENDBRANCH  79  80
ENDBRANCH  76  79
ENDBRANCH  74  76
ENDBRANCH  72  74
ENDBRANCH  70  71
ENDBRANCH   1  69
TORSDOF 17
ENDMDL
MODEL 32
REMARK VINA RESULT:    -7.176      6.200     14.781
REMARK INTER + INTRA:         -27.107
REMARK INTER:                 -20.072
REMARK INTRA:                  -7.035
REMARK UNBOUND:                -5.667
REMARK SMILES C=C1C(=O)N[C@H](C)C(=O)N[C@@H](CC(C)C)C(=O)N[C@@H](C(=O)O)[C@H](C)C(=O)N[C@@H](CCCN=C(N)N)C(=O)N[C@@H](/C=C/C(C)=C/[C@H](C)[C@H](Cc2ccccc2)OC)[C@H](C)C(=O)N[C@@H](C(=O)O)CCC(=O)N1C
REMARK SMILES IDX 39 1 38 2 37 3 36 4 28 6 27 7 25 8 26 9 23 11 24 12 19 13
REMARK SMILES IDX 18 14 16 15 17 16 11 18 10 19 8 20 9 21 12 24 13 25 14 26
REMARK SMILES IDX 15 27 20 28 21 29 22 30 29 32 30 33 31 34 32 35 33 36 34 37
REMARK SMILES IDX 35 38 57 43 58 44 59 45 60 46 61 47 62 49 66 50 67 51 68 52
REMARK SMILES IDX 69 53 70 54 71 55 2 56 1 57 3 58 4 59 5 60 6 62 7 63 63 65
REMARK SMILES IDX 64 66 65 67 40 69 41 70 42 71 44 72 43 73 45 74 46 75 47 76
REMARK SMILES IDX 55 77 56 78 48 79 49 80 50 81 54 82 51 83 53 84 52 85
REMARK H PARENT 38 5 27 10 18 17 10 22 22 31 34 39 34 40 35 41 35 42 61 48
REMARK H PARENT 5 61 65 68
REMARK Flexibility Score:  369.900
ROOT
ATOM      1  C   UNL     1       8.829   1.136   7.280  1.00  0.00     0.117 C 
ENDROOT
BRANCH   1   2
ATOM      2  N   UNL     1       8.363   0.420   6.092  1.00  0.00    -0.347 N 
ATOM      3  O   UNL     1       7.934   2.249   4.772  1.00  0.00    -0.273 OA
ATOM      4  C   UNL     1       8.038   1.033   4.897  1.00  0.00     0.243 C 
ATOM      5  H   UNL     1       8.315  -0.587   6.109  1.00  0.00     0.164 HD
BRANCH   4   6
ATOM      6  C   UNL     1       7.657   0.040   3.770  1.00  0.00     0.171 C 
BRANCH   6   7
ATOM      7  N   UNL     1       6.351   0.395   3.192  1.00  0.00    -0.344 N 
ATOM      8  C   UNL     1       5.292  -0.485   3.254  1.00  0.00     0.226 C 
ATOM      9  O   UNL     1       5.386  -1.596   3.762  1.00  0.00    -0.275 OA
ATOM     10  H   UNL     1       6.253   1.277   2.704  1.00  0.00     0.164 HD
BRANCH   8  11
ATOM     11  C   UNL     1       3.999   0.049   2.662  1.00  0.00     0.109 C 
ATOM     12  C   UNL     1       4.264   1.355   1.913  1.00  0.00     0.021 C 
BRANCH  11  13
ATOM     13  C   UNL     1       3.315  -1.051   1.826  1.00  0.00     0.204 C 
BRANCH  13  14
ATOM     14  N   UNL     1       4.288  -1.914   1.148  1.00  0.00    -0.340 N 
ATOM     15  C   UNL     1       4.402  -1.979  -0.224  1.00  0.00     0.243 C 
ATOM     16  O   UNL     1       3.736  -1.270  -0.977  1.00  0.00    -0.273 OA
ATOM     17  H   UNL     1       4.761  -2.632   1.702  1.00  0.00     0.164 HD
BRANCH  15  18
ATOM     18  C   UNL     1       5.345  -3.105  -0.714  1.00  0.00     0.171 C 
BRANCH  18  19
ATOM     19  N   UNL     1       4.526  -4.308  -0.847  1.00  0.00    -0.343 N 
ATOM     20  C   UNL     1       4.188  -5.084   0.245  1.00  0.00     0.242 CG0
ATOM     21  O   UNL     1       4.668  -4.875   1.357  1.00  0.00    -0.273 OA
ATOM     22  H   UNL     1       4.200  -4.589  -1.765  1.00  0.00     0.164 HD
ATOM     23  G   UNL     1       3.254  -6.268  -0.080  1.00  0.00     0.000 G0
ENDBRANCH  18  19
BRANCH  18  24
ATOM     24  C   UNL     1       6.001  -2.721  -2.046  1.00  0.00     0.038 C 
BRANCH  24  25
ATOM     25  C   UNL     1       7.479  -2.290  -1.936  1.00  0.00    -0.015 C 
ATOM     26  C   UNL     1       8.263  -3.138  -0.933  1.00  0.00     0.007 C 
ATOM     27  C   UNL     1       7.556  -0.815  -1.534  1.00  0.00     0.007 C 
ENDBRANCH  24  25
ENDBRANCH  18  24
ENDBRANCH  15  18
ENDBRANCH  13  14
BRANCH  13  28
ATOM     28  C   UNL     1       2.403  -1.960   2.655  1.00  0.00     0.327 C 
ATOM     29  O   UNL     1       1.943  -1.710   3.758  1.00  0.00    -0.250 OA
BRANCH  28  30
ATOM     30  O   UNL     1       2.220  -3.175   2.099  1.00  0.00    -0.480 OA
ATOM     31  H   UNL     1       1.709  -2.993   1.283  1.00  0.00     0.296 HD
ENDBRANCH  28  30
ENDBRANCH  13  28
ENDBRANCH  11  13
ENDBRANCH   8  11
ENDBRANCH   6   7
BRANCH   6  32
ATOM     32  C   UNL     1       8.751   0.051   2.698  1.00  0.00     0.037 C 
BRANCH  32  33
ATOM     33  C   UNL     1       9.010  -1.347   2.119  1.00  0.00     0.026 C 
BRANCH  33  34
ATOM     34  C   UNL     1       9.169  -2.410   3.207  1.00  0.00     0.146 C 
BRANCH  34  35
ATOM     35  N   UNL     1       8.152  -3.435   3.015  1.00  0.00    -0.254 NA
ATOM     36  C   UNL     1       7.424  -3.773   4.014  1.00  0.00     0.185 C 
ATOM     37  N   UNL     1       6.481  -4.713   3.847  1.00  0.00    -0.370 N 
ATOM     38  N   UNL     1       7.455  -3.311   5.276  1.00  0.00    -0.370 N 
ATOM     39  H   UNL     1       6.388  -5.103   2.918  1.00  0.00     0.159 HD
ATOM     40  H   UNL     1       5.763  -4.906   4.524  1.00  0.00     0.159 HD
ATOM     41  H   UNL     1       6.924  -3.756   6.007  1.00  0.00     0.159 HD
ATOM     42  H   UNL     1       8.127  -2.611   5.550  1.00  0.00     0.159 HD
ENDBRANCH  34  35
ENDBRANCH  33  34
ENDBRANCH  32  33
ENDBRANCH   6  32
ENDBRANCH   4   6
ENDBRANCH   1   2
BRANCH   1  43
ATOM     43  C   UNL     1      10.362   0.912   7.424  1.00  0.00     0.102 C 
ATOM     44  C   UNL     1      10.877   1.108   8.860  1.00  0.00     0.020 C 
BRANCH  43  45
ATOM     45  C   UNL     1      11.136   1.711   6.371  1.00  0.00     0.225 C 
ATOM     46  O   UNL     1      11.581   1.210   5.343  1.00  0.00    -0.275 OA
ATOM     47  N   UNL     1      11.389   3.025   6.694  1.00  0.00    -0.342 N 
ATOM     48  H   UNL     1      10.893   3.457   7.460  1.00  0.00     0.164 HD
BRANCH  47  49
ATOM     49  C   UNL     1      12.089   3.919   5.767  1.00  0.00     0.192 C 
BRANCH  49  50
ATOM     50  C   UNL     1      12.989   4.875   6.555  1.00  0.00     0.047 C 
BRANCH  50  51
ATOM     51  C   UNL     1      12.247   5.546   7.719  1.00  0.00     0.103 C 
BRANCH  51  52
ATOM     52  C   UNL     1      12.377   7.067   7.681  1.00  0.00     0.226 C 
ATOM     53  O   UNL     1      12.189   7.670   6.623  1.00  0.00    -0.275 OA
BRANCH  52  54
ATOM     54  N   UNL     1      12.638   7.704   8.909  1.00  0.00    -0.311 N 
ATOM     55  C   UNL     1      13.998   7.756   9.460  1.00  0.00     0.153 C 
BRANCH  54  56
ATOM     56  C   UNL     1      11.613   8.318   9.647  1.00  0.00     0.102 C 
ATOM     57  C   UNL     1      11.006   7.778  10.716  1.00  0.00     0.043 C 
BRANCH  56  58
ATOM     58  C   UNL     1      11.133   9.708   9.300  1.00  0.00     0.268 C 
ATOM     59  O   UNL     1      11.750  10.465   8.563  1.00  0.00    -0.268 OA
ATOM     60  N   UNL     1       9.906  10.007   9.843  1.00  0.00    -0.339 N 
ATOM     61  H   UNL     1       9.465   9.329  10.453  1.00  0.00     0.164 HD
BRANCH  60  62
ATOM     62  C   UNL     1       9.228  11.276   9.583  1.00  0.00     0.168 CG0
ATOM     63  C   UNL     1       7.822  11.045   9.042  1.00  0.00     0.041 C 
ATOM     64  G   UNL     1      10.062  12.115   8.593  1.00  0.00     0.000 G0
ENDBRANCH  60  62
ENDBRANCH  56  58
ENDBRANCH  54  56
ENDBRANCH  52  54
ENDBRANCH  51  52
ENDBRANCH  50  51
ENDBRANCH  49  50
BRANCH  49  65
ATOM     65  C   UNL     1      11.104   4.734   4.914  1.00  0.00     0.326 C 
ATOM     66  O   UNL     1      11.409   5.478   3.992  1.00  0.00    -0.250 OA
BRANCH  65  67
ATOM     67  O   UNL     1       9.811   4.628   5.290  1.00  0.00    -0.480 OA
ATOM     68  H   UNL     1       9.427   5.499   5.047  1.00  0.00     0.296 HD
ENDBRANCH  65  67
ENDBRANCH  49  65
ENDBRANCH  47  49
ENDBRANCH  43  45
ENDBRANCH   1  43
BRANCH   1  69
ATOM     69  C   UNL     1       7.915   0.712   8.416  1.00  0.00    -0.001 C 
ATOM     70  C   UNL     1       7.720  -0.532   8.886  1.00  0.00     0.001 C 
BRANCH  70  71
ATOM     71  C   UNL     1       6.852  -0.927   9.997  1.00  0.00    -0.055 C 
ATOM     72  C   UNL     1       6.643  -2.246  10.193  1.00  0.00    -0.018 C 
ATOM     73  C   UNL     1       6.260   0.167  10.848  1.00  0.00     0.044 C 
BRANCH  72  74
ATOM     74  C   UNL     1       5.803  -2.940  11.255  1.00  0.00     0.038 C 
ATOM     75  C   UNL     1       6.644  -2.991  12.536  1.00  0.00     0.015 C 
BRANCH  74  76
ATOM     76  C   UNL     1       5.357  -4.330  10.711  1.00  0.00     0.128 C 
BRANCH  76  77
ATOM     77  O   UNL     1       5.935  -5.377  11.508  1.00  0.00    -0.381 OA
ATOM     78  C   UNL     1       4.973  -6.198  12.157  1.00  0.00     0.195 C 
ENDBRANCH  76  77
BRANCH  76  79
ATOM     79  C   UNL     1       3.823  -4.478  10.546  1.00  0.00     0.068 C 
BRANCH  79  80
ATOM     80  C   UNL     1       3.167  -3.786   9.377  1.00  0.00    -0.045 A 
ATOM     81  C   UNL     1       3.603  -4.014   8.065  1.00  0.00     0.004 A 
ATOM     82  C   UNL     1       2.122  -2.874   9.590  1.00  0.00     0.004 A 
ATOM     83  C   UNL     1       3.000  -3.359   6.989  1.00  0.00     0.000 A 
ATOM     84  C   UNL     1       1.520  -2.218   8.514  1.00  0.00     0.000 A 
ATOM     85  C   UNL     1       1.958  -2.462   7.214  1.00  0.00     0.000 A 
ENDBRANCH  79  80
ENDBRANCH  76  79
ENDBRANCH  74  76
ENDBRANCH  72  74
ENDBRANCH  70  71
ENDBRANCH   1  69
TORSDOF 17
ENDMDL
MODEL 33
REMARK VINA RESULT:    -7.166      3.002      7.531
REMARK INTER + INTRA:         -27.076
REMARK INTER:                 -19.831
REMARK INTRA:                  -7.245
REMARK UNBOUND:                -5.667
REMARK SMILES C=C1C(=O)N[C@H](C)C(=O)N[C@@H](CC(C)C)C(=O)N[C@@H](C(=O)O)[C@H](C)C(=O)N[C@@H](CCCN=C(N)N)C(=O)N[C@@H](/C=C/C(C)=C/[C@H](C)[C@H](Cc2ccccc2)OC)[C@H](C)C(=O)N[C@@H](C(=O)O)CCC(=O)N1C
REMARK SMILES IDX 39 1 38 2 37 3 36 4 28 6 27 7 25 8 26 9 23 11 24 12 19 13
REMARK SMILES IDX 18 14 16 15 17 16 11 18 10 19 8 20 9 21 12 24 13 25 14 26
REMARK SMILES IDX 15 27 20 28 21 29 22 30 29 32 30 33 31 34 32 35 33 36 34 37
REMARK SMILES IDX 35 38 57 43 58 44 59 45 60 46 61 47 62 49 66 50 67 51 68 52
REMARK SMILES IDX 69 53 70 54 71 55 2 56 1 57 3 58 4 59 5 60 6 62 7 63 63 65
REMARK SMILES IDX 64 66 65 67 40 69 41 70 42 71 44 72 43 73 45 74 46 75 47 76
REMARK SMILES IDX 55 77 56 78 48 79 49 80 50 81 54 82 51 83 53 84 52 85
REMARK H PARENT 38 5 27 10 18 17 10 22 22 31 34 39 34 40 35 41 35 42 61 48
REMARK H PARENT 5 61 65 68
REMARK Flexibility Score:  369.900
ROOT
ATOM      1  C   UNL     1       9.055  -1.766  -0.054  1.00  0.00     0.117 C 
ENDROOT
BRANCH   1   2
ATOM      2  N   UNL     1       9.661  -3.002   0.444  1.00  0.00    -0.347 N 
ATOM      3  O   UNL     1      11.698  -2.791  -0.593  1.00  0.00    -0.273 OA
ATOM      4  C   UNL     1      10.971  -3.370   0.207  1.00  0.00     0.243 C 
ATOM      5  H   UNL     1       9.122  -3.612   1.039  1.00  0.00     0.164 HD
BRANCH   4   6
ATOM      6  C   UNL     1      11.388  -4.682   0.920  1.00  0.00     0.171 C 
BRANCH   6   7
ATOM      7  N   UNL     1      10.277  -5.201   1.733  1.00  0.00    -0.344 N 
ATOM      8  C   UNL     1       9.936  -4.598   2.924  1.00  0.00     0.226 C 
ATOM      9  O   UNL     1      10.542  -3.631   3.372  1.00  0.00    -0.275 OA
ATOM     10  H   UNL     1       9.796  -6.038   1.429  1.00  0.00     0.164 HD
BRANCH   8  11
ATOM     11  C   UNL     1       8.735  -5.216   3.618  1.00  0.00     0.109 C 
ATOM     12  C   UNL     1       8.991  -5.320   5.121  1.00  0.00     0.021 C 
BRANCH  11  13
ATOM     13  C   UNL     1       7.456  -4.448   3.230  1.00  0.00     0.204 C 
BRANCH  13  14
ATOM     14  N   UNL     1       7.620  -2.998   3.367  1.00  0.00    -0.340 N 
ATOM     15  C   UNL     1       6.888  -2.243   4.257  1.00  0.00     0.243 C 
ATOM     16  O   UNL     1       6.085  -2.742   5.043  1.00  0.00    -0.273 OA
ATOM     17  H   UNL     1       8.154  -2.505   2.646  1.00  0.00     0.164 HD
BRANCH  15  18
ATOM     18  C   UNL     1       7.081  -0.717   4.079  1.00  0.00     0.171 C 
BRANCH  18  19
ATOM     19  N   UNL     1       8.391  -0.393   4.640  1.00  0.00    -0.343 N 
ATOM     20  C   UNL     1       8.526   0.378   5.778  1.00  0.00     0.242 CG0
ATOM     21  O   UNL     1       7.562   0.936   6.296  1.00  0.00    -0.273 OA
ATOM     22  H   UNL     1       9.228  -0.735   4.180  1.00  0.00     0.164 HD
ATOM     23  G   UNL     1       9.981   0.547   6.264  1.00  0.00     0.000 G0
ENDBRANCH  18  19
BRANCH  18  24
ATOM     24  C   UNL     1       6.992  -0.328   2.598  1.00  0.00     0.038 C 
BRANCH  24  25
ATOM     25  C   UNL     1       5.555  -0.176   2.057  1.00  0.00    -0.015 C 
ATOM     26  C   UNL     1       5.498  -0.205   0.529  1.00  0.00     0.007 C 
ATOM     27  C   UNL     1       4.947   1.132   2.570  1.00  0.00     0.007 C 
ENDBRANCH  24  25
ENDBRANCH  18  24
ENDBRANCH  15  18
ENDBRANCH  13  14
BRANCH  13  28
ATOM     28  C   UNL     1       7.002  -4.720   1.792  1.00  0.00     0.327 C 
ATOM     29  O   UNL     1       7.224  -5.730   1.142  1.00  0.00    -0.250 OA
BRANCH  28  30
ATOM     30  O   UNL     1       6.399  -3.658   1.219  1.00  0.00    -0.480 OA
ATOM     31  H   UNL     1       6.281  -3.022   1.954  1.00  0.00     0.296 HD
ENDBRANCH  28  30
ENDBRANCH  13  28
ENDBRANCH  11  13
ENDBRANCH   8  11
ENDBRANCH   6   7
BRANCH   6  32
ATOM     32  C   UNL     1      11.824  -5.709  -0.131  1.00  0.00     0.037 C 
BRANCH  32  33
ATOM     33  C   UNL     1      12.302  -7.021   0.506  1.00  0.00     0.026 C 
BRANCH  33  34
ATOM     34  C   UNL     1      11.514  -8.234   0.008  1.00  0.00     0.146 C 
BRANCH  34  35
ATOM     35  N   UNL     1      10.100  -7.890  -0.034  1.00  0.00    -0.254 NA
ATOM     36  C   UNL     1       9.239  -8.837  -0.095  1.00  0.00     0.185 C 
ATOM     37  N   UNL     1       7.932  -8.531  -0.129  1.00  0.00    -0.370 N 
ATOM     38  N   UNL     1       9.445 -10.165  -0.130  1.00  0.00    -0.370 N 
ATOM     39  H   UNL     1       7.695  -7.548  -0.096  1.00  0.00     0.159 HD
ATOM     40  H   UNL     1       7.199  -9.208  -0.002  1.00  0.00     0.159 HD
ATOM     41  H   UNL     1       8.690 -10.804  -0.318  1.00  0.00     0.159 HD
ATOM     42  H   UNL     1      10.381 -10.539  -0.126  1.00  0.00     0.159 HD
ENDBRANCH  34  35
ENDBRANCH  33  34
ENDBRANCH  32  33
ENDBRANCH   6  32
ENDBRANCH   4   6
ENDBRANCH   1   2
BRANCH   1  43
ATOM     43  C   UNL     1       8.728  -1.949  -1.564  1.00  0.00     0.102 C 
ATOM     44  C   UNL     1       7.955  -0.765  -2.171  1.00  0.00     0.020 C 
BRANCH  43  45
ATOM     45  C   UNL     1       8.081  -3.312  -1.826  1.00  0.00     0.225 C 
ATOM     46  O   UNL     1       8.594  -4.375  -1.486  1.00  0.00    -0.275 OA
ATOM     47  N   UNL     1       6.916  -3.285  -2.559  1.00  0.00    -0.342 N 
ATOM     48  H   UNL     1       6.433  -2.408  -2.697  1.00  0.00     0.164 HD
BRANCH  47  49
ATOM     49  C   UNL     1       6.168  -4.510  -2.856  1.00  0.00     0.192 C 
BRANCH  49  50
ATOM     50  C   UNL     1       5.397  -4.337  -4.167  1.00  0.00     0.047 C 
BRANCH  50  51
ATOM     51  C   UNL     1       5.991  -5.176  -5.306  1.00  0.00     0.103 C 
BRANCH  51  52
ATOM     52  C   UNL     1       4.955  -5.498  -6.382  1.00  0.00     0.226 C 
ATOM     53  O   UNL     1       3.807  -5.801  -6.051  1.00  0.00    -0.275 OA
BRANCH  52  54
ATOM     54  N   UNL     1       5.373  -5.352  -7.718  1.00  0.00    -0.311 N 
ATOM     55  C   UNL     1       5.346  -4.040  -8.378  1.00  0.00     0.153 C 
BRANCH  54  56
ATOM     56  C   UNL     1       5.833  -6.448  -8.465  1.00  0.00     0.102 C 
ATOM     57  C   UNL     1       7.073  -6.959  -8.395  1.00  0.00     0.043 C 
BRANCH  56  58
ATOM     58  C   UNL     1       4.912  -7.186  -9.408  1.00  0.00     0.268 C 
ATOM     59  O   UNL     1       3.865  -7.708  -9.048  1.00  0.00    -0.268 OA
ATOM     60  N   UNL     1       5.336  -7.153 -10.715  1.00  0.00    -0.339 N 
ATOM     61  H   UNL     1       6.220  -6.708 -10.929  1.00  0.00     0.164 HD
BRANCH  60  62
ATOM     62  C   UNL     1       4.561  -7.751 -11.800  1.00  0.00     0.168 CG0
ATOM     63  C   UNL     1       5.363  -8.833 -12.514  1.00  0.00     0.041 C 
ATOM     64  G   UNL     1       4.124  -6.652 -12.791  1.00  0.00     0.000 G0
ENDBRANCH  60  62
ENDBRANCH  56  58
ENDBRANCH  54  56
ENDBRANCH  52  54
ENDBRANCH  51  52
ENDBRANCH  50  51
ENDBRANCH  49  50
BRANCH  49  65
ATOM     65  C   UNL     1       5.184  -4.860  -1.728  1.00  0.00     0.326 C 
ATOM     66  O   UNL     1       4.937  -5.988  -1.326  1.00  0.00    -0.250 OA
BRANCH  65  67
ATOM     67  O   UNL     1       4.522  -3.803  -1.209  1.00  0.00    -0.480 OA
ATOM     68  H   UNL     1       4.082  -4.173  -0.414  1.00  0.00     0.296 HD
ENDBRANCH  65  67
ENDBRANCH  49  65
ENDBRANCH  47  49
ENDBRANCH  43  45
ENDBRANCH   1  43
BRANCH   1  69
ATOM     69  C   UNL     1       9.982  -0.640   0.365  1.00  0.00    -0.001 C 
ATOM     70  C   UNL     1      10.380  -0.330   1.611  1.00  0.00     0.001 C 
BRANCH  70  71
ATOM     71  C   UNL     1      11.292   0.747   2.001  1.00  0.00    -0.055 C 
ATOM     72  C   UNL     1      12.618   0.518   1.886  1.00  0.00    -0.018 C 
ATOM     73  C   UNL     1      10.689   2.035   2.494  1.00  0.00     0.044 C 
BRANCH  72  74
ATOM     74  C   UNL     1      13.785   1.439   2.209  1.00  0.00     0.038 C 
ATOM     75  C   UNL     1      14.905   1.116   1.212  1.00  0.00     0.015 C 
BRANCH  74  76
ATOM     76  C   UNL     1      14.171   1.255   3.706  1.00  0.00     0.128 C 
BRANCH  76  77
ATOM     77  O   UNL     1      15.376   0.478   3.811  1.00  0.00    -0.381 OA
ATOM     78  C   UNL     1      15.222  -0.716   4.566  1.00  0.00     0.195 C 
ENDBRANCH  76  77
BRANCH  76  79
ATOM     79  C   UNL     1      14.240   2.580   4.506  1.00  0.00     0.068 C 
BRANCH  79  80
ATOM     80  C   UNL     1      12.945   3.303   4.789  1.00  0.00    -0.045 A 
ATOM     81  C   UNL     1      12.604   4.471   4.094  1.00  0.00     0.004 A 
ATOM     82  C   UNL     1      12.072   2.829   5.780  1.00  0.00     0.004 A 
ATOM     83  C   UNL     1      11.411   5.142   4.372  1.00  0.00     0.000 A 
ATOM     84  C   UNL     1      10.880   3.501   6.057  1.00  0.00     0.000 A 
ATOM     85  C   UNL     1      10.549   4.656   5.352  1.00  0.00     0.000 A 
ENDBRANCH  79  80
ENDBRANCH  76  79
ENDBRANCH  74  76
ENDBRANCH  72  74
ENDBRANCH  70  71
ENDBRANCH   1  69
TORSDOF 17
ENDMDL
MODEL 34
REMARK VINA RESULT:    -7.153      3.649      7.463
REMARK INTER + INTRA:         -27.039
REMARK INTER:                 -22.629
REMARK INTRA:                  -4.409
REMARK UNBOUND:                -5.667
REMARK SMILES C=C1C(=O)N[C@H](C)C(=O)N[C@@H](CC(C)C)C(=O)N[C@@H](C(=O)O)[C@H](C)C(=O)N[C@@H](CCCN=C(N)N)C(=O)N[C@@H](/C=C/C(C)=C/[C@H](C)[C@H](Cc2ccccc2)OC)[C@H](C)C(=O)N[C@@H](C(=O)O)CCC(=O)N1C
REMARK SMILES IDX 39 1 38 2 37 3 36 4 28 6 27 7 25 8 26 9 23 11 24 12 19 13
REMARK SMILES IDX 18 14 16 15 17 16 11 18 10 19 8 20 9 21 12 24 13 25 14 26
REMARK SMILES IDX 15 27 20 28 21 29 22 30 29 32 30 33 31 34 32 35 33 36 34 37
REMARK SMILES IDX 35 38 57 43 58 44 59 45 60 46 61 47 62 49 66 50 67 51 68 52
REMARK SMILES IDX 69 53 70 54 71 55 2 56 1 57 3 58 4 59 5 60 6 62 7 63 63 65
REMARK SMILES IDX 64 66 65 67 40 69 41 70 42 71 44 72 43 73 45 74 46 75 47 76
REMARK SMILES IDX 55 77 56 78 48 79 49 80 50 81 54 82 51 83 53 84 52 85
REMARK H PARENT 38 5 27 10 18 17 10 22 22 31 34 39 34 40 35 41 35 42 61 48
REMARK H PARENT 5 61 65 68
REMARK Flexibility Score:  369.900
ROOT
ATOM      1  C   UNL     1       7.996  -0.997   0.597  1.00  0.00     0.117 C 
ENDROOT
BRANCH   1   2
ATOM      2  N   UNL     1       7.734  -2.260   1.287  1.00  0.00    -0.347 N 
ATOM      3  O   UNL     1       5.910  -1.580   2.503  1.00  0.00    -0.273 OA
ATOM      4  C   UNL     1       6.652  -2.477   2.119  1.00  0.00     0.243 C 
ATOM      5  H   UNL     1       8.340  -3.050   1.121  1.00  0.00     0.164 HD
BRANCH   4   6
ATOM      6  C   UNL     1       6.559  -3.928   2.654  1.00  0.00     0.171 C 
BRANCH   6   7
ATOM      7  N   UNL     1       7.229  -4.039   3.960  1.00  0.00    -0.344 N 
ATOM      8  C   UNL     1       6.594  -3.632   5.113  1.00  0.00     0.226 C 
ATOM      9  O   UNL     1       5.469  -3.146   5.111  1.00  0.00    -0.275 OA
ATOM     10  H   UNL     1       8.184  -4.373   3.994  1.00  0.00     0.164 HD
BRANCH   8  11
ATOM     11  C   UNL     1       7.394  -3.862   6.383  1.00  0.00     0.109 C 
ATOM     12  C   UNL     1       8.872  -3.559   6.134  1.00  0.00     0.021 C 
BRANCH  11  13
ATOM     13  C   UNL     1       6.759  -3.078   7.548  1.00  0.00     0.204 C 
BRANCH  13  14
ATOM     14  N   UNL     1       6.070  -3.959   8.495  1.00  0.00    -0.340 N 
ATOM     15  C   UNL     1       4.707  -3.918   8.700  1.00  0.00     0.243 C 
ATOM     16  O   UNL     1       3.965  -3.179   8.057  1.00  0.00    -0.273 OA
ATOM     17  H   UNL     1       6.639  -4.485   9.164  1.00  0.00     0.164 HD
BRANCH  15  18
ATOM     18  C   UNL     1       4.234  -4.789   9.890  1.00  0.00     0.171 C 
BRANCH  18  19
ATOM     19  N   UNL     1       4.546  -4.042  11.106  1.00  0.00    -0.343 N 
ATOM     20  C   UNL     1       5.741  -4.210  11.779  1.00  0.00     0.242 CG0
ATOM     21  O   UNL     1       6.539  -5.090  11.463  1.00  0.00    -0.273 OA
ATOM     22  H   UNL     1       3.868  -3.384  11.474  1.00  0.00     0.164 HD
ATOM     23  G   UNL     1       5.925  -3.279  12.995  1.00  0.00     0.000 G0
ENDBRANCH  18  19
BRANCH  18  24
ATOM     24  C   UNL     1       2.733  -5.085   9.782  1.00  0.00     0.038 C 
BRANCH  24  25
ATOM     25  C   UNL     1       1.863  -4.404  10.859  1.00  0.00    -0.015 C 
ATOM     26  C   UNL     1       0.807  -5.345  11.439  1.00  0.00     0.007 C 
ATOM     27  C   UNL     1       1.182  -3.168  10.265  1.00  0.00     0.007 C 
ENDBRANCH  24  25
ENDBRANCH  18  24
ENDBRANCH  15  18
ENDBRANCH  13  14
BRANCH  13  28
ATOM     28  C   UNL     1       7.776  -2.258   8.349  1.00  0.00     0.327 C 
ATOM     29  O   UNL     1       8.345  -2.611   9.370  1.00  0.00    -0.250 OA
BRANCH  28  30
ATOM     30  O   UNL     1       7.924  -1.000   7.885  1.00  0.00    -0.480 OA
ATOM     31  H   UNL     1       8.767  -0.695   8.281  1.00  0.00     0.296 HD
ENDBRANCH  28  30
ENDBRANCH  13  28
ENDBRANCH  11  13
ENDBRANCH   8  11
ENDBRANCH   6   7
BRANCH   6  32
ATOM     32  C   UNL     1       5.084  -4.332   2.761  1.00  0.00     0.037 C 
BRANCH  32  33
ATOM     33  C   UNL     1       4.399  -4.391   1.388  1.00  0.00     0.026 C 
BRANCH  33  34
ATOM     34  C   UNL     1       3.026  -3.718   1.390  1.00  0.00     0.146 C 
BRANCH  34  35
ATOM     35  N   UNL     1       2.697  -3.327   2.754  1.00  0.00    -0.254 NA
ATOM     36  C   UNL     1       2.560  -2.081   3.020  1.00  0.00     0.185 C 
ATOM     37  N   UNL     1       2.251  -1.710   4.272  1.00  0.00    -0.370 N 
ATOM     38  N   UNL     1       2.682  -1.024   2.198  1.00  0.00    -0.370 N 
ATOM     39  H   UNL     1       2.132  -2.452   4.949  1.00  0.00     0.159 HD
ATOM     40  H   UNL     1       1.959  -0.781   4.520  1.00  0.00     0.159 HD
ATOM     41  H   UNL     1       2.688  -0.083   2.557  1.00  0.00     0.159 HD
ATOM     42  H   UNL     1       2.928  -1.153   1.229  1.00  0.00     0.159 HD
ENDBRANCH  34  35
ENDBRANCH  33  34
ENDBRANCH  32  33
ENDBRANCH   6  32
ENDBRANCH   4   6
ENDBRANCH   1   2
BRANCH   1  43
ATOM     43  C   UNL     1       7.478  -1.115  -0.866  1.00  0.00     0.102 C 
ATOM     44  C   UNL     1       6.051  -0.574  -1.054  1.00  0.00     0.020 C 
BRANCH  43  45
ATOM     45  C   UNL     1       7.683  -2.532  -1.409  1.00  0.00     0.225 C 
ATOM     46  O   UNL     1       8.767  -3.108  -1.390  1.00  0.00    -0.275 OA
ATOM     47  N   UNL     1       6.584  -3.098  -2.015  1.00  0.00    -0.342 N 
ATOM     48  H   UNL     1       5.673  -2.681  -1.889  1.00  0.00     0.164 HD
BRANCH  47  49
ATOM     49  C   UNL     1       6.623  -4.463  -2.550  1.00  0.00     0.192 C 
BRANCH  49  50
ATOM     50  C   UNL     1       5.699  -4.565  -3.766  1.00  0.00     0.047 C 
BRANCH  50  51
ATOM     51  C   UNL     1       6.057  -5.752  -4.671  1.00  0.00     0.103 C 
BRANCH  51  52
ATOM     52  C   UNL     1       6.376  -5.309  -6.098  1.00  0.00     0.226 C 
ATOM     53  O   UNL     1       7.255  -4.467  -6.293  1.00  0.00    -0.275 OA
BRANCH  52  54
ATOM     54  N   UNL     1       5.679  -5.965  -7.128  1.00  0.00    -0.311 N 
ATOM     55  C   UNL     1       4.370  -6.585  -6.880  1.00  0.00     0.153 C 
BRANCH  54  56
ATOM     56  C   UNL     1       6.201  -6.047  -8.430  1.00  0.00     0.102 C 
ATOM     57  C   UNL     1       7.128  -6.932  -8.831  1.00  0.00     0.043 C 
BRANCH  56  58
ATOM     58  C   UNL     1       5.702  -5.135  -9.525  1.00  0.00     0.268 C 
ATOM     59  O   UNL     1       6.029  -3.960  -9.619  1.00  0.00    -0.268 OA
ATOM     60  N   UNL     1       4.898  -5.776 -10.437  1.00  0.00    -0.339 N 
ATOM     61  H   UNL     1       4.665  -6.749 -10.282  1.00  0.00     0.164 HD
BRANCH  60  62
ATOM     62  C   UNL     1       4.356  -5.094 -11.612  1.00  0.00     0.168 CG0
ATOM     63  C   UNL     1       2.841  -5.236 -11.676  1.00  0.00     0.041 C 
ATOM     64  G   UNL     1       5.012  -5.663 -12.888  1.00  0.00     0.000 G0
ENDBRANCH  60  62
ENDBRANCH  56  58
ENDBRANCH  54  56
ENDBRANCH  52  54
ENDBRANCH  51  52
ENDBRANCH  50  51
ENDBRANCH  49  50
BRANCH  49  65
ATOM     65  C   UNL     1       6.193  -5.496  -1.496  1.00  0.00     0.326 C 
ATOM     66  O   UNL     1       6.905  -5.942  -0.608  1.00  0.00    -0.250 OA
BRANCH  65  67
ATOM     67  O   UNL     1       4.932  -5.959  -1.642  1.00  0.00    -0.480 OA
ATOM     68  H   UNL     1       4.529  -5.811  -0.759  1.00  0.00     0.296 HD
ENDBRANCH  65  67
ENDBRANCH  49  65
ENDBRANCH  47  49
ENDBRANCH  43  45
ENDBRANCH   1  43
BRANCH   1  69
ATOM     69  C   UNL     1       9.462  -0.682   0.832  1.00  0.00    -0.001 C 
ATOM     70  C   UNL     1      10.374  -1.451   1.454  1.00  0.00     0.001 C 
BRANCH  70  71
ATOM     71  C   UNL     1      11.791  -1.145   1.656  1.00  0.00    -0.055 C 
ATOM     72  C   UNL     1      12.310  -0.098   0.980  1.00  0.00    -0.018 C 
ATOM     73  C   UNL     1      12.568  -2.015   2.610  1.00  0.00     0.044 C 
BRANCH  72  74
ATOM     74  C   UNL     1      13.731   0.449   0.995  1.00  0.00     0.038 C 
ATOM     75  C   UNL     1      14.644  -0.650   0.437  1.00  0.00     0.015 C 
BRANCH  74  76
ATOM     76  C   UNL     1      14.074   0.912   2.441  1.00  0.00     0.128 C 
BRANCH  76  77
ATOM     77  O   UNL     1      15.334   0.353   2.849  1.00  0.00    -0.381 OA
ATOM     78  C   UNL     1      15.370  -0.036   4.216  1.00  0.00     0.195 C 
ENDBRANCH  76  77
BRANCH  76  79
ATOM     79  C   UNL     1      14.006   2.447   2.642  1.00  0.00     0.068 C 
BRANCH  79  80
ATOM     80  C   UNL     1      12.749   3.026   3.245  1.00  0.00    -0.045 A 
ATOM     81  C   UNL     1      12.697   4.363   3.661  1.00  0.00     0.004 A 
ATOM     82  C   UNL     1      11.615   2.220   3.424  1.00  0.00     0.004 A 
ATOM     83  C   UNL     1      11.534   4.887   4.230  1.00  0.00     0.000 A 
ATOM     84  C   UNL     1      10.453   2.744   3.994  1.00  0.00     0.000 A 
ATOM     85  C   UNL     1      10.412   4.078   4.396  1.00  0.00     0.000 A 
ENDBRANCH  79  80
ENDBRANCH  76  79
ENDBRANCH  74  76
ENDBRANCH  72  74
ENDBRANCH  70  71
ENDBRANCH   1  69
TORSDOF 17
ENDMDL
MODEL 35
REMARK VINA RESULT:    -7.153      2.841     12.086
REMARK INTER + INTRA:         -27.038
REMARK INTER:                 -21.013
REMARK INTRA:                  -6.024
REMARK UNBOUND:                -5.667
REMARK SMILES C=C1C(=O)N[C@H](C)C(=O)N[C@@H](CC(C)C)C(=O)N[C@@H](C(=O)O)[C@H](C)C(=O)N[C@@H](CCCN=C(N)N)C(=O)N[C@@H](/C=C/C(C)=C/[C@H](C)[C@H](Cc2ccccc2)OC)[C@H](C)C(=O)N[C@@H](C(=O)O)CCC(=O)N1C
REMARK SMILES IDX 39 1 38 2 37 3 36 4 28 6 27 7 25 8 26 9 23 11 24 12 19 13
REMARK SMILES IDX 18 14 16 15 17 16 11 18 10 19 8 20 9 21 12 24 13 25 14 26
REMARK SMILES IDX 15 27 20 28 21 29 22 30 29 32 30 33 31 34 32 35 33 36 34 37
REMARK SMILES IDX 35 38 57 43 58 44 59 45 60 46 61 47 62 49 66 50 67 51 68 52
REMARK SMILES IDX 69 53 70 54 71 55 2 56 1 57 3 58 4 59 5 60 6 62 7 63 63 65
REMARK SMILES IDX 64 66 65 67 40 69 41 70 42 71 44 72 43 73 45 74 46 75 47 76
REMARK SMILES IDX 55 77 56 78 48 79 49 80 50 81 54 82 51 83 53 84 52 85
REMARK H PARENT 38 5 27 10 18 17 10 22 22 31 34 39 34 40 35 41 35 42 61 48
REMARK H PARENT 5 61 65 68
REMARK Flexibility Score:  369.900
ROOT
ATOM      1  C   UNL     1       8.334  -3.733   4.042  1.00  0.00     0.117 C 
ENDROOT
BRANCH   1   2
ATOM      2  N   UNL     1       7.441  -3.491   2.908  1.00  0.00    -0.347 N 
ATOM      3  O   UNL     1       5.634  -4.681   3.675  1.00  0.00    -0.273 OA
ATOM      4  C   UNL     1       6.126  -3.910   2.857  1.00  0.00     0.243 C 
ATOM      5  H   UNL     1       7.771  -2.945   2.127  1.00  0.00     0.164 HD
BRANCH   4   6
ATOM      6  C   UNL     1       5.375  -3.451   1.582  1.00  0.00     0.171 C 
BRANCH   6   7
ATOM      7  N   UNL     1       6.080  -3.911   0.375  1.00  0.00    -0.344 N 
ATOM      8  C   UNL     1       5.698  -3.470  -0.873  1.00  0.00     0.226 C 
ATOM      9  O   UNL     1       4.755  -2.705  -1.044  1.00  0.00    -0.275 OA
ATOM     10  H   UNL     1       6.820  -4.595   0.470  1.00  0.00     0.164 HD
BRANCH   8  11
ATOM     11  C   UNL     1       6.557  -3.992  -2.011  1.00  0.00     0.109 C 
ATOM     12  C   UNL     1       8.029  -4.001  -1.597  1.00  0.00     0.021 C 
BRANCH  11  13
ATOM     13  C   UNL     1       6.012  -5.350  -2.497  1.00  0.00     0.204 C 
BRANCH  13  14
ATOM     14  N   UNL     1       6.151  -5.514  -3.947  1.00  0.00    -0.340 N 
ATOM     15  C   UNL     1       5.379  -4.823  -4.856  1.00  0.00     0.243 C 
ATOM     16  O   UNL     1       4.558  -3.973  -4.514  1.00  0.00    -0.273 OA
ATOM     17  H   UNL     1       6.701  -6.306  -4.290  1.00  0.00     0.164 HD
BRANCH  15  18
ATOM     18  C   UNL     1       5.556  -5.310  -6.315  1.00  0.00     0.171 C 
BRANCH  18  19
ATOM     19  N   UNL     1       4.619  -4.540  -7.130  1.00  0.00    -0.343 N 
ATOM     20  C   UNL     1       3.732  -5.152  -7.995  1.00  0.00     0.242 CG0
ATOM     21  O   UNL     1       3.780  -6.359  -8.218  1.00  0.00    -0.273 OA
ATOM     22  H   UNL     1       4.620  -3.528  -7.067  1.00  0.00     0.164 HD
ATOM     23  G   UNL     1       2.769  -4.182  -8.711  1.00  0.00     0.000 G0
ENDBRANCH  18  19
BRANCH  18  24
ATOM     24  C   UNL     1       7.004  -5.109  -6.780  1.00  0.00     0.038 C 
BRANCH  24  25
ATOM     25  C   UNL     1       7.259  -5.460  -8.262  1.00  0.00    -0.015 C 
ATOM     26  C   UNL     1       7.447  -6.961  -8.483  1.00  0.00     0.007 C 
ATOM     27  C   UNL     1       8.493  -4.706  -8.764  1.00  0.00     0.007 C 
ENDBRANCH  24  25
ENDBRANCH  18  24
ENDBRANCH  15  18
ENDBRANCH  13  14
BRANCH  13  28
ATOM     28  C   UNL     1       6.701  -6.548  -1.836  1.00  0.00     0.327 C 
ATOM     29  O   UNL     1       7.466  -7.330  -2.378  1.00  0.00    -0.250 OA
BRANCH  28  30
ATOM     30  O   UNL     1       6.294  -6.758  -0.568  1.00  0.00    -0.480 OA
ATOM     31  H   UNL     1       5.571  -7.413  -0.652  1.00  0.00     0.296 HD
ENDBRANCH  28  30
ENDBRANCH  13  28
ENDBRANCH  11  13
ENDBRANCH   8  11
ENDBRANCH   6   7
BRANCH   6  32
ATOM     32  C   UNL     1       3.942  -3.993   1.619  1.00  0.00     0.037 C 
BRANCH  32  33
ATOM     33  C   UNL     1       2.915  -2.897   1.936  1.00  0.00     0.026 C 
BRANCH  33  34
ATOM     34  C   UNL     1       3.563  -1.637   2.512  1.00  0.00     0.146 C 
BRANCH  34  35
ATOM     35  N   UNL     1       3.065  -0.478   1.784  1.00  0.00    -0.254 NA
ATOM     36  C   UNL     1       3.507   0.682   2.099  1.00  0.00     0.185 C 
ATOM     37  N   UNL     1       3.059   1.756   1.431  1.00  0.00    -0.370 N 
ATOM     38  N   UNL     1       4.402   1.016   3.045  1.00  0.00    -0.370 N 
ATOM     39  H   UNL     1       2.388   1.585   0.693  1.00  0.00     0.159 HD
ATOM     40  H   UNL     1       3.479   2.667   1.497  1.00  0.00     0.159 HD
ATOM     41  H   UNL     1       4.565   1.979   3.291  1.00  0.00     0.159 HD
ATOM     42  H   UNL     1       4.811   0.310   3.636  1.00  0.00     0.159 HD
ENDBRANCH  34  35
ENDBRANCH  33  34
ENDBRANCH  32  33
ENDBRANCH   6  32
ENDBRANCH   4   6
ENDBRANCH   1   2
BRANCH   1  43
ATOM     43  C   UNL     1       8.913  -2.368   4.516  1.00  0.00     0.102 C 
ATOM     44  C   UNL     1       8.050  -1.674   5.582  1.00  0.00     0.020 C 
BRANCH  43  45
ATOM     45  C   UNL     1       9.263  -1.475   3.322  1.00  0.00     0.225 C 
ATOM     46  O   UNL     1       8.417  -0.896   2.646  1.00  0.00    -0.275 OA
ATOM     47  N   UNL     1      10.597  -1.431   2.985  1.00  0.00    -0.342 N 
ATOM     48  H   UNL     1      11.288  -1.783   3.633  1.00  0.00     0.164 HD
BRANCH  47  49
ATOM     49  C   UNL     1      11.083  -0.590   1.887  1.00  0.00     0.192 C 
BRANCH  49  50
ATOM     50  C   UNL     1      10.629   0.855   2.107  1.00  0.00     0.047 C 
BRANCH  50  51
ATOM     51  C   UNL     1      11.668   1.681   2.878  1.00  0.00     0.103 C 
BRANCH  51  52
ATOM     52  C   UNL     1      11.175   2.067   4.271  1.00  0.00     0.226 C 
ATOM     53  O   UNL     1      10.774   1.192   5.040  1.00  0.00    -0.275 OA
BRANCH  52  54
ATOM     54  N   UNL     1      11.284   3.426   4.620  1.00  0.00    -0.311 N 
ATOM     55  C   UNL     1      10.563   4.461   3.867  1.00  0.00     0.153 C 
BRANCH  54  56
ATOM     56  C   UNL     1      12.079   3.843   5.701  1.00  0.00     0.102 C 
ATOM     57  C   UNL     1      13.339   3.437   5.929  1.00  0.00     0.043 C 
BRANCH  56  58
ATOM     58  C   UNL     1      11.564   4.854   6.697  1.00  0.00     0.268 C 
ATOM     59  O   UNL     1      10.590   4.655   7.411  1.00  0.00    -0.268 OA
ATOM     60  N   UNL     1      12.338   5.988   6.765  1.00  0.00    -0.339 N 
ATOM     61  H   UNL     1      13.123   6.081   6.132  1.00  0.00     0.164 HD
BRANCH  60  62
ATOM     62  C   UNL     1      12.055   7.069   7.709  1.00  0.00     0.168 CG0
ATOM     63  C   UNL     1      12.764   6.835   9.037  1.00  0.00     0.041 C 
ATOM     64  G   UNL     1      10.531   7.188   7.917  1.00  0.00     0.000 G0
ENDBRANCH  60  62
ENDBRANCH  56  58
ENDBRANCH  54  56
ENDBRANCH  52  54
ENDBRANCH  51  52
ENDBRANCH  50  51
ENDBRANCH  49  50
BRANCH  49  65
ATOM     65  C   UNL     1      10.569  -1.083   0.526  1.00  0.00     0.326 C 
ATOM     66  O   UNL     1      10.855  -2.151   0.002  1.00  0.00    -0.250 OA
BRANCH  65  67
ATOM     67  O   UNL     1       9.783  -0.204  -0.133  1.00  0.00    -0.480 OA
ATOM     68  H   UNL     1      10.423   0.362  -0.616  1.00  0.00     0.296 HD
ENDBRANCH  65  67
ENDBRANCH  49  65
ENDBRANCH  47  49
ENDBRANCH  43  45
ENDBRANCH   1  43
BRANCH   1  69
ATOM     69  C   UNL     1       9.294  -4.823   3.601  1.00  0.00    -0.001 C 
ATOM     70  C   UNL     1       9.215  -6.138   3.871  1.00  0.00     0.001 C 
BRANCH  70  71
ATOM     71  C   UNL     1      10.136  -7.185   3.422  1.00  0.00    -0.055 C 
ATOM     72  C   UNL     1      11.219  -6.806   2.711  1.00  0.00    -0.018 C 
ATOM     73  C   UNL     1       9.814  -8.609   3.792  1.00  0.00     0.044 C 
BRANCH  72  74
ATOM     74  C   UNL     1      12.333  -7.660   2.124  1.00  0.00     0.038 C 
ATOM     75  C   UNL     1      13.646  -7.191   2.763  1.00  0.00     0.015 C 
BRANCH  74  76
ATOM     76  C   UNL     1      12.285  -7.549   0.572  1.00  0.00     0.128 C 
BRANCH  76  77
ATOM     77  O   UNL     1      13.492  -6.936   0.086  1.00  0.00    -0.381 OA
ATOM     78  C   UNL     1      13.568  -6.870  -1.331  1.00  0.00     0.195 C 
ENDBRANCH  76  77
BRANCH  76  79
ATOM     79  C   UNL     1      11.959  -8.883  -0.145  1.00  0.00     0.068 C 
BRANCH  79  80
ATOM     80  C   UNL     1      10.706  -9.617   0.264  1.00  0.00    -0.045 A 
ATOM     81  C   UNL     1      10.774 -10.821   0.978  1.00  0.00     0.004 A 
ATOM     82  C   UNL     1       9.444  -9.116  -0.093  1.00  0.00     0.004 A 
ATOM     83  C   UNL     1       9.610 -11.501   1.341  1.00  0.00     0.000 A 
ATOM     84  C   UNL     1       8.281  -9.798   0.270  1.00  0.00     0.000 A 
ATOM     85  C   UNL     1       8.364 -10.989   0.987  1.00  0.00     0.000 A 
ENDBRANCH  79  80
ENDBRANCH  76  79
ENDBRANCH  74  76
ENDBRANCH  72  74
ENDBRANCH  70  71
ENDBRANCH   1  69
TORSDOF 17
ENDMDL
MODEL 36
REMARK VINA RESULT:    -7.126      3.439      7.258
REMARK INTER + INTRA:         -26.956
REMARK INTER:                 -20.779
REMARK INTRA:                  -6.177
REMARK UNBOUND:                -5.667
REMARK SMILES C=C1C(=O)N[C@H](C)C(=O)N[C@@H](CC(C)C)C(=O)N[C@@H](C(=O)O)[C@H](C)C(=O)N[C@@H](CCCN=C(N)N)C(=O)N[C@@H](/C=C/C(C)=C/[C@H](C)[C@H](Cc2ccccc2)OC)[C@H](C)C(=O)N[C@@H](C(=O)O)CCC(=O)N1C
REMARK SMILES IDX 39 1 38 2 37 3 36 4 28 6 27 7 25 8 26 9 23 11 24 12 19 13
REMARK SMILES IDX 18 14 16 15 17 16 11 18 10 19 8 20 9 21 12 24 13 25 14 26
REMARK SMILES IDX 15 27 20 28 21 29 22 30 29 32 30 33 31 34 32 35 33 36 34 37
REMARK SMILES IDX 35 38 57 43 58 44 59 45 60 46 61 47 62 49 66 50 67 51 68 52
REMARK SMILES IDX 69 53 70 54 71 55 2 56 1 57 3 58 4 59 5 60 6 62 7 63 63 65
REMARK SMILES IDX 64 66 65 67 40 69 41 70 42 71 44 72 43 73 45 74 46 75 47 76
REMARK SMILES IDX 55 77 56 78 48 79 49 80 50 81 54 82 51 83 53 84 52 85
REMARK H PARENT 38 5 27 10 18 17 10 22 22 31 34 39 34 40 35 41 35 42 61 48
REMARK H PARENT 5 61 65 68
REMARK Flexibility Score:  369.900
ROOT
ATOM      1  C   UNL     1       8.963  -2.659   0.036  1.00  0.00     0.117 C 
ENDROOT
BRANCH   1   2
ATOM      2  N   UNL     1       9.768  -1.566   0.582  1.00  0.00    -0.347 N 
ATOM      3  O   UNL     1      10.776  -2.738   2.279  1.00  0.00    -0.273 OA
ATOM      4  C   UNL     1      10.683  -1.716   1.607  1.00  0.00     0.243 C 
ATOM      5  H   UNL     1       9.703  -0.648   0.168  1.00  0.00     0.164 HD
BRANCH   4   6
ATOM      6  C   UNL     1      11.466  -0.421   1.938  1.00  0.00     0.171 C 
BRANCH   6   7
ATOM      7  N   UNL     1      11.017   0.138   3.223  1.00  0.00    -0.344 N 
ATOM      8  C   UNL     1       9.725   0.591   3.379  1.00  0.00     0.226 C 
ATOM      9  O   UNL     1       8.905   0.575   2.468  1.00  0.00    -0.275 OA
ATOM     10  H   UNL     1      11.684   0.230   3.979  1.00  0.00     0.164 HD
BRANCH   8  11
ATOM     11  C   UNL     1       9.400   1.087   4.777  1.00  0.00     0.109 C 
ATOM     12  C   UNL     1       8.012   1.729   4.798  1.00  0.00     0.021 C 
BRANCH  11  13
ATOM     13  C   UNL     1       9.603  -0.053   5.795  1.00  0.00     0.204 C 
BRANCH  13  14
ATOM     14  N   UNL     1       9.327   0.379   7.168  1.00  0.00    -0.340 N 
ATOM     15  C   UNL     1      10.124   0.031   8.237  1.00  0.00     0.243 C 
ATOM     16  O   UNL     1      11.161  -0.618   8.104  1.00  0.00    -0.273 OA
ATOM     17  H   UNL     1       8.409   0.786   7.369  1.00  0.00     0.164 HD
BRANCH  15  18
ATOM     18  C   UNL     1       9.525   0.422   9.610  1.00  0.00     0.171 C 
BRANCH  18  19
ATOM     19  N   UNL     1       8.838  -0.762  10.120  1.00  0.00    -0.343 N 
ATOM     20  C   UNL     1       7.513  -1.020   9.824  1.00  0.00     0.242 CG0
ATOM     21  O   UNL     1       6.815  -0.200   9.231  1.00  0.00    -0.273 OA
ATOM     22  H   UNL     1       9.341  -1.413  10.712  1.00  0.00     0.164 HD
ATOM     23  G   UNL     1       6.983  -2.355  10.386  1.00  0.00     0.000 G0
ENDBRANCH  18  19
BRANCH  18  24
ATOM     24  C   UNL     1      10.628   0.889  10.569  1.00  0.00     0.038 C 
BRANCH  24  25
ATOM     25  C   UNL     1      10.429   2.310  11.137  1.00  0.00    -0.015 C 
ATOM     26  C   UNL     1      10.129   3.339  10.048  1.00  0.00     0.007 C 
ATOM     27  C   UNL     1      11.677   2.732  11.916  1.00  0.00     0.007 C 
ENDBRANCH  24  25
ENDBRANCH  18  24
ENDBRANCH  15  18
ENDBRANCH  13  14
BRANCH  13  28
ATOM     28  C   UNL     1       8.722  -1.274   5.517  1.00  0.00     0.327 C 
ATOM     29  O   UNL     1       7.565  -1.428   5.877  1.00  0.00    -0.250 OA
BRANCH  28  30
ATOM     30  O   UNL     1       9.385  -2.277   4.906  1.00  0.00    -0.480 OA
ATOM     31  H   UNL     1       9.883  -2.712   5.629  1.00  0.00     0.296 HD
ENDBRANCH  28  30
ENDBRANCH  13  28
ENDBRANCH  11  13
ENDBRANCH   8  11
ENDBRANCH   6   7
BRANCH   6  32
ATOM     32  C   UNL     1      12.966  -0.735   1.973  1.00  0.00     0.037 C 
BRANCH  32  33
ATOM     33  C   UNL     1      13.635  -0.518   0.608  1.00  0.00     0.026 C 
BRANCH  33  34
ATOM     34  C   UNL     1      14.326  -1.780   0.088  1.00  0.00     0.146 C 
BRANCH  34  35
ATOM     35  N   UNL     1      13.414  -2.480  -0.806  1.00  0.00    -0.254 NA
ATOM     36  C   UNL     1      12.881  -3.574  -0.406  1.00  0.00     0.185 C 
ATOM     37  N   UNL     1      12.035  -4.225  -1.220  1.00  0.00    -0.370 N 
ATOM     38  N   UNL     1      13.041  -4.213   0.767  1.00  0.00    -0.370 N 
ATOM     39  H   UNL     1      11.855  -3.801  -2.121  1.00  0.00     0.159 HD
ATOM     40  H   UNL     1      11.449  -4.985  -0.920  1.00  0.00     0.159 HD
ATOM     41  H   UNL     1      12.675  -5.140   0.909  1.00  0.00     0.159 HD
ATOM     42  H   UNL     1      13.662  -3.845   1.470  1.00  0.00     0.159 HD
ENDBRANCH  34  35
ENDBRANCH  33  34
ENDBRANCH  32  33
ENDBRANCH   6  32
ENDBRANCH   4   6
ENDBRANCH   1   2
BRANCH   1  43
ATOM     43  C   UNL     1       8.627  -2.332  -1.448  1.00  0.00     0.102 C 
ATOM     44  C   UNL     1       8.673  -0.829  -1.769  1.00  0.00     0.020 C 
BRANCH  43  45
ATOM     45  C   UNL     1       7.330  -3.021  -1.882  1.00  0.00     0.225 C 
ATOM     46  O   UNL     1       6.290  -2.410  -2.113  1.00  0.00    -0.275 OA
ATOM     47  N   UNL     1       7.371  -4.397  -1.911  1.00  0.00    -0.342 N 
ATOM     48  H   UNL     1       8.262  -4.872  -1.869  1.00  0.00     0.164 HD
BRANCH  47  49
ATOM     49  C   UNL     1       6.215  -5.189  -2.342  1.00  0.00     0.192 C 
BRANCH  49  50
ATOM     50  C   UNL     1       5.649  -4.608  -3.641  1.00  0.00     0.047 C 
BRANCH  50  51
ATOM     51  C   UNL     1       6.012  -5.459  -4.866  1.00  0.00     0.103 C 
BRANCH  51  52
ATOM     52  C   UNL     1       4.928  -5.407  -5.941  1.00  0.00     0.226 C 
ATOM     53  O   UNL     1       3.804  -4.991  -5.655  1.00  0.00    -0.275 OA
BRANCH  52  54
ATOM     54  N   UNL     1       5.317  -5.779  -7.241  1.00  0.00    -0.311 N 
ATOM     55  C   UNL     1       6.601  -6.451  -7.483  1.00  0.00     0.153 C 
BRANCH  54  56
ATOM     56  C   UNL     1       4.495  -5.528  -8.352  1.00  0.00     0.102 C 
ATOM     57  C   UNL     1       4.573  -4.441  -9.136  1.00  0.00     0.043 C 
BRANCH  56  58
ATOM     58  C   UNL     1       3.450  -6.530  -8.785  1.00  0.00     0.268 C 
ATOM     59  O   UNL     1       3.322  -7.630  -8.265  1.00  0.00    -0.268 OA
ATOM     60  N   UNL     1       2.621  -6.054  -9.773  1.00  0.00    -0.339 N 
ATOM     61  H   UNL     1       2.801  -5.135 -10.158  1.00  0.00     0.164 HD
BRANCH  60  62
ATOM     62  C   UNL     1       1.502  -6.837 -10.295  1.00  0.00     0.168 CG0
ATOM     63  C   UNL     1       0.799  -6.098 -11.426  1.00  0.00     0.041 C 
ATOM     64  G   UNL     1       0.515  -7.153  -9.152  1.00  0.00     0.000 G0
ENDBRANCH  60  62
ENDBRANCH  56  58
ENDBRANCH  54  56
ENDBRANCH  52  54
ENDBRANCH  51  52
ENDBRANCH  50  51
ENDBRANCH  49  50
BRANCH  49  65
ATOM     65  C   UNL     1       5.112  -5.211  -1.272  1.00  0.00     0.326 C 
ATOM     66  O   UNL     1       4.859  -6.151  -0.533  1.00  0.00    -0.250 OA
BRANCH  65  67
ATOM     67  O   UNL     1       4.352  -4.095  -1.222  1.00  0.00    -0.480 OA
ATOM     68  H   UNL     1       3.852  -4.193  -0.384  1.00  0.00     0.296 HD
ENDBRANCH  65  67
ENDBRANCH  49  65
ENDBRANCH  47  49
ENDBRANCH  43  45
ENDBRANCH   1  43
BRANCH   1  69
ATOM     69  C   UNL     1       7.824  -2.876   1.015  1.00  0.00    -0.001 C 
ATOM     70  C   UNL     1       7.581  -3.972   1.756  1.00  0.00     0.001 C 
BRANCH  70  71
ATOM     71  C   UNL     1       6.490  -4.162   2.714  1.00  0.00    -0.055 C 
ATOM     72  C   UNL     1       5.245  -3.819   2.323  1.00  0.00    -0.018 C 
ATOM     73  C   UNL     1       6.833  -4.735   4.064  1.00  0.00     0.044 C 
BRANCH  72  74
ATOM     74  C   UNL     1       3.935  -3.907   3.094  1.00  0.00     0.038 C 
ATOM     75  C   UNL     1       2.913  -4.584   2.172  1.00  0.00     0.015 C 
BRANCH  74  76
ATOM     76  C   UNL     1       3.538  -2.479   3.572  1.00  0.00     0.128 C 
BRANCH  76  77
ATOM     77  O   UNL     1       3.266  -2.492   4.984  1.00  0.00    -0.381 OA
ATOM     78  C   UNL     1       3.876  -3.576   5.672  1.00  0.00     0.195 C 
ENDBRANCH  76  77
BRANCH  76  79
ATOM     79  C   UNL     1       4.548  -1.376   3.166  1.00  0.00     0.068 C 
BRANCH  79  80
ATOM     80  C   UNL     1       4.178  -0.466   2.020  1.00  0.00    -0.045 A 
ATOM     81  C   UNL     1       3.683   0.824   2.254  1.00  0.00     0.004 A 
ATOM     82  C   UNL     1       4.297  -0.912   0.695  1.00  0.00     0.004 A 
ATOM     83  C   UNL     1       3.330   1.655   1.188  1.00  0.00     0.000 A 
ATOM     84  C   UNL     1       3.943  -0.081  -0.369  1.00  0.00     0.000 A 
ATOM     85  C   UNL     1       3.461   1.203  -0.123  1.00  0.00     0.000 A 
ENDBRANCH  79  80
ENDBRANCH  76  79
ENDBRANCH  74  76
ENDBRANCH  72  74
ENDBRANCH  70  71
ENDBRANCH   1  69
TORSDOF 17
ENDMDL
MODEL 37
REMARK VINA RESULT:    -7.112      2.706      4.417
REMARK INTER + INTRA:         -26.916
REMARK INTER:                 -20.405
REMARK INTRA:                  -6.511
REMARK UNBOUND:                -5.667
REMARK SMILES C=C1C(=O)N[C@H](C)C(=O)N[C@@H](CC(C)C)C(=O)N[C@@H](C(=O)O)[C@H](C)C(=O)N[C@@H](CCCN=C(N)N)C(=O)N[C@@H](/C=C/C(C)=C/[C@H](C)[C@H](Cc2ccccc2)OC)[C@H](C)C(=O)N[C@@H](C(=O)O)CCC(=O)N1C
REMARK SMILES IDX 39 1 38 2 37 3 36 4 28 6 27 7 25 8 26 9 23 11 24 12 19 13
REMARK SMILES IDX 18 14 16 15 17 16 11 18 10 19 8 20 9 21 12 24 13 25 14 26
REMARK SMILES IDX 15 27 20 28 21 29 22 30 29 32 30 33 31 34 32 35 33 36 34 37
REMARK SMILES IDX 35 38 57 43 58 44 59 45 60 46 61 47 62 49 66 50 67 51 68 52
REMARK SMILES IDX 69 53 70 54 71 55 2 56 1 57 3 58 4 59 5 60 6 62 7 63 63 65
REMARK SMILES IDX 64 66 65 67 40 69 41 70 42 71 44 72 43 73 45 74 46 75 47 76
REMARK SMILES IDX 55 77 56 78 48 79 49 80 50 81 54 82 51 83 53 84 52 85
REMARK H PARENT 38 5 27 10 18 17 10 22 22 31 34 39 34 40 35 41 35 42 61 48
REMARK H PARENT 5 61 65 68
REMARK Flexibility Score:  369.900
ROOT
ATOM      1  C   UNL     1       8.981  -2.065  -0.366  1.00  0.00     0.117 C 
ENDROOT
BRANCH   1   2
ATOM      2  N   UNL     1       7.983  -1.864   0.685  1.00  0.00    -0.347 N 
ATOM      3  O   UNL     1       8.821   0.093   1.543  1.00  0.00    -0.273 OA
ATOM      4  C   UNL     1       7.931  -0.749   1.499  1.00  0.00     0.243 C 
ATOM      5  H   UNL     1       7.250  -2.547   0.808  1.00  0.00     0.164 HD
BRANCH   4   6
ATOM      6  C   UNL     1       6.725  -0.744   2.473  1.00  0.00     0.171 C 
BRANCH   6   7
ATOM      7  N   UNL     1       7.187  -0.860   3.865  1.00  0.00    -0.344 N 
ATOM      8  C   UNL     1       7.676  -2.056   4.346  1.00  0.00     0.226 C 
ATOM      9  O   UNL     1       7.730  -3.070   3.661  1.00  0.00    -0.275 OA
ATOM     10  H   UNL     1       7.096  -0.062   4.481  1.00  0.00     0.164 HD
BRANCH   8  11
ATOM     11  C   UNL     1       8.164  -1.999   5.783  1.00  0.00     0.109 C 
ATOM     12  C   UNL     1       7.690  -3.235   6.548  1.00  0.00     0.021 C 
BRANCH  11  13
ATOM     13  C   UNL     1       9.687  -1.766   5.808  1.00  0.00     0.204 C 
BRANCH  13  14
ATOM     14  N   UNL     1      10.030  -0.346   5.674  1.00  0.00    -0.340 N 
ATOM     15  C   UNL     1      10.828   0.138   4.661  1.00  0.00     0.243 C 
ATOM     16  O   UNL     1      11.261  -0.579   3.761  1.00  0.00    -0.273 OA
ATOM     17  H   UNL     1       9.832   0.272   6.466  1.00  0.00     0.164 HD
BRANCH  15  18
ATOM     18  C   UNL     1      11.223   1.625   4.842  1.00  0.00     0.171 C 
BRANCH  18  19
ATOM     19  N   UNL     1      12.575   1.635   5.396  1.00  0.00    -0.343 N 
ATOM     20  C   UNL     1      12.817   1.374   6.731  1.00  0.00     0.242 CG0
ATOM     21  O   UNL     1      11.900   1.252   7.540  1.00  0.00    -0.273 OA
ATOM     22  H   UNL     1      13.359   1.845   4.790  1.00  0.00     0.164 HD
ATOM     23  G   UNL     1      14.311   1.351   7.115  1.00  0.00     0.000 G0
ENDBRANCH  18  19
BRANCH  18  24
ATOM     24  C   UNL     1      11.159   2.368   3.502  1.00  0.00     0.038 C 
BRANCH  24  25
ATOM     25  C   UNL     1      11.057   3.904   3.621  1.00  0.00    -0.015 C 
ATOM     26  C   UNL     1      12.425   4.573   3.750  1.00  0.00     0.007 C 
ATOM     27  C   UNL     1      10.189   4.270   4.828  1.00  0.00     0.007 C 
ENDBRANCH  24  25
ENDBRANCH  18  24
ENDBRANCH  15  18
ENDBRANCH  13  14
BRANCH  13  28
ATOM     28  C   UNL     1      10.355  -2.275   7.089  1.00  0.00     0.327 C 
ATOM     29  O   UNL     1      10.839  -3.383   7.260  1.00  0.00    -0.250 OA
BRANCH  28  30
ATOM     30  O   UNL     1      10.268  -1.403   8.114  1.00  0.00    -0.480 OA
ATOM     31  H   UNL     1      11.109  -0.903   8.078  1.00  0.00     0.296 HD
ENDBRANCH  28  30
ENDBRANCH  13  28
ENDBRANCH  11  13
ENDBRANCH   8  11
ENDBRANCH   6   7
BRANCH   6  32
ATOM     32  C   UNL     1       5.919   0.544   2.269  1.00  0.00     0.037 C 
BRANCH  32  33
ATOM     33  C   UNL     1       4.746   0.346   1.299  1.00  0.00     0.026 C 
BRANCH  33  34
ATOM     34  C   UNL     1       3.511  -0.239   1.985  1.00  0.00     0.146 C 
BRANCH  34  35
ATOM     35  N   UNL     1       3.786  -1.622   2.348  1.00  0.00    -0.254 NA
ATOM     36  C   UNL     1       3.551  -2.541   1.487  1.00  0.00     0.185 C 
ATOM     37  N   UNL     1       3.805  -3.819   1.808  1.00  0.00    -0.370 N 
ATOM     38  N   UNL     1       3.062  -2.425   0.239  1.00  0.00    -0.370 N 
ATOM     39  H   UNL     1       4.186  -3.988   2.731  1.00  0.00     0.159 HD
ATOM     40  H   UNL     1       3.813  -4.570   1.139  1.00  0.00     0.159 HD
ATOM     41  H   UNL     1       2.790  -3.236  -0.291  1.00  0.00     0.159 HD
ATOM     42  H   UNL     1       2.811  -1.522  -0.131  1.00  0.00     0.159 HD
ENDBRANCH  34  35
ENDBRANCH  33  34
ENDBRANCH  32  33
ENDBRANCH   6  32
ENDBRANCH   4   6
ENDBRANCH   1   2
BRANCH   1  43
ATOM     43  C   UNL     1       8.262  -2.015  -1.746  1.00  0.00     0.102 C 
ATOM     44  C   UNL     1       7.952  -0.586  -2.223  1.00  0.00     0.020 C 
BRANCH  43  45
ATOM     45  C   UNL     1       7.053  -2.954  -1.771  1.00  0.00     0.225 C 
ATOM     46  O   UNL     1       5.923  -2.602  -1.447  1.00  0.00    -0.275 OA
ATOM     47  N   UNL     1       7.327  -4.264  -2.093  1.00  0.00    -0.342 N 
ATOM     48  H   UNL     1       8.221  -4.502  -2.500  1.00  0.00     0.164 HD
BRANCH  47  49
ATOM     49  C   UNL     1       6.263  -5.267  -2.191  1.00  0.00     0.192 C 
BRANCH  49  50
ATOM     50  C   UNL     1       5.326  -4.912  -3.349  1.00  0.00     0.047 C 
BRANCH  50  51
ATOM     51  C   UNL     1       5.996  -5.095  -4.717  1.00  0.00     0.103 C 
BRANCH  51  52
ATOM     52  C   UNL     1       4.974  -5.202  -5.847  1.00  0.00     0.226 C 
ATOM     53  O   UNL     1       3.805  -4.868  -5.645  1.00  0.00    -0.275 OA
BRANCH  52  54
ATOM     54  N   UNL     1       5.464  -5.615  -7.099  1.00  0.00    -0.311 N 
ATOM     55  C   UNL     1       6.901  -5.835  -7.314  1.00  0.00     0.153 C 
BRANCH  54  56
ATOM     56  C   UNL     1       4.603  -5.838  -8.186  1.00  0.00     0.102 C 
ATOM     57  C   UNL     1       3.942  -6.984  -8.420  1.00  0.00     0.043 C 
BRANCH  56  58
ATOM     58  C   UNL     1       4.313  -4.742  -9.183  1.00  0.00     0.268 C 
ATOM     59  O   UNL     1       5.123  -3.872  -9.477  1.00  0.00    -0.268 OA
ATOM     60  N   UNL     1       3.077  -4.860  -9.773  1.00  0.00    -0.339 N 
ATOM     61  H   UNL     1       2.460  -5.603  -9.466  1.00  0.00     0.164 HD
BRANCH  60  62
ATOM     62  C   UNL     1       2.618  -3.940 -10.813  1.00  0.00     0.168 CG0
ATOM     63  C   UNL     1       1.557  -2.989 -10.273  1.00  0.00     0.041 C 
ATOM     64  G   UNL     1       2.072  -4.744 -12.010  1.00  0.00     0.000 G0
ENDBRANCH  60  62
ENDBRANCH  56  58
ENDBRANCH  54  56
ENDBRANCH  52  54
ENDBRANCH  51  52
ENDBRANCH  50  51
ENDBRANCH  49  50
BRANCH  49  65
ATOM     65  C   UNL     1       5.452  -5.362  -0.890  1.00  0.00     0.326 C 
ATOM     66  O   UNL     1       5.852  -5.832   0.165  1.00  0.00    -0.250 OA
BRANCH  65  67
ATOM     67  O   UNL     1       4.177  -4.925  -0.988  1.00  0.00    -0.480 OA
ATOM     68  H   UNL     1       3.925  -4.736  -0.058  1.00  0.00     0.296 HD
ENDBRANCH  65  67
ENDBRANCH  49  65
ENDBRANCH  47  49
ENDBRANCH  43  45
ENDBRANCH   1  43
BRANCH   1  69
ATOM     69  C   UNL     1       9.752  -3.315   0.014  1.00  0.00    -0.001 C 
ATOM     70  C   UNL     1       9.390  -4.262   0.897  1.00  0.00     0.001 C 
BRANCH  70  71
ATOM     71  C   UNL     1      10.133  -5.476   1.240  1.00  0.00    -0.055 C 
ATOM     72  C   UNL     1      11.352  -5.643   0.685  1.00  0.00    -0.018 C 
ATOM     73  C   UNL     1       9.490  -6.448   2.194  1.00  0.00     0.044 C 
BRANCH  72  74
ATOM     74  C   UNL     1      12.340  -6.788   0.857  1.00  0.00     0.038 C 
ATOM     75  C   UNL     1      13.639  -6.186   1.406  1.00  0.00     0.015 C 
BRANCH  74  76
ATOM     76  C   UNL     1      12.488  -7.531  -0.503  1.00  0.00     0.128 C 
BRANCH  76  77
ATOM     77  O   UNL     1      13.754  -7.209  -1.103  1.00  0.00    -0.381 OA
ATOM     78  C   UNL     1      14.217  -8.191  -2.020  1.00  0.00     0.195 C 
ENDBRANCH  76  77
BRANCH  76  79
ATOM     79  C   UNL     1      12.237  -9.058  -0.417  1.00  0.00     0.068 C 
BRANCH  79  80
ATOM     80  C   UNL     1      10.946  -9.528   0.211  1.00  0.00    -0.045 A 
ATOM     81  C   UNL     1       9.707  -9.194  -0.351  1.00  0.00     0.004 A 
ATOM     82  C   UNL     1      10.969 -10.287   1.390  1.00  0.00     0.004 A 
ATOM     83  C   UNL     1       8.518  -9.621   0.243  1.00  0.00     0.000 A 
ATOM     84  C   UNL     1       9.779 -10.713   1.984  1.00  0.00     0.000 A 
ATOM     85  C   UNL     1       8.554 -10.381   1.410  1.00  0.00     0.000 A 
ENDBRANCH  79  80
ENDBRANCH  76  79
ENDBRANCH  74  76
ENDBRANCH  72  74
ENDBRANCH  70  71
ENDBRANCH   1  69
TORSDOF 17
ENDMDL
MODEL 38
REMARK VINA RESULT:    -7.067      2.729     12.393
REMARK INTER + INTRA:         -26.783
REMARK INTER:                 -22.362
REMARK INTRA:                  -4.421
REMARK UNBOUND:                -5.667
REMARK SMILES C=C1C(=O)N[C@H](C)C(=O)N[C@@H](CC(C)C)C(=O)N[C@@H](C(=O)O)[C@H](C)C(=O)N[C@@H](CCCN=C(N)N)C(=O)N[C@@H](/C=C/C(C)=C/[C@H](C)[C@H](Cc2ccccc2)OC)[C@H](C)C(=O)N[C@@H](C(=O)O)CCC(=O)N1C
REMARK SMILES IDX 39 1 38 2 37 3 36 4 28 6 27 7 25 8 26 9 23 11 24 12 19 13
REMARK SMILES IDX 18 14 16 15 17 16 11 18 10 19 8 20 9 21 12 24 13 25 14 26
REMARK SMILES IDX 15 27 20 28 21 29 22 30 29 32 30 33 31 34 32 35 33 36 34 37
REMARK SMILES IDX 35 38 57 43 58 44 59 45 60 46 61 47 62 49 66 50 67 51 68 52
REMARK SMILES IDX 69 53 70 54 71 55 2 56 1 57 3 58 4 59 5 60 6 62 7 63 63 65
REMARK SMILES IDX 64 66 65 67 40 69 41 70 42 71 44 72 43 73 45 74 46 75 47 76
REMARK SMILES IDX 55 77 56 78 48 79 49 80 50 81 54 82 51 83 53 84 52 85
REMARK H PARENT 38 5 27 10 18 17 10 22 22 31 34 39 34 40 35 41 35 42 61 48
REMARK H PARENT 5 61 65 68
REMARK Flexibility Score:  369.900
ROOT
ATOM      1  C   UNL     1       8.353  -3.830   4.288  1.00  0.00     0.117 C 
ENDROOT
BRANCH   1   2
ATOM      2  N   UNL     1       7.275  -3.622   3.320  1.00  0.00    -0.347 N 
ATOM      3  O   UNL     1       8.574  -3.468   1.434  1.00  0.00    -0.273 OA
ATOM      4  C   UNL     1       7.466  -3.549   1.954  1.00  0.00     0.243 C 
ATOM      5  H   UNL     1       6.321  -3.576   3.645  1.00  0.00     0.164 HD
BRANCH   4   6
ATOM      6  C   UNL     1       6.150  -3.411   1.147  1.00  0.00     0.171 C 
BRANCH   6   7
ATOM      7  N   UNL     1       6.399  -3.638  -0.285  1.00  0.00    -0.344 N 
ATOM      8  C   UNL     1       5.354  -3.666  -1.184  1.00  0.00     0.226 C 
ATOM      9  O   UNL     1       4.186  -3.530  -0.843  1.00  0.00    -0.275 OA
ATOM     10  H   UNL     1       7.344  -3.822  -0.596  1.00  0.00     0.164 HD
BRANCH   8  11
ATOM     11  C   UNL     1       5.778  -3.855  -2.630  1.00  0.00     0.109 C 
ATOM     12  C   UNL     1       7.227  -3.404  -2.816  1.00  0.00     0.021 C 
BRANCH  11  13
ATOM     13  C   UNL     1       5.488  -5.303  -3.074  1.00  0.00     0.204 C 
BRANCH  13  14
ATOM     14  N   UNL     1       5.755  -5.506  -4.501  1.00  0.00    -0.340 N 
ATOM     15  C   UNL     1       4.894  -5.086  -5.491  1.00  0.00     0.243 C 
ATOM     16  O   UNL     1       3.867  -4.455  -5.249  1.00  0.00    -0.273 OA
ATOM     17  H   UNL     1       6.507  -6.150  -4.762  1.00  0.00     0.164 HD
BRANCH  15  18
ATOM     18  C   UNL     1       5.280  -5.592  -6.903  1.00  0.00     0.171 C 
BRANCH  18  19
ATOM     19  N   UNL     1       4.657  -4.679  -7.860  1.00  0.00    -0.343 N 
ATOM     20  C   UNL     1       3.639  -5.087  -8.700  1.00  0.00     0.242 CG0
ATOM     21  O   UNL     1       3.301  -6.266  -8.776  1.00  0.00    -0.273 OA
ATOM     22  H   UNL     1       4.982  -3.721  -7.916  1.00  0.00     0.164 HD
ATOM     23  G   UNL     1       3.054  -3.966  -9.583  1.00  0.00     0.000 G0
ENDBRANCH  18  19
BRANCH  18  24
ATOM     24  C   UNL     1       6.804  -5.625  -7.068  1.00  0.00     0.038 C 
BRANCH  24  25
ATOM     25  C   UNL     1       7.293  -5.680  -8.531  1.00  0.00    -0.015 C 
ATOM     26  C   UNL     1       7.916  -7.029  -8.890  1.00  0.00     0.007 C 
ATOM     27  C   UNL     1       8.309  -4.562  -8.777  1.00  0.00     0.007 C 
ENDBRANCH  24  25
ENDBRANCH  18  24
ENDBRANCH  15  18
ENDBRANCH  13  14
BRANCH  13  28
ATOM     28  C   UNL     1       6.305  -6.345  -2.306  1.00  0.00     0.327 C 
ATOM     29  O   UNL     1       6.284  -6.535  -1.099  1.00  0.00    -0.250 OA
BRANCH  28  30
ATOM     30  O   UNL     1       7.187  -7.005  -3.085  1.00  0.00    -0.480 OA
ATOM     31  H   UNL     1       7.842  -6.322  -3.338  1.00  0.00     0.296 HD
ENDBRANCH  28  30
ENDBRANCH  13  28
ENDBRANCH  11  13
ENDBRANCH   8  11
ENDBRANCH   6   7
BRANCH   6  32
ATOM     32  C   UNL     1       5.121  -4.410   1.689  1.00  0.00     0.037 C 
BRANCH  32  33
ATOM     33  C   UNL     1       4.311  -3.832   2.858  1.00  0.00     0.026 C 
BRANCH  33  34
ATOM     34  C   UNL     1       2.993  -3.205   2.403  1.00  0.00     0.146 C 
BRANCH  34  35
ATOM     35  N   UNL     1       3.031  -1.776   2.682  1.00  0.00    -0.254 NA
ATOM     36  C   UNL     1       3.058  -0.958   1.696  1.00  0.00     0.185 C 
ATOM     37  N   UNL     1       3.089   0.361   1.942  1.00  0.00    -0.370 N 
ATOM     38  N   UNL     1       3.061  -1.223   0.378  1.00  0.00    -0.370 N 
ATOM     39  H   UNL     1       3.079   0.642   2.914  1.00  0.00     0.159 HD
ATOM     40  H   UNL     1       2.937   1.062   1.237  1.00  0.00     0.159 HD
ATOM     41  H   UNL     1       3.225  -0.497  -0.300  1.00  0.00     0.159 HD
ATOM     42  H   UNL     1       3.056  -2.176   0.046  1.00  0.00     0.159 HD
ENDBRANCH  34  35
ENDBRANCH  33  34
ENDBRANCH  32  33
ENDBRANCH   6  32
ENDBRANCH   4   6
ENDBRANCH   1   2
BRANCH   1  43
ATOM     43  C   UNL     1       9.163  -2.508   4.419  1.00  0.00     0.102 C 
ATOM     44  C   UNL     1      10.178  -2.524   5.574  1.00  0.00     0.020 C 
BRANCH  43  45
ATOM     45  C   UNL     1       8.232  -1.291   4.426  1.00  0.00     0.225 C 
ATOM     46  O   UNL     1       7.172  -1.261   5.045  1.00  0.00    -0.275 OA
ATOM     47  N   UNL     1       8.613  -0.250   3.612  1.00  0.00    -0.342 N 
ATOM     48  H   UNL     1       9.550  -0.227   3.234  1.00  0.00     0.164 HD
BRANCH  47  49
ATOM     49  C   UNL     1       7.839   0.993   3.545  1.00  0.00     0.192 C 
BRANCH  49  50
ATOM     50  C   UNL     1       7.788   1.643   4.930  1.00  0.00     0.047 C 
BRANCH  50  51
ATOM     51  C   UNL     1       8.862   2.726   5.104  1.00  0.00     0.103 C 
BRANCH  51  52
ATOM     52  C   UNL     1      10.033   2.240   5.956  1.00  0.00     0.226 C 
ATOM     53  O   UNL     1      10.552   1.149   5.715  1.00  0.00    -0.275 OA
BRANCH  52  54
ATOM     54  N   UNL     1      10.504   3.130   6.940  1.00  0.00    -0.311 N 
ATOM     55  C   UNL     1      10.435   4.584   6.739  1.00  0.00     0.153 C 
BRANCH  54  56
ATOM     56  C   UNL     1      11.049   2.665   8.148  1.00  0.00     0.102 C 
ATOM     57  C   UNL     1      12.344   2.367   8.342  1.00  0.00     0.043 C 
BRANCH  56  58
ATOM     58  C   UNL     1      10.186   2.503   9.377  1.00  0.00     0.268 C 
ATOM     59  O   UNL     1      10.271   3.233  10.355  1.00  0.00    -0.268 OA
ATOM     60  N   UNL     1       9.255   1.499   9.255  1.00  0.00    -0.339 N 
ATOM     61  H   UNL     1       9.257   0.932   8.415  1.00  0.00     0.164 HD
BRANCH  60  62
ATOM     62  C   UNL     1       8.276   1.212  10.303  1.00  0.00     0.168 CG0
ATOM     63  C   UNL     1       7.247   0.196   9.826  1.00  0.00     0.041 C 
ATOM     64  G   UNL     1       7.589   2.522  10.740  1.00  0.00     0.000 G0
ENDBRANCH  60  62
ENDBRANCH  56  58
ENDBRANCH  54  56
ENDBRANCH  52  54
ENDBRANCH  51  52
ENDBRANCH  50  51
ENDBRANCH  49  50
BRANCH  49  65
ATOM     65  C   UNL     1       6.406   0.742   3.048  1.00  0.00     0.326 C 
ATOM     66  O   UNL     1       6.090   0.467   1.900  1.00  0.00    -0.250 OA
BRANCH  65  67
ATOM     67  O   UNL     1       5.447   0.906   3.986  1.00  0.00    -0.480 OA
ATOM     68  H   UNL     1       5.913   1.372   4.714  1.00  0.00     0.296 HD
ENDBRANCH  65  67
ENDBRANCH  49  65
ENDBRANCH  47  49
ENDBRANCH  43  45
ENDBRANCH   1  43
BRANCH   1  69
ATOM     69  C   UNL     1       9.075  -5.093   3.854  1.00  0.00    -0.001 C 
ATOM     70  C   UNL     1      10.165  -5.645   4.415  1.00  0.00     0.001 C 
BRANCH  70  71
ATOM     71  C   UNL     1      10.840  -6.876   4.000  1.00  0.00    -0.055 C 
ATOM     72  C   UNL     1      11.509  -6.860   2.828  1.00  0.00    -0.018 C 
ATOM     73  C   UNL     1      10.748  -8.070   4.913  1.00  0.00     0.044 C 
BRANCH  72  74
ATOM     74  C   UNL     1      12.296  -7.974   2.153  1.00  0.00     0.038 C 
ATOM     75  C   UNL     1      13.784  -7.628   2.296  1.00  0.00     0.015 C 
BRANCH  74  76
ATOM     76  C   UNL     1      11.799  -8.120   0.684  1.00  0.00     0.128 C 
BRANCH  76  77
ATOM     77  O   UNL     1      12.359  -9.304   0.092  1.00  0.00    -0.381 OA
ATOM     78  C   UNL     1      13.090  -9.055  -1.101  1.00  0.00     0.195 C 
ENDBRANCH  76  77
BRANCH  76  79
ATOM     79  C   UNL     1      10.259  -8.044   0.531  1.00  0.00     0.068 C 
BRANCH  79  80
ATOM     80  C   UNL     1       9.445  -9.238   0.967  1.00  0.00    -0.045 A 
ATOM     81  C   UNL     1       9.823 -10.003   2.079  1.00  0.00     0.004 A 
ATOM     82  C   UNL     1       8.305  -9.620   0.244  1.00  0.00     0.004 A 
ATOM     83  C   UNL     1       9.073 -11.115   2.467  1.00  0.00     0.000 A 
ATOM     84  C   UNL     1       7.556 -10.732   0.633  1.00  0.00     0.000 A 
ATOM     85  C   UNL     1       7.939 -11.478   1.745  1.00  0.00     0.000 A 
ENDBRANCH  79  80
ENDBRANCH  76  79
ENDBRANCH  74  76
ENDBRANCH  72  74
ENDBRANCH  70  71
ENDBRANCH   1  69
TORSDOF 17
ENDMDL
MODEL 39
REMARK VINA RESULT:    -7.046      3.257      6.987
REMARK INTER + INTRA:         -26.717
REMARK INTER:                 -20.408
REMARK INTRA:                  -6.309
REMARK UNBOUND:                -5.667
REMARK SMILES C=C1C(=O)N[C@H](C)C(=O)N[C@@H](CC(C)C)C(=O)N[C@@H](C(=O)O)[C@H](C)C(=O)N[C@@H](CCCN=C(N)N)C(=O)N[C@@H](/C=C/C(C)=C/[C@H](C)[C@H](Cc2ccccc2)OC)[C@H](C)C(=O)N[C@@H](C(=O)O)CCC(=O)N1C
REMARK SMILES IDX 39 1 38 2 37 3 36 4 28 6 27 7 25 8 26 9 23 11 24 12 19 13
REMARK SMILES IDX 18 14 16 15 17 16 11 18 10 19 8 20 9 21 12 24 13 25 14 26
REMARK SMILES IDX 15 27 20 28 21 29 22 30 29 32 30 33 31 34 32 35 33 36 34 37
REMARK SMILES IDX 35 38 57 43 58 44 59 45 60 46 61 47 62 49 66 50 67 51 68 52
REMARK SMILES IDX 69 53 70 54 71 55 2 56 1 57 3 58 4 59 5 60 6 62 7 63 63 65
REMARK SMILES IDX 64 66 65 67 40 69 41 70 42 71 44 72 43 73 45 74 46 75 47 76
REMARK SMILES IDX 55 77 56 78 48 79 49 80 50 81 54 82 51 83 53 84 52 85
REMARK H PARENT 38 5 27 10 18 17 10 22 22 31 34 39 34 40 35 41 35 42 61 48
REMARK H PARENT 5 61 65 68
REMARK Flexibility Score:  369.900
ROOT
ATOM      1  C   UNL     1       8.250  -1.085   0.500  1.00  0.00     0.117 C 
ENDROOT
BRANCH   1   2
ATOM      2  N   UNL     1       7.799  -2.348   1.085  1.00  0.00    -0.347 N 
ATOM      3  O   UNL     1       6.884  -1.494   3.009  1.00  0.00    -0.273 OA
ATOM      4  C   UNL     1       7.068  -2.442   2.253  1.00  0.00     0.243 C 
ATOM      5  H   UNL     1       7.979  -3.212   0.595  1.00  0.00     0.164 HD
BRANCH   4   6
ATOM      6  C   UNL     1       6.642  -3.890   2.607  1.00  0.00     0.171 C 
BRANCH   6   7
ATOM      7  N   UNL     1       7.709  -4.841   2.256  1.00  0.00    -0.344 N 
ATOM      8  C   UNL     1       9.009  -4.616   2.656  1.00  0.00     0.226 C 
ATOM      9  O   UNL     1       9.342  -3.623   3.291  1.00  0.00    -0.275 OA
ATOM     10  H   UNL     1       7.485  -5.638   1.675  1.00  0.00     0.164 HD
BRANCH   8  11
ATOM     11  C   UNL     1       9.982  -5.714   2.264  1.00  0.00     0.109 C 
ATOM     12  C   UNL     1      11.141  -5.127   1.458  1.00  0.00     0.021 C 
BRANCH  11  13
ATOM     13  C   UNL     1      10.401  -6.511   3.515  1.00  0.00     0.204 C 
BRANCH  13  14
ATOM     14  N   UNL     1       9.943  -5.874   4.754  1.00  0.00    -0.340 N 
ATOM     15  C   UNL     1      10.793  -5.557   5.791  1.00  0.00     0.243 C 
ATOM     16  O   UNL     1      12.008  -5.730   5.725  1.00  0.00    -0.273 OA
ATOM     17  H   UNL     1       8.936  -5.843   4.933  1.00  0.00     0.164 HD
BRANCH  15  18
ATOM     18  C   UNL     1      10.058  -5.087   7.071  1.00  0.00     0.171 C 
BRANCH  18  19
ATOM     19  N   UNL     1      10.854  -5.554   8.205  1.00  0.00    -0.343 N 
ATOM     20  C   UNL     1      10.267  -5.968   9.385  1.00  0.00     0.242 CG0
ATOM     21  O   UNL     1       9.062  -5.838   9.585  1.00  0.00    -0.273 OA
ATOM     22  H   UNL     1      11.865  -5.571   8.130  1.00  0.00     0.164 HD
ATOM     23  G   UNL     1      11.262  -6.500  10.438  1.00  0.00     0.000 G0
ENDBRANCH  18  19
BRANCH  18  24
ATOM     24  C   UNL     1       9.908  -3.561   7.080  1.00  0.00     0.038 C 
BRANCH  24  25
ATOM     25  C   UNL     1       8.512  -3.048   6.669  1.00  0.00    -0.015 C 
ATOM     26  C   UNL     1       8.546  -1.612   6.147  1.00  0.00     0.007 C 
ATOM     27  C   UNL     1       7.558  -3.140   7.863  1.00  0.00     0.007 C 
ENDBRANCH  24  25
ENDBRANCH  18  24
ENDBRANCH  15  18
ENDBRANCH  13  14
BRANCH  13  28
ATOM     28  C   UNL     1       9.872  -7.948   3.521  1.00  0.00     0.327 C 
ATOM     29  O   UNL     1       9.764  -8.683   2.551  1.00  0.00    -0.250 OA
BRANCH  28  30
ATOM     30  O   UNL     1       9.400  -8.333   4.724  1.00  0.00    -0.480 OA
ATOM     31  H   UNL     1       8.426  -8.270   4.632  1.00  0.00     0.296 HD
ENDBRANCH  28  30
ENDBRANCH  13  28
ENDBRANCH  11  13
ENDBRANCH   8  11
ENDBRANCH   6   7
BRANCH   6  32
ATOM     32  C   UNL     1       6.310  -3.966   4.101  1.00  0.00     0.037 C 
BRANCH  32  33
ATOM     33  C   UNL     1       4.989  -4.702   4.365  1.00  0.00     0.026 C 
BRANCH  33  34
ATOM     34  C   UNL     1       3.881  -3.763   4.842  1.00  0.00     0.146 C 
BRANCH  34  35
ATOM     35  N   UNL     1       4.178  -2.414   4.382  1.00  0.00    -0.254 NA
ATOM     36  C   UNL     1       3.419  -1.886   3.496  1.00  0.00     0.185 C 
ATOM     37  N   UNL     1       3.681  -0.641   3.068  1.00  0.00    -0.370 N 
ATOM     38  N   UNL     1       2.338  -2.408   2.890  1.00  0.00    -0.370 N 
ATOM     39  H   UNL     1       4.476  -0.175   3.487  1.00  0.00     0.159 HD
ATOM     40  H   UNL     1       3.042  -0.098   2.513  1.00  0.00     0.159 HD
ATOM     41  H   UNL     1       1.906  -1.946   2.106  1.00  0.00     0.159 HD
ATOM     42  H   UNL     1       2.034  -3.345   3.102  1.00  0.00     0.159 HD
ENDBRANCH  34  35
ENDBRANCH  33  34
ENDBRANCH  32  33
ENDBRANCH   6  32
ENDBRANCH   4   6
ENDBRANCH   1   2
BRANCH   1  43
ATOM     43  C   UNL     1       8.124  -1.182  -1.047  1.00  0.00     0.102 C 
ATOM     44  C   UNL     1       7.026  -0.276  -1.630  1.00  0.00     0.020 C 
BRANCH  43  45
ATOM     45  C   UNL     1       8.031  -2.642  -1.501  1.00  0.00     0.225 C 
ATOM     46  O   UNL     1       8.960  -3.438  -1.394  1.00  0.00    -0.275 OA
ATOM     47  N   UNL     1       6.860  -2.993  -2.132  1.00  0.00    -0.342 N 
ATOM     48  H   UNL     1       6.059  -2.380  -2.076  1.00  0.00     0.164 HD
BRANCH  47  49
ATOM     49  C   UNL     1       6.616  -4.365  -2.588  1.00  0.00     0.192 C 
BRANCH  49  50
ATOM     50  C   UNL     1       5.596  -4.354  -3.728  1.00  0.00     0.047 C 
BRANCH  50  51
ATOM     51  C   UNL     1       6.042  -5.217  -4.917  1.00  0.00     0.103 C 
BRANCH  51  52
ATOM     52  C   UNL     1       4.974  -5.288  -6.007  1.00  0.00     0.226 C 
ATOM     53  O   UNL     1       3.807  -4.999  -5.737  1.00  0.00    -0.275 OA
BRANCH  52  54
ATOM     54  N   UNL     1       5.421  -5.615  -7.301  1.00  0.00    -0.311 N 
ATOM     55  C   UNL     1       6.744  -6.217  -7.514  1.00  0.00     0.153 C 
BRANCH  54  56
ATOM     56  C   UNL     1       4.620  -5.387  -8.432  1.00  0.00     0.102 C 
ATOM     57  C   UNL     1       4.744  -4.338  -9.262  1.00  0.00     0.043 C 
BRANCH  56  58
ATOM     58  C   UNL     1       3.546  -6.371  -8.833  1.00  0.00     0.268 C 
ATOM     59  O   UNL     1       3.471  -7.503  -8.376  1.00  0.00    -0.268 OA
ATOM     60  N   UNL     1       2.629  -5.842  -9.709  1.00  0.00    -0.339 N 
ATOM     61  H   UNL     1       2.768  -4.898 -10.049  1.00  0.00     0.164 HD
BRANCH  60  62
ATOM     62  C   UNL     1       1.471  -6.602 -10.179  1.00  0.00     0.168 CG0
ATOM     63  C   UNL     1       1.612  -6.958 -11.653  1.00  0.00     0.041 C 
ATOM     64  G   UNL     1       0.184  -5.788  -9.934  1.00  0.00     0.000 G0
ENDBRANCH  60  62
ENDBRANCH  56  58
ENDBRANCH  54  56
ENDBRANCH  52  54
ENDBRANCH  51  52
ENDBRANCH  50  51
ENDBRANCH  49  50
BRANCH  49  65
ATOM     65  C   UNL     1       6.097  -5.257  -1.449  1.00  0.00     0.326 C 
ATOM     66  O   UNL     1       4.923  -5.513  -1.225  1.00  0.00    -0.250 OA
BRANCH  65  67
ATOM     67  O   UNL     1       7.055  -5.728  -0.620  1.00  0.00    -0.480 OA
ATOM     68  H   UNL     1       7.460  -4.915  -0.248  1.00  0.00     0.296 HD
ENDBRANCH  65  67
ENDBRANCH  49  65
ENDBRANCH  47  49
ENDBRANCH  43  45
ENDBRANCH   1  43
BRANCH   1  69
ATOM     69  C   UNL     1       9.611  -0.798   1.109  1.00  0.00    -0.001 C 
ATOM     70  C   UNL     1      10.789  -1.354   0.775  1.00  0.00     0.001 C 
BRANCH  70  71
ATOM     71  C   UNL     1      12.099  -1.054   1.355  1.00  0.00    -0.055 C 
ATOM     72  C   UNL     1      12.862  -0.127   0.737  1.00  0.00    -0.018 C 
ATOM     73  C   UNL     1      12.500  -1.794   2.604  1.00  0.00     0.044 C 
BRANCH  72  74
ATOM     74  C   UNL     1      14.246   0.384   1.109  1.00  0.00     0.038 C 
ATOM     75  C   UNL     1      15.237  -0.754   0.836  1.00  0.00     0.015 C 
BRANCH  74  76
ATOM     76  C   UNL     1      14.216   0.884   2.583  1.00  0.00     0.128 C 
BRANCH  76  77
ATOM     77  O   UNL     1      15.390   0.432   3.279  1.00  0.00    -0.381 OA
ATOM     78  C   UNL     1      15.137   0.012   4.613  1.00  0.00     0.195 C 
ENDBRANCH  76  77
BRANCH  76  79
ATOM     79  C   UNL     1      13.985   2.410   2.725  1.00  0.00     0.068 C 
BRANCH  79  80
ATOM     80  C   UNL     1      12.655   2.876   3.264  1.00  0.00    -0.045 A 
ATOM     81  C   UNL     1      12.449   4.216   3.620  1.00  0.00     0.004 A 
ATOM     82  C   UNL     1      11.605   1.963   3.443  1.00  0.00     0.004 A 
ATOM     83  C   UNL     1      11.220   4.636   4.131  1.00  0.00     0.000 A 
ATOM     84  C   UNL     1      10.376   2.384   3.955  1.00  0.00     0.000 A 
ATOM     85  C   UNL     1      10.183   3.721   4.297  1.00  0.00     0.000 A 
ENDBRANCH  79  80
ENDBRANCH  76  79
ENDBRANCH  74  76
ENDBRANCH  72  74
ENDBRANCH  70  71
ENDBRANCH   1  69
TORSDOF 17
ENDMDL
MODEL 40
REMARK VINA RESULT:    -7.030      2.964      5.460
REMARK INTER + INTRA:         -26.670
REMARK INTER:                 -18.659
REMARK INTRA:                  -8.011
REMARK UNBOUND:                -5.667
REMARK SMILES C=C1C(=O)N[C@H](C)C(=O)N[C@@H](CC(C)C)C(=O)N[C@@H](C(=O)O)[C@H](C)C(=O)N[C@@H](CCCN=C(N)N)C(=O)N[C@@H](/C=C/C(C)=C/[C@H](C)[C@H](Cc2ccccc2)OC)[C@H](C)C(=O)N[C@@H](C(=O)O)CCC(=O)N1C
REMARK SMILES IDX 39 1 38 2 37 3 36 4 28 6 27 7 25 8 26 9 23 11 24 12 19 13
REMARK SMILES IDX 18 14 16 15 17 16 11 18 10 19 8 20 9 21 12 24 13 25 14 26
REMARK SMILES IDX 15 27 20 28 21 29 22 30 29 32 30 33 31 34 32 35 33 36 34 37
REMARK SMILES IDX 35 38 57 43 58 44 59 45 60 46 61 47 62 49 66 50 67 51 68 52
REMARK SMILES IDX 69 53 70 54 71 55 2 56 1 57 3 58 4 59 5 60 6 62 7 63 63 65
REMARK SMILES IDX 64 66 65 67 40 69 41 70 42 71 44 72 43 73 45 74 46 75 47 76
REMARK SMILES IDX 55 77 56 78 48 79 49 80 50 81 54 82 51 83 53 84 52 85
REMARK H PARENT 38 5 27 10 18 17 10 22 22 31 34 39 34 40 35 41 35 42 61 48
REMARK H PARENT 5 61 65 68
REMARK Flexibility Score:  369.900
ROOT
ATOM      1  C   UNL     1       7.813  -1.091   0.923  1.00  0.00     0.117 C 
ENDROOT
BRANCH   1   2
ATOM      2  N   UNL     1       7.402  -2.373   1.496  1.00  0.00    -0.347 N 
ATOM      3  O   UNL     1       6.058  -1.553   3.166  1.00  0.00    -0.273 OA
ATOM      4  C   UNL     1       6.482  -2.504   2.518  1.00  0.00     0.243 C 
ATOM      5  H   UNL     1       7.764  -3.229   1.103  1.00  0.00     0.164 HD
BRANCH   4   6
ATOM      6  C   UNL     1       6.159  -3.975   2.881  1.00  0.00     0.171 C 
BRANCH   6   7
ATOM      7  N   UNL     1       7.081  -4.463   3.919  1.00  0.00    -0.344 N 
ATOM      8  C   UNL     1       8.345  -4.902   3.586  1.00  0.00     0.226 C 
ATOM      9  O   UNL     1       8.751  -4.929   2.431  1.00  0.00    -0.275 OA
ATOM     10  H   UNL     1       6.757  -4.519   4.876  1.00  0.00     0.164 HD
BRANCH   8  11
ATOM     11  C   UNL     1       9.194  -5.321   4.773  1.00  0.00     0.109 C 
ATOM     12  C   UNL     1       9.767  -6.719   4.541  1.00  0.00     0.021 C 
BRANCH  11  13
ATOM     13  C   UNL     1      10.242  -4.232   5.076  1.00  0.00     0.204 C 
BRANCH  13  14
ATOM     14  N   UNL     1       9.622  -2.958   5.451  1.00  0.00    -0.340 N 
ATOM     15  C   UNL     1      10.112  -1.737   5.040  1.00  0.00     0.243 C 
ATOM     16  O   UNL     1      11.072  -1.634   4.278  1.00  0.00    -0.273 OA
ATOM     17  H   UNL     1       8.921  -2.966   6.197  1.00  0.00     0.164 HD
BRANCH  15  18
ATOM     18  C   UNL     1       9.424  -0.532   5.726  1.00  0.00     0.171 C 
BRANCH  18  19
ATOM     19  N   UNL     1       9.649  -0.683   7.162  1.00  0.00    -0.343 N 
ATOM     20  C   UNL     1       8.646  -0.457   8.085  1.00  0.00     0.242 CG0
ATOM     21  O   UNL     1       7.559   0.009   7.752  1.00  0.00    -0.273 OA
ATOM     22  H   UNL     1      10.567  -0.955   7.496  1.00  0.00     0.164 HD
ATOM     23  G   UNL     1       9.049  -0.743   9.546  1.00  0.00     0.000 G0
ENDBRANCH  18  19
BRANCH  18  24
ATOM     24  C   UNL     1       9.999   0.790   5.203  1.00  0.00     0.038 C 
BRANCH  24  25
ATOM     25  C   UNL     1       8.942   1.819   4.750  1.00  0.00    -0.015 C 
ATOM     26  C   UNL     1       8.676   2.889   5.810  1.00  0.00     0.007 C 
ATOM     27  C   UNL     1       7.636   1.098   4.407  1.00  0.00     0.007 C 
ENDBRANCH  24  25
ENDBRANCH  18  24
ENDBRANCH  15  18
ENDBRANCH  13  14
BRANCH  13  28
ATOM     28  C   UNL     1      11.205  -4.618   6.203  1.00  0.00     0.327 C 
ATOM     29  O   UNL     1      12.384  -4.913   6.078  1.00  0.00    -0.250 OA
BRANCH  28  30
ATOM     30  O   UNL     1      10.599  -4.724   7.403  1.00  0.00    -0.480 OA
ATOM     31  H   UNL     1       9.716  -5.095   7.195  1.00  0.00     0.296 HD
ENDBRANCH  28  30
ENDBRANCH  13  28
ENDBRANCH  11  13
ENDBRANCH   8  11
ENDBRANCH   6   7
BRANCH   6  32
ATOM     32  C   UNL     1       4.704  -4.069   3.354  1.00  0.00     0.037 C 
BRANCH  32  33
ATOM     33  C   UNL     1       4.568  -4.873   4.654  1.00  0.00     0.026 C 
BRANCH  33  34
ATOM     34  C   UNL     1       4.228  -3.990   5.856  1.00  0.00     0.146 C 
BRANCH  34  35
ATOM     35  N   UNL     1       5.465  -3.479   6.428  1.00  0.00    -0.254 NA
ATOM     36  C   UNL     1       5.700  -3.688   7.670  1.00  0.00     0.185 C 
ATOM     37  N   UNL     1       6.839  -3.225   8.207  1.00  0.00    -0.370 N 
ATOM     38  N   UNL     1       4.944  -4.334   8.576  1.00  0.00    -0.370 N 
ATOM     39  H   UNL     1       7.469  -2.734   7.584  1.00  0.00     0.159 HD
ATOM     40  H   UNL     1       7.175  -3.493   9.116  1.00  0.00     0.159 HD
ATOM     41  H   UNL     1       5.172  -4.311   9.556  1.00  0.00     0.159 HD
ATOM     42  H   UNL     1       4.051  -4.721   8.315  1.00  0.00     0.159 HD
ENDBRANCH  34  35
ENDBRANCH  33  34
ENDBRANCH  32  33
ENDBRANCH   6  32
ENDBRANCH   4   6
ENDBRANCH   1   2
BRANCH   1  43
ATOM     43  C   UNL     1       7.438  -1.081  -0.588  1.00  0.00     0.102 C 
ATOM     44  C   UNL     1       6.097  -0.387  -0.881  1.00  0.00     0.020 C 
BRANCH  43  45
ATOM     45  C   UNL     1       7.558  -2.483  -1.193  1.00  0.00     0.225 C 
ATOM     46  O   UNL     1       8.619  -3.097  -1.258  1.00  0.00    -0.275 OA
ATOM     47  N   UNL     1       6.407  -2.986  -1.754  1.00  0.00    -0.342 N 
ATOM     48  H   UNL     1       5.520  -2.543  -1.559  1.00  0.00     0.164 HD
BRANCH  47  49
ATOM     49  C   UNL     1       6.364  -4.330  -2.338  1.00  0.00     0.192 C 
BRANCH  49  50
ATOM     50  C   UNL     1       5.379  -4.350  -3.511  1.00  0.00     0.047 C 
BRANCH  50  51
ATOM     51  C   UNL     1       5.945  -5.086  -4.733  1.00  0.00     0.103 C 
BRANCH  51  52
ATOM     52  C   UNL     1       4.958  -5.103  -5.899  1.00  0.00     0.226 C 
ATOM     53  O   UNL     1       3.801  -4.715  -5.725  1.00  0.00    -0.275 OA
BRANCH  52  54
ATOM     54  N   UNL     1       5.471  -5.501  -7.148  1.00  0.00    -0.311 N 
ATOM     55  C   UNL     1       6.806  -6.104  -7.260  1.00  0.00     0.153 C 
BRANCH  54  56
ATOM     56  C   UNL     1       4.726  -5.345  -8.329  1.00  0.00     0.102 C 
ATOM     57  C   UNL     1       4.881  -4.340  -9.207  1.00  0.00     0.043 C 
BRANCH  56  58
ATOM     58  C   UNL     1       3.687  -6.364  -8.731  1.00  0.00     0.268 C 
ATOM     59  O   UNL     1       3.675  -7.512  -8.305  1.00  0.00    -0.268 OA
ATOM     60  N   UNL     1       2.724  -5.853  -9.567  1.00  0.00    -0.339 N 
ATOM     61  H   UNL     1       2.811  -4.894  -9.883  1.00  0.00     0.164 HD
BRANCH  60  62
ATOM     62  C   UNL     1       1.589  -6.652 -10.029  1.00  0.00     0.168 CG0
ATOM     63  C   UNL     1       1.659  -6.884 -11.533  1.00  0.00     0.041 C 
ATOM     64  G   UNL     1       0.271  -5.947  -9.646  1.00  0.00     0.000 G0
ENDBRANCH  60  62
ENDBRANCH  56  58
ENDBRANCH  54  56
ENDBRANCH  52  54
ENDBRANCH  51  52
ENDBRANCH  50  51
ENDBRANCH  49  50
BRANCH  49  65
ATOM     65  C   UNL     1       5.943  -5.385  -1.303  1.00  0.00     0.326 C 
ATOM     66  O   UNL     1       6.418  -6.506  -1.198  1.00  0.00    -0.250 OA
BRANCH  65  67
ATOM     67  O   UNL     1       4.921  -5.012  -0.502  1.00  0.00    -0.480 OA
ATOM     68  H   UNL     1       4.125  -5.336  -0.976  1.00  0.00     0.296 HD
ENDBRANCH  65  67
ENDBRANCH  49  65
ENDBRANCH  47  49
ENDBRANCH  43  45
ENDBRANCH   1  43
BRANCH   1  69
ATOM     69  C   UNL     1       9.264  -0.894   1.319  1.00  0.00    -0.001 C 
ATOM     70  C   UNL     1      10.002   0.223   1.192  1.00  0.00     0.001 C 
BRANCH  70  71
ATOM     71  C   UNL     1      11.397   0.407   1.599  1.00  0.00    -0.055 C 
ATOM     72  C   UNL     1      12.301  -0.495   1.165  1.00  0.00    -0.018 C 
ATOM     73  C   UNL     1      11.724   1.595   2.466  1.00  0.00     0.044 C 
BRANCH  72  74
ATOM     74  C   UNL     1      13.800  -0.556   1.421  1.00  0.00     0.038 C 
ATOM     75  C   UNL     1      14.489   0.157   0.252  1.00  0.00     0.015 C 
BRANCH  74  76
ATOM     76  C   UNL     1      14.216  -2.045   1.614  1.00  0.00     0.128 C 
BRANCH  76  77
ATOM     77  O   UNL     1      15.130  -2.161   2.717  1.00  0.00    -0.381 OA
ATOM     78  C   UNL     1      14.489  -2.290   3.979  1.00  0.00     0.195 C 
ENDBRANCH  76  77
BRANCH  76  79
ATOM     79  C   UNL     1      13.019  -3.023   1.722  1.00  0.00     0.068 C 
BRANCH  79  80
ATOM     80  C   UNL     1      13.006  -4.227   0.811  1.00  0.00    -0.045 A 
ATOM     81  C   UNL     1      12.368  -5.414   1.194  1.00  0.00     0.004 A 
ATOM     82  C   UNL     1      13.661  -4.183  -0.429  1.00  0.00     0.004 A 
ATOM     83  C   UNL     1      12.372  -6.528   0.352  1.00  0.00     0.000 A 
ATOM     84  C   UNL     1      13.665  -5.298  -1.270  1.00  0.00     0.000 A 
ATOM     85  C   UNL     1      13.020  -6.469  -0.880  1.00  0.00     0.000 A 
ENDBRANCH  79  80
ENDBRANCH  76  79
ENDBRANCH  74  76
ENDBRANCH  72  74
ENDBRANCH  70  71
ENDBRANCH   1  69
TORSDOF 17
ENDMDL
MODEL 41
REMARK VINA RESULT:    -6.992      5.996     10.196
REMARK INTER + INTRA:         -26.556
REMARK INTER:                 -19.272
REMARK INTRA:                  -7.283
REMARK UNBOUND:                -5.667
REMARK SMILES C=C1C(=O)N[C@H](C)C(=O)N[C@@H](CC(C)C)C(=O)N[C@@H](C(=O)O)[C@H](C)C(=O)N[C@@H](CCCN=C(N)N)C(=O)N[C@@H](/C=C/C(C)=C/[C@H](C)[C@H](Cc2ccccc2)OC)[C@H](C)C(=O)N[C@@H](C(=O)O)CCC(=O)N1C
REMARK SMILES IDX 39 1 38 2 37 3 36 4 28 6 27 7 25 8 26 9 23 11 24 12 19 13
REMARK SMILES IDX 18 14 16 15 17 16 11 18 10 19 8 20 9 21 12 24 13 25 14 26
REMARK SMILES IDX 15 27 20 28 21 29 22 30 29 32 30 33 31 34 32 35 33 36 34 37
REMARK SMILES IDX 35 38 57 43 58 44 59 45 60 46 61 47 62 49 66 50 67 51 68 52
REMARK SMILES IDX 69 53 70 54 71 55 2 56 1 57 3 58 4 59 5 60 6 62 7 63 63 65
REMARK SMILES IDX 64 66 65 67 40 69 41 70 42 71 44 72 43 73 45 74 46 75 47 76
REMARK SMILES IDX 55 77 56 78 48 79 49 80 50 81 54 82 51 83 53 84 52 85
REMARK H PARENT 38 5 27 10 18 17 10 22 22 31 34 39 34 40 35 41 35 42 61 48
REMARK H PARENT 5 61 65 68
REMARK Flexibility Score:  369.900
ROOT
ATOM      1  C   UNL     1       8.855  -5.291   4.344  1.00  0.00     0.117 C 
ENDROOT
BRANCH   1   2
ATOM      2  N   UNL     1       9.779  -4.239   4.767  1.00  0.00    -0.347 N 
ATOM      3  O   UNL     1       8.748  -3.694   6.745  1.00  0.00    -0.273 OA
ATOM      4  C   UNL     1       9.702  -3.585   5.982  1.00  0.00     0.243 C 
ATOM      5  H   UNL     1      10.556  -3.994   4.172  1.00  0.00     0.164 HD
BRANCH   4   6
ATOM      6  C   UNL     1      10.853  -2.575   6.220  1.00  0.00     0.171 C 
BRANCH   6   7
ATOM      7  N   UNL     1      10.504  -1.257   5.667  1.00  0.00    -0.344 N 
ATOM      8  C   UNL     1      10.814  -0.938   4.363  1.00  0.00     0.226 C 
ATOM      9  O   UNL     1      11.406  -1.709   3.617  1.00  0.00    -0.275 OA
ATOM     10  H   UNL     1      10.075  -0.569   6.273  1.00  0.00     0.164 HD
BRANCH   8  11
ATOM     11  C   UNL     1      10.339   0.437   3.925  1.00  0.00     0.109 C 
ATOM     12  C   UNL     1       9.331   0.306   2.784  1.00  0.00     0.021 C 
BRANCH  11  13
ATOM     13  C   UNL     1       9.836   1.228   5.149  1.00  0.00     0.204 C 
BRANCH  13  14
ATOM     14  N   UNL     1      10.289   2.622   5.129  1.00  0.00    -0.340 N 
ATOM     15  C   UNL     1      11.005   3.191   6.161  1.00  0.00     0.243 C 
ATOM     16  O   UNL     1      11.366   2.550   7.146  1.00  0.00    -0.273 OA
ATOM     17  H   UNL     1       9.897   3.245   4.418  1.00  0.00     0.164 HD
BRANCH  15  18
ATOM     18  C   UNL     1      11.192   4.721   6.014  1.00  0.00     0.171 C 
BRANCH  18  19
ATOM     19  N   UNL     1      11.818   5.187   7.250  1.00  0.00    -0.343 N 
ATOM     20  C   UNL     1      12.062   6.526   7.483  1.00  0.00     0.242 CG0
ATOM     21  O   UNL     1      11.887   7.374   6.611  1.00  0.00    -0.273 OA
ATOM     22  H   UNL     1      12.088   4.511   7.956  1.00  0.00     0.164 HD
ATOM     23  G   UNL     1      12.656   6.833   8.874  1.00  0.00     0.000 G0
ENDBRANCH  18  19
BRANCH  18  24
ATOM     24  C   UNL     1      12.056   5.046   4.789  1.00  0.00     0.038 C 
BRANCH  24  25
ATOM     25  C   UNL     1      13.361   4.229   4.686  1.00  0.00    -0.015 C 
ATOM     26  C   UNL     1      14.589   5.030   5.120  1.00  0.00     0.007 C 
ATOM     27  C   UNL     1      13.549   3.737   3.249  1.00  0.00     0.007 C 
ENDBRANCH  24  25
ENDBRANCH  18  24
ENDBRANCH  15  18
ENDBRANCH  13  14
BRANCH  13  28
ATOM     28  C   UNL     1       8.309   1.250   5.267  1.00  0.00     0.327 C 
ATOM     29  O   UNL     1       7.595   0.310   5.584  1.00  0.00    -0.250 OA
BRANCH  28  30
ATOM     30  O   UNL     1       7.763   2.416   4.864  1.00  0.00    -0.480 OA
ATOM     31  H   UNL     1       8.531   2.958   4.589  1.00  0.00     0.296 HD
ENDBRANCH  28  30
ENDBRANCH  13  28
ENDBRANCH  11  13
ENDBRANCH   8  11
ENDBRANCH   6   7
BRANCH   6  32
ATOM     32  C   UNL     1      11.137  -2.480   7.724  1.00  0.00     0.037 C 
BRANCH  32  33
ATOM     33  C   UNL     1      11.500  -1.052   8.155  1.00  0.00     0.026 C 
BRANCH  33  34
ATOM     34  C   UNL     1      10.741  -0.609   9.407  1.00  0.00     0.146 C 
BRANCH  34  35
ATOM     35  N   UNL     1       9.335  -0.440   9.069  1.00  0.00    -0.254 NA
ATOM     36  C   UNL     1       8.854   0.746   9.015  1.00  0.00     0.185 C 
ATOM     37  N   UNL     1       7.560   0.913   8.699  1.00  0.00    -0.370 N 
ATOM     38  N   UNL     1       9.473   1.919   9.235  1.00  0.00    -0.370 N 
ATOM     39  H   UNL     1       7.027   0.075   8.508  1.00  0.00     0.159 HD
ATOM     40  H   UNL     1       7.155   1.804   8.467  1.00  0.00     0.159 HD
ATOM     41  H   UNL     1       8.952   2.779   9.298  1.00  0.00     0.159 HD
ATOM     42  H   UNL     1      10.446   1.945   9.497  1.00  0.00     0.159 HD
ENDBRANCH  34  35
ENDBRANCH  33  34
ENDBRANCH  32  33
ENDBRANCH   6  32
ENDBRANCH   4   6
ENDBRANCH   1   2
BRANCH   1  43
ATOM     43  C   UNL     1       9.681  -6.455   3.724  1.00  0.00     0.102 C 
ATOM     44  C   UNL     1      11.000  -6.732   4.465  1.00  0.00     0.020 C 
BRANCH  43  45
ATOM     45  C   UNL     1       9.844  -6.270   2.212  1.00  0.00     0.225 C 
ATOM     46  O   UNL     1       9.029  -6.685   1.394  1.00  0.00    -0.275 OA
ATOM     47  N   UNL     1      11.023  -5.684   1.811  1.00  0.00    -0.342 N 
ATOM     48  H   UNL     1      11.605  -5.216   2.491  1.00  0.00     0.164 HD
BRANCH  47  49
ATOM     49  C   UNL     1      11.301  -5.411   0.398  1.00  0.00     0.192 C 
BRANCH  49  50
ATOM     50  C   UNL     1      12.361  -6.388  -0.115  1.00  0.00     0.047 C 
BRANCH  50  51
ATOM     51  C   UNL     1      12.685  -7.485   0.907  1.00  0.00     0.103 C 
BRANCH  51  52
ATOM     52  C   UNL     1      12.014  -8.812   0.557  1.00  0.00     0.226 C 
ATOM     53  O   UNL     1      11.149  -8.845  -0.320  1.00  0.00    -0.275 OA
BRANCH  52  54
ATOM     54  N   UNL     1      12.495  -9.953   1.225  1.00  0.00    -0.311 N 
ATOM     55  C   UNL     1      13.621 -10.727   0.685  1.00  0.00     0.153 C 
BRANCH  54  56
ATOM     56  C   UNL     1      11.923 -10.391   2.431  1.00  0.00     0.102 C 
ATOM     57  C   UNL     1      12.491 -10.265   3.641  1.00  0.00     0.043 C 
BRANCH  56  58
ATOM     58  C   UNL     1      10.549 -11.020   2.454  1.00  0.00     0.268 C 
ATOM     59  O   UNL     1       9.918 -11.213   3.484  1.00  0.00    -0.268 OA
ATOM     60  N   UNL     1      10.057 -11.289   1.199  1.00  0.00    -0.339 N 
ATOM     61  H   UNL     1      10.647 -11.110   0.396  1.00  0.00     0.164 HD
BRANCH  60  62
ATOM     62  C   UNL     1       8.720 -11.842   0.989  1.00  0.00     0.168 CG0
ATOM     63  C   UNL     1       7.712 -10.738   0.693  1.00  0.00     0.041 C 
ATOM     64  G   UNL     1       8.294 -12.651   2.231  1.00  0.00     0.000 G0
ENDBRANCH  60  62
ENDBRANCH  56  58
ENDBRANCH  54  56
ENDBRANCH  52  54
ENDBRANCH  51  52
ENDBRANCH  50  51
ENDBRANCH  49  50
BRANCH  49  65
ATOM     65  C   UNL     1      11.790  -3.970   0.185  1.00  0.00     0.326 C 
ATOM     66  O   UNL     1      12.521  -3.348   0.942  1.00  0.00    -0.250 OA
BRANCH  65  67
ATOM     67  O   UNL     1      11.297  -3.365  -0.919  1.00  0.00    -0.480 OA
ATOM     68  H   UNL     1      11.675  -2.460  -0.875  1.00  0.00     0.296 HD
ENDBRANCH  65  67
ENDBRANCH  49  65
ENDBRANCH  47  49
ENDBRANCH  43  45
ENDBRANCH   1  43
BRANCH   1  69
ATOM     69  C   UNL     1       7.797  -4.610   3.495  1.00  0.00    -0.001 C 
ATOM     70  C   UNL     1       6.600  -4.147   3.898  1.00  0.00     0.001 C 
BRANCH  70  71
ATOM     71  C   UNL     1       5.595  -3.472   3.074  1.00  0.00    -0.055 C 
ATOM     72  C   UNL     1       5.701  -3.589   1.733  1.00  0.00    -0.018 C 
ATOM     73  C   UNL     1       4.510  -2.702   3.780  1.00  0.00     0.044 C 
BRANCH  72  74
ATOM     74  C   UNL     1       4.814  -3.007   0.642  1.00  0.00     0.038 C 
ATOM     75  C   UNL     1       3.807  -4.095   0.250  1.00  0.00     0.015 C 
BRANCH  74  76
ATOM     76  C   UNL     1       5.716  -2.501  -0.521  1.00  0.00     0.128 C 
BRANCH  76  77
ATOM     77  O   UNL     1       5.121  -2.837  -1.786  1.00  0.00    -0.381 OA
ATOM     78  C   UNL     1       5.976  -3.586  -2.639  1.00  0.00     0.195 C 
ENDBRANCH  76  77
BRANCH  76  79
ATOM     79  C   UNL     1       6.097  -1.003  -0.417  1.00  0.00     0.068 C 
BRANCH  79  80
ATOM     80  C   UNL     1       5.371  -0.158   0.601  1.00  0.00    -0.045 A 
ATOM     81  C   UNL     1       4.108   0.382   0.323  1.00  0.00     0.004 A 
ATOM     82  C   UNL     1       5.967   0.124   1.840  1.00  0.00     0.004 A 
ATOM     83  C   UNL     1       3.449   1.174   1.265  1.00  0.00     0.000 A 
ATOM     84  C   UNL     1       5.307   0.917   2.781  1.00  0.00     0.000 A 
ATOM     85  C   UNL     1       4.048   1.441   2.495  1.00  0.00     0.000 A 
ENDBRANCH  79  80
ENDBRANCH  76  79
ENDBRANCH  74  76
ENDBRANCH  72  74
ENDBRANCH  70  71
ENDBRANCH   1  69
TORSDOF 17
ENDMDL
MODEL 42
REMARK VINA RESULT:    -6.989      6.169     10.323
REMARK INTER + INTRA:         -26.547
REMARK INTER:                 -17.553
REMARK INTRA:                  -8.994
REMARK UNBOUND:                -5.667
REMARK SMILES C=C1C(=O)N[C@H](C)C(=O)N[C@@H](CC(C)C)C(=O)N[C@@H](C(=O)O)[C@H](C)C(=O)N[C@@H](CCCN=C(N)N)C(=O)N[C@@H](/C=C/C(C)=C/[C@H](C)[C@H](Cc2ccccc2)OC)[C@H](C)C(=O)N[C@@H](C(=O)O)CCC(=O)N1C
REMARK SMILES IDX 39 1 38 2 37 3 36 4 28 6 27 7 25 8 26 9 23 11 24 12 19 13
REMARK SMILES IDX 18 14 16 15 17 16 11 18 10 19 8 20 9 21 12 24 13 25 14 26
REMARK SMILES IDX 15 27 20 28 21 29 22 30 29 32 30 33 31 34 32 35 33 36 34 37
REMARK SMILES IDX 35 38 57 43 58 44 59 45 60 46 61 47 62 49 66 50 67 51 68 52
REMARK SMILES IDX 69 53 70 54 71 55 2 56 1 57 3 58 4 59 5 60 6 62 7 63 63 65
REMARK SMILES IDX 64 66 65 67 40 69 41 70 42 71 44 72 43 73 45 74 46 75 47 76
REMARK SMILES IDX 55 77 56 78 48 79 49 80 50 81 54 82 51 83 53 84 52 85
REMARK H PARENT 38 5 27 10 18 17 10 22 22 31 34 39 34 40 35 41 35 42 61 48
REMARK H PARENT 5 61 65 68
REMARK Flexibility Score:  369.900
ROOT
ATOM      1  C   UNL     1       9.356  -3.941   4.919  1.00  0.00     0.117 C 
ENDROOT
BRANCH   1   2
ATOM      2  N   UNL     1       7.994  -3.699   4.442  1.00  0.00    -0.347 N 
ATOM      3  O   UNL     1       7.191  -2.636   6.311  1.00  0.00    -0.273 OA
ATOM      4  C   UNL     1       7.044  -2.982   5.143  1.00  0.00     0.243 C 
ATOM      5  H   UNL     1       7.726  -4.025   3.525  1.00  0.00     0.164 HD
BRANCH   4   6
ATOM      6  C   UNL     1       5.710  -2.798   4.377  1.00  0.00     0.171 C 
BRANCH   6   7
ATOM      7  N   UNL     1       5.835  -1.725   3.377  1.00  0.00    -0.344 N 
ATOM      8  C   UNL     1       4.724  -1.242   2.722  1.00  0.00     0.226 C 
ATOM      9  O   UNL     1       3.598  -1.686   2.915  1.00  0.00    -0.275 OA
ATOM     10  H   UNL     1       6.757  -1.379   3.141  1.00  0.00     0.164 HD
BRANCH   8  11
ATOM     11  C   UNL     1       5.010  -0.100   1.762  1.00  0.00     0.109 C 
ATOM     12  C   UNL     1       6.034   0.856   2.374  1.00  0.00     0.021 C 
BRANCH  11  13
ATOM     13  C   UNL     1       5.394  -0.664   0.380  1.00  0.00     0.204 C 
BRANCH  13  14
ATOM     14  N   UNL     1       6.466  -1.661   0.470  1.00  0.00    -0.340 N 
ATOM     15  C   UNL     1       7.657  -1.542  -0.213  1.00  0.00     0.243 C 
ATOM     16  O   UNL     1       7.930  -0.559  -0.900  1.00  0.00    -0.273 OA
ATOM     17  H   UNL     1       6.247  -2.565   0.896  1.00  0.00     0.164 HD
BRANCH  15  18
ATOM     18  C   UNL     1       8.546  -2.807  -0.131  1.00  0.00     0.171 C 
BRANCH  18  19
ATOM     19  N   UNL     1       9.796  -2.401   0.508  1.00  0.00    -0.343 N 
ATOM     20  C   UNL     1      11.005  -2.986   0.184  1.00  0.00     0.242 CG0
ATOM     21  O   UNL     1      11.068  -3.963  -0.558  1.00  0.00    -0.273 OA
ATOM     22  H   UNL     1       9.779  -1.673   1.214  1.00  0.00     0.164 HD
ATOM     23  G   UNL     1      12.223  -2.371   0.904  1.00  0.00     0.000 G0
ENDBRANCH  18  19
BRANCH  18  24
ATOM     24  C   UNL     1       7.842  -3.913   0.664  1.00  0.00     0.038 C 
BRANCH  24  25
ATOM     25  C   UNL     1       7.698  -5.255  -0.086  1.00  0.00    -0.015 C 
ATOM     26  C   UNL     1       6.251  -5.746  -0.133  1.00  0.00     0.007 C 
ATOM     27  C   UNL     1       8.580  -6.314   0.580  1.00  0.00     0.007 C 
ENDBRANCH  24  25
ENDBRANCH  18  24
ENDBRANCH  15  18
ENDBRANCH  13  14
BRANCH  13  28
ATOM     28  C   UNL     1       4.221  -1.325  -0.350  1.00  0.00     0.327 C 
ATOM     29  O   UNL     1       3.351  -0.751  -0.987  1.00  0.00    -0.250 OA
BRANCH  28  30
ATOM     30  O   UNL     1       4.145  -2.654  -0.136  1.00  0.00    -0.480 OA
ATOM     31  H   UNL     1       4.054  -2.736   0.836  1.00  0.00     0.296 HD
ENDBRANCH  28  30
ENDBRANCH  13  28
ENDBRANCH  11  13
ENDBRANCH   8  11
ENDBRANCH   6   7
BRANCH   6  32
ATOM     32  C   UNL     1       5.325  -4.124   3.711  1.00  0.00     0.037 C 
BRANCH  32  33
ATOM     33  C   UNL     1       4.499  -5.021   4.644  1.00  0.00     0.026 C 
BRANCH  33  34
ATOM     34  C   UNL     1       3.842  -4.237   5.780  1.00  0.00     0.146 C 
BRANCH  34  35
ATOM     35  N   UNL     1       4.398  -4.690   7.047  1.00  0.00    -0.254 NA
ATOM     36  C   UNL     1       3.961  -4.168   8.132  1.00  0.00     0.185 C 
ATOM     37  N   UNL     1       4.463  -4.582   9.306  1.00  0.00    -0.370 N 
ATOM     38  N   UNL     1       3.024  -3.217   8.294  1.00  0.00    -0.370 N 
ATOM     39  H   UNL     1       5.168  -5.306   9.268  1.00  0.00     0.159 HD
ATOM     40  H   UNL     1       4.056  -4.352  10.196  1.00  0.00     0.159 HD
ATOM     41  H   UNL     1       2.866  -2.788   9.191  1.00  0.00     0.159 HD
ATOM     42  H   UNL     1       2.572  -2.801   7.494  1.00  0.00     0.159 HD
ENDBRANCH  34  35
ENDBRANCH  33  34
ENDBRANCH  32  33
ENDBRANCH   6  32
ENDBRANCH   4   6
ENDBRANCH   1   2
BRANCH   1  43
ATOM     43  C   UNL     1      10.321  -2.976   4.172  1.00  0.00     0.102 C 
ATOM     44  C   UNL     1      11.753  -2.987   4.734  1.00  0.00     0.020 C 
BRANCH  43  45
ATOM     45  C   UNL     1       9.713  -1.576   4.048  1.00  0.00     0.225 C 
ATOM     46  O   UNL     1       9.114  -1.191   3.047  1.00  0.00    -0.275 OA
ATOM     47  N   UNL     1       9.959  -0.728   5.103  1.00  0.00    -0.342 N 
ATOM     48  H   UNL     1      10.315  -1.100   5.972  1.00  0.00     0.164 HD
BRANCH  47  49
ATOM     49  C   UNL     1       9.409   0.631   5.138  1.00  0.00     0.192 C 
BRANCH  49  50
ATOM     50  C   UNL     1      10.407   1.572   5.816  1.00  0.00     0.047 C 
BRANCH  50  51
ATOM     51  C   UNL     1      11.858   1.266   5.421  1.00  0.00     0.103 C 
BRANCH  51  52
ATOM     52  C   UNL     1      12.460   2.367   4.550  1.00  0.00     0.226 C 
ATOM     53  O   UNL     1      12.628   3.493   5.021  1.00  0.00    -0.275 OA
BRANCH  52  54
ATOM     54  N   UNL     1      12.864   1.991   3.255  1.00  0.00    -0.311 N 
ATOM     55  C   UNL     1      14.086   2.542   2.654  1.00  0.00     0.153 C 
BRANCH  54  56
ATOM     56  C   UNL     1      12.120   1.075   2.493  1.00  0.00     0.102 C 
ATOM     57  C   UNL     1      10.936   1.339   1.915  1.00  0.00     0.043 C 
BRANCH  56  58
ATOM     58  C   UNL     1      12.645  -0.315   2.222  1.00  0.00     0.268 C 
ATOM     59  O   UNL     1      13.583  -0.808   2.836  1.00  0.00    -0.268 OA
ATOM     60  N   UNL     1      11.923  -0.989   1.267  1.00  0.00    -0.339 N 
ATOM     61  H   UNL     1      11.166  -0.506   0.798  1.00  0.00     0.164 HD
BRANCH  60  62
ATOM     62  C   UNL     1      12.221  -2.372   0.896  1.00  0.00     0.168 CG0
ATOM     63  C   UNL     1      13.452  -2.444   0.000  1.00  0.00     0.041 C 
ATOM     64  G   UNL     1      10.997  -2.995   0.194  1.00  0.00     0.000 G0
ENDBRANCH  60  62
ENDBRANCH  56  58
ENDBRANCH  54  56
ENDBRANCH  52  54
ENDBRANCH  51  52
ENDBRANCH  50  51
ENDBRANCH  49  50
BRANCH  49  65
ATOM     65  C   UNL     1       8.070   0.681   5.890  1.00  0.00     0.326 C 
ATOM     66  O   UNL     1       7.926   0.535   7.095  1.00  0.00    -0.250 OA
BRANCH  65  67
ATOM     67  O   UNL     1       6.986   0.848   5.100  1.00  0.00    -0.480 OA
ATOM     68  H   UNL     1       6.958   0.023   4.568  1.00  0.00     0.296 HD
ENDBRANCH  65  67
ENDBRANCH  49  65
ENDBRANCH  47  49
ENDBRANCH  43  45
ENDBRANCH   1  43
BRANCH   1  69
ATOM     69  C   UNL     1       9.584  -5.438   4.809  1.00  0.00    -0.001 C 
ATOM     70  C   UNL     1      10.206  -6.099   3.816  1.00  0.00     0.001 C 
BRANCH  70  71
ATOM     71  C   UNL     1      10.439  -7.542   3.731  1.00  0.00    -0.055 C 
ATOM     72  C   UNL     1      11.671  -7.958   3.371  1.00  0.00    -0.018 C 
ATOM     73  C   UNL     1       9.290  -8.459   4.060  1.00  0.00     0.044 C 
BRANCH  72  74
ATOM     74  C   UNL     1      12.198  -9.376   3.205  1.00  0.00     0.038 C 
ATOM     75  C   UNL     1      13.301  -9.575   4.252  1.00  0.00     0.015 C 
BRANCH  74  76
ATOM     76  C   UNL     1      12.656  -9.571   1.729  1.00  0.00     0.128 C 
BRANCH  76  77
ATOM     77  O   UNL     1      14.088  -9.674   1.669  1.00  0.00    -0.381 OA
ATOM     78  C   UNL     1      14.555 -10.979   1.356  1.00  0.00     0.195 C 
ENDBRANCH  76  77
BRANCH  76  79
ATOM     79  C   UNL     1      11.940 -10.733   0.996  1.00  0.00     0.068 C 
BRANCH  79  80
ATOM     80  C   UNL     1      10.430 -10.738   0.983  1.00  0.00    -0.045 A 
ATOM     81  C   UNL     1       9.712  -9.788   0.245  1.00  0.00     0.004 A 
ATOM     82  C   UNL     1       9.719 -11.684   1.738  1.00  0.00     0.004 A 
ATOM     83  C   UNL     1       8.315  -9.790   0.250  1.00  0.00     0.000 A 
ATOM     84  C   UNL     1       8.323 -11.684   1.742  1.00  0.00     0.000 A 
ATOM     85  C   UNL     1       7.621 -10.739   0.997  1.00  0.00     0.000 A 
ENDBRANCH  79  80
ENDBRANCH  76  79
ENDBRANCH  74  76
ENDBRANCH  72  74
ENDBRANCH  70  71
ENDBRANCH   1  69
TORSDOF 17
ENDMDL
MODEL 43
REMARK VINA RESULT:    -6.984      3.610      8.158
REMARK INTER + INTRA:         -26.534
REMARK INTER:                 -18.530
REMARK INTRA:                  -8.004
REMARK UNBOUND:                -5.667
REMARK SMILES C=C1C(=O)N[C@H](C)C(=O)N[C@@H](CC(C)C)C(=O)N[C@@H](C(=O)O)[C@H](C)C(=O)N[C@@H](CCCN=C(N)N)C(=O)N[C@@H](/C=C/C(C)=C/[C@H](C)[C@H](Cc2ccccc2)OC)[C@H](C)C(=O)N[C@@H](C(=O)O)CCC(=O)N1C
REMARK SMILES IDX 39 1 38 2 37 3 36 4 28 6 27 7 25 8 26 9 23 11 24 12 19 13
REMARK SMILES IDX 18 14 16 15 17 16 11 18 10 19 8 20 9 21 12 24 13 25 14 26
REMARK SMILES IDX 15 27 20 28 21 29 22 30 29 32 30 33 31 34 32 35 33 36 34 37
REMARK SMILES IDX 35 38 57 43 58 44 59 45 60 46 61 47 62 49 66 50 67 51 68 52
REMARK SMILES IDX 69 53 70 54 71 55 2 56 1 57 3 58 4 59 5 60 6 62 7 63 63 65
REMARK SMILES IDX 64 66 65 67 40 69 41 70 42 71 44 72 43 73 45 74 46 75 47 76
REMARK SMILES IDX 55 77 56 78 48 79 49 80 50 81 54 82 51 83 53 84 52 85
REMARK H PARENT 38 5 27 10 18 17 10 22 22 31 34 39 34 40 35 41 35 42 61 48
REMARK H PARENT 5 61 65 68
REMARK Flexibility Score:  369.900
ROOT
ATOM      1  C   UNL     1      10.218  -0.782   0.998  1.00  0.00     0.117 C 
ENDROOT
BRANCH   1   2
ATOM      2  N   UNL     1       8.990  -0.761   1.792  1.00  0.00    -0.347 N 
ATOM      3  O   UNL     1       7.501  -0.525   0.061  1.00  0.00    -0.273 OA
ATOM      4  C   UNL     1       7.719  -0.726   1.251  1.00  0.00     0.243 C 
ATOM      5  H   UNL     1       9.050  -0.824   2.797  1.00  0.00     0.164 HD
BRANCH   4   6
ATOM      6  C   UNL     1       6.589  -0.799   2.309  1.00  0.00     0.171 C 
BRANCH   6   7
ATOM      7  N   UNL     1       7.143  -1.126   3.632  1.00  0.00    -0.344 N 
ATOM      8  C   UNL     1       6.879  -2.342   4.224  1.00  0.00     0.226 C 
ATOM      9  O   UNL     1       6.165  -3.189   3.701  1.00  0.00    -0.275 OA
ATOM     10  H   UNL     1       7.682  -0.425   4.125  1.00  0.00     0.164 HD
BRANCH   8  11
ATOM     11  C   UNL     1       7.567  -2.549   5.562  1.00  0.00     0.109 C 
ATOM     12  C   UNL     1       8.686  -3.581   5.423  1.00  0.00     0.021 C 
BRANCH  11  13
ATOM     13  C   UNL     1       8.007  -1.189   6.138  1.00  0.00     0.204 C 
BRANCH  13  14
ATOM     14  N   UNL     1       8.656  -1.328   7.445  1.00  0.00    -0.340 N 
ATOM     15  C   UNL     1       8.397  -0.483   8.503  1.00  0.00     0.243 C 
ATOM     16  O   UNL     1       7.555   0.411   8.443  1.00  0.00    -0.273 OA
ATOM     17  H   UNL     1       9.468  -1.947   7.515  1.00  0.00     0.164 HD
BRANCH  15  18
ATOM     18  C   UNL     1       9.347  -0.691   9.708  1.00  0.00     0.171 C 
BRANCH  18  19
ATOM     19  N   UNL     1       8.510  -1.090  10.838  1.00  0.00    -0.343 N 
ATOM     20  C   UNL     1       8.179  -0.206  11.847  1.00  0.00     0.242 CG0
ATOM     21  O   UNL     1       8.681   0.913  11.912  1.00  0.00    -0.273 OA
ATOM     22  H   UNL     1       8.165  -2.042  10.890  1.00  0.00     0.164 HD
ATOM     23  G   UNL     1       7.224  -0.785  12.912  1.00  0.00     0.000 G0
ENDBRANCH  18  19
BRANCH  18  24
ATOM     24  C   UNL     1      10.403  -1.756   9.387  1.00  0.00     0.038 C 
BRANCH  24  25
ATOM     25  C   UNL     1      11.809  -1.198   9.080  1.00  0.00    -0.015 C 
ATOM     26  C   UNL     1      12.241  -1.464   7.637  1.00  0.00     0.007 C 
ATOM     27  C   UNL     1      12.828  -1.810  10.044  1.00  0.00     0.007 C 
ENDBRANCH  24  25
ENDBRANCH  18  24
ENDBRANCH  15  18
ENDBRANCH  13  14
BRANCH  13  28
ATOM     28  C   UNL     1       8.979  -0.433   5.227  1.00  0.00     0.327 C 
ATOM     29  O   UNL     1      10.046  -0.851   4.803  1.00  0.00    -0.250 OA
BRANCH  28  30
ATOM     30  O   UNL     1       8.608   0.843   5.001  1.00  0.00    -0.480 OA
ATOM     31  H   UNL     1       7.647   0.852   5.191  1.00  0.00     0.296 HD
ENDBRANCH  28  30
ENDBRANCH  13  28
ENDBRANCH  11  13
ENDBRANCH   8  11
ENDBRANCH   6   7
BRANCH   6  32
ATOM     32  C   UNL     1       5.844   0.541   2.343  1.00  0.00     0.037 C 
BRANCH  32  33
ATOM     33  C   UNL     1       4.722   0.607   1.298  1.00  0.00     0.026 C 
BRANCH  33  34
ATOM     34  C   UNL     1       3.815  -0.624   1.335  1.00  0.00     0.146 C 
BRANCH  34  35
ATOM     35  N   UNL     1       3.059  -0.612   2.580  1.00  0.00    -0.254 NA
ATOM     36  C   UNL     1       2.928  -1.709   3.229  1.00  0.00     0.185 C 
ATOM     37  N   UNL     1       2.238  -1.709   4.380  1.00  0.00    -0.370 N 
ATOM     38  N   UNL     1       3.400  -2.931   2.926  1.00  0.00    -0.370 N 
ATOM     39  H   UNL     1       1.859  -0.820   4.682  1.00  0.00     0.159 HD
ATOM     40  H   UNL     1       2.238  -2.477   5.028  1.00  0.00     0.159 HD
ATOM     41  H   UNL     1       3.112  -3.744   3.446  1.00  0.00     0.159 HD
ATOM     42  H   UNL     1       3.925  -3.083   2.079  1.00  0.00     0.159 HD
ENDBRANCH  34  35
ENDBRANCH  33  34
ENDBRANCH  32  33
ENDBRANCH   6  32
ENDBRANCH   4   6
ENDBRANCH   1   2
BRANCH   1  43
ATOM     43  C   UNL     1      10.820  -2.216   1.054  1.00  0.00     0.102 C 
ATOM     44  C   UNL     1      12.338  -2.252   0.812  1.00  0.00     0.020 C 
BRANCH  43  45
ATOM     45  C   UNL     1      10.026  -3.180   0.169  1.00  0.00     0.225 C 
ATOM     46  O   UNL     1      10.031  -3.123  -1.058  1.00  0.00    -0.275 OA
ATOM     47  N   UNL     1       9.220  -4.072   0.838  1.00  0.00    -0.342 N 
ATOM     48  H   UNL     1       9.341  -4.208   1.832  1.00  0.00     0.164 HD
BRANCH  47  49
ATOM     49  C   UNL     1       8.430  -5.078   0.122  1.00  0.00     0.192 C 
BRANCH  49  50
ATOM     50  C   UNL     1       7.001  -5.098   0.672  1.00  0.00     0.047 C 
BRANCH  50  51
ATOM     51  C   UNL     1       6.235  -3.809   0.346  1.00  0.00     0.103 C 
BRANCH  51  52
ATOM     52  C   UNL     1       5.416  -3.937  -0.937  1.00  0.00     0.226 C 
ATOM     53  O   UNL     1       4.185  -3.959  -0.875  1.00  0.00    -0.275 OA
BRANCH  52  54
ATOM     54  N   UNL     1       6.139  -3.945  -2.144  1.00  0.00    -0.311 N 
ATOM     55  C   UNL     1       7.033  -2.835  -2.498  1.00  0.00     0.153 C 
BRANCH  54  56
ATOM     56  C   UNL     1       6.039  -5.014  -3.050  1.00  0.00     0.102 C 
ATOM     57  C   UNL     1       6.436  -6.273  -2.801  1.00  0.00     0.043 C 
BRANCH  56  58
ATOM     58  C   UNL     1       5.410  -4.821  -4.409  1.00  0.00     0.268 C 
ATOM     59  O   UNL     1       4.562  -3.970  -4.640  1.00  0.00    -0.268 OA
ATOM     60  N   UNL     1       5.933  -5.653  -5.370  1.00  0.00    -0.339 N 
ATOM     61  H   UNL     1       6.626  -6.339  -5.096  1.00  0.00     0.164 HD
BRANCH  60  62
ATOM     62  C   UNL     1       5.511  -5.590  -6.769  1.00  0.00     0.168 CG0
ATOM     63  C   UNL     1       4.397  -6.590  -7.049  1.00  0.00     0.041 C 
ATOM     64  G   UNL     1       6.723  -5.852  -7.687  1.00  0.00     0.000 G0
ENDBRANCH  60  62
ENDBRANCH  56  58
ENDBRANCH  54  56
ENDBRANCH  52  54
ENDBRANCH  51  52
ENDBRANCH  50  51
ENDBRANCH  49  50
BRANCH  49  65
ATOM     65  C   UNL     1       9.045  -6.480   0.254  1.00  0.00     0.326 C 
ATOM     66  O   UNL     1       8.700  -7.470  -0.376  1.00  0.00    -0.250 OA
BRANCH  65  67
ATOM     67  O   UNL     1      10.006  -6.588   1.197  1.00  0.00    -0.480 OA
ATOM     68  H   UNL     1       9.956  -7.529   1.473  1.00  0.00     0.296 HD
ENDBRANCH  65  67
ENDBRANCH  49  65
ENDBRANCH  47  49
ENDBRANCH  43  45
ENDBRANCH   1  43
BRANCH   1  69
ATOM     69  C   UNL     1      11.058   0.386   1.484  1.00  0.00    -0.001 C 
ATOM     70  C   UNL     1      10.734   1.288   2.427  1.00  0.00     0.001 C 
BRANCH  70  71
ATOM     71  C   UNL     1      11.562   2.398   2.904  1.00  0.00    -0.055 C 
ATOM     72  C   UNL     1      12.902   2.242   2.867  1.00  0.00    -0.018 C 
ATOM     73  C   UNL     1      10.860   3.638   3.393  1.00  0.00     0.044 C 
BRANCH  72  74
ATOM     74  C   UNL     1      13.996   3.212   3.288  1.00  0.00     0.038 C 
ATOM     75  C   UNL     1      15.268   2.820   2.526  1.00  0.00     0.015 C 
BRANCH  74  76
ATOM     76  C   UNL     1      14.128   3.177   4.840  1.00  0.00     0.128 C 
BRANCH  76  77
ATOM     77  O   UNL     1      13.641   4.407   5.402  1.00  0.00    -0.381 OA
ATOM     78  C   UNL     1      14.670   5.329   5.737  1.00  0.00     0.195 C 
ENDBRANCH  76  77
BRANCH  76  79
ATOM     79  C   UNL     1      13.494   1.925   5.497  1.00  0.00     0.068 C 
BRANCH  79  80
ATOM     80  C   UNL     1      12.685   2.121   6.756  1.00  0.00    -0.045 A 
ATOM     81  C   UNL     1      13.309   2.226   8.006  1.00  0.00     0.004 A 
ATOM     82  C   UNL     1      11.284   2.172   6.696  1.00  0.00     0.004 A 
ATOM     83  C   UNL     1      12.552   2.393   9.168  1.00  0.00     0.000 A 
ATOM     84  C   UNL     1      10.528   2.338   7.858  1.00  0.00     0.000 A 
ATOM     85  C   UNL     1      11.162   2.450   9.094  1.00  0.00     0.000 A 
ENDBRANCH  79  80
ENDBRANCH  76  79
ENDBRANCH  74  76
ENDBRANCH  72  74
ENDBRANCH  70  71
ENDBRANCH   1  69
TORSDOF 17
ENDMDL
MODEL 44
REMARK VINA RESULT:    -6.965      3.544     13.571
REMARK INTER + INTRA:         -26.478
REMARK INTER:                 -22.257
REMARK INTRA:                  -4.221
REMARK UNBOUND:                -5.667
REMARK SMILES C=C1C(=O)N[C@H](C)C(=O)N[C@@H](CC(C)C)C(=O)N[C@@H](C(=O)O)[C@H](C)C(=O)N[C@@H](CCCN=C(N)N)C(=O)N[C@@H](/C=C/C(C)=C/[C@H](C)[C@H](Cc2ccccc2)OC)[C@H](C)C(=O)N[C@@H](C(=O)O)CCC(=O)N1C
REMARK SMILES IDX 39 1 38 2 37 3 36 4 28 6 27 7 25 8 26 9 23 11 24 12 19 13
REMARK SMILES IDX 18 14 16 15 17 16 11 18 10 19 8 20 9 21 12 24 13 25 14 26
REMARK SMILES IDX 15 27 20 28 21 29 22 30 29 32 30 33 31 34 32 35 33 36 34 37
REMARK SMILES IDX 35 38 57 43 58 44 59 45 60 46 61 47 62 49 66 50 67 51 68 52
REMARK SMILES IDX 69 53 70 54 71 55 2 56 1 57 3 58 4 59 5 60 6 62 7 63 63 65
REMARK SMILES IDX 64 66 65 67 40 69 41 70 42 71 44 72 43 73 45 74 46 75 47 76
REMARK SMILES IDX 55 77 56 78 48 79 49 80 50 81 54 82 51 83 53 84 52 85
REMARK H PARENT 38 5 27 10 18 17 10 22 22 31 34 39 34 40 35 41 35 42 61 48
REMARK H PARENT 5 61 65 68
REMARK Flexibility Score:  369.900
ROOT
ATOM      1  C   UNL     1       6.882  -1.378   3.952  1.00  0.00     0.117 C 
ENDROOT
BRANCH   1   2
ATOM      2  N   UNL     1       6.066  -2.024   2.923  1.00  0.00    -0.347 N 
ATOM      3  O   UNL     1       7.651  -2.094   1.264  1.00  0.00    -0.273 OA
ATOM      4  C   UNL     1       6.546  -2.414   1.688  1.00  0.00     0.243 C 
ATOM      5  H   UNL     1       5.105  -2.252   3.126  1.00  0.00     0.164 HD
BRANCH   4   6
ATOM      6  C   UNL     1       5.498  -3.155   0.818  1.00  0.00     0.171 C 
BRANCH   6   7
ATOM      7  N   UNL     1       6.052  -3.454  -0.512  1.00  0.00    -0.344 N 
ATOM      8  C   UNL     1       5.319  -3.202  -1.651  1.00  0.00     0.226 C 
ATOM      9  O   UNL     1       4.182  -2.747  -1.618  1.00  0.00    -0.275 OA
ATOM     10  H   UNL     1       6.962  -3.893  -0.577  1.00  0.00     0.164 HD
BRANCH   8  11
ATOM     11  C   UNL     1       6.049  -3.513  -2.946  1.00  0.00     0.109 C 
ATOM     12  C   UNL     1       7.558  -3.367  -2.747  1.00  0.00     0.021 C 
BRANCH  11  13
ATOM     13  C   UNL     1       5.596  -4.885  -3.484  1.00  0.00     0.204 C 
BRANCH  13  14
ATOM     14  N   UNL     1       5.949  -5.068  -4.895  1.00  0.00    -0.340 N 
ATOM     15  C   UNL     1       5.009  -5.131  -5.900  1.00  0.00     0.243 C 
ATOM     16  O   UNL     1       3.807  -4.977  -5.691  1.00  0.00    -0.273 OA
ATOM     17  H   UNL     1       6.907  -5.353  -5.117  1.00  0.00     0.164 HD
BRANCH  15  18
ATOM     18  C   UNL     1       5.598  -5.537  -7.274  1.00  0.00     0.171 C 
BRANCH  18  19
ATOM     19  N   UNL     1       4.589  -5.202  -8.277  1.00  0.00    -0.343 N 
ATOM     20  C   UNL     1       3.706  -6.145  -8.766  1.00  0.00     0.242 CG0
ATOM     21  O   UNL     1       3.812  -7.335  -8.480  1.00  0.00    -0.273 OA
ATOM     22  H   UNL     1       4.536  -4.253  -8.632  1.00  0.00     0.164 HD
ATOM     23  G   UNL     1       2.664  -5.587  -9.758  1.00  0.00     0.000 G0
ENDBRANCH  18  19
BRANCH  18  24
ATOM     24  C   UNL     1       6.917  -4.801  -7.536  1.00  0.00     0.038 C 
BRANCH  24  25
ATOM     25  C   UNL     1       7.911  -5.561  -8.439  1.00  0.00    -0.015 C 
ATOM     26  C   UNL     1       7.865  -5.085  -9.891  1.00  0.00     0.007 C 
ATOM     27  C   UNL     1       7.616  -7.062  -8.380  1.00  0.00     0.007 C 
ENDBRANCH  24  25
ENDBRANCH  18  24
ENDBRANCH  15  18
ENDBRANCH  13  14
BRANCH  13  28
ATOM     28  C   UNL     1       6.192  -6.064  -2.710  1.00  0.00     0.327 C 
ATOM     29  O   UNL     1       6.228  -6.186  -1.495  1.00  0.00    -0.250 OA
BRANCH  28  30
ATOM     30  O   UNL     1       6.811  -6.960  -3.505  1.00  0.00    -0.480 OA
ATOM     31  H   UNL     1       7.761  -6.855  -3.292  1.00  0.00     0.296 HD
ENDBRANCH  28  30
ENDBRANCH  13  28
ENDBRANCH  11  13
ENDBRANCH   8  11
ENDBRANCH   6   7
BRANCH   6  32
ATOM     32  C   UNL     1       5.068  -4.440   1.534  1.00  0.00     0.037 C 
BRANCH  32  33
ATOM     33  C   UNL     1       3.606  -4.806   1.239  1.00  0.00     0.026 C 
BRANCH  33  34
ATOM     34  C   UNL     1       2.672  -3.599   1.331  1.00  0.00     0.146 C 
BRANCH  34  35
ATOM     35  N   UNL     1       2.474  -3.264   2.735  1.00  0.00    -0.254 NA
ATOM     36  C   UNL     1       2.494  -2.031   3.080  1.00  0.00     0.185 C 
ATOM     37  N   UNL     1       2.308  -1.710   4.370  1.00  0.00    -0.370 N 
ATOM     38  N   UNL     1       2.682  -0.942   2.314  1.00  0.00    -0.370 N 
ATOM     39  H   UNL     1       2.149  -2.477   5.011  1.00  0.00     0.159 HD
ATOM     40  H   UNL     1       2.138  -0.772   4.691  1.00  0.00     0.159 HD
ATOM     41  H   UNL     1       2.816  -0.032   2.725  1.00  0.00     0.159 HD
ATOM     42  H   UNL     1       2.850  -1.034   1.325  1.00  0.00     0.159 HD
ENDBRANCH  34  35
ENDBRANCH  33  34
ENDBRANCH  32  33
ENDBRANCH   6  32
ENDBRANCH   4   6
ENDBRANCH   1   2
BRANCH   1  43
ATOM     43  C   UNL     1       6.756   0.165   3.788  1.00  0.00     0.102 C 
ATOM     44  C   UNL     1       6.057   0.586   2.484  1.00  0.00     0.020 C 
BRANCH  43  45
ATOM     45  C   UNL     1       8.103   0.855   4.022  1.00  0.00     0.225 C 
ATOM     46  O   UNL     1       8.983   0.915   3.168  1.00  0.00    -0.275 OA
ATOM     47  N   UNL     1       8.310   1.332   5.296  1.00  0.00    -0.342 N 
ATOM     48  H   UNL     1       7.531   1.411   5.933  1.00  0.00     0.164 HD
BRANCH  47  49
ATOM     49  C   UNL     1       9.539   2.047   5.655  1.00  0.00     0.192 C 
BRANCH  49  50
ATOM     50  C   UNL     1       9.821   1.865   7.149  1.00  0.00     0.047 C 
BRANCH  50  51
ATOM     51  C   UNL     1      11.275   2.200   7.511  1.00  0.00     0.103 C 
BRANCH  51  52
ATOM     52  C   UNL     1      11.371   3.414   8.433  1.00  0.00     0.226 C 
ATOM     53  O   UNL     1      10.532   3.574   9.321  1.00  0.00    -0.275 OA
BRANCH  52  54
ATOM     54  N   UNL     1      12.486   4.253   8.249  1.00  0.00    -0.311 N 
ATOM     55  C   UNL     1      13.787   3.924   8.847  1.00  0.00     0.153 C 
BRANCH  54  56
ATOM     56  C   UNL     1      12.399   5.430   7.486  1.00  0.00     0.102 C 
ATOM     57  C   UNL     1      12.562   5.496   6.154  1.00  0.00     0.043 C 
BRANCH  56  58
ATOM     58  C   UNL     1      12.057   6.750   8.134  1.00  0.00     0.268 C 
ATOM     59  O   UNL     1      11.754   6.858   9.315  1.00  0.00    -0.268 OA
ATOM     60  N   UNL     1      12.185   7.820   7.281  1.00  0.00    -0.339 N 
ATOM     61  H   UNL     1      12.431   7.645   6.314  1.00  0.00     0.164 HD
BRANCH  60  62
ATOM     62  C   UNL     1      11.964   9.198   7.720  1.00  0.00     0.168 CG0
ATOM     63  C   UNL     1      11.307  10.023   6.620  1.00  0.00     0.041 C 
ATOM     64  G   UNL     1      13.306   9.827   8.146  1.00  0.00     0.000 G0
ENDBRANCH  60  62
ENDBRANCH  56  58
ENDBRANCH  54  56
ENDBRANCH  52  54
ENDBRANCH  51  52
ENDBRANCH  50  51
ENDBRANCH  49  50
BRANCH  49  65
ATOM     65  C   UNL     1       9.435   3.547   5.336  1.00  0.00     0.326 C 
ATOM     66  O   UNL     1       9.973   4.111   4.394  1.00  0.00    -0.250 OA
BRANCH  65  67
ATOM     67  O   UNL     1       8.725   4.267   6.233  1.00  0.00    -0.480 OA
ATOM     68  H   UNL     1       7.870   4.424   5.777  1.00  0.00     0.296 HD
ENDBRANCH  65  67
ENDBRANCH  49  65
ENDBRANCH  47  49
ENDBRANCH  43  45
ENDBRANCH   1  43
BRANCH   1  69
ATOM     69  C   UNL     1       8.258  -2.014   3.863  1.00  0.00    -0.001 C 
ATOM     70  C   UNL     1       8.720  -3.062   4.569  1.00  0.00     0.001 C 
BRANCH  70  71
ATOM     71  C   UNL     1      10.042  -3.681   4.460  1.00  0.00    -0.055 C 
ATOM     72  C   UNL     1      10.232  -4.585   3.476  1.00  0.00    -0.018 C 
ATOM     73  C   UNL     1      11.099  -3.259   5.447  1.00  0.00     0.044 C 
BRANCH  72  74
ATOM     74  C   UNL     1      11.484  -5.377   3.124  1.00  0.00     0.038 C 
ATOM     75  C   UNL     1      11.853  -5.021   1.679  1.00  0.00     0.015 C 
BRANCH  74  76
ATOM     76  C   UNL     1      11.207  -6.889   3.375  1.00  0.00     0.128 C 
BRANCH  76  77
ATOM     77  O   UNL     1       9.870  -7.068   3.871  1.00  0.00    -0.381 OA
ATOM     78  C   UNL     1       9.807  -7.785   5.097  1.00  0.00     0.195 C 
ENDBRANCH  76  77
BRANCH  76  79
ATOM     79  C   UNL     1      11.522  -7.796   2.159  1.00  0.00     0.068 C 
BRANCH  79  80
ATOM     80  C   UNL     1      10.372  -8.521   1.502  1.00  0.00    -0.045 A 
ATOM     81  C   UNL     1      10.049  -9.837   1.860  1.00  0.00     0.004 A 
ATOM     82  C   UNL     1       9.623  -7.894   0.495  1.00  0.00     0.004 A 
ATOM     83  C   UNL     1       8.993 -10.505   1.238  1.00  0.00     0.000 A 
ATOM     84  C   UNL     1       8.568  -8.564  -0.127  1.00  0.00     0.000 A 
ATOM     85  C   UNL     1       8.252  -9.868   0.245  1.00  0.00     0.000 A 
ENDBRANCH  79  80
ENDBRANCH  76  79
ENDBRANCH  74  76
ENDBRANCH  72  74
ENDBRANCH  70  71
ENDBRANCH   1  69
TORSDOF 17
ENDMDL
MODEL 45
REMARK VINA RESULT:    -6.942      3.163      6.594
REMARK INTER + INTRA:         -26.409
REMARK INTER:                 -19.232
REMARK INTRA:                  -7.177
REMARK UNBOUND:                -5.667
REMARK SMILES C=C1C(=O)N[C@H](C)C(=O)N[C@@H](CC(C)C)C(=O)N[C@@H](C(=O)O)[C@H](C)C(=O)N[C@@H](CCCN=C(N)N)C(=O)N[C@@H](/C=C/C(C)=C/[C@H](C)[C@H](Cc2ccccc2)OC)[C@H](C)C(=O)N[C@@H](C(=O)O)CCC(=O)N1C
REMARK SMILES IDX 39 1 38 2 37 3 36 4 28 6 27 7 25 8 26 9 23 11 24 12 19 13
REMARK SMILES IDX 18 14 16 15 17 16 11 18 10 19 8 20 9 21 12 24 13 25 14 26
REMARK SMILES IDX 15 27 20 28 21 29 22 30 29 32 30 33 31 34 32 35 33 36 34 37
REMARK SMILES IDX 35 38 57 43 58 44 59 45 60 46 61 47 62 49 66 50 67 51 68 52
REMARK SMILES IDX 69 53 70 54 71 55 2 56 1 57 3 58 4 59 5 60 6 62 7 63 63 65
REMARK SMILES IDX 64 66 65 67 40 69 41 70 42 71 44 72 43 73 45 74 46 75 47 76
REMARK SMILES IDX 55 77 56 78 48 79 49 80 50 81 54 82 51 83 53 84 52 85
REMARK H PARENT 38 5 27 10 18 17 10 22 22 31 34 39 34 40 35 41 35 42 61 48
REMARK H PARENT 5 61 65 68
REMARK Flexibility Score:  369.900
ROOT
ATOM      1  C   UNL     1       8.175  -1.164   0.578  1.00  0.00     0.117 C 
ENDROOT
BRANCH   1   2
ATOM      2  N   UNL     1       7.727  -2.411   1.198  1.00  0.00    -0.347 N 
ATOM      3  O   UNL     1       6.351  -1.492   2.789  1.00  0.00    -0.273 OA
ATOM      4  C   UNL     1       6.776  -2.479   2.198  1.00  0.00     0.243 C 
ATOM      5  H   UNL     1       8.084  -3.290   0.855  1.00  0.00     0.164 HD
BRANCH   4   6
ATOM      6  C   UNL     1       6.417  -3.927   2.619  1.00  0.00     0.171 C 
BRANCH   6   7
ATOM      7  N   UNL     1       7.240  -4.348   3.765  1.00  0.00    -0.344 N 
ATOM      8  C   UNL     1       8.490  -4.894   3.570  1.00  0.00     0.226 C 
ATOM      9  O   UNL     1       8.964  -5.076   2.455  1.00  0.00    -0.275 OA
ATOM     10  H   UNL     1       6.854  -4.276   4.698  1.00  0.00     0.164 HD
BRANCH   8  11
ATOM     11  C   UNL     1       9.234  -5.226   4.851  1.00  0.00     0.109 C 
ATOM     12  C   UNL     1       9.841  -6.626   4.758  1.00  0.00     0.021 C 
BRANCH  11  13
ATOM     13  C   UNL     1      10.240  -4.104   5.176  1.00  0.00     0.204 C 
BRANCH  13  14
ATOM     14  N   UNL     1       9.585  -2.928   5.758  1.00  0.00    -0.340 N 
ATOM     15  C   UNL     1       9.541  -1.705   5.124  1.00  0.00     0.243 C 
ATOM     16  O   UNL     1       9.996  -1.530   3.996  1.00  0.00    -0.273 OA
ATOM     17  H   UNL     1       9.324  -2.964   6.747  1.00  0.00     0.164 HD
BRANCH  15  18
ATOM     18  C   UNL     1       8.985  -0.567   6.014  1.00  0.00     0.171 C 
BRANCH  18  19
ATOM     19  N   UNL     1       9.128  -1.010   7.400  1.00  0.00    -0.343 N 
ATOM     20  C   UNL     1       8.332  -0.509   8.412  1.00  0.00     0.242 CG0
ATOM     21  O   UNL     1       7.559   0.426   8.219  1.00  0.00    -0.273 OA
ATOM     22  H   UNL     1       9.835  -1.700   7.630  1.00  0.00     0.164 HD
ATOM     23  G   UNL     1       8.576  -1.154   9.792  1.00  0.00     0.000 G0
ENDBRANCH  18  19
BRANCH  18  24
ATOM     24  C   UNL     1       9.746   0.740   5.761  1.00  0.00     0.038 C 
BRANCH  24  25
ATOM     25  C   UNL     1       8.993   1.765   4.886  1.00  0.00    -0.015 C 
ATOM     26  C   UNL     1       8.994   3.167   5.495  1.00  0.00     0.007 C 
ATOM     27  C   UNL     1       7.552   1.297   4.670  1.00  0.00     0.007 C 
ENDBRANCH  24  25
ENDBRANCH  18  24
ENDBRANCH  15  18
ENDBRANCH  13  14
BRANCH  13  28
ATOM     28  C   UNL     1      11.338  -4.540   6.150  1.00  0.00     0.327 C 
ATOM     29  O   UNL     1      12.497  -4.799   5.864  1.00  0.00    -0.250 OA
BRANCH  28  30
ATOM     30  O   UNL     1      10.884  -4.740   7.404  1.00  0.00    -0.480 OA
ATOM     31  H   UNL     1      11.229  -3.975   7.910  1.00  0.00     0.296 HD
ENDBRANCH  28  30
ENDBRANCH  13  28
ENDBRANCH  11  13
ENDBRANCH   8  11
ENDBRANCH   6   7
BRANCH   6  32
ATOM     32  C   UNL     1       4.925  -3.996   2.962  1.00  0.00     0.037 C 
BRANCH  32  33
ATOM     33  C   UNL     1       4.677  -4.609   4.347  1.00  0.00     0.026 C 
BRANCH  33  34
ATOM     34  C   UNL     1       4.139  -3.588   5.351  1.00  0.00     0.146 C 
BRANCH  34  35
ATOM     35  N   UNL     1       4.111  -4.198   6.673  1.00  0.00    -0.254 NA
ATOM     36  C   UNL     1       3.242  -3.789   7.520  1.00  0.00     0.185 C 
ATOM     37  N   UNL     1       3.204  -4.348   8.740  1.00  0.00    -0.370 N 
ATOM     38  N   UNL     1       2.306  -2.835   7.376  1.00  0.00    -0.370 N 
ATOM     39  H   UNL     1       3.874  -5.085   8.922  1.00  0.00     0.159 HD
ATOM     40  H   UNL     1       2.452  -4.209   9.392  1.00  0.00     0.159 HD
ATOM     41  H   UNL     1       1.771  -2.506   8.163  1.00  0.00     0.159 HD
ATOM     42  H   UNL     1       2.229  -2.318   6.514  1.00  0.00     0.159 HD
ENDBRANCH  34  35
ENDBRANCH  33  34
ENDBRANCH  32  33
ENDBRANCH   6  32
ENDBRANCH   4   6
ENDBRANCH   1   2
BRANCH   1  43
ATOM     43  C   UNL     1       7.568  -1.075  -0.852  1.00  0.00     0.102 C 
ATOM     44  C   UNL     1       6.153  -0.474  -0.880  1.00  0.00     0.020 C 
BRANCH  43  45
ATOM     45  C   UNL     1       7.689  -2.415  -1.585  1.00  0.00     0.225 C 
ATOM     46  O   UNL     1       8.747  -2.835  -2.045  1.00  0.00    -0.275 OA
ATOM     47  N   UNL     1       6.507  -3.090  -1.784  1.00  0.00    -0.342 N 
ATOM     48  H   UNL     1       5.680  -2.812  -1.274  1.00  0.00     0.164 HD
BRANCH  47  49
ATOM     49  C   UNL     1       6.474  -4.401  -2.439  1.00  0.00     0.192 C 
BRANCH  49  50
ATOM     50  C   UNL     1       5.513  -4.358  -3.629  1.00  0.00     0.047 C 
BRANCH  50  51
ATOM     51  C   UNL     1       6.076  -5.084  -4.858  1.00  0.00     0.103 C 
BRANCH  51  52
ATOM     52  C   UNL     1       4.993  -5.382  -5.894  1.00  0.00     0.226 C 
ATOM     53  O   UNL     1       3.805  -5.296  -5.577  1.00  0.00    -0.275 OA
BRANCH  52  54
ATOM     54  N   UNL     1       5.436  -5.671  -7.198  1.00  0.00    -0.311 N 
ATOM     55  C   UNL     1       6.755  -6.273  -7.433  1.00  0.00     0.153 C 
BRANCH  54  56
ATOM     56  C   UNL     1       4.635  -5.400  -8.320  1.00  0.00     0.102 C 
ATOM     57  C   UNL     1       4.755  -4.319  -9.108  1.00  0.00     0.043 C 
BRANCH  56  58
ATOM     58  C   UNL     1       3.567  -6.373  -8.763  1.00  0.00     0.268 C 
ATOM     59  O   UNL     1       3.470  -7.509  -8.317  1.00  0.00    -0.268 OA
ATOM     60  N   UNL     1       2.682  -5.830  -9.663  1.00  0.00    -0.339 N 
ATOM     61  H   UNL     1       2.838  -4.885  -9.990  1.00  0.00     0.164 HD
BRANCH  60  62
ATOM     62  C   UNL     1       1.534  -6.578 -10.174  1.00  0.00     0.168 CG0
ATOM     63  C   UNL     1       1.735  -6.958 -11.636  1.00  0.00     0.041 C 
ATOM     64  G   UNL     1       0.251  -5.739 -10.000  1.00  0.00     0.000 G0
ENDBRANCH  60  62
ENDBRANCH  56  58
ENDBRANCH  54  56
ENDBRANCH  52  54
ENDBRANCH  51  52
ENDBRANCH  50  51
ENDBRANCH  49  50
BRANCH  49  65
ATOM     65  C   UNL     1       6.032  -5.508  -1.468  1.00  0.00     0.326 C 
ATOM     66  O   UNL     1       6.618  -5.831  -0.445  1.00  0.00    -0.250 OA
BRANCH  65  67
ATOM     67  O   UNL     1       4.930  -6.188  -1.853  1.00  0.00    -0.480 OA
ATOM     68  H   UNL     1       5.169  -6.536  -2.738  1.00  0.00     0.296 HD
ENDBRANCH  65  67
ENDBRANCH  49  65
ENDBRANCH  47  49
ENDBRANCH  43  45
ENDBRANCH   1  43
BRANCH   1  69
ATOM     69  C   UNL     1       9.684  -1.130   0.738  1.00  0.00    -0.001 C 
ATOM     70  C   UNL     1      10.525  -2.178   0.782  1.00  0.00     0.001 C 
BRANCH  70  71
ATOM     71  C   UNL     1      11.982  -2.132   0.915  1.00  0.00    -0.055 C 
ATOM     72  C   UNL     1      12.495  -1.472   1.975  1.00  0.00    -0.018 C 
ATOM     73  C   UNL     1      12.806  -2.831  -0.135  1.00  0.00     0.044 C 
BRANCH  72  74
ATOM     74  C   UNL     1      13.951  -1.264   2.367  1.00  0.00     0.038 C 
ATOM     75  C   UNL     1      14.273  -2.285   3.466  1.00  0.00     0.015 C 
BRANCH  74  76
ATOM     76  C   UNL     1      14.151   0.224   2.780  1.00  0.00     0.128 C 
BRANCH  76  77
ATOM     77  O   UNL     1      15.227   0.803   2.021  1.00  0.00    -0.381 OA
ATOM     78  C   UNL     1      15.061   0.686   0.614  1.00  0.00     0.195 C 
ENDBRANCH  76  77
BRANCH  76  79
ATOM     79  C   UNL     1      12.855   1.072   2.725  1.00  0.00     0.068 C 
BRANCH  79  80
ATOM     80  C   UNL     1      12.725   2.226   3.689  1.00  0.00    -0.045 A 
ATOM     81  C   UNL     1      13.052   2.077   5.043  1.00  0.00     0.004 A 
ATOM     82  C   UNL     1      12.244   3.467   3.245  1.00  0.00     0.004 A 
ATOM     83  C   UNL     1      12.916   3.146   5.931  1.00  0.00     0.000 A 
ATOM     84  C   UNL     1      12.107   4.536   4.134  1.00  0.00     0.000 A 
ATOM     85  C   UNL     1      12.444   4.375   5.476  1.00  0.00     0.000 A 
ENDBRANCH  79  80
ENDBRANCH  76  79
ENDBRANCH  74  76
ENDBRANCH  72  74
ENDBRANCH  70  71
ENDBRANCH   1  69
TORSDOF 17
ENDMDL
MODEL 46
REMARK VINA RESULT:    -6.927      3.801      8.944
REMARK INTER + INTRA:         -26.363
REMARK INTER:                 -20.022
REMARK INTRA:                  -6.341
REMARK UNBOUND:                -5.667
REMARK SMILES C=C1C(=O)N[C@H](C)C(=O)N[C@@H](CC(C)C)C(=O)N[C@@H](C(=O)O)[C@H](C)C(=O)N[C@@H](CCCN=C(N)N)C(=O)N[C@@H](/C=C/C(C)=C/[C@H](C)[C@H](Cc2ccccc2)OC)[C@H](C)C(=O)N[C@@H](C(=O)O)CCC(=O)N1C
REMARK SMILES IDX 39 1 38 2 37 3 36 4 28 6 27 7 25 8 26 9 23 11 24 12 19 13
REMARK SMILES IDX 18 14 16 15 17 16 11 18 10 19 8 20 9 21 12 24 13 25 14 26
REMARK SMILES IDX 15 27 20 28 21 29 22 30 29 32 30 33 31 34 32 35 33 36 34 37
REMARK SMILES IDX 35 38 57 43 58 44 59 45 60 46 61 47 62 49 66 50 67 51 68 52
REMARK SMILES IDX 69 53 70 54 71 55 2 56 1 57 3 58 4 59 5 60 6 62 7 63 63 65
REMARK SMILES IDX 64 66 65 67 40 69 41 70 42 71 44 72 43 73 45 74 46 75 47 76
REMARK SMILES IDX 55 77 56 78 48 79 49 80 50 81 54 82 51 83 53 84 52 85
REMARK H PARENT 38 5 27 10 18 17 10 22 22 31 34 39 34 40 35 41 35 42 61 48
REMARK H PARENT 5 61 65 68
REMARK Flexibility Score:  369.900
ROOT
ATOM      1  C   UNL     1      10.351  -0.584   1.279  1.00  0.00     0.117 C 
ENDROOT
BRANCH   1   2
ATOM      2  N   UNL     1       9.116  -0.618   2.063  1.00  0.00    -0.347 N 
ATOM      3  O   UNL     1       7.634  -0.391   0.325  1.00  0.00    -0.273 OA
ATOM      4  C   UNL     1       7.849  -0.611   1.512  1.00  0.00     0.243 C 
ATOM      5  H   UNL     1       9.171  -0.702   3.067  1.00  0.00     0.164 HD
BRANCH   4   6
ATOM      6  C   UNL     1       6.714  -0.742   2.559  1.00  0.00     0.171 C 
BRANCH   6   7
ATOM      7  N   UNL     1       7.273  -1.010   3.894  1.00  0.00    -0.344 N 
ATOM      8  C   UNL     1       7.273  -2.286   4.412  1.00  0.00     0.226 C 
ATOM      9  O   UNL     1       6.797  -3.243   3.812  1.00  0.00    -0.275 OA
ATOM     10  H   UNL     1       7.614  -0.234   4.448  1.00  0.00     0.164 HD
BRANCH   8  11
ATOM     11  C   UNL     1       7.933  -2.409   5.774  1.00  0.00     0.109 C 
ATOM     12  C   UNL     1       8.618  -3.769   5.907  1.00  0.00     0.021 C 
BRANCH  11  13
ATOM     13  C   UNL     1       8.851  -1.194   6.020  1.00  0.00     0.204 C 
BRANCH  13  14
ATOM     14  N   UNL     1       8.868  -0.792   7.429  1.00  0.00    -0.340 N 
ATOM     15  C   UNL     1       8.247   0.349   7.890  1.00  0.00     0.243 C 
ATOM     16  O   UNL     1       7.582   1.080   7.158  1.00  0.00    -0.273 OA
ATOM     17  H   UNL     1       9.524  -1.266   8.056  1.00  0.00     0.164 HD
BRANCH  15  18
ATOM     18  C   UNL     1       8.574   0.679   9.367  1.00  0.00     0.171 C 
BRANCH  18  19
ATOM     19  N   UNL     1       9.061   2.057   9.390  1.00  0.00    -0.343 N 
ATOM     20  C   UNL     1      10.061   2.462  10.253  1.00  0.00     0.242 CG0
ATOM     21  O   UNL     1      10.494   1.718  11.130  1.00  0.00    -0.273 OA
ATOM     22  H   UNL     1       8.651   2.739   8.763  1.00  0.00     0.164 HD
ATOM     23  G   UNL     1      10.495   3.932  10.078  1.00  0.00     0.000 G0
ENDBRANCH  18  19
BRANCH  18  24
ATOM     24  C   UNL     1       7.331   0.506  10.248  1.00  0.00     0.038 C 
BRANCH  24  25
ATOM     25  C   UNL     1       6.651  -0.875  10.139  1.00  0.00    -0.015 C 
ATOM     26  C   UNL     1       5.247  -0.886  10.745  1.00  0.00     0.007 C 
ATOM     27  C   UNL     1       7.518  -1.932  10.829  1.00  0.00     0.007 C 
ENDBRANCH  24  25
ENDBRANCH  18  24
ENDBRANCH  15  18
ENDBRANCH  13  14
BRANCH  13  28
ATOM     28  C   UNL     1      10.303  -1.441   5.600  1.00  0.00     0.327 C 
ATOM     29  O   UNL     1      10.682  -1.852   4.514  1.00  0.00    -0.250 OA
BRANCH  28  30
ATOM     30  O   UNL     1      11.182  -1.269   6.609  1.00  0.00    -0.480 OA
ATOM     31  H   UNL     1      10.974  -1.994   7.235  1.00  0.00     0.296 HD
ENDBRANCH  28  30
ENDBRANCH  13  28
ENDBRANCH  11  13
ENDBRANCH   8  11
ENDBRANCH   6   7
BRANCH   6  32
ATOM     32  C   UNL     1       5.882   0.546   2.563  1.00  0.00     0.037 C 
BRANCH  32  33
ATOM     33  C   UNL     1       4.827   0.557   1.448  1.00  0.00     0.026 C 
BRANCH  33  34
ATOM     34  C   UNL     1       4.270  -0.837   1.155  1.00  0.00     0.146 C 
BRANCH  34  35
ATOM     35  N   UNL     1       3.049  -1.026   1.927  1.00  0.00    -0.254 NA
ATOM     36  C   UNL     1       2.692  -2.218   2.230  1.00  0.00     0.185 C 
ATOM     37  N   UNL     1       1.572  -2.404   2.945  1.00  0.00    -0.370 N 
ATOM     38  N   UNL     1       3.295  -3.382   1.930  1.00  0.00    -0.370 N 
ATOM     39  H   UNL     1       1.065  -1.571   3.219  1.00  0.00     0.159 HD
ATOM     40  H   UNL     1       1.320  -3.281   3.367  1.00  0.00     0.159 HD
ATOM     41  H   UNL     1       2.841  -4.264   2.106  1.00  0.00     0.159 HD
ATOM     42  H   UNL     1       4.141  -3.395   1.382  1.00  0.00     0.159 HD
ENDBRANCH  34  35
ENDBRANCH  33  34
ENDBRANCH  32  33
ENDBRANCH   6  32
ENDBRANCH   4   6
ENDBRANCH   1   2
BRANCH   1  43
ATOM     43  C   UNL     1      10.983  -2.006   1.288  1.00  0.00     0.102 C 
ATOM     44  C   UNL     1      12.511  -1.997   1.108  1.00  0.00     0.020 C 
BRANCH  43  45
ATOM     45  C   UNL     1      10.249  -2.940   0.322  1.00  0.00     0.225 C 
ATOM     46  O   UNL     1      10.263  -2.792  -0.896  1.00  0.00    -0.275 OA
ATOM     47  N   UNL     1       9.483  -3.919   0.913  1.00  0.00    -0.342 N 
ATOM     48  H   UNL     1       9.601  -4.122   1.896  1.00  0.00     0.164 HD
BRANCH  47  49
ATOM     49  C   UNL     1       8.753  -4.908   0.113  1.00  0.00     0.192 C 
BRANCH  49  50
ATOM     50  C   UNL     1       7.306  -4.999   0.604  1.00  0.00     0.047 C 
BRANCH  50  51
ATOM     51  C   UNL     1       6.504  -3.729   0.290  1.00  0.00     0.103 C 
BRANCH  51  52
ATOM     52  C   UNL     1       5.625  -3.897  -0.948  1.00  0.00     0.226 C 
ATOM     53  O   UNL     1       4.398  -3.871  -0.833  1.00  0.00    -0.275 OA
BRANCH  52  54
ATOM     54  N   UNL     1       6.293  -3.998  -2.182  1.00  0.00    -0.311 N 
ATOM     55  C   UNL     1       7.209  -2.943  -2.634  1.00  0.00     0.153 C 
BRANCH  54  56
ATOM     56  C   UNL     1       6.116  -5.110  -3.022  1.00  0.00     0.102 C 
ATOM     57  C   UNL     1       6.428  -6.375  -2.698  1.00  0.00     0.043 C 
BRANCH  56  58
ATOM     58  C   UNL     1       5.493  -4.956  -4.389  1.00  0.00     0.268 C 
ATOM     59  O   UNL     1       4.615  -4.141  -4.638  1.00  0.00    -0.268 OA
ATOM     60  N   UNL     1       6.057  -5.778  -5.336  1.00  0.00    -0.339 N 
ATOM     61  H   UNL     1       6.773  -6.434  -5.047  1.00  0.00     0.164 HD
BRANCH  60  62
ATOM     62  C   UNL     1       5.647  -5.747  -6.739  1.00  0.00     0.168 CG0
ATOM     63  C   UNL     1       4.395  -6.587  -6.961  1.00  0.00     0.041 C 
ATOM     64  G   UNL     1       6.805  -6.247  -7.627  1.00  0.00     0.000 G0
ENDBRANCH  60  62
ENDBRANCH  56  58
ENDBRANCH  54  56
ENDBRANCH  52  54
ENDBRANCH  51  52
ENDBRANCH  50  51
ENDBRANCH  49  50
BRANCH  49  65
ATOM     65  C   UNL     1       9.407  -6.296   0.194  1.00  0.00     0.326 C 
ATOM     66  O   UNL     1       8.854  -7.322   0.564  1.00  0.00    -0.250 OA
BRANCH  65  67
ATOM     67  O   UNL     1      10.719  -6.321  -0.129  1.00  0.00    -0.480 OA
ATOM     68  H   UNL     1      10.762  -5.805  -0.962  1.00  0.00     0.296 HD
ENDBRANCH  65  67
ENDBRANCH  49  65
ENDBRANCH  47  49
ENDBRANCH  43  45
ENDBRANCH   1  43
BRANCH   1  69
ATOM     69  C   UNL     1      11.161   0.583   1.814  1.00  0.00    -0.001 C 
ATOM     70  C   UNL     1      10.741   1.560   2.637  1.00  0.00     0.001 C 
BRANCH  70  71
ATOM     71  C   UNL     1      11.539   2.669   3.164  1.00  0.00    -0.055 C 
ATOM     72  C   UNL     1      12.883   2.559   3.105  1.00  0.00    -0.018 C 
ATOM     73  C   UNL     1      10.803   3.858   3.726  1.00  0.00     0.044 C 
BRANCH  72  74
ATOM     74  C   UNL     1      13.950   3.541   3.567  1.00  0.00     0.038 C 
ATOM     75  C   UNL     1      15.254   3.159   2.856  1.00  0.00     0.015 C 
BRANCH  74  76
ATOM     76  C   UNL     1      14.021   3.510   5.122  1.00  0.00     0.128 C 
BRANCH  76  77
ATOM     77  O   UNL     1      14.140   2.153   5.581  1.00  0.00    -0.381 OA
ATOM     78  C   UNL     1      15.416   1.845   6.127  1.00  0.00     0.195 C 
ENDBRANCH  76  77
BRANCH  76  79
ATOM     79  C   UNL     1      15.102   4.443   5.722  1.00  0.00     0.068 C 
BRANCH  79  80
ATOM     80  C   UNL     1      14.677   5.424   6.788  1.00  0.00    -0.045 A 
ATOM     81  C   UNL     1      13.886   6.536   6.472  1.00  0.00     0.004 A 
ATOM     82  C   UNL     1      15.095   5.250   8.116  1.00  0.00     0.004 A 
ATOM     83  C   UNL     1      13.509   7.447   7.461  1.00  0.00     0.000 A 
ATOM     84  C   UNL     1      14.718   6.161   9.105  1.00  0.00     0.000 A 
ATOM     85  C   UNL     1      13.924   7.258   8.778  1.00  0.00     0.000 A 
ENDBRANCH  79  80
ENDBRANCH  76  79
ENDBRANCH  74  76
ENDBRANCH  72  74
ENDBRANCH  70  71
ENDBRANCH   1  69
TORSDOF 17
ENDMDL
MODEL 47
REMARK VINA RESULT:    -6.903      5.780     14.271
REMARK INTER + INTRA:         -26.293
REMARK INTER:                 -20.236
REMARK INTRA:                  -6.056
REMARK UNBOUND:                -5.667
REMARK SMILES C=C1C(=O)N[C@H](C)C(=O)N[C@@H](CC(C)C)C(=O)N[C@@H](C(=O)O)[C@H](C)C(=O)N[C@@H](CCCN=C(N)N)C(=O)N[C@@H](/C=C/C(C)=C/[C@H](C)[C@H](Cc2ccccc2)OC)[C@H](C)C(=O)N[C@@H](C(=O)O)CCC(=O)N1C
REMARK SMILES IDX 39 1 38 2 37 3 36 4 28 6 27 7 25 8 26 9 23 11 24 12 19 13
REMARK SMILES IDX 18 14 16 15 17 16 11 18 10 19 8 20 9 21 12 24 13 25 14 26
REMARK SMILES IDX 15 27 20 28 21 29 22 30 29 32 30 33 31 34 32 35 33 36 34 37
REMARK SMILES IDX 35 38 57 43 58 44 59 45 60 46 61 47 62 49 66 50 67 51 68 52
REMARK SMILES IDX 69 53 70 54 71 55 2 56 1 57 3 58 4 59 5 60 6 62 7 63 63 65
REMARK SMILES IDX 64 66 65 67 40 69 41 70 42 71 44 72 43 73 45 74 46 75 47 76
REMARK SMILES IDX 55 77 56 78 48 79 49 80 50 81 54 82 51 83 53 84 52 85
REMARK H PARENT 38 5 27 10 18 17 10 22 22 31 34 39 34 40 35 41 35 42 61 48
REMARK H PARENT 5 61 65 68
REMARK Flexibility Score:  369.900
ROOT
ATOM      1  C   UNL     1      10.137   0.730   6.813  1.00  0.00     0.117 C 
ENDROOT
BRANCH   1   2
ATOM      2  N   UNL     1       9.254   0.015   5.891  1.00  0.00    -0.347 N 
ATOM      3  O   UNL     1       8.064   1.824   5.130  1.00  0.00    -0.273 OA
ATOM      4  C   UNL     1       8.347   0.634   5.053  1.00  0.00     0.243 C 
ATOM      5  H   UNL     1       9.331  -0.988   5.810  1.00  0.00     0.164 HD
BRANCH   4   6
ATOM      6  C   UNL     1       7.597  -0.346   4.114  1.00  0.00     0.171 C 
BRANCH   6   7
ATOM      7  N   UNL     1       8.306  -0.472   2.831  1.00  0.00    -0.344 N 
ATOM      8  C   UNL     1       7.660  -0.210   1.642  1.00  0.00     0.226 C 
ATOM      9  O   UNL     1       6.479   0.114   1.590  1.00  0.00    -0.275 OA
ATOM     10  H   UNL     1       9.263  -0.803   2.829  1.00  0.00     0.164 HD
BRANCH   8  11
ATOM     11  C   UNL     1       8.540  -0.331   0.411  1.00  0.00     0.109 C 
ATOM     12  C   UNL     1       9.962   0.127   0.734  1.00  0.00     0.021 C 
BRANCH  11  13
ATOM     13  C   UNL     1       8.434  -1.757  -0.167  1.00  0.00     0.204 C 
BRANCH  13  14
ATOM     14  N   UNL     1       7.043  -2.210  -0.266  1.00  0.00    -0.340 N 
ATOM     15  C   UNL     1       6.642  -3.480   0.088  1.00  0.00     0.243 C 
ATOM     16  O   UNL     1       7.415  -4.305   0.571  1.00  0.00    -0.273 OA
ATOM     17  H   UNL     1       6.386  -1.631  -0.797  1.00  0.00     0.164 HD
BRANCH  15  18
ATOM     18  C   UNL     1       5.176  -3.796  -0.297  1.00  0.00     0.171 C 
BRANCH  18  19
ATOM     19  N   UNL     1       5.206  -5.026  -1.086  1.00  0.00    -0.343 N 
ATOM     20  C   UNL     1       5.307  -5.006  -2.463  1.00  0.00     0.242 CG0
ATOM     21  O   UNL     1       5.242  -3.956  -3.098  1.00  0.00    -0.273 OA
ATOM     22  H   UNL     1       5.146  -5.921  -0.614  1.00  0.00     0.164 HD
ATOM     23  G   UNL     1       5.404  -6.401  -3.115  1.00  0.00     0.000 G0
ENDBRANCH  18  19
BRANCH  18  24
ATOM     24  C   UNL     1       4.309  -3.954   0.958  1.00  0.00     0.038 C 
BRANCH  24  25
ATOM     25  C   UNL     1       3.407  -2.742   1.275  1.00  0.00    -0.015 C 
ATOM     26  C   UNL     1       3.433  -1.688   0.168  1.00  0.00     0.007 C 
ATOM     27  C   UNL     1       3.841  -2.110   2.600  1.00  0.00     0.007 C 
ENDBRANCH  24  25
ENDBRANCH  18  24
ENDBRANCH  15  18
ENDBRANCH  13  14
BRANCH  13  28
ATOM     28  C   UNL     1       9.055  -1.891  -1.561  1.00  0.00     0.327 C 
ATOM     29  O   UNL     1       8.694  -1.309  -2.572  1.00  0.00    -0.250 OA
BRANCH  28  30
ATOM     30  O   UNL     1      10.016  -2.836  -1.623  1.00  0.00    -0.480 OA
ATOM     31  H   UNL     1      10.758  -2.459  -1.107  1.00  0.00     0.296 HD
ENDBRANCH  28  30
ENDBRANCH  13  28
ENDBRANCH  11  13
ENDBRANCH   8  11
ENDBRANCH   6   7
BRANCH   6  32
ATOM     32  C   UNL     1       7.470  -1.708   4.806  1.00  0.00     0.037 C 
BRANCH  32  33
ATOM     33  C   UNL     1       7.233  -2.847   3.804  1.00  0.00     0.026 C 
BRANCH  33  34
ATOM     34  C   UNL     1       6.549  -4.056   4.443  1.00  0.00     0.146 C 
BRANCH  34  35
ATOM     35  N   UNL     1       5.596  -3.584   5.438  1.00  0.00    -0.254 NA
ATOM     36  C   UNL     1       4.555  -4.292   5.676  1.00  0.00     0.185 C 
ATOM     37  N   UNL     1       3.673  -3.870   6.594  1.00  0.00    -0.370 N 
ATOM     38  N   UNL     1       4.183  -5.459   5.121  1.00  0.00    -0.370 N 
ATOM     39  H   UNL     1       3.889  -3.001   7.066  1.00  0.00     0.159 HD
ATOM     40  H   UNL     1       2.932  -4.444   6.959  1.00  0.00     0.159 HD
ATOM     41  H   UNL     1       3.270  -5.849   5.291  1.00  0.00     0.159 HD
ATOM     42  H   UNL     1       4.744  -5.887   4.401  1.00  0.00     0.159 HD
ENDBRANCH  34  35
ENDBRANCH  33  34
ENDBRANCH  32  33
ENDBRANCH   6  32
ENDBRANCH   4   6
ENDBRANCH   1   2
BRANCH   1  43
ATOM     43  C   UNL     1      11.610   0.358   6.478  1.00  0.00     0.102 C 
ATOM     44  C   UNL     1      12.316  -0.419   7.602  1.00  0.00     0.020 C 
BRANCH  43  45
ATOM     45  C   UNL     1      12.388   1.581   5.984  1.00  0.00     0.225 C 
ATOM     46  O   UNL     1      13.291   2.107   6.630  1.00  0.00    -0.275 OA
ATOM     47  N   UNL     1      11.950   2.124   4.798  1.00  0.00    -0.342 N 
ATOM     48  H   UNL     1      11.317   1.598   4.212  1.00  0.00     0.164 HD
BRANCH  47  49
ATOM     49  C   UNL     1      12.621   3.274   4.187  1.00  0.00     0.192 C 
BRANCH  49  50
ATOM     50  C   UNL     1      11.576   4.246   3.634  1.00  0.00     0.047 C 
BRANCH  50  51
ATOM     51  C   UNL     1      11.305   5.415   4.591  1.00  0.00     0.103 C 
BRANCH  51  52
ATOM     52  C   UNL     1      10.676   4.949   5.903  1.00  0.00     0.226 C 
ATOM     53  O   UNL     1       9.605   4.339   5.883  1.00  0.00    -0.275 OA
BRANCH  52  54
ATOM     54  N   UNL     1      11.419   5.189   7.074  1.00  0.00    -0.311 N 
ATOM     55  C   UNL     1      11.244   4.347   8.265  1.00  0.00     0.153 C 
BRANCH  54  56
ATOM     56  C   UNL     1      12.355   6.233   7.146  1.00  0.00     0.102 C 
ATOM     57  C   UNL     1      13.592   6.194   6.624  1.00  0.00     0.043 C 
BRANCH  56  58
ATOM     58  C   UNL     1      12.003   7.545   7.807  1.00  0.00     0.268 C 
ATOM     59  O   UNL     1      12.053   7.720   9.017  1.00  0.00    -0.268 OA
ATOM     60  N   UNL     1      11.687   8.535   6.907  1.00  0.00    -0.339 N 
ATOM     61  H   UNL     1      11.658   8.306   5.921  1.00  0.00     0.164 HD
BRANCH  60  62
ATOM     62  C   UNL     1      11.376   9.900   7.329  1.00  0.00     0.168 CG0
ATOM     63  C   UNL     1      10.611  10.647   6.242  1.00  0.00     0.041 C 
ATOM     64  G   UNL     1      12.681  10.642   7.686  1.00  0.00     0.000 G0
ENDBRANCH  60  62
ENDBRANCH  56  58
ENDBRANCH  54  56
ENDBRANCH  52  54
ENDBRANCH  51  52
ENDBRANCH  50  51
ENDBRANCH  49  50
BRANCH  49  65
ATOM     65  C   UNL     1      13.565   2.844   3.053  1.00  0.00     0.326 C 
ATOM     66  O   UNL     1      13.552   1.758   2.492  1.00  0.00    -0.250 OA
BRANCH  65  67
ATOM     67  O   UNL     1      14.505   3.757   2.724  1.00  0.00    -0.480 OA
ATOM     68  H   UNL     1      13.981   4.536   2.438  1.00  0.00     0.296 HD
ENDBRANCH  65  67
ENDBRANCH  49  65
ENDBRANCH  47  49
ENDBRANCH  43  45
ENDBRANCH   1  43
BRANCH   1  69
ATOM     69  C   UNL     1       9.609   0.451   8.208  1.00  0.00    -0.001 C 
ATOM     70  C   UNL     1       8.454  -0.154   8.538  1.00  0.00     0.001 C 
BRANCH  70  71
ATOM     71  C   UNL     1       7.965  -0.438   9.889  1.00  0.00    -0.055 C 
ATOM     72  C   UNL     1       6.670  -0.170  10.156  1.00  0.00    -0.018 C 
ATOM     73  C   UNL     1       8.940  -1.016  10.882  1.00  0.00     0.044 C 
BRANCH  72  74
ATOM     74  C   UNL     1       5.894  -0.363  11.452  1.00  0.00     0.038 C 
ATOM     75  C   UNL     1       6.650   0.395  12.549  1.00  0.00     0.015 C 
BRANCH  74  76
ATOM     76  C   UNL     1       5.722  -1.889  11.711  1.00  0.00     0.128 C 
BRANCH  76  77
ATOM     77  O   UNL     1       4.802  -2.102  12.795  1.00  0.00    -0.381 OA
ATOM     78  C   UNL     1       5.370  -2.796  13.897  1.00  0.00     0.195 C 
ENDBRANCH  76  77
BRANCH  76  79
ATOM     79  C   UNL     1       5.358  -2.705  10.445  1.00  0.00     0.068 C 
BRANCH  79  80
ATOM     80  C   UNL     1       3.895  -2.890  10.120  1.00  0.00    -0.045 A 
ATOM     81  C   UNL     1       3.271  -4.134  10.281  1.00  0.00     0.004 A 
ATOM     82  C   UNL     1       3.140  -1.817   9.621  1.00  0.00     0.004 A 
ATOM     83  C   UNL     1       1.921  -4.300   9.965  1.00  0.00     0.000 A 
ATOM     84  C   UNL     1       1.791  -1.985   9.305  1.00  0.00     0.000 A 
ATOM     85  C   UNL     1       1.181  -3.225   9.478  1.00  0.00     0.000 A 
ENDBRANCH  79  80
ENDBRANCH  76  79
ENDBRANCH  74  76
ENDBRANCH  72  74
ENDBRANCH  70  71
ENDBRANCH   1  69
TORSDOF 17
ENDMDL
MODEL 48
REMARK VINA RESULT:    -6.903      4.093      7.459
REMARK INTER + INTRA:         -26.291
REMARK INTER:                 -19.690
REMARK INTRA:                  -6.601
REMARK UNBOUND:                -5.667
REMARK SMILES C=C1C(=O)N[C@H](C)C(=O)N[C@@H](CC(C)C)C(=O)N[C@@H](C(=O)O)[C@H](C)C(=O)N[C@@H](CCCN=C(N)N)C(=O)N[C@@H](/C=C/C(C)=C/[C@H](C)[C@H](Cc2ccccc2)OC)[C@H](C)C(=O)N[C@@H](C(=O)O)CCC(=O)N1C
REMARK SMILES IDX 39 1 38 2 37 3 36 4 28 6 27 7 25 8 26 9 23 11 24 12 19 13
REMARK SMILES IDX 18 14 16 15 17 16 11 18 10 19 8 20 9 21 12 24 13 25 14 26
REMARK SMILES IDX 15 27 20 28 21 29 22 30 29 32 30 33 31 34 32 35 33 36 34 37
REMARK SMILES IDX 35 38 57 43 58 44 59 45 60 46 61 47 62 49 66 50 67 51 68 52
REMARK SMILES IDX 69 53 70 54 71 55 2 56 1 57 3 58 4 59 5 60 6 62 7 63 63 65
REMARK SMILES IDX 64 66 65 67 40 69 41 70 42 71 44 72 43 73 45 74 46 75 47 76
REMARK SMILES IDX 55 77 56 78 48 79 49 80 50 81 54 82 51 83 53 84 52 85
REMARK H PARENT 38 5 27 10 18 17 10 22 22 31 34 39 34 40 35 41 35 42 61 48
REMARK H PARENT 5 61 65 68
REMARK Flexibility Score:  369.900
ROOT
ATOM      1  C   UNL     1       8.356  -0.979   0.029  1.00  0.00     0.117 C 
ENDROOT
BRANCH   1   2
ATOM      2  N   UNL     1       7.454  -1.789   0.849  1.00  0.00    -0.347 N 
ATOM      3  O   UNL     1       6.274  -0.068   1.807  1.00  0.00    -0.273 OA
ATOM      4  C   UNL     1       6.421  -1.269   1.605  1.00  0.00     0.243 C 
ATOM      5  H   UNL     1       7.543  -2.793   0.838  1.00  0.00     0.164 HD
BRANCH   4   6
ATOM      6  C   UNL     1       5.561  -2.348   2.311  1.00  0.00     0.171 C 
BRANCH   6   7
ATOM      7  N   UNL     1       6.417  -3.261   3.086  1.00  0.00    -0.344 N 
ATOM      8  C   UNL     1       6.974  -2.857   4.280  1.00  0.00     0.226 C 
ATOM      9  O   UNL     1       6.810  -1.733   4.739  1.00  0.00    -0.275 OA
ATOM     10  H   UNL     1       6.630  -4.175   2.706  1.00  0.00     0.164 HD
BRANCH   8  11
ATOM     11  C   UNL     1       7.785  -3.930   4.986  1.00  0.00     0.109 C 
ATOM     12  C   UNL     1       8.637  -4.697   3.974  1.00  0.00     0.021 C 
BRANCH  11  13
ATOM     13  C   UNL     1       8.573  -3.304   6.154  1.00  0.00     0.204 C 
BRANCH  13  14
ATOM     14  N   UNL     1       7.698  -2.909   7.261  1.00  0.00    -0.340 N 
ATOM     15  C   UNL     1       8.121  -2.112   8.303  1.00  0.00     0.243 C 
ATOM     16  O   UNL     1       9.249  -1.625   8.345  1.00  0.00    -0.273 OA
ATOM     17  H   UNL     1       6.804  -3.398   7.365  1.00  0.00     0.164 HD
BRANCH  15  18
ATOM     18  C   UNL     1       7.092  -2.000   9.455  1.00  0.00     0.171 C 
BRANCH  18  19
ATOM     19  N   UNL     1       7.612  -2.803  10.560  1.00  0.00    -0.343 N 
ATOM     20  C   UNL     1       7.003  -3.977  10.957  1.00  0.00     0.242 CG0
ATOM     21  O   UNL     1       5.923  -4.332  10.490  1.00  0.00    -0.273 OA
ATOM     22  H   UNL     1       8.440  -2.490  11.055  1.00  0.00     0.164 HD
ATOM     23  G   UNL     1       7.740  -4.726  12.087  1.00  0.00     0.000 G0
ENDBRANCH  18  19
BRANCH  18  24
ATOM     24  C   UNL     1       6.897  -0.536   9.867  1.00  0.00     0.038 C 
BRANCH  24  25
ATOM     25  C   UNL     1       7.496  -0.168  11.241  1.00  0.00    -0.015 C 
ATOM     26  C   UNL     1       6.444   0.360  12.216  1.00  0.00     0.007 C 
ATOM     27  C   UNL     1       8.600   0.878  11.057  1.00  0.00     0.007 C 
ENDBRANCH  24  25
ENDBRANCH  18  24
ENDBRANCH  15  18
ENDBRANCH  13  14
BRANCH  13  28
ATOM     28  C   UNL     1       9.641  -4.238   6.731  1.00  0.00     0.327 C 
ATOM     29  O   UNL     1       9.440  -5.279   7.337  1.00  0.00    -0.250 OA
BRANCH  28  30
ATOM     30  O   UNL     1      10.892  -3.747   6.615  1.00  0.00    -0.480 OA
ATOM     31  H   UNL     1      10.786  -2.783   6.754  1.00  0.00     0.296 HD
ENDBRANCH  28  30
ENDBRANCH  13  28
ENDBRANCH  11  13
ENDBRANCH   8  11
ENDBRANCH   6   7
BRANCH   6  32
ATOM     32  C   UNL     1       4.533  -1.660   3.216  1.00  0.00     0.037 C 
BRANCH  32  33
ATOM     33  C   UNL     1       3.328  -2.563   3.514  1.00  0.00     0.026 C 
BRANCH  33  34
ATOM     34  C   UNL     1       2.893  -2.493   4.979  1.00  0.00     0.146 C 
BRANCH  34  35
ATOM     35  N   UNL     1       3.820  -3.278   5.782  1.00  0.00    -0.254 NA
ATOM     36  C   UNL     1       3.505  -3.549   6.994  1.00  0.00     0.185 C 
ATOM     37  N   UNL     1       4.350  -4.276   7.742  1.00  0.00    -0.370 N 
ATOM     38  N   UNL     1       2.400  -3.202   7.678  1.00  0.00    -0.370 N 
ATOM     39  H   UNL     1       5.203  -4.585   7.293  1.00  0.00     0.159 HD
ATOM     40  H   UNL     1       4.103  -4.674   8.632  1.00  0.00     0.159 HD
ATOM     41  H   UNL     1       2.332  -3.357   8.670  1.00  0.00     0.159 HD
ATOM     42  H   UNL     1       1.685  -2.640   7.245  1.00  0.00     0.159 HD
ENDBRANCH  34  35
ENDBRANCH  33  34
ENDBRANCH  32  33
ENDBRANCH   6  32
ENDBRANCH   4   6
ENDBRANCH   1   2
BRANCH   1  43
ATOM     43  C   UNL     1       8.570  -1.703  -1.332  1.00  0.00     0.102 C 
ATOM     44  C   UNL     1       7.931  -0.968  -2.523  1.00  0.00     0.020 C 
BRANCH  43  45
ATOM     45  C   UNL     1       8.185  -3.182  -1.236  1.00  0.00     0.225 C 
ATOM     46  O   UNL     1       8.919  -4.036  -0.746  1.00  0.00    -0.275 OA
ATOM     47  N   UNL     1       6.988  -3.522  -1.823  1.00  0.00    -0.342 N 
ATOM     48  H   UNL     1       6.334  -2.797  -2.082  1.00  0.00     0.164 HD
BRANCH  47  49
ATOM     49  C   UNL     1       6.475  -4.894  -1.777  1.00  0.00     0.192 C 
BRANCH  49  50
ATOM     50  C   UNL     1       5.486  -5.113  -2.925  1.00  0.00     0.047 C 
BRANCH  50  51
ATOM     51  C   UNL     1       6.057  -6.026  -4.019  1.00  0.00     0.103 C 
BRANCH  51  52
ATOM     52  C   UNL     1       6.417  -5.249  -5.284  1.00  0.00     0.226 C 
ATOM     53  O   UNL     1       7.183  -4.286  -5.211  1.00  0.00    -0.275 OA
BRANCH  52  54
ATOM     54  N   UNL     1       5.894  -5.744  -6.493  1.00  0.00    -0.311 N 
ATOM     55  C   UNL     1       4.536  -6.299  -6.559  1.00  0.00     0.153 C 
BRANCH  54  56
ATOM     56  C   UNL     1       6.646  -5.720  -7.680  1.00  0.00     0.102 C 
ATOM     57  C   UNL     1       7.618  -6.593  -7.991  1.00  0.00     0.043 C 
BRANCH  56  58
ATOM     58  C   UNL     1       6.369  -4.694  -8.753  1.00  0.00     0.268 C 
ATOM     59  O   UNL     1       6.064  -3.534  -8.507  1.00  0.00    -0.268 OA
ATOM     60  N   UNL     1       6.558  -5.178 -10.025  1.00  0.00    -0.339 N 
ATOM     61  H   UNL     1       6.800  -6.154 -10.144  1.00  0.00     0.164 HD
BRANCH  60  62
ATOM     62  C   UNL     1       6.405  -4.334 -11.210  1.00  0.00     0.168 CG0
ATOM     63  C   UNL     1       7.189  -4.899 -12.388  1.00  0.00     0.041 C 
ATOM     64  G   UNL     1       6.866  -2.898 -10.885  1.00  0.00     0.000 G0
ENDBRANCH  60  62
ENDBRANCH  56  58
ENDBRANCH  54  56
ENDBRANCH  52  54
ENDBRANCH  51  52
ENDBRANCH  50  51
ENDBRANCH  49  50
BRANCH  49  65
ATOM     65  C   UNL     1       5.777  -5.194  -0.441  1.00  0.00     0.326 C 
ATOM     66  O   UNL     1       6.258  -5.011   0.668  1.00  0.00    -0.250 OA
BRANCH  65  67
ATOM     67  O   UNL     1       4.554  -5.757  -0.557  1.00  0.00    -0.480 OA
ATOM     68  H   UNL     1       4.059  -5.395   0.209  1.00  0.00     0.296 HD
ENDBRANCH  65  67
ENDBRANCH  49  65
ENDBRANCH  47  49
ENDBRANCH  43  45
ENDBRANCH   1  43
BRANCH   1  69
ATOM     69  C   UNL     1       9.563  -0.678   0.897  1.00  0.00    -0.001 C 
ATOM     70  C   UNL     1      10.721  -0.109   0.518  1.00  0.00     0.001 C 
BRANCH  70  71
ATOM     71  C   UNL     1      11.872   0.196   1.370  1.00  0.00    -0.055 C 
ATOM     72  C   UNL     1      11.668   0.997   2.437  1.00  0.00    -0.018 C 
ATOM     73  C   UNL     1      13.200  -0.412   1.001  1.00  0.00     0.044 C 
BRANCH  72  74
ATOM     74  C   UNL     1      12.661   1.476   3.486  1.00  0.00     0.038 C 
ATOM     75  C   UNL     1      12.701   0.414   4.591  1.00  0.00     0.015 C 
BRANCH  74  76
ATOM     76  C   UNL     1      12.240   2.898   3.962  1.00  0.00     0.128 C 
BRANCH  76  77
ATOM     77  O   UNL     1      12.974   3.897   3.234  1.00  0.00    -0.381 OA
ATOM     78  C   UNL     1      14.311   3.519   2.936  1.00  0.00     0.195 C 
ENDBRANCH  76  77
BRANCH  76  79
ATOM     79  C   UNL     1      10.710   3.142   3.939  1.00  0.00     0.068 C 
BRANCH  79  80
ATOM     80  C   UNL     1       9.872   2.482   5.008  1.00  0.00    -0.045 A 
ATOM     81  C   UNL     1       8.686   1.811   4.683  1.00  0.00     0.004 A 
ATOM     82  C   UNL     1      10.258   2.557   6.355  1.00  0.00     0.004 A 
ATOM     83  C   UNL     1       7.910   1.215   5.680  1.00  0.00     0.000 A 
ATOM     84  C   UNL     1       9.480   1.962   7.351  1.00  0.00     0.000 A 
ATOM     85  C   UNL     1       8.308   1.290   7.013  1.00  0.00     0.000 A 
ENDBRANCH  79  80
ENDBRANCH  76  79
ENDBRANCH  74  76
ENDBRANCH  72  74
ENDBRANCH  70  71
ENDBRANCH   1  69
TORSDOF 17
ENDMDL
MODEL 49
REMARK VINA RESULT:    -6.878      2.426      3.520
REMARK INTER + INTRA:         -26.218
REMARK INTER:                 -21.069
REMARK INTRA:                  -5.148
REMARK UNBOUND:                -5.667
REMARK SMILES C=C1C(=O)N[C@H](C)C(=O)N[C@@H](CC(C)C)C(=O)N[C@@H](C(=O)O)[C@H](C)C(=O)N[C@@H](CCCN=C(N)N)C(=O)N[C@@H](/C=C/C(C)=C/[C@H](C)[C@H](Cc2ccccc2)OC)[C@H](C)C(=O)N[C@@H](C(=O)O)CCC(=O)N1C
REMARK SMILES IDX 39 1 38 2 37 3 36 4 28 6 27 7 25 8 26 9 23 11 24 12 19 13
REMARK SMILES IDX 18 14 16 15 17 16 11 18 10 19 8 20 9 21 12 24 13 25 14 26
REMARK SMILES IDX 15 27 20 28 21 29 22 30 29 32 30 33 31 34 32 35 33 36 34 37
REMARK SMILES IDX 35 38 57 43 58 44 59 45 60 46 61 47 62 49 66 50 67 51 68 52
REMARK SMILES IDX 69 53 70 54 71 55 2 56 1 57 3 58 4 59 5 60 6 62 7 63 63 65
REMARK SMILES IDX 64 66 65 67 40 69 41 70 42 71 44 72 43 73 45 74 46 75 47 76
REMARK SMILES IDX 55 77 56 78 48 79 49 80 50 81 54 82 51 83 53 84 52 85
REMARK H PARENT 38 5 27 10 18 17 10 22 22 31 34 39 34 40 35 41 35 42 61 48
REMARK H PARENT 5 61 65 68
REMARK Flexibility Score:  369.900
ROOT
ATOM      1  C   UNL     1       6.935  -4.724  -1.985  1.00  0.00     0.117 C 
ENDROOT
BRANCH   1   2
ATOM      2  N   UNL     1       6.554  -3.374  -1.567  1.00  0.00    -0.347 N 
ATOM      3  O   UNL     1       4.477  -3.881  -0.730  1.00  0.00    -0.273 OA
ATOM      4  C   UNL     1       5.389  -3.075  -0.887  1.00  0.00     0.243 C 
ATOM      5  H   UNL     1       7.189  -2.608  -1.731  1.00  0.00     0.164 HD
BRANCH   4   6
ATOM      6  C   UNL     1       5.268  -1.584  -0.485  1.00  0.00     0.171 C 
BRANCH   6   7
ATOM      7  N   UNL     1       5.327  -1.439   0.979  1.00  0.00    -0.344 N 
ATOM      8  C   UNL     1       4.173  -1.434   1.732  1.00  0.00     0.226 C 
ATOM      9  O   UNL     1       3.058  -1.525   1.232  1.00  0.00    -0.275 OA
ATOM     10  H   UNL     1       6.226  -1.294   1.421  1.00  0.00     0.164 HD
BRANCH   8  11
ATOM     11  C   UNL     1       4.404  -1.333   3.229  1.00  0.00     0.109 C 
ATOM     12  C   UNL     1       3.238  -1.970   3.986  1.00  0.00     0.021 C 
BRANCH  11  13
ATOM     13  C   UNL     1       5.793  -1.900   3.583  1.00  0.00     0.204 C 
BRANCH  13  14
ATOM     14  N   UNL     1       6.569  -0.979   4.419  1.00  0.00    -0.340 N 
ATOM     15  C   UNL     1       7.316   0.056   3.900  1.00  0.00     0.243 C 
ATOM     16  O   UNL     1       7.336   0.318   2.698  1.00  0.00    -0.273 OA
ATOM     17  H   UNL     1       6.716  -1.230   5.401  1.00  0.00     0.164 HD
BRANCH  15  18
ATOM     18  C   UNL     1       8.210   0.761   4.949  1.00  0.00     0.171 C 
BRANCH  18  19
ATOM     19  N   UNL     1       8.748  -0.288   5.813  1.00  0.00    -0.343 N 
ATOM     20  C   UNL     1       8.440  -0.353   7.158  1.00  0.00     0.242 CG0
ATOM     21  O   UNL     1       7.809   0.540   7.717  1.00  0.00    -0.273 OA
ATOM     22  H   UNL     1       9.370  -0.986   5.420  1.00  0.00     0.164 HD
ATOM     23  G   UNL     1       9.037  -1.573   7.889  1.00  0.00     0.000 G0
ENDBRANCH  18  19
BRANCH  18  24
ATOM     24  C   UNL     1       9.330   1.552   4.261  1.00  0.00     0.038 C 
BRANCH  24  25
ATOM     25  C   UNL     1       9.514   2.994   4.781  1.00  0.00    -0.015 C 
ATOM     26  C   UNL     1      10.545   3.781   3.973  1.00  0.00     0.007 C 
ATOM     27  C   UNL     1       9.930   2.960   6.254  1.00  0.00     0.007 C 
ENDBRANCH  24  25
ENDBRANCH  18  24
ENDBRANCH  15  18
ENDBRANCH  13  14
BRANCH  13  28
ATOM     28  C   UNL     1       5.728  -3.240   4.322  1.00  0.00     0.327 C 
ATOM     29  O   UNL     1       5.928  -3.418   5.514  1.00  0.00    -0.250 OA
BRANCH  28  30
ATOM     30  O   UNL     1       5.533  -4.289   3.499  1.00  0.00    -0.480 OA
ATOM     31  H   UNL     1       5.589  -3.904   2.599  1.00  0.00     0.296 HD
ENDBRANCH  28  30
ENDBRANCH  13  28
ENDBRANCH  11  13
ENDBRANCH   8  11
ENDBRANCH   6   7
BRANCH   6  32
ATOM     32  C   UNL     1       6.390  -0.787  -1.159  1.00  0.00     0.037 C 
BRANCH  32  33
ATOM     33  C   UNL     1       7.508  -0.415  -0.176  1.00  0.00     0.026 C 
BRANCH  33  34
ATOM     34  C   UNL     1       8.836  -1.094  -0.515  1.00  0.00     0.146 C 
BRANCH  34  35
ATOM     35  N   UNL     1       9.927  -0.210  -0.130  1.00  0.00    -0.254 NA
ATOM     36  C   UNL     1      10.438  -0.338   1.038  1.00  0.00     0.185 C 
ATOM     37  N   UNL     1      11.448   0.468   1.402  1.00  0.00    -0.370 N 
ATOM     38  N   UNL     1      10.108  -1.201   2.015  1.00  0.00    -0.370 N 
ATOM     39  H   UNL     1      11.763   1.141   0.714  1.00  0.00     0.159 HD
ATOM     40  H   UNL     1      12.011   0.318   2.221  1.00  0.00     0.159 HD
ATOM     41  H   UNL     1      10.491  -1.110   2.942  1.00  0.00     0.159 HD
ATOM     42  H   UNL     1       9.353  -1.857   1.886  1.00  0.00     0.159 HD
ENDBRANCH  34  35
ENDBRANCH  33  34
ENDBRANCH  32  33
ENDBRANCH   6  32
ENDBRANCH   4   6
ENDBRANCH   1   2
BRANCH   1  43
ATOM     43  C   UNL     1       5.682  -5.431  -2.576  1.00  0.00     0.102 C 
ATOM     44  C   UNL     1       5.709  -6.960  -2.414  1.00  0.00     0.020 C 
BRANCH  43  45
ATOM     45  C   UNL     1       5.410  -4.963  -4.009  1.00  0.00     0.225 C 
ATOM     46  O   UNL     1       4.933  -3.864  -4.277  1.00  0.00    -0.275 OA
ATOM     47  N   UNL     1       5.649  -5.896  -4.992  1.00  0.00    -0.342 N 
ATOM     48  H   UNL     1       6.178  -6.729  -4.774  1.00  0.00     0.164 HD
BRANCH  47  49
ATOM     49  C   UNL     1       5.467  -5.577  -6.412  1.00  0.00     0.192 C 
BRANCH  49  50
ATOM     50  C   UNL     1       4.554  -6.620  -7.061  1.00  0.00     0.047 C 
BRANCH  50  51
ATOM     51  C   UNL     1       3.810  -6.062  -8.282  1.00  0.00     0.103 C 
BRANCH  51  52
ATOM     52  C   UNL     1       4.168  -6.812  -9.563  1.00  0.00     0.226 C 
ATOM     53  O   UNL     1       5.012  -7.709  -9.530  1.00  0.00    -0.275 OA
BRANCH  52  54
ATOM     54  N   UNL     1       3.434  -6.471 -10.715  1.00  0.00    -0.311 N 
ATOM     55  C   UNL     1       3.815  -6.991 -12.035  1.00  0.00     0.153 C 
BRANCH  54  56
ATOM     56  C   UNL     1       2.311  -5.630 -10.646  1.00  0.00     0.102 C 
ATOM     57  C   UNL     1       1.085  -6.015 -10.256  1.00  0.00     0.043 C 
BRANCH  56  58
ATOM     58  C   UNL     1       2.423  -4.160 -10.976  1.00  0.00     0.268 C 
ATOM     59  O   UNL     1       2.992  -3.353 -10.254  1.00  0.00    -0.268 OA
ATOM     60  N   UNL     1       1.879  -3.838 -12.197  1.00  0.00    -0.339 N 
ATOM     61  H   UNL     1       1.416  -4.564 -12.730  1.00  0.00     0.164 HD
BRANCH  60  62
ATOM     62  C   UNL     1       1.934  -2.482 -12.741  1.00  0.00     0.168 CG0
ATOM     63  C   UNL     1       0.533  -1.931 -12.977  1.00  0.00     0.041 C 
ATOM     64  G   UNL     1       2.748  -2.483 -14.051  1.00  0.00     0.000 G0
ENDBRANCH  60  62
ENDBRANCH  56  58
ENDBRANCH  54  56
ENDBRANCH  52  54
ENDBRANCH  51  52
ENDBRANCH  50  51
ENDBRANCH  49  50
BRANCH  49  65
ATOM     65  C   UNL     1       6.809  -5.539  -7.160  1.00  0.00     0.326 C 
ATOM     66  O   UNL     1       7.501  -4.545  -7.328  1.00  0.00    -0.250 OA
BRANCH  65  67
ATOM     67  O   UNL     1       7.183  -6.717  -7.706  1.00  0.00    -0.480 OA
ATOM     68  H   UNL     1       7.796  -6.453  -8.426  1.00  0.00     0.296 HD
ENDBRANCH  65  67
ENDBRANCH  49  65
ENDBRANCH  47  49
ENDBRANCH  43  45
ENDBRANCH   1  43
BRANCH   1  69
ATOM     69  C   UNL     1       7.641  -5.353  -0.798  1.00  0.00    -0.001 C 
ATOM     70  C   UNL     1       8.584  -4.795  -0.019  1.00  0.00     0.001 C 
BRANCH  70  71
ATOM     71  C   UNL     1       9.243  -5.404   1.138  1.00  0.00    -0.055 C 
ATOM     72  C   UNL     1      10.302  -6.208   0.906  1.00  0.00    -0.018 C 
ATOM     73  C   UNL     1       8.697  -5.085   2.506  1.00  0.00     0.044 C 
BRANCH  72  74
ATOM     74  C   UNL     1      11.173  -6.965   1.899  1.00  0.00     0.038 C 
ATOM     75  C   UNL     1      12.286  -6.009   2.345  1.00  0.00     0.015 C 
BRANCH  74  76
ATOM     76  C   UNL     1      11.670  -8.280   1.229  1.00  0.00     0.128 C 
BRANCH  76  77
ATOM     77  O   UNL     1      10.832  -8.606   0.107  1.00  0.00    -0.381 OA
ATOM     78  C   UNL     1      10.153  -9.847   0.243  1.00  0.00     0.195 C 
ENDBRANCH  76  77
BRANCH  76  79
ATOM     79  C   UNL     1      13.177  -8.272   0.870  1.00  0.00     0.068 C 
BRANCH  79  80
ATOM     80  C   UNL     1      13.563  -7.951  -0.554  1.00  0.00    -0.045 A 
ATOM     81  C   UNL     1      13.938  -8.965  -1.446  1.00  0.00     0.004 A 
ATOM     82  C   UNL     1      13.579  -6.621  -0.999  1.00  0.00     0.004 A 
ATOM     83  C   UNL     1      14.307  -8.658  -2.757  1.00  0.00     0.000 A 
ATOM     84  C   UNL     1      13.950  -6.316  -2.311  1.00  0.00     0.000 A 
ATOM     85  C   UNL     1      14.312  -7.334  -3.190  1.00  0.00     0.000 A 
ENDBRANCH  79  80
ENDBRANCH  76  79
ENDBRANCH  74  76
ENDBRANCH  72  74
ENDBRANCH  70  71
ENDBRANCH   1  69
TORSDOF 17
ENDMDL
MODEL 50
REMARK VINA RESULT:    -6.785      3.994      8.517
REMARK INTER + INTRA:         -25.940
REMARK INTER:                 -18.659
REMARK INTRA:                  -7.281
REMARK UNBOUND:                -5.667
REMARK SMILES C=C1C(=O)N[C@H](C)C(=O)N[C@@H](CC(C)C)C(=O)N[C@@H](C(=O)O)[C@H](C)C(=O)N[C@@H](CCCN=C(N)N)C(=O)N[C@@H](/C=C/C(C)=C/[C@H](C)[C@H](Cc2ccccc2)OC)[C@H](C)C(=O)N[C@@H](C(=O)O)CCC(=O)N1C
REMARK SMILES IDX 39 1 38 2 37 3 36 4 28 6 27 7 25 8 26 9 23 11 24 12 19 13
REMARK SMILES IDX 18 14 16 15 17 16 11 18 10 19 8 20 9 21 12 24 13 25 14 26
REMARK SMILES IDX 15 27 20 28 21 29 22 30 29 32 30 33 31 34 32 35 33 36 34 37
REMARK SMILES IDX 35 38 57 43 58 44 59 45 60 46 61 47 62 49 66 50 67 51 68 52
REMARK SMILES IDX 69 53 70 54 71 55 2 56 1 57 3 58 4 59 5 60 6 62 7 63 63 65
REMARK SMILES IDX 64 66 65 67 40 69 41 70 42 71 44 72 43 73 45 74 46 75 47 76
REMARK SMILES IDX 55 77 56 78 48 79 49 80 50 81 54 82 51 83 53 84 52 85
REMARK H PARENT 38 5 27 10 18 17 10 22 22 31 34 39 34 40 35 41 35 42 61 48
REMARK H PARENT 5 61 65 68
REMARK Flexibility Score:  369.900
ROOT
ATOM      1  C   UNL     1       6.827  -1.995   2.979  1.00  0.00     0.117 C 
ENDROOT
BRANCH   1   2
ATOM      2  N   UNL     1       7.759  -1.389   3.931  1.00  0.00    -0.347 N 
ATOM      3  O   UNL     1       7.012   0.775   3.766  1.00  0.00    -0.273 OA
ATOM      4  C   UNL     1       7.716  -0.064   4.318  1.00  0.00     0.243 C 
ATOM      5  H   UNL     1       8.452  -1.968   4.380  1.00  0.00     0.164 HD
BRANCH   4   6
ATOM      6  C   UNL     1       8.761   0.302   5.403  1.00  0.00     0.171 C 
BRANCH   6   7
ATOM      7  N   UNL     1       9.371   1.609   5.109  1.00  0.00    -0.344 N 
ATOM      8  C   UNL     1      10.728   1.800   5.255  1.00  0.00     0.226 C 
ATOM      9  O   UNL     1      11.480   0.917   5.651  1.00  0.00    -0.275 OA
ATOM     10  H   UNL     1       8.772   2.382   4.845  1.00  0.00     0.164 HD
BRANCH   8  11
ATOM     11  C   UNL     1      11.211   3.185   4.861  1.00  0.00     0.109 C 
ATOM     12  C   UNL     1      10.556   3.616   3.549  1.00  0.00     0.021 C 
BRANCH  11  13
ATOM     13  C   UNL     1      11.010   4.161   6.038  1.00  0.00     0.204 C 
BRANCH  13  14
ATOM     14  N   UNL     1      11.346   3.548   7.327  1.00  0.00    -0.340 N 
ATOM     15  C   UNL     1      12.641   3.290   7.718  1.00  0.00     0.243 C 
ATOM     16  O   UNL     1      13.614   3.612   7.037  1.00  0.00    -0.273 OA
ATOM     17  H   UNL     1      10.588   3.122   7.867  1.00  0.00     0.164 HD
BRANCH  15  18
ATOM     18  C   UNL     1      12.740   2.454   9.018  1.00  0.00     0.171 C 
BRANCH  18  19
ATOM     19  N   UNL     1      12.743   3.404  10.128  1.00  0.00    -0.343 N 
ATOM     20  C   UNL     1      13.918   3.877  10.680  1.00  0.00     0.242 CG0
ATOM     21  O   UNL     1      15.011   3.422  10.353  1.00  0.00    -0.273 OA
ATOM     22  H   UNL     1      11.860   3.724  10.511  1.00  0.00     0.164 HD
ATOM     23  G   UNL     1      13.721   4.932  11.788  1.00  0.00     0.000 G0
ENDBRANCH  18  19
BRANCH  18  24
ATOM     24  C   UNL     1      11.566   1.473   9.121  1.00  0.00     0.038 C 
BRANCH  24  25
ATOM     25  C   UNL     1      10.851   1.465  10.488  1.00  0.00    -0.015 C 
ATOM     26  C   UNL     1      10.794   0.070  11.111  1.00  0.00     0.007 C 
ATOM     27  C   UNL     1       9.431   2.017  10.329  1.00  0.00     0.007 C 
ENDBRANCH  24  25
ENDBRANCH  18  24
ENDBRANCH  15  18
ENDBRANCH  13  14
BRANCH  13  28
ATOM     28  C   UNL     1      11.846   5.438   5.911  1.00  0.00     0.327 C 
ATOM     29  O   UNL     1      11.681   6.475   6.536  1.00  0.00    -0.250 OA
BRANCH  28  30
ATOM     30  O   UNL     1      12.763   5.375   4.924  1.00  0.00    -0.480 OA
ATOM     31  H   UNL     1      13.194   6.255   4.938  1.00  0.00     0.296 HD
ENDBRANCH  28  30
ENDBRANCH  13  28
ENDBRANCH  11  13
ENDBRANCH   8  11
ENDBRANCH   6   7
BRANCH   6  32
ATOM     32  C   UNL     1       8.078   0.313   6.775  1.00  0.00     0.037 C 
BRANCH  32  33
ATOM     33  C   UNL     1       8.726  -0.679   7.752  1.00  0.00     0.026 C 
BRANCH  33  34
ATOM     34  C   UNL     1       8.523  -2.134   7.328  1.00  0.00     0.146 C 
BRANCH  34  35
ATOM     35  N   UNL     1       7.183  -2.554   7.714  1.00  0.00    -0.254 NA
ATOM     36  C   UNL     1       7.055  -3.562   8.494  1.00  0.00     0.185 C 
ATOM     37  N   UNL     1       5.825  -3.954   8.860  1.00  0.00    -0.370 N 
ATOM     38  N   UNL     1       8.011  -4.336   9.037  1.00  0.00    -0.370 N 
ATOM     39  H   UNL     1       5.050  -3.413   8.499  1.00  0.00     0.159 HD
ATOM     40  H   UNL     1       5.648  -4.616   9.596  1.00  0.00     0.159 HD
ATOM     41  H   UNL     1       7.779  -5.187   9.523  1.00  0.00     0.159 HD
ATOM     42  H   UNL     1       8.984  -4.167   8.835  1.00  0.00     0.159 HD
ENDBRANCH  34  35
ENDBRANCH  33  34
ENDBRANCH  32  33
ENDBRANCH   6  32
ENDBRANCH   4   6
ENDBRANCH   1   2
BRANCH   1  43
ATOM     43  C   UNL     1       5.476  -2.254   3.706  1.00  0.00     0.102 C 
ATOM     44  C   UNL     1       5.221  -3.739   4.012  1.00  0.00     0.020 C 
BRANCH  43  45
ATOM     45  C   UNL     1       4.319  -1.561   2.979  1.00  0.00     0.225 C 
ATOM     46  O   UNL     1       3.162  -1.970   3.018  1.00  0.00    -0.275 OA
ATOM     47  N   UNL     1       4.671  -0.490   2.191  1.00  0.00    -0.342 N 
ATOM     48  H   UNL     1       5.588  -0.077   2.289  1.00  0.00     0.164 HD
BRANCH  47  49
ATOM     49  C   UNL     1       3.665   0.291   1.465  1.00  0.00     0.192 C 
BRANCH  49  50
ATOM     50  C   UNL     1       4.116   0.491   0.016  1.00  0.00     0.047 C 
BRANCH  50  51
ATOM     51  C   UNL     1       5.456  -0.197  -0.277  1.00  0.00     0.103 C 
BRANCH  51  52
ATOM     52  C   UNL     1       5.269  -1.557  -0.946  1.00  0.00     0.226 C 
ATOM     53  O   UNL     1       4.135  -1.941  -1.239  1.00  0.00    -0.275 OA
BRANCH  52  54
ATOM     54  N   UNL     1       6.442  -2.267  -1.262  1.00  0.00    -0.311 N 
ATOM     55  C   UNL     1       7.760  -1.624  -1.181  1.00  0.00     0.153 C 
BRANCH  54  56
ATOM     56  C   UNL     1       6.398  -3.614  -1.659  1.00  0.00     0.102 C 
ATOM     57  C   UNL     1       6.207  -4.653  -0.830  1.00  0.00     0.043 C 
BRANCH  56  58
ATOM     58  C   UNL     1       6.524  -3.997  -3.114  1.00  0.00     0.268 C 
ATOM     59  O   UNL     1       7.417  -3.583  -3.841  1.00  0.00    -0.268 OA
ATOM     60  N   UNL     1       5.575  -4.906  -3.518  1.00  0.00    -0.339 N 
ATOM     61  H   UNL     1       4.862  -5.192  -2.857  1.00  0.00     0.164 HD
BRANCH  60  62
ATOM     62  C   UNL     1       5.552  -5.460  -4.871  1.00  0.00     0.168 CG0
ATOM     63  C   UNL     1       4.557  -4.712  -5.750  1.00  0.00     0.041 C 
ATOM     64  G   UNL     1       5.205  -6.962  -4.809  1.00  0.00     0.000 G0
ENDBRANCH  60  62
ENDBRANCH  56  58
ENDBRANCH  54  56
ENDBRANCH  52  54
ENDBRANCH  51  52
ENDBRANCH  50  51
ENDBRANCH  49  50
BRANCH  49  65
ATOM     65  C   UNL     1       3.432   1.662   2.119  1.00  0.00     0.326 C 
ATOM     66  O   UNL     1       2.693   2.537   1.691  1.00  0.00    -0.250 OA
BRANCH  65  67
ATOM     67  O   UNL     1       4.170   1.891   3.228  1.00  0.00    -0.480 OA
ATOM     68  H   UNL     1       3.497   2.051   3.925  1.00  0.00     0.296 HD
ENDBRANCH  65  67
ENDBRANCH  49  65
ENDBRANCH  47  49
ENDBRANCH  43  45
ENDBRANCH   1  43
BRANCH   1  69
ATOM     69  C   UNL     1       7.561  -3.168   2.355  1.00  0.00    -0.001 C 
ATOM     70  C   UNL     1       8.848  -3.214   1.966  1.00  0.00     0.001 C 
BRANCH  70  71
ATOM     71  C   UNL     1       9.551  -4.359   1.385  1.00  0.00    -0.055 C 
ATOM     72  C   UNL     1       8.950  -5.566   1.456  1.00  0.00    -0.018 C 
ATOM     73  C   UNL     1      10.890  -4.109   0.742  1.00  0.00     0.044 C 
BRANCH  72  74
ATOM     74  C   UNL     1       9.435  -6.914   0.943  1.00  0.00     0.038 C 
ATOM     75  C   UNL     1       8.350  -7.459   0.006  1.00  0.00     0.015 C 
BRANCH  74  76
ATOM     76  C   UNL     1       9.763  -7.826   2.162  1.00  0.00     0.128 C 
BRANCH  76  77
ATOM     77  O   UNL     1       9.777  -9.205   1.754  1.00  0.00    -0.381 OA
ATOM     78  C   UNL     1       9.474 -10.113   2.805  1.00  0.00     0.195 C 
ENDBRANCH  76  77
BRANCH  76  79
ATOM     79  C   UNL     1      11.045  -7.415   2.929  1.00  0.00     0.068 C 
BRANCH  79  80
ATOM     80  C   UNL     1      10.887  -6.860   4.324  1.00  0.00    -0.045 A 
ATOM     81  C   UNL     1      10.715  -7.710   5.424  1.00  0.00     0.004 A 
ATOM     82  C   UNL     1      10.882  -5.473   4.537  1.00  0.00     0.004 A 
ATOM     83  C   UNL     1      10.555  -7.188   6.709  1.00  0.00     0.000 A 
ATOM     84  C   UNL     1      10.722  -4.952   5.823  1.00  0.00     0.000 A 
ATOM     85  C   UNL     1      10.560  -5.810   6.908  1.00  0.00     0.000 A 
ENDBRANCH  79  80
ENDBRANCH  76  79
ENDBRANCH  74  76
ENDBRANCH  72  74
ENDBRANCH  70  71
ENDBRANCH   1  69
TORSDOF 17
ENDMDL
