MODEL 1
REMARK VINA RESULT:    -5.648      0.000      0.000
REMARK INTER + INTRA:         -16.812
REMARK INTER:                 -11.426
REMARK INTRA:                  -5.385
REMARK UNBOUND:                -5.385
REMARK SMILES CC[C@@H](C)[C@@H](NC(=O)[C@@H](O)Cc1ccc(O)c(Cl)c1)C(=O)N1[C@H](C(=O)NCCCCN=C(N)N)C[C@H]2CC[C@H](OS(=O)(=O)O)C[C@@H]21
REMARK SMILES IDX 22 1 36 2 46 3 35 4 23 5 45 6 37 7 39 8 38 9 20 10 21 11
REMARK SMILES IDX 5 12 6 13 7 14 8 15 9 17 11 18 12 19 17 20 19 21 15 22 14 23
REMARK SMILES IDX 13 24 18 25 16 26 10 28 3 30 4 31 2 32 1 33 24 34 25 35
REMARK SMILES IDX 26 36 27 38 28 39 29 40 30 41 31 42 32 43 33 44 34 45 40 50
REMARK SMILES IDX 41 51 42 52 43 53 44 54
REMARK H PARENT 6 16 16 27 10 29 26 37 33 46 33 47 34 48 34 49 44 55
ROOT
ATOM      1  N   UNL     1      -9.861   1.989   3.132  1.00  0.00    -0.326 N 
ATOM      2  C   UNL     1     -10.154   1.747   0.808  1.00  0.00     0.014 C 
ATOM      3  C   UNL     1      -9.639   2.715   1.878  1.00  0.00     0.091 C 
ATOM      4  C   UNL     1     -11.323   1.068   1.506  1.00  0.00     0.041 C 
ATOM      5  C   UNL     1     -10.692   0.785   2.881  1.00  0.00     0.175 C 
ATOM      6  C   UNL     1      -8.210   3.118   1.517  1.00  0.00     0.059 C 
ATOM      7  C   UNL     1     -10.388   2.466  -0.506  1.00  0.00     0.008 C 
ATOM      8  C   UNL     1      -7.942   3.161  -0.003  1.00  0.00     0.143 C 
ATOM      9  C   UNL     1      -9.226   3.435  -0.811  1.00  0.00     0.034 C 
ENDROOT
BRANCH   1  10
ATOM     10  C   UNL     1      -9.606   2.374   4.437  1.00  0.00     0.246 C 
ATOM     11  O   UNL     1      -9.122   1.553   5.222  1.00  0.00    -0.272 OA
BRANCH  10  12
ATOM     12  C   UNL     1      -9.895   3.839   4.874  1.00  0.00     0.174 C 
BRANCH  12  13
ATOM     13  N   UNL     1      -8.645   4.596   4.938  1.00  0.00    -0.342 N 
ATOM     14  C   UNL     1      -8.304   5.631   4.096  1.00  0.00     0.249 C 
ATOM     15  O   UNL     1      -9.033   6.056   3.208  1.00  0.00    -0.272 OA
ATOM     16  H   UNL     1      -7.881   4.259   5.518  1.00  0.00     0.164 HD
BRANCH  14  17
ATOM     17  C   UNL     1      -6.910   6.217   4.406  1.00  0.00     0.207 C 
BRANCH  17  18
ATOM     18  C   UNL     1      -6.040   5.178   5.122  1.00  0.00     0.077 C 
BRANCH  18  19
ATOM     19  C   UNL     1      -5.672   4.029   4.211  1.00  0.00    -0.043 A 
ATOM     20  C   UNL     1      -5.430   1.647   3.824  1.00  0.00     0.083 A 
ATOM     21  C   UNL     1      -5.817   2.703   4.649  1.00  0.00     0.028 A 
ATOM     22  C   UNL     1      -4.896   1.906   2.562  1.00  0.00     0.134 A 
ATOM     23  C   UNL     1      -4.747   3.213   2.115  1.00  0.00     0.048 A 
ATOM     24  C   UNL     1      -5.132   4.274   2.939  1.00  0.00     0.008 A 
ATOM     25  Cl  UNL     1      -5.615   0.025   4.381  1.00  0.00    -0.080 Cl
BRANCH  22  26
ATOM     26  O   UNL     1      -4.493   0.903   1.722  1.00  0.00    -0.506 OA
ATOM     27  H   UNL     1      -4.796   0.066   2.120  1.00  0.00     0.293 HD
ENDBRANCH  22  26
ENDBRANCH  18  19
ENDBRANCH  17  18
BRANCH  17  28
ATOM     28  O   UNL     1      -7.013   7.395   5.221  1.00  0.00    -0.383 OA
ATOM     29  H   UNL     1      -6.581   7.173   6.076  1.00  0.00     0.211 HD
ENDBRANCH  17  28
ENDBRANCH  14  17
ENDBRANCH  12  13
BRANCH  12  30
ATOM     30  C   UNL     1     -10.705   3.922   6.196  1.00  0.00     0.018 C 
ATOM     31  C   UNL     1     -11.746   5.050   6.129  1.00  0.00     0.010 C 
BRANCH  30  32
ATOM     32  C   UNL     1      -9.822   4.088   7.457  1.00  0.00     0.002 C 
ATOM     33  C   UNL     1     -10.112   5.325   8.297  1.00  0.00     0.004 C 
ENDBRANCH  30  32
ENDBRANCH  12  30
ENDBRANCH  10  12
ENDBRANCH   1  10
BRANCH   5  34
ATOM     34  C   UNL     1      -9.813  -0.494   2.856  1.00  0.00     0.242 C 
ATOM     35  O   UNL     1      -8.583  -0.448   2.883  1.00  0.00    -0.273 OA
ATOM     36  N   UNL     1     -10.506  -1.678   2.745  1.00  0.00    -0.354 N 
ATOM     37  H   UNL     1     -11.517  -1.645   2.606  1.00  0.00     0.163 HD
BRANCH  36  38
ATOM     38  C   UNL     1      -9.869  -2.967   2.923  1.00  0.00     0.116 C 
BRANCH  38  39
ATOM     39  C   UNL     1      -9.932  -3.760   1.619  1.00  0.00     0.023 C 
BRANCH  39  40
ATOM     40  C   UNL     1      -8.659  -4.558   1.361  1.00  0.00     0.026 C 
BRANCH  40  41
ATOM     41  C   UNL     1      -7.581  -3.673   0.733  1.00  0.00     0.146 C 
BRANCH  41  42
ATOM     42  N   UNL     1      -8.175  -2.831  -0.297  1.00  0.00    -0.254 NA
ATOM     43  C   UNL     1      -7.902  -1.581  -0.327  1.00  0.00     0.185 C 
ATOM     44  N   UNL     1      -7.109  -0.848   0.476  1.00  0.00    -0.370 N 
ATOM     45  N   UNL     1      -8.463  -0.821  -1.283  1.00  0.00    -0.370 N 
ATOM     46  H   UNL     1      -7.179   0.155   0.488  1.00  0.00     0.159 HD
ATOM     47  H   UNL     1      -6.596  -1.268   1.245  1.00  0.00     0.159 HD
ATOM     48  H   UNL     1      -9.069  -1.298  -1.937  1.00  0.00     0.159 HD
ATOM     49  H   UNL     1      -8.124   0.095  -1.518  1.00  0.00     0.159 HD
ENDBRANCH  41  42
ENDBRANCH  40  41
ENDBRANCH  39  40
ENDBRANCH  38  39
ENDBRANCH  36  38
ENDBRANCH   5  34
BRANCH   8  50
ATOM     50  O   UNL     1      -7.389   1.918  -0.439  1.00  0.00    -0.245 OA
BRANCH  50  51
ATOM     51  S   UNL     1      -6.169   1.915  -1.514  1.00  0.00     0.397 S 
ATOM     52  O   UNL     1      -5.433   3.149  -1.358  1.00  0.00    -0.169 OA
ATOM     53  O   UNL     1      -6.661   1.481  -2.806  1.00  0.00    -0.169 OA
BRANCH  51  54
ATOM     54  O   UNL     1      -5.213   0.759  -0.934  1.00  0.00    -0.264 OA
ATOM     55  H   UNL     1      -4.409   1.188  -0.577  1.00  0.00     0.236 HD
ENDBRANCH  51  54
ENDBRANCH  50  51
ENDBRANCH   8  50
TORSDOF 19
ENDMDL
MODEL 2
REMARK VINA RESULT:    -5.538      3.451      5.650
REMARK INTER + INTRA:         -16.588
REMARK INTER:                 -12.916
REMARK INTRA:                  -3.672
REMARK UNBOUND:                -5.385
REMARK SMILES CC[C@@H](C)[C@@H](NC(=O)[C@@H](O)Cc1ccc(O)c(Cl)c1)C(=O)N1[C@H](C(=O)NCCCCN=C(N)N)C[C@H]2CC[C@H](OS(=O)(=O)O)C[C@@H]21
REMARK SMILES IDX 22 1 36 2 46 3 35 4 23 5 45 6 37 7 39 8 38 9 20 10 21 11
REMARK SMILES IDX 5 12 6 13 7 14 8 15 9 17 11 18 12 19 17 20 19 21 15 22 14 23
REMARK SMILES IDX 13 24 18 25 16 26 10 28 3 30 4 31 2 32 1 33 24 34 25 35
REMARK SMILES IDX 26 36 27 38 28 39 29 40 30 41 31 42 32 43 33 44 34 45 40 50
REMARK SMILES IDX 41 51 42 52 43 53 44 54
REMARK H PARENT 6 16 16 27 10 29 26 37 33 46 33 47 34 48 34 49 44 55
ROOT
ATOM      1  N   UNL     1      -7.558   4.022   4.222  1.00  0.00    -0.326 N 
ATOM      2  C   UNL     1      -5.381   3.134   4.330  1.00  0.00     0.014 C 
ATOM      3  C   UNL     1      -6.856   2.772   4.526  1.00  0.00     0.091 C 
ATOM      4  C   UNL     1      -5.326   4.580   4.798  1.00  0.00     0.041 C 
ATOM      5  C   UNL     1      -6.586   5.137   4.111  1.00  0.00     0.175 C 
ATOM      6  C   UNL     1      -7.168   1.541   3.676  1.00  0.00     0.059 C 
ATOM      7  C   UNL     1      -4.479   2.106   4.984  1.00  0.00     0.008 C 
ATOM      8  C   UNL     1      -5.972   0.577   3.517  1.00  0.00     0.143 C 
ATOM      9  C   UNL     1      -4.986   0.677   4.698  1.00  0.00     0.034 C 
ENDROOT
BRANCH   1  10
ATOM     10  C   UNL     1      -8.913   4.308   4.249  1.00  0.00     0.246 C 
ATOM     11  O   UNL     1      -9.590   4.106   3.236  1.00  0.00    -0.272 OA
BRANCH  10  12
ATOM     12  C   UNL     1      -9.559   4.836   5.562  1.00  0.00     0.174 C 
BRANCH  12  13
ATOM     13  N   UNL     1      -8.958   6.117   5.935  1.00  0.00    -0.342 N 
ATOM     14  C   UNL     1      -9.513   7.352   5.685  1.00  0.00     0.249 C 
ATOM     15  O   UNL     1     -10.598   7.515   5.142  1.00  0.00    -0.272 OA
ATOM     16  H   UNL     1      -7.992   6.147   6.249  1.00  0.00     0.164 HD
BRANCH  14  17
ATOM     17  C   UNL     1      -8.627   8.514   6.185  1.00  0.00     0.207 C 
BRANCH  17  18
ATOM     18  C   UNL     1      -7.154   8.093   6.206  1.00  0.00     0.077 C 
BRANCH  18  19
ATOM     19  C   UNL     1      -6.429   8.523   4.951  1.00  0.00    -0.043 A 
ATOM     20  C   UNL     1      -4.359   8.933   3.755  1.00  0.00     0.083 A 
ATOM     21  C   UNL     1      -5.027   8.489   4.897  1.00  0.00     0.028 A 
ATOM     22  C   UNL     1      -5.084   9.413   2.664  1.00  0.00     0.134 A 
ATOM     23  C   UNL     1      -6.473   9.452   2.704  1.00  0.00     0.048 A 
ATOM     24  C   UNL     1      -7.144   9.010   3.847  1.00  0.00     0.008 A 
ATOM     25  Cl  UNL     1      -2.635   8.884   3.707  1.00  0.00    -0.080 Cl
BRANCH  22  26
ATOM     26  O   UNL     1      -4.473   9.869   1.527  1.00  0.00    -0.506 OA
ATOM     27  H   UNL     1      -4.268  10.811   1.677  1.00  0.00     0.293 HD
ENDBRANCH  22  26
ENDBRANCH  18  19
ENDBRANCH  17  18
BRANCH  17  28
ATOM     28  O   UNL     1      -9.022   8.936   7.500  1.00  0.00    -0.383 OA
ATOM     29  H   UNL     1      -8.626   8.287   8.124  1.00  0.00     0.211 HD
ENDBRANCH  17  28
ENDBRANCH  14  17
ENDBRANCH  12  13
BRANCH  12  30
ATOM     30  C   UNL     1      -9.506   3.799   6.716  1.00  0.00     0.018 C 
ATOM     31  C   UNL     1     -10.214   2.496   6.313  1.00  0.00     0.010 C 
BRANCH  30  32
ATOM     32  C   UNL     1     -10.083   4.326   8.053  1.00  0.00     0.002 C 
ATOM     33  C   UNL     1     -11.589   4.169   8.219  1.00  0.00     0.004 C 
ENDBRANCH  30  32
ENDBRANCH  12  30
ENDBRANCH  10  12
ENDBRANCH   1  10
BRANCH   5  34
ATOM     34  C   UNL     1      -6.318   5.487   2.623  1.00  0.00     0.242 C 
ATOM     35  O   UNL     1      -5.226   5.896   2.229  1.00  0.00    -0.273 OA
ATOM     36  N   UNL     1      -7.404   5.360   1.786  1.00  0.00    -0.354 N 
ATOM     37  H   UNL     1      -8.313   5.133   2.192  1.00  0.00     0.163 HD
BRANCH  36  38
ATOM     38  C   UNL     1      -7.284   5.435   0.345  1.00  0.00     0.116 C 
BRANCH  38  39
ATOM     39  C   UNL     1      -8.622   5.092  -0.306  1.00  0.00     0.023 C 
BRANCH  39  40
ATOM     40  C   UNL     1      -8.525   5.003  -1.825  1.00  0.00     0.026 C 
BRANCH  40  41
ATOM     41  C   UNL     1      -7.910   3.669  -2.252  1.00  0.00     0.146 C 
BRANCH  41  42
ATOM     42  N   UNL     1      -6.520   3.870  -2.640  1.00  0.00    -0.254 NA
ATOM     43  C   UNL     1      -5.738   2.861  -2.732  1.00  0.00     0.185 C 
ATOM     44  N   UNL     1      -5.981   1.554  -2.522  1.00  0.00    -0.370 N 
ATOM     45  N   UNL     1      -4.459   3.067  -3.087  1.00  0.00    -0.370 N 
ATOM     46  H   UNL     1      -5.223   0.906  -2.392  1.00  0.00     0.159 HD
ATOM     47  H   UNL     1      -6.903   1.220  -2.260  1.00  0.00     0.159 HD
ATOM     48  H   UNL     1      -4.194   4.025  -3.273  1.00  0.00     0.159 HD
ATOM     49  H   UNL     1      -3.857   2.329  -3.408  1.00  0.00     0.159 HD
ENDBRANCH  41  42
ENDBRANCH  40  41
ENDBRANCH  39  40
ENDBRANCH  38  39
ENDBRANCH  36  38
ENDBRANCH   5  34
BRANCH   8  50
ATOM     50  O   UNL     1      -5.266   0.868   2.310  1.00  0.00    -0.245 OA
BRANCH  50  51
ATOM     51  S   UNL     1      -6.056   0.833   0.889  1.00  0.00     0.397 S 
ATOM     52  O   UNL     1      -6.377   2.194   0.523  1.00  0.00    -0.169 OA
ATOM     53  O   UNL     1      -7.066  -0.204   0.920  1.00  0.00    -0.169 OA
BRANCH  51  54
ATOM     54  O   UNL     1      -4.899   0.368  -0.126  1.00  0.00    -0.264 OA
ATOM     55  H   UNL     1      -4.040   0.648   0.251  1.00  0.00     0.236 HD
ENDBRANCH  51  54
ENDBRANCH  50  51
ENDBRANCH   8  50
TORSDOF 19
ENDMDL
MODEL 3
REMARK VINA RESULT:    -5.400      2.708      3.894
REMARK INTER + INTRA:         -16.309
REMARK INTER:                 -14.038
REMARK INTRA:                  -2.271
REMARK UNBOUND:                -5.385
REMARK SMILES CC[C@@H](C)[C@@H](NC(=O)[C@@H](O)Cc1ccc(O)c(Cl)c1)C(=O)N1[C@H](C(=O)NCCCCN=C(N)N)C[C@H]2CC[C@H](OS(=O)(=O)O)C[C@@H]21
REMARK SMILES IDX 22 1 36 2 46 3 35 4 23 5 45 6 37 7 39 8 38 9 20 10 21 11
REMARK SMILES IDX 5 12 6 13 7 14 8 15 9 17 11 18 12 19 17 20 19 21 15 22 14 23
REMARK SMILES IDX 13 24 18 25 16 26 10 28 3 30 4 31 2 32 1 33 24 34 25 35
REMARK SMILES IDX 26 36 27 38 28 39 29 40 30 41 31 42 32 43 33 44 34 45 40 50
REMARK SMILES IDX 41 51 42 52 43 53 44 54
REMARK H PARENT 6 16 16 27 10 29 26 37 33 46 33 47 34 48 34 49 44 55
ROOT
ATOM      1  N   UNL     1      -9.723   2.484   3.791  1.00  0.00    -0.326 N 
ATOM      2  C   UNL     1      -9.409   2.597   1.461  1.00  0.00     0.014 C 
ATOM      3  C   UNL     1      -8.982   3.245   2.781  1.00  0.00     0.091 C 
ATOM      4  C   UNL     1     -10.859   2.223   1.725  1.00  0.00     0.041 C 
ATOM      5  C   UNL     1     -10.732   1.617   3.134  1.00  0.00     0.175 C 
ATOM      6  C   UNL     1      -7.456   3.242   2.849  1.00  0.00     0.059 C 
ATOM      7  C   UNL     1      -9.074   3.493   0.284  1.00  0.00     0.008 C 
ATOM      8  C   UNL     1      -6.772   3.370   1.470  1.00  0.00     0.143 C 
ATOM      9  C   UNL     1      -7.665   4.100   0.447  1.00  0.00     0.034 C 
ENDROOT
BRANCH   1  10
ATOM     10  C   UNL     1      -9.753   2.631   5.168  1.00  0.00     0.246 C 
ATOM     11  O   UNL     1      -9.015   1.925   5.863  1.00  0.00    -0.272 OA
BRANCH  10  12
ATOM     12  C   UNL     1     -10.680   3.706   5.805  1.00  0.00     0.174 C 
BRANCH  12  13
ATOM     13  N   UNL     1      -9.874   4.733   6.464  1.00  0.00    -0.342 N 
ATOM     14  C   UNL     1      -9.934   6.081   6.192  1.00  0.00     0.249 C 
ATOM     15  O   UNL     1     -10.701   6.578   5.377  1.00  0.00    -0.272 OA
ATOM     16  H   UNL     1      -9.087   4.457   7.048  1.00  0.00     0.164 HD
BRANCH  14  17
ATOM     17  C   UNL     1      -8.945   6.905   7.043  1.00  0.00     0.207 C 
BRANCH  17  18
ATOM     18  C   UNL     1      -8.452   8.126   6.260  1.00  0.00     0.077 C 
BRANCH  18  19
ATOM     19  C   UNL     1      -7.172   7.833   5.510  1.00  0.00    -0.043 A 
ATOM     20  C   UNL     1      -4.865   8.378   4.996  1.00  0.00     0.083 A 
ATOM     21  C   UNL     1      -6.029   8.620   5.725  1.00  0.00     0.028 A 
ATOM     22  C   UNL     1      -4.834   7.354   4.048  1.00  0.00     0.134 A 
ATOM     23  C   UNL     1      -5.958   6.568   3.825  1.00  0.00     0.048 A 
ATOM     24  C   UNL     1      -7.126   6.808   4.552  1.00  0.00     0.008 A 
ATOM     25  Cl  UNL     1      -3.471   9.355   5.274  1.00  0.00    -0.080 Cl
BRANCH  22  26
ATOM     26  O   UNL     1      -3.718   7.087   3.302  1.00  0.00    -0.506 OA
ATOM     27  H   UNL     1      -3.226   7.925   3.223  1.00  0.00     0.293 HD
ENDBRANCH  22  26
ENDBRANCH  18  19
ENDBRANCH  17  18
BRANCH  17  28
ATOM     28  O   UNL     1      -7.818   6.109   7.443  1.00  0.00    -0.383 OA
ATOM     29  H   UNL     1      -7.985   5.850   8.377  1.00  0.00     0.211 HD
ENDBRANCH  17  28
ENDBRANCH  14  17
ENDBRANCH  12  13
BRANCH  12  30
ATOM     30  C   UNL     1     -11.748   3.093   6.751  1.00  0.00     0.018 C 
ATOM     31  C   UNL     1     -11.259   3.106   8.208  1.00  0.00     0.010 C 
BRANCH  30  32
ATOM     32  C   UNL     1     -12.186   1.664   6.349  1.00  0.00     0.002 C 
ATOM     33  C   UNL     1     -12.399   0.699   7.508  1.00  0.00     0.004 C 
ENDBRANCH  30  32
ENDBRANCH  12  30
ENDBRANCH  10  12
ENDBRANCH   1  10
BRANCH   5  34
ATOM     34  C   UNL     1     -10.241   0.145   3.082  1.00  0.00     0.242 C 
ATOM     35  O   UNL     1      -9.074  -0.168   3.318  1.00  0.00    -0.273 OA
ATOM     36  N   UNL     1     -11.190  -0.776   2.700  1.00  0.00    -0.354 N 
ATOM     37  H   UNL     1     -12.107  -0.441   2.401  1.00  0.00     0.163 HD
BRANCH  36  38
ATOM     38  C   UNL     1     -10.969  -2.203   2.804  1.00  0.00     0.116 C 
BRANCH  38  39
ATOM     39  C   UNL     1     -11.651  -2.743   4.059  1.00  0.00     0.023 C 
BRANCH  39  40
ATOM     40  C   UNL     1     -10.961  -3.988   4.607  1.00  0.00     0.026 C 
BRANCH  40  41
ATOM     41  C   UNL     1      -9.815  -4.420   3.692  1.00  0.00     0.146 C 
BRANCH  41  42
ATOM     42  N   UNL     1      -9.372  -5.759   4.057  1.00  0.00    -0.254 NA
ATOM     43  C   UNL     1      -9.333  -6.678   3.167  1.00  0.00     0.185 C 
ATOM     44  N   UNL     1      -9.649  -6.630   1.859  1.00  0.00    -0.370 N 
ATOM     45  N   UNL     1      -8.926  -7.907   3.524  1.00  0.00    -0.370 N 
ATOM     46  H   UNL     1      -9.805  -7.476   1.338  1.00  0.00     0.159 HD
ATOM     47  H   UNL     1      -9.963  -5.771   1.418  1.00  0.00     0.159 HD
ATOM     48  H   UNL     1      -8.661  -8.027   4.492  1.00  0.00     0.159 HD
ATOM     49  H   UNL     1      -8.645  -8.603   2.856  1.00  0.00     0.159 HD
ENDBRANCH  41  42
ENDBRANCH  40  41
ENDBRANCH  39  40
ENDBRANCH  38  39
ENDBRANCH  36  38
ENDBRANCH   5  34
BRANCH   8  50
ATOM     50  O   UNL     1      -6.459   2.075   0.956  1.00  0.00    -0.245 OA
BRANCH  50  51
ATOM     51  S   UNL     1      -4.904   1.610   0.846  1.00  0.00     0.397 S 
ATOM     52  O   UNL     1      -4.550   0.941   2.078  1.00  0.00    -0.169 OA
ATOM     53  O   UNL     1      -4.108   2.697   0.316  1.00  0.00    -0.169 OA
BRANCH  51  54
ATOM     54  O   UNL     1      -4.978   0.457  -0.273  1.00  0.00    -0.264 OA
ATOM     55  H   UNL     1      -5.114  -0.396   0.187  1.00  0.00     0.236 HD
ENDBRANCH  51  54
ENDBRANCH  50  51
ENDBRANCH   8  50
TORSDOF 19
ENDMDL
MODEL 4
REMARK VINA RESULT:    -5.376      2.620      7.443
REMARK INTER + INTRA:         -16.260
REMARK INTER:                 -11.607
REMARK INTRA:                  -4.654
REMARK UNBOUND:                -5.385
REMARK SMILES CC[C@@H](C)[C@@H](NC(=O)[C@@H](O)Cc1ccc(O)c(Cl)c1)C(=O)N1[C@H](C(=O)NCCCCN=C(N)N)C[C@H]2CC[C@H](OS(=O)(=O)O)C[C@@H]21
REMARK SMILES IDX 22 1 36 2 46 3 35 4 23 5 45 6 37 7 39 8 38 9 20 10 21 11
REMARK SMILES IDX 5 12 6 13 7 14 8 15 9 17 11 18 12 19 17 20 19 21 15 22 14 23
REMARK SMILES IDX 13 24 18 25 16 26 10 28 3 30 4 31 2 32 1 33 24 34 25 35
REMARK SMILES IDX 26 36 27 38 28 39 29 40 30 41 31 42 32 43 33 44 34 45 40 50
REMARK SMILES IDX 41 51 42 52 43 53 44 54
REMARK H PARENT 6 16 16 27 10 29 26 37 33 46 33 47 34 48 34 49 44 55
ROOT
ATOM      1  N   UNL     1      -7.860   1.508   2.985  1.00  0.00    -0.326 N 
ATOM      2  C   UNL     1      -6.263   2.762   4.176  1.00  0.00     0.014 C 
ATOM      3  C   UNL     1      -6.628   2.274   2.772  1.00  0.00     0.091 C 
ATOM      4  C   UNL     1      -6.714   1.609   5.059  1.00  0.00     0.041 C 
ATOM      5  C   UNL     1      -8.091   1.311   4.437  1.00  0.00     0.175 C 
ATOM      6  C   UNL     1      -6.679   3.482   1.838  1.00  0.00     0.059 C 
ATOM      7  C   UNL     1      -4.820   3.221   4.233  1.00  0.00     0.008 C 
ATOM      8  C   UNL     1      -5.690   4.605   2.220  1.00  0.00     0.143 C 
ATOM      9  C   UNL     1      -4.467   4.062   2.987  1.00  0.00     0.034 C 
ENDROOT
BRANCH   1  10
ATOM     10  C   UNL     1      -8.641   0.814   2.077  1.00  0.00     0.246 C 
ATOM     11  O   UNL     1      -9.601   1.385   1.549  1.00  0.00    -0.272 OA
BRANCH  10  12
ATOM     12  C   UNL     1      -8.271  -0.653   1.709  1.00  0.00     0.174 C 
BRANCH  12  13
ATOM     13  N   UNL     1      -8.544  -0.896   0.293  1.00  0.00    -0.342 N 
ATOM     14  C   UNL     1      -7.585  -1.031  -0.685  1.00  0.00     0.249 C 
ATOM     15  O   UNL     1      -6.380  -0.989  -0.469  1.00  0.00    -0.272 OA
ATOM     16  H   UNL     1      -9.493  -0.800  -0.060  1.00  0.00     0.164 HD
BRANCH  14  17
ATOM     17  C   UNL     1      -8.191  -1.263  -2.085  1.00  0.00     0.207 C 
BRANCH  17  18
ATOM     18  C   UNL     1      -9.077  -0.080  -2.489  1.00  0.00     0.077 C 
BRANCH  18  19
ATOM     19  C   UNL     1      -8.321   1.229  -2.442  1.00  0.00    -0.043 A 
ATOM     20  C   UNL     1      -6.387   2.563  -3.046  1.00  0.00     0.083 A 
ATOM     21  C   UNL     1      -7.106   1.371  -3.131  1.00  0.00     0.028 A 
ATOM     22  C   UNL     1      -6.873   3.618  -2.273  1.00  0.00     0.134 A 
ATOM     23  C   UNL     1      -8.075   3.492  -1.585  1.00  0.00     0.048 A 
ATOM     24  C   UNL     1      -8.796   2.298  -1.667  1.00  0.00     0.008 A 
ATOM     25  Cl  UNL     1      -4.897   2.718  -3.899  1.00  0.00    -0.080 Cl
BRANCH  22  26
ATOM     26  O   UNL     1      -6.198   4.802  -2.150  1.00  0.00    -0.506 OA
ATOM     27  H   UNL     1      -6.769   5.397  -1.629  1.00  0.00     0.293 HD
ENDBRANCH  22  26
ENDBRANCH  18  19
ENDBRANCH  17  18
BRANCH  17  28
ATOM     28  O   UNL     1      -8.967  -2.472  -2.119  1.00  0.00    -0.383 OA
ATOM     29  H   UNL     1      -9.854  -2.216  -2.460  1.00  0.00     0.211 HD
ENDBRANCH  17  28
ENDBRANCH  14  17
ENDBRANCH  12  13
BRANCH  12  30
ATOM     30  C   UNL     1      -8.957  -1.695   2.633  1.00  0.00     0.018 C 
ATOM     31  C   UNL     1      -8.066  -2.933   2.816  1.00  0.00     0.010 C 
BRANCH  30  32
ATOM     32  C   UNL     1     -10.366  -2.119   2.152  1.00  0.00     0.002 C 
ATOM     33  C   UNL     1     -11.526  -1.573   2.974  1.00  0.00     0.004 C 
ENDBRANCH  30  32
ENDBRANCH  12  30
ENDBRANCH  10  12
ENDBRANCH   1  10
BRANCH   5  34
ATOM     34  C   UNL     1      -9.178   2.288   4.959  1.00  0.00     0.242 C 
ATOM     35  O   UNL     1      -9.631   3.199   4.266  1.00  0.00    -0.273 OA
ATOM     36  N   UNL     1      -9.558   2.097   6.268  1.00  0.00    -0.354 N 
ATOM     37  H   UNL     1      -9.061   1.403   6.828  1.00  0.00     0.163 HD
BRANCH  36  38
ATOM     38  C   UNL     1     -10.703   2.769   6.847  1.00  0.00     0.116 C 
BRANCH  38  39
ATOM     39  C   UNL     1     -10.306   3.422   8.169  1.00  0.00     0.023 C 
BRANCH  39  40
ATOM     40  C   UNL     1     -10.782   4.867   8.272  1.00  0.00     0.026 C 
BRANCH  40  41
ATOM     41  C   UNL     1      -9.686   5.832   7.822  1.00  0.00     0.146 C 
BRANCH  41  42
ATOM     42  N   UNL     1      -9.904   6.211   6.432  1.00  0.00    -0.254 NA
ATOM     43  C   UNL     1      -8.975   6.023   5.572  1.00  0.00     0.185 C 
ATOM     44  N   UNL     1      -7.744   5.501   5.727  1.00  0.00    -0.370 N 
ATOM     45  N   UNL     1      -9.194   6.383   4.296  1.00  0.00    -0.370 N 
ATOM     46  H   UNL     1      -7.037   5.638   5.025  1.00  0.00     0.159 HD
ATOM     47  H   UNL     1      -7.418   5.164   6.627  1.00  0.00     0.159 HD
ATOM     48  H   UNL     1     -10.102   6.778   4.091  1.00  0.00     0.159 HD
ATOM     49  H   UNL     1      -8.625   6.059   3.534  1.00  0.00     0.159 HD
ENDBRANCH  41  42
ENDBRANCH  40  41
ENDBRANCH  39  40
ENDBRANCH  38  39
ENDBRANCH  36  38
ENDBRANCH   5  34
BRANCH   8  50
ATOM     50  O   UNL     1      -6.343   5.577   3.037  1.00  0.00    -0.245 OA
BRANCH  50  51
ATOM     51  S   UNL     1      -6.253   7.151   2.638  1.00  0.00     0.397 S 
ATOM     52  O   UNL     1      -7.454   7.496   1.910  1.00  0.00    -0.169 OA
ATOM     53  O   UNL     1      -4.936   7.445   2.113  1.00  0.00    -0.169 OA
BRANCH  51  54
ATOM     54  O   UNL     1      -6.388   7.869   4.070  1.00  0.00    -0.264 OA
ATOM     55  H   UNL     1      -6.371   7.171   4.756  1.00  0.00     0.236 HD
ENDBRANCH  51  54
ENDBRANCH  50  51
ENDBRANCH   8  50
TORSDOF 19
ENDMDL
MODEL 5
REMARK VINA RESULT:    -5.375      2.798      8.302
REMARK INTER + INTRA:         -16.260
REMARK INTER:                 -14.085
REMARK INTRA:                  -2.175
REMARK UNBOUND:                -5.385
REMARK SMILES CC[C@@H](C)[C@@H](NC(=O)[C@@H](O)Cc1ccc(O)c(Cl)c1)C(=O)N1[C@H](C(=O)NCCCCN=C(N)N)C[C@H]2CC[C@H](OS(=O)(=O)O)C[C@@H]21
REMARK SMILES IDX 22 1 36 2 46 3 35 4 23 5 45 6 37 7 39 8 38 9 20 10 21 11
REMARK SMILES IDX 5 12 6 13 7 14 8 15 9 17 11 18 12 19 17 20 19 21 15 22 14 23
REMARK SMILES IDX 13 24 18 25 16 26 10 28 3 30 4 31 2 32 1 33 24 34 25 35
REMARK SMILES IDX 26 36 27 38 28 39 29 40 30 41 31 42 32 43 33 44 34 45 40 50
REMARK SMILES IDX 41 51 42 52 43 53 44 54
REMARK H PARENT 6 16 16 27 10 29 26 37 33 46 33 47 34 48 34 49 44 55
ROOT
ATOM      1  N   UNL     1      -5.777   1.530   1.826  1.00  0.00    -0.326 N 
ATOM      2  C   UNL     1      -5.332   2.911   3.680  1.00  0.00     0.014 C 
ATOM      3  C   UNL     1      -5.292   2.874   2.149  1.00  0.00     0.091 C 
ATOM      4  C   UNL     1      -4.975   1.481   4.058  1.00  0.00     0.041 C 
ATOM      5  C   UNL     1      -5.854   0.707   3.059  1.00  0.00     0.175 C 
ATOM      6  C   UNL     1      -6.074   4.074   1.617  1.00  0.00     0.059 C 
ATOM      7  C   UNL     1      -4.493   4.054   4.217  1.00  0.00     0.008 C 
ATOM      8  C   UNL     1      -6.009   5.315   2.534  1.00  0.00     0.143 C 
ATOM      9  C   UNL     1      -4.727   5.336   3.390  1.00  0.00     0.034 C 
ENDROOT
BRANCH   1  10
ATOM     10  C   UNL     1      -5.940   0.917   0.595  1.00  0.00     0.246 C 
ATOM     11  O   UNL     1      -4.960   0.405   0.044  1.00  0.00    -0.272 OA
BRANCH  10  12
ATOM     12  C   UNL     1      -7.356   0.848  -0.046  1.00  0.00     0.174 C 
BRANCH  12  13
ATOM     13  N   UNL     1      -8.106  -0.273   0.520  1.00  0.00    -0.342 N 
ATOM     14  C   UNL     1      -7.812  -1.603   0.316  1.00  0.00     0.249 C 
ATOM     15  O   UNL     1      -6.861  -1.997  -0.347  1.00  0.00    -0.272 OA
ATOM     16  H   UNL     1      -9.007  -0.105   0.960  1.00  0.00     0.164 HD
BRANCH  14  17
ATOM     17  C   UNL     1      -8.800  -2.547   1.034  1.00  0.00     0.207 C 
BRANCH  17  18
ATOM     18  C   UNL     1      -8.044  -3.684   1.730  1.00  0.00     0.077 C 
BRANCH  18  19
ATOM     19  C   UNL     1      -8.970  -4.554   2.550  1.00  0.00    -0.043 A 
ATOM     20  C   UNL     1     -10.308  -4.906   4.543  1.00  0.00     0.083 A 
ATOM     21  C   UNL     1      -9.494  -4.082   3.764  1.00  0.00     0.028 A 
ATOM     22  C   UNL     1     -10.601  -6.202   4.117  1.00  0.00     0.134 A 
ATOM     23  C   UNL     1     -10.089  -6.681   2.917  1.00  0.00     0.048 A 
ATOM     24  C   UNL     1      -9.272  -5.860   2.136  1.00  0.00     0.008 A 
ATOM     25  Cl  UNL     1     -10.942  -4.309   6.031  1.00  0.00    -0.080 Cl
BRANCH  22  26
ATOM     26  O   UNL     1     -11.385  -7.050   4.851  1.00  0.00    -0.506 OA
ATOM     27  H   UNL     1     -12.007  -6.491   5.354  1.00  0.00     0.293 HD
ENDBRANCH  22  26
ENDBRANCH  18  19
ENDBRANCH  17  18
BRANCH  17  28
ATOM     28  O   UNL     1      -9.749  -3.102   0.109  1.00  0.00    -0.383 OA
ATOM     29  H   UNL     1     -10.103  -2.342  -0.407  1.00  0.00     0.211 HD
ENDBRANCH  17  28
ENDBRANCH  14  17
ENDBRANCH  12  13
BRANCH  12  30
ATOM     30  C   UNL     1      -7.312   0.809  -1.597  1.00  0.00     0.018 C 
ATOM     31  C   UNL     1      -6.674   2.089  -2.158  1.00  0.00     0.010 C 
BRANCH  30  32
ATOM     32  C   UNL     1      -8.694   0.572  -2.253  1.00  0.00     0.002 C 
ATOM     33  C   UNL     1      -9.205   1.711  -3.125  1.00  0.00     0.004 C 
ENDBRANCH  30  32
ENDBRANCH  12  30
ENDBRANCH  10  12
ENDBRANCH   1  10
BRANCH   5  34
ATOM     34  C   UNL     1      -7.320   0.596   3.554  1.00  0.00     0.242 C 
ATOM     35  O   UNL     1      -7.878  -0.489   3.719  1.00  0.00    -0.273 OA
ATOM     36  N   UNL     1      -7.968   1.796   3.744  1.00  0.00    -0.354 N 
ATOM     37  H   UNL     1      -7.492   2.658   3.476  1.00  0.00     0.163 HD
BRANCH  36  38
ATOM     38  C   UNL     1      -9.254   1.885   4.403  1.00  0.00     0.116 C 
BRANCH  38  39
ATOM     39  C   UNL     1      -9.077   2.448   5.811  1.00  0.00     0.023 C 
BRANCH  39  40
ATOM     40  C   UNL     1     -10.409   2.690   6.514  1.00  0.00     0.026 C 
BRANCH  40  41
ATOM     41  C   UNL     1     -10.882   4.128   6.299  1.00  0.00     0.146 C 
BRANCH  41  42
ATOM     42  N   UNL     1     -10.945   4.822   7.578  1.00  0.00    -0.254 NA
ATOM     43  C   UNL     1      -9.940   5.510   7.975  1.00  0.00     0.185 C 
ATOM     44  N   UNL     1      -8.751   5.725   7.384  1.00  0.00    -0.370 N 
ATOM     45  N   UNL     1     -10.017   6.139   9.159  1.00  0.00    -0.370 N 
ATOM     46  H   UNL     1      -7.972   6.078   7.913  1.00  0.00     0.159 HD
ATOM     47  H   UNL     1      -8.530   5.334   6.474  1.00  0.00     0.159 HD
ATOM     48  H   UNL     1     -10.885   6.035   9.667  1.00  0.00     0.159 HD
ATOM     49  H   UNL     1      -9.385   6.873   9.427  1.00  0.00     0.159 HD
ENDBRANCH  41  42
ENDBRANCH  40  41
ENDBRANCH  39  40
ENDBRANCH  38  39
ENDBRANCH  36  38
ENDBRANCH   5  34
BRANCH   8  50
ATOM     50  O   UNL     1      -7.138   5.338   3.408  1.00  0.00    -0.245 OA
BRANCH  50  51
ATOM     51  S   UNL     1      -7.670   6.759   3.995  1.00  0.00     0.397 S 
ATOM     52  O   UNL     1      -7.652   7.721   2.917  1.00  0.00    -0.169 OA
ATOM     53  O   UNL     1      -7.031   7.029   5.266  1.00  0.00    -0.169 OA
BRANCH  51  54
ATOM     54  O   UNL     1      -9.222   6.445   4.277  1.00  0.00    -0.264 OA
ATOM     55  H   UNL     1      -9.266   5.775   4.989  1.00  0.00     0.236 HD
ENDBRANCH  51  54
ENDBRANCH  50  51
ENDBRANCH   8  50
TORSDOF 19
ENDMDL
MODEL 6
REMARK VINA RESULT:    -5.356      2.880      7.881
REMARK INTER + INTRA:         -16.221
REMARK INTER:                 -12.249
REMARK INTRA:                  -3.971
REMARK UNBOUND:                -5.385
REMARK SMILES CC[C@@H](C)[C@@H](NC(=O)[C@@H](O)Cc1ccc(O)c(Cl)c1)C(=O)N1[C@H](C(=O)NCCCCN=C(N)N)C[C@H]2CC[C@H](OS(=O)(=O)O)C[C@@H]21
REMARK SMILES IDX 22 1 36 2 46 3 35 4 23 5 45 6 37 7 39 8 38 9 20 10 21 11
REMARK SMILES IDX 5 12 6 13 7 14 8 15 9 17 11 18 12 19 17 20 19 21 15 22 14 23
REMARK SMILES IDX 13 24 18 25 16 26 10 28 3 30 4 31 2 32 1 33 24 34 25 35
REMARK SMILES IDX 26 36 27 38 28 39 29 40 30 41 31 42 32 43 33 44 34 45 40 50
REMARK SMILES IDX 41 51 42 52 43 53 44 54
REMARK H PARENT 6 16 16 27 10 29 26 37 33 46 33 47 34 48 34 49 44 55
ROOT
ATOM      1  N   UNL     1      -8.042   2.481   2.498  1.00  0.00    -0.326 N 
ATOM      2  C   UNL     1      -6.429   2.621   4.208  1.00  0.00     0.014 C 
ATOM      3  C   UNL     1      -6.865   3.264   2.888  1.00  0.00     0.091 C 
ATOM      4  C   UNL     1      -6.763   1.153   3.992  1.00  0.00     0.041 C 
ATOM      5  C   UNL     1      -8.163   1.282   3.364  1.00  0.00     0.175 C 
ATOM      6  C   UNL     1      -7.037   4.765   3.116  1.00  0.00     0.059 C 
ATOM      7  C   UNL     1      -5.008   3.016   4.559  1.00  0.00     0.008 C 
ATOM      8  C   UNL     1      -6.079   5.346   4.177  1.00  0.00     0.143 C 
ATOM      9  C   UNL     1      -4.782   4.521   4.301  1.00  0.00     0.034 C 
ENDROOT
BRANCH   1  10
ATOM     10  C   UNL     1      -8.849   2.590   1.379  1.00  0.00     0.246 C 
ATOM     11  O   UNL     1      -9.812   3.364   1.406  1.00  0.00    -0.272 OA
BRANCH  10  12
ATOM     12  C   UNL     1      -8.504   1.771   0.102  1.00  0.00     0.174 C 
BRANCH  12  13
ATOM     13  N   UNL     1      -8.622   0.340   0.380  1.00  0.00    -0.342 N 
ATOM     14  C   UNL     1      -9.237  -0.577  -0.442  1.00  0.00     0.249 C 
ATOM     15  O   UNL     1      -9.737  -0.296  -1.524  1.00  0.00    -0.272 OA
ATOM     16  H   UNL     1      -8.395  -0.014   1.306  1.00  0.00     0.164 HD
BRANCH  14  17
ATOM     17  C   UNL     1      -9.213  -2.008   0.137  1.00  0.00     0.207 C 
BRANCH  17  18
ATOM     18  C   UNL     1      -8.518  -2.020   1.503  1.00  0.00     0.077 C 
BRANCH  18  19
ATOM     19  C   UNL     1      -9.252  -2.890   2.498  1.00  0.00    -0.043 A 
ATOM     20  C   UNL     1     -11.100  -3.230   4.033  1.00  0.00     0.083 A 
ATOM     21  C   UNL     1     -10.451  -2.447   3.077  1.00  0.00     0.028 A 
ATOM     22  C   UNL     1     -10.556  -4.456   4.416  1.00  0.00     0.134 A 
ATOM     23  C   UNL     1      -9.369  -4.908   3.851  1.00  0.00     0.048 A 
ATOM     24  C   UNL     1      -8.716  -4.125   2.896  1.00  0.00     0.008 A 
ATOM     25  Cl  UNL     1     -12.572  -2.668   4.733  1.00  0.00    -0.080 Cl
BRANCH  22  26
ATOM     26  O   UNL     1     -11.150  -5.254   5.356  1.00  0.00    -0.506 OA
ATOM     27  H   UNL     1     -10.892  -6.171   5.149  1.00  0.00     0.293 HD
ENDBRANCH  22  26
ENDBRANCH  18  19
ENDBRANCH  17  18
BRANCH  17  28
ATOM     28  O   UNL     1      -8.537  -2.914  -0.750  1.00  0.00    -0.383 OA
ATOM     29  H   UNL     1      -7.838  -2.385  -1.198  1.00  0.00     0.211 HD
ENDBRANCH  17  28
ENDBRANCH  14  17
ENDBRANCH  12  13
BRANCH  12  30
ATOM     30  C   UNL     1      -7.122   2.147  -0.497  1.00  0.00     0.018 C 
ATOM     31  C   UNL     1      -7.225   2.366  -2.014  1.00  0.00     0.010 C 
BRANCH  30  32
ATOM     32  C   UNL     1      -6.008   1.118  -0.183  1.00  0.00     0.002 C 
ATOM     33  C   UNL     1      -4.871   1.636   0.689  1.00  0.00     0.004 C 
ENDBRANCH  30  32
ENDBRANCH  12  30
ENDBRANCH  10  12
ENDBRANCH   1  10
BRANCH   5  34
ATOM     34  C   UNL     1      -9.257   1.492   4.445  1.00  0.00     0.242 C 
ATOM     35  O   UNL     1      -8.992   1.875   5.584  1.00  0.00    -0.273 OA
ATOM     36  N   UNL     1     -10.537   1.168   4.053  1.00  0.00    -0.354 N 
ATOM     37  H   UNL     1     -10.677   0.742   3.136  1.00  0.00     0.163 HD
BRANCH  36  38
ATOM     38  C   UNL     1     -11.698   1.502   4.852  1.00  0.00     0.116 C 
BRANCH  38  39
ATOM     39  C   UNL     1     -12.203   2.893   4.475  1.00  0.00     0.023 C 
BRANCH  39  40
ATOM     40  C   UNL     1     -12.764   3.653   5.671  1.00  0.00     0.026 C 
BRANCH  40  41
ATOM     41  C   UNL     1     -12.110   3.180   6.969  1.00  0.00     0.146 C 
BRANCH  41  42
ATOM     42  N   UNL     1     -11.778   4.329   7.801  1.00  0.00    -0.254 NA
ATOM     43  C   UNL     1     -10.550   4.619   8.021  1.00  0.00     0.185 C 
ATOM     44  N   UNL     1      -9.428   4.012   7.592  1.00  0.00    -0.370 N 
ATOM     45  N   UNL     1     -10.265   5.679   8.794  1.00  0.00    -0.370 N 
ATOM     46  H   UNL     1      -8.545   4.196   8.036  1.00  0.00     0.159 HD
ATOM     47  H   UNL     1      -9.461   3.199   6.985  1.00  0.00     0.159 HD
ATOM     48  H   UNL     1     -11.056   6.199   9.152  1.00  0.00     0.159 HD
ATOM     49  H   UNL     1      -9.356   6.106   8.818  1.00  0.00     0.159 HD
ENDBRANCH  41  42
ENDBRANCH  40  41
ENDBRANCH  39  40
ENDBRANCH  38  39
ENDBRANCH  36  38
ENDBRANCH   5  34
BRANCH   8  50
ATOM     50  O   UNL     1      -6.720   5.376   5.453  1.00  0.00    -0.245 OA
BRANCH  50  51
ATOM     51  S   UNL     1      -7.455   6.740   5.950  1.00  0.00     0.397 S 
ATOM     52  O   UNL     1      -8.796   6.746   5.411  1.00  0.00    -0.169 OA
ATOM     53  O   UNL     1      -6.561   7.865   5.774  1.00  0.00    -0.169 OA
BRANCH  51  54
ATOM     54  O   UNL     1      -7.617   6.477   7.528  1.00  0.00    -0.264 OA
ATOM     55  H   UNL     1      -8.480   6.849   7.805  1.00  0.00     0.236 HD
ENDBRANCH  51  54
ENDBRANCH  50  51
ENDBRANCH   8  50
TORSDOF 19
ENDMDL
MODEL 7
REMARK VINA RESULT:    -5.336      3.265      8.290
REMARK INTER + INTRA:         -16.181
REMARK INTER:                 -13.462
REMARK INTRA:                  -2.719
REMARK UNBOUND:                -5.385
REMARK SMILES CC[C@@H](C)[C@@H](NC(=O)[C@@H](O)Cc1ccc(O)c(Cl)c1)C(=O)N1[C@H](C(=O)NCCCCN=C(N)N)C[C@H]2CC[C@H](OS(=O)(=O)O)C[C@@H]21
REMARK SMILES IDX 22 1 36 2 46 3 35 4 23 5 45 6 37 7 39 8 38 9 20 10 21 11
REMARK SMILES IDX 5 12 6 13 7 14 8 15 9 17 11 18 12 19 17 20 19 21 15 22 14 23
REMARK SMILES IDX 13 24 18 25 16 26 10 28 3 30 4 31 2 32 1 33 24 34 25 35
REMARK SMILES IDX 26 36 27 38 28 39 29 40 30 41 31 42 32 43 33 44 34 45 40 50
REMARK SMILES IDX 41 51 42 52 43 53 44 54
REMARK H PARENT 6 16 16 27 10 29 26 37 33 46 33 47 34 48 34 49 44 55
ROOT
ATOM      1  N   UNL     1      -8.763   1.938   3.594  1.00  0.00    -0.326 N 
ATOM      2  C   UNL     1     -10.664   2.956   4.538  1.00  0.00     0.014 C 
ATOM      3  C   UNL     1      -9.381   2.201   4.897  1.00  0.00     0.091 C 
ATOM      4  C   UNL     1     -11.076   2.312   3.224  1.00  0.00     0.041 C 
ATOM      5  C   UNL     1      -9.715   2.266   2.505  1.00  0.00     0.175 C 
ATOM      6  C   UNL     1      -8.601   3.030   5.916  1.00  0.00     0.059 C 
ATOM      7  C   UNL     1     -11.635   2.958   5.702  1.00  0.00     0.008 C 
ATOM      8  C   UNL     1      -9.498   3.866   6.854  1.00  0.00     0.143 C 
ATOM      9  C   UNL     1     -10.897   3.240   7.027  1.00  0.00     0.034 C 
ENDROOT
BRANCH   1  10
ATOM     10  C   UNL     1      -7.590   1.270   3.287  1.00  0.00     0.246 C 
ATOM     11  O   UNL     1      -6.740   1.110   4.170  1.00  0.00    -0.272 OA
BRANCH  10  12
ATOM     12  C   UNL     1      -7.386   0.698   1.854  1.00  0.00     0.174 C 
BRANCH  12  13
ATOM     13  N   UNL     1      -7.517  -0.758   1.875  1.00  0.00    -0.342 N 
ATOM     14  C   UNL     1      -8.468  -1.476   1.185  1.00  0.00     0.249 C 
ATOM     15  O   UNL     1      -9.302  -0.969   0.446  1.00  0.00    -0.272 OA
ATOM     16  H   UNL     1      -6.998  -1.301   2.561  1.00  0.00     0.164 HD
BRANCH  14  17
ATOM     17  C   UNL     1      -8.357  -2.997   1.426  1.00  0.00     0.207 C 
BRANCH  17  18
ATOM     18  C   UNL     1      -8.155  -3.290   2.916  1.00  0.00     0.077 C 
BRANCH  18  19
ATOM     19  C   UNL     1      -9.126  -4.334   3.419  1.00  0.00    -0.043 A 
ATOM     20  C   UNL     1     -10.890  -5.004   4.944  1.00  0.00     0.083 A 
ATOM     21  C   UNL     1     -10.029  -4.024   4.448  1.00  0.00     0.028 A 
ATOM     22  C   UNL     1     -10.853  -6.296   4.420  1.00  0.00     0.134 A 
ATOM     23  C   UNL     1      -9.963  -6.617   3.401  1.00  0.00     0.048 A 
ATOM     24  C   UNL     1      -9.099  -5.639   2.903  1.00  0.00     0.008 A 
ATOM     25  Cl  UNL     1     -11.993  -4.603   6.208  1.00  0.00    -0.080 Cl
BRANCH  22  26
ATOM     26  O   UNL     1     -11.670  -7.293   4.881  1.00  0.00    -0.506 OA
ATOM     27  H   UNL     1     -11.531  -7.344   5.845  1.00  0.00     0.293 HD
ENDBRANCH  22  26
ENDBRANCH  18  19
ENDBRANCH  17  18
BRANCH  17  28
ATOM     28  O   UNL     1      -7.268  -3.561   0.677  1.00  0.00    -0.383 OA
ATOM     29  H   UNL     1      -7.499  -3.441  -0.272  1.00  0.00     0.211 HD
ENDBRANCH  17  28
ENDBRANCH  14  17
ENDBRANCH  12  13
BRANCH  12  30
ATOM     30  C   UNL     1      -6.054   1.164   1.207  1.00  0.00     0.018 C 
ATOM     31  C   UNL     1      -5.980   2.698   1.152  1.00  0.00     0.010 C 
BRANCH  30  32
ATOM     32  C   UNL     1      -5.806   0.569  -0.201  1.00  0.00     0.002 C 
ATOM     33  C   UNL     1      -6.790   1.010  -1.277  1.00  0.00     0.004 C 
ENDBRANCH  30  32
ENDBRANCH  12  30
ENDBRANCH  10  12
ENDBRANCH   1  10
BRANCH   5  34
ATOM     34  C   UNL     1      -9.363   3.632   1.859  1.00  0.00     0.242 C 
ATOM     35  O   UNL     1      -9.644   3.900   0.690  1.00  0.00    -0.273 OA
ATOM     36  N   UNL     1      -8.667   4.501   2.669  1.00  0.00    -0.354 N 
ATOM     37  H   UNL     1      -8.358   4.177   3.586  1.00  0.00     0.163 HD
BRANCH  36  38
ATOM     38  C   UNL     1      -8.447   5.887   2.308  1.00  0.00     0.116 C 
BRANCH  38  39
ATOM     39  C   UNL     1      -7.054   6.050   1.704  1.00  0.00     0.023 C 
BRANCH  39  40
ATOM     40  C   UNL     1      -6.334   7.289   2.227  1.00  0.00     0.026 C 
BRANCH  40  41
ATOM     41  C   UNL     1      -5.558   6.966   3.504  1.00  0.00     0.146 C 
BRANCH  41  42
ATOM     42  N   UNL     1      -4.724   5.791   3.289  1.00  0.00    -0.254 NA
ATOM     43  C   UNL     1      -4.800   4.804   4.101  1.00  0.00     0.185 C 
ATOM     44  N   UNL     1      -5.565   4.640   5.195  1.00  0.00    -0.370 N 
ATOM     45  N   UNL     1      -4.019   3.732   3.888  1.00  0.00    -0.370 N 
ATOM     46  H   UNL     1      -5.348   3.927   5.871  1.00  0.00     0.159 HD
ATOM     47  H   UNL     1      -6.226   5.350   5.494  1.00  0.00     0.159 HD
ATOM     48  H   UNL     1      -3.416   3.770   3.077  1.00  0.00     0.159 HD
ATOM     49  H   UNL     1      -4.185   2.843   4.325  1.00  0.00     0.159 HD
ENDBRANCH  41  42
ENDBRANCH  40  41
ENDBRANCH  39  40
ENDBRANCH  38  39
ENDBRANCH  36  38
ENDBRANCH   5  34
BRANCH   8  50
ATOM     50  O   UNL     1      -9.653   5.187   6.336  1.00  0.00    -0.245 OA
BRANCH  50  51
ATOM     51  S   UNL     1      -8.892   6.429   7.060  1.00  0.00     0.397 S 
ATOM     52  O   UNL     1      -9.420   7.657   6.512  1.00  0.00    -0.169 OA
ATOM     53  O   UNL     1      -7.468   6.167   7.105  1.00  0.00    -0.169 OA
BRANCH  51  54
ATOM     54  O   UNL     1      -9.459   6.339   8.562  1.00  0.00    -0.264 OA
ATOM     55  H   UNL     1     -10.427   6.481   8.524  1.00  0.00     0.236 HD
ENDBRANCH  51  54
ENDBRANCH  50  51
ENDBRANCH   8  50
TORSDOF 19
ENDMDL
MODEL 8
REMARK VINA RESULT:    -5.257      1.961      2.895
REMARK INTER + INTRA:         -16.019
REMARK INTER:                 -12.894
REMARK INTRA:                  -3.125
REMARK UNBOUND:                -5.385
REMARK SMILES CC[C@@H](C)[C@@H](NC(=O)[C@@H](O)Cc1ccc(O)c(Cl)c1)C(=O)N1[C@H](C(=O)NCCCCN=C(N)N)C[C@H]2CC[C@H](OS(=O)(=O)O)C[C@@H]21
REMARK SMILES IDX 22 1 36 2 46 3 35 4 23 5 45 6 37 7 39 8 38 9 20 10 21 11
REMARK SMILES IDX 5 12 6 13 7 14 8 15 9 17 11 18 12 19 17 20 19 21 15 22 14 23
REMARK SMILES IDX 13 24 18 25 16 26 10 28 3 30 4 31 2 32 1 33 24 34 25 35
REMARK SMILES IDX 26 36 27 38 28 39 29 40 30 41 31 42 32 43 33 44 34 45 40 50
REMARK SMILES IDX 41 51 42 52 43 53 44 54
REMARK H PARENT 6 16 16 27 10 29 26 37 33 46 33 47 34 48 34 49 44 55
ROOT
ATOM      1  N   UNL     1      -9.851   2.448   3.667  1.00  0.00    -0.326 N 
ATOM      2  C   UNL     1      -9.497   2.567   1.343  1.00  0.00     0.014 C 
ATOM      3  C   UNL     1      -9.067   3.189   2.674  1.00  0.00     0.091 C 
ATOM      4  C   UNL     1     -10.964   2.244   1.582  1.00  0.00     0.041 C 
ATOM      5  C   UNL     1     -10.880   1.623   2.988  1.00  0.00     0.175 C 
ATOM      6  C   UNL     1      -7.543   3.130   2.765  1.00  0.00     0.059 C 
ATOM      7  C   UNL     1      -9.112   3.458   0.178  1.00  0.00     0.008 C 
ATOM      8  C   UNL     1      -6.834   3.243   1.398  1.00  0.00     0.143 C 
ATOM      9  C   UNL     1      -7.684   4.013   0.367  1.00  0.00     0.034 C 
ENDROOT
BRANCH   1  10
ATOM     10  C   UNL     1      -9.897   2.585   5.044  1.00  0.00     0.246 C 
ATOM     11  O   UNL     1      -9.210   1.835   5.746  1.00  0.00    -0.272 OA
BRANCH  10  12
ATOM     12  C   UNL     1     -10.775   3.704   5.675  1.00  0.00     0.174 C 
BRANCH  12  13
ATOM     13  N   UNL     1      -9.926   4.678   6.360  1.00  0.00    -0.342 N 
ATOM     14  C   UNL     1      -9.849   6.017   6.049  1.00  0.00     0.249 C 
ATOM     15  O   UNL     1     -10.514   6.552   5.171  1.00  0.00    -0.272 OA
ATOM     16  H   UNL     1      -9.206   4.355   7.002  1.00  0.00     0.164 HD
BRANCH  14  17
ATOM     17  C   UNL     1      -8.848   6.780   6.943  1.00  0.00     0.207 C 
BRANCH  17  18
ATOM     18  C   UNL     1      -7.476   6.100   6.911  1.00  0.00     0.077 C 
BRANCH  18  19
ATOM     19  C   UNL     1      -6.696   6.468   5.668  1.00  0.00    -0.043 A 
ATOM     20  C   UNL     1      -5.158   5.859   3.894  1.00  0.00     0.083 A 
ATOM     21  C   UNL     1      -5.915   5.504   5.011  1.00  0.00     0.028 A 
ATOM     22  C   UNL     1      -5.174   7.174   3.428  1.00  0.00     0.134 A 
ATOM     23  C   UNL     1      -5.943   8.139   4.070  1.00  0.00     0.048 A 
ATOM     24  C   UNL     1      -6.701   7.787   5.189  1.00  0.00     0.008 A 
ATOM     25  Cl  UNL     1      -4.205   4.661   3.100  1.00  0.00    -0.080 Cl
BRANCH  22  26
ATOM     26  O   UNL     1      -4.440   7.572   2.343  1.00  0.00    -0.506 OA
ATOM     27  H   UNL     1      -3.534   7.240   2.482  1.00  0.00     0.293 HD
ENDBRANCH  22  26
ENDBRANCH  18  19
ENDBRANCH  17  18
BRANCH  17  28
ATOM     28  O   UNL     1      -9.314   6.848   8.301  1.00  0.00    -0.383 OA
ATOM     29  H   UNL     1      -8.630   6.397   8.846  1.00  0.00     0.211 HD
ENDBRANCH  17  28
ENDBRANCH  14  17
ENDBRANCH  12  13
BRANCH  12  30
ATOM     30  C   UNL     1     -11.893   3.143   6.594  1.00  0.00     0.018 C 
ATOM     31  C   UNL     1     -11.574   3.416   8.072  1.00  0.00     0.010 C 
BRANCH  30  32
ATOM     32  C   UNL     1     -12.174   1.636   6.380  1.00  0.00     0.002 C 
ATOM     33  C   UNL     1     -12.314   0.812   7.654  1.00  0.00     0.004 C 
ENDBRANCH  30  32
ENDBRANCH  12  30
ENDBRANCH  10  12
ENDBRANCH   1  10
BRANCH   5  34
ATOM     34  C   UNL     1     -10.442   0.135   2.931  1.00  0.00     0.242 C 
ATOM     35  O   UNL     1      -9.355  -0.248   3.362  1.00  0.00    -0.273 OA
ATOM     36  N   UNL     1     -11.334  -0.715   2.315  1.00  0.00    -0.354 N 
ATOM     37  H   UNL     1     -12.164  -0.319   1.872  1.00  0.00     0.163 HD
BRANCH  36  38
ATOM     38  C   UNL     1     -11.189  -2.155   2.364  1.00  0.00     0.116 C 
BRANCH  38  39
ATOM     39  C   UNL     1     -10.675  -2.670   1.022  1.00  0.00     0.023 C 
BRANCH  39  40
ATOM     40  C   UNL     1     -10.288  -1.540   0.074  1.00  0.00     0.026 C 
BRANCH  40  41
ATOM     41  C   UNL     1      -8.780  -1.537  -0.179  1.00  0.00     0.146 C 
BRANCH  41  42
ATOM     42  N   UNL     1      -8.441  -2.573  -1.145  1.00  0.00    -0.254 NA
ATOM     43  C   UNL     1      -7.561  -3.454  -0.847  1.00  0.00     0.185 C 
ATOM     44  N   UNL     1      -6.841  -3.611   0.279  1.00  0.00    -0.370 N 
ATOM     45  N   UNL     1      -7.259  -4.397  -1.753  1.00  0.00    -0.370 N 
ATOM     46  H   UNL     1      -6.019  -4.190   0.286  1.00  0.00     0.159 HD
ATOM     47  H   UNL     1      -6.954  -2.990   1.075  1.00  0.00     0.159 HD
ATOM     48  H   UNL     1      -7.764  -4.357  -2.628  1.00  0.00     0.159 HD
ATOM     49  H   UNL     1      -6.771  -5.243  -1.516  1.00  0.00     0.159 HD
ENDBRANCH  41  42
ENDBRANCH  40  41
ENDBRANCH  39  40
ENDBRANCH  38  39
ENDBRANCH  36  38
ENDBRANCH   5  34
BRANCH   8  50
ATOM     50  O   UNL     1      -6.561   1.942   0.878  1.00  0.00    -0.245 OA
BRANCH  50  51
ATOM     51  S   UNL     1      -5.024   1.507   0.571  1.00  0.00     0.397 S 
ATOM     52  O   UNL     1      -4.291   2.694   0.194  1.00  0.00    -0.169 OA
ATOM     53  O   UNL     1      -5.011   0.314  -0.251  1.00  0.00    -0.169 OA
BRANCH  51  54
ATOM     54  O   UNL     1      -4.489   1.107   2.033  1.00  0.00    -0.264 OA
ATOM     55  H   UNL     1      -5.145   1.423   2.688  1.00  0.00     0.236 HD
ENDBRANCH  51  54
ENDBRANCH  50  51
ENDBRANCH   8  50
TORSDOF 19
ENDMDL
MODEL 9
REMARK VINA RESULT:    -5.244      3.142      6.368
REMARK INTER + INTRA:         -15.993
REMARK INTER:                 -11.040
REMARK INTRA:                  -4.954
REMARK UNBOUND:                -5.385
REMARK SMILES CC[C@@H](C)[C@@H](NC(=O)[C@@H](O)Cc1ccc(O)c(Cl)c1)C(=O)N1[C@H](C(=O)NCCCCN=C(N)N)C[C@H]2CC[C@H](OS(=O)(=O)O)C[C@@H]21
REMARK SMILES IDX 22 1 36 2 46 3 35 4 23 5 45 6 37 7 39 8 38 9 20 10 21 11
REMARK SMILES IDX 5 12 6 13 7 14 8 15 9 17 11 18 12 19 17 20 19 21 15 22 14 23
REMARK SMILES IDX 13 24 18 25 16 26 10 28 3 30 4 31 2 32 1 33 24 34 25 35
REMARK SMILES IDX 26 36 27 38 28 39 29 40 30 41 31 42 32 43 33 44 34 45 40 50
REMARK SMILES IDX 41 51 42 52 43 53 44 54
REMARK H PARENT 6 16 16 27 10 29 26 37 33 46 33 47 34 48 34 49 44 55
ROOT
ATOM      1  N   UNL     1      -9.746   4.270   3.060  1.00  0.00    -0.326 N 
ATOM      2  C   UNL     1      -9.747   1.991   3.649  1.00  0.00     0.014 C 
ATOM      3  C   UNL     1      -9.273   2.971   2.573  1.00  0.00     0.091 C 
ATOM      4  C   UNL     1     -11.071   2.594   4.092  1.00  0.00     0.041 C 
ATOM      5  C   UNL     1     -10.670   4.076   4.205  1.00  0.00     0.175 C 
ATOM      6  C   UNL     1      -7.771   2.778   2.370  1.00  0.00     0.059 C 
ATOM      7  C   UNL     1      -9.715   0.565   3.135  1.00  0.00     0.008 C 
ATOM      8  C   UNL     1      -7.295   1.327   2.601  1.00  0.00     0.143 C 
ATOM      9  C   UNL     1      -8.417   0.301   2.342  1.00  0.00     0.034 C 
ENDROOT
BRANCH   1  10
ATOM     10  C   UNL     1      -9.628   5.528   2.494  1.00  0.00     0.246 C 
ATOM     11  O   UNL     1      -8.726   6.278   2.879  1.00  0.00    -0.272 OA
BRANCH  10  12
ATOM     12  C   UNL     1     -10.604   5.952   1.358  1.00  0.00     0.174 C 
BRANCH  12  13
ATOM     13  N   UNL     1     -10.227   5.297   0.106  1.00  0.00    -0.342 N 
ATOM     14  C   UNL     1     -10.844   4.185  -0.422  1.00  0.00     0.249 C 
ATOM     15  O   UNL     1     -11.807   3.631   0.093  1.00  0.00    -0.272 OA
ATOM     16  H   UNL     1      -9.353   5.547  -0.350  1.00  0.00     0.164 HD
BRANCH  14  17
ATOM     17  C   UNL     1     -10.203   3.721  -1.747  1.00  0.00     0.207 C 
BRANCH  17  18
ATOM     18  C   UNL     1      -8.753   4.208  -1.841  1.00  0.00     0.077 C 
BRANCH  18  19
ATOM     19  C   UNL     1      -7.770   3.116  -1.485  1.00  0.00    -0.043 A 
ATOM     20  C   UNL     1      -7.286   0.775  -1.071  1.00  0.00     0.083 A 
ATOM     21  C   UNL     1      -8.183   1.775  -1.448  1.00  0.00     0.028 A 
ATOM     22  C   UNL     1      -5.974   1.107  -0.728  1.00  0.00     0.134 A 
ATOM     23  C   UNL     1      -5.552   2.431  -0.761  1.00  0.00     0.048 A 
ATOM     24  C   UNL     1      -6.448   3.434  -1.136  1.00  0.00     0.008 A 
ATOM     25  Cl  UNL     1      -7.812  -0.867  -1.031  1.00  0.00    -0.080 Cl
BRANCH  22  26
ATOM     26  O   UNL     1      -5.062   0.163  -0.342  1.00  0.00    -0.506 OA
ATOM     27  H   UNL     1      -4.502   0.577   0.340  1.00  0.00     0.293 HD
ENDBRANCH  22  26
ENDBRANCH  18  19
ENDBRANCH  17  18
BRANCH  17  28
ATOM     28  O   UNL     1     -10.943   4.208  -2.878  1.00  0.00    -0.383 OA
ATOM     29  H   UNL     1     -11.782   4.575  -2.517  1.00  0.00     0.211 HD
ENDBRANCH  17  28
ENDBRANCH  14  17
ENDBRANCH  12  13
BRANCH  12  30
ATOM     30  C   UNL     1     -10.719   7.493   1.210  1.00  0.00     0.018 C 
ATOM     31  C   UNL     1     -11.709   8.068   2.234  1.00  0.00     0.010 C 
BRANCH  30  32
ATOM     32  C   UNL     1     -11.103   7.953  -0.218  1.00  0.00     0.002 C 
ATOM     33  C   UNL     1     -12.549   7.692  -0.619  1.00  0.00     0.004 C 
ENDBRANCH  30  32
ENDBRANCH  12  30
ENDBRANCH  10  12
ENDBRANCH   1  10
BRANCH   5  34
ATOM     34  C   UNL     1      -9.952   4.374   5.548  1.00  0.00     0.242 C 
ATOM     35  O   UNL     1      -9.919   3.560   6.471  1.00  0.00    -0.273 OA
ATOM     36  N   UNL     1      -9.403   5.632   5.653  1.00  0.00    -0.354 N 
ATOM     37  H   UNL     1      -9.567   6.304   4.902  1.00  0.00     0.163 HD
BRANCH  36  38
ATOM     38  C   UNL     1      -8.518   6.002   6.738  1.00  0.00     0.116 C 
BRANCH  38  39
ATOM     39  C   UNL     1      -7.191   6.506   6.176  1.00  0.00     0.023 C 
BRANCH  39  40
ATOM     40  C   UNL     1      -6.488   5.462   5.316  1.00  0.00     0.026 C 
BRANCH  40  41
ATOM     41  C   UNL     1      -5.309   6.081   4.566  1.00  0.00     0.146 C 
BRANCH  41  42
ATOM     42  N   UNL     1      -5.091   5.367   3.315  1.00  0.00    -0.254 NA
ATOM     43  C   UNL     1      -4.463   4.251   3.324  1.00  0.00     0.185 C 
ATOM     44  N   UNL     1      -3.930   3.566   4.352  1.00  0.00    -0.370 N 
ATOM     45  N   UNL     1      -4.269   3.611   2.159  1.00  0.00    -0.370 N 
ATOM     46  H   UNL     1      -3.259   2.835   4.189  1.00  0.00     0.159 HD
ATOM     47  H   UNL     1      -3.999   3.902   5.308  1.00  0.00     0.159 HD
ATOM     48  H   UNL     1      -4.647   4.056   1.334  1.00  0.00     0.159 HD
ATOM     49  H   UNL     1      -4.006   2.643   2.109  1.00  0.00     0.159 HD
ENDBRANCH  41  42
ENDBRANCH  40  41
ENDBRANCH  39  40
ENDBRANCH  38  39
ENDBRANCH  36  38
ENDBRANCH   5  34
BRANCH   8  50
ATOM     50  O   UNL     1      -6.838   1.169   3.945  1.00  0.00    -0.245 OA
BRANCH  50  51
ATOM     51  S   UNL     1      -5.448   0.374   4.231  1.00  0.00     0.397 S 
ATOM     52  O   UNL     1      -4.499   0.750   3.207  1.00  0.00    -0.169 OA
ATOM     53  O   UNL     1      -5.734  -1.014   4.528  1.00  0.00    -0.169 OA
BRANCH  51  54
ATOM     54  O   UNL     1      -4.933   1.075   5.584  1.00  0.00    -0.264 OA
ATOM     55  H   UNL     1      -3.996   1.326   5.452  1.00  0.00     0.236 HD
ENDBRANCH  51  54
ENDBRANCH  50  51
ENDBRANCH   8  50
TORSDOF 19
ENDMDL
MODEL 10
REMARK VINA RESULT:    -5.166      3.309      7.023
REMARK INTER + INTRA:         -15.836
REMARK INTER:                 -12.698
REMARK INTRA:                  -3.138
REMARK UNBOUND:                -5.385
REMARK SMILES CC[C@@H](C)[C@@H](NC(=O)[C@@H](O)Cc1ccc(O)c(Cl)c1)C(=O)N1[C@H](C(=O)NCCCCN=C(N)N)C[C@H]2CC[C@H](OS(=O)(=O)O)C[C@@H]21
REMARK SMILES IDX 22 1 36 2 46 3 35 4 23 5 45 6 37 7 39 8 38 9 20 10 21 11
REMARK SMILES IDX 5 12 6 13 7 14 8 15 9 17 11 18 12 19 17 20 19 21 15 22 14 23
REMARK SMILES IDX 13 24 18 25 16 26 10 28 3 30 4 31 2 32 1 33 24 34 25 35
REMARK SMILES IDX 26 36 27 38 28 39 29 40 30 41 31 42 32 43 33 44 34 45 40 50
REMARK SMILES IDX 41 51 42 52 43 53 44 54
REMARK H PARENT 6 16 16 27 10 29 26 37 33 46 33 47 34 48 34 49 44 55
ROOT
ATOM      1  N   UNL     1      -8.677   1.015   2.703  1.00  0.00    -0.326 N 
ATOM      2  C   UNL     1      -9.466  -0.466   1.053  1.00  0.00     0.014 C 
ATOM      3  C   UNL     1      -8.338  -0.262   2.068  1.00  0.00     0.091 C 
ATOM      4  C   UNL     1      -9.770   0.953   0.598  1.00  0.00     0.041 C 
ATOM      5  C   UNL     1      -9.774   1.678   1.957  1.00  0.00     0.175 C 
ATOM      6  C   UNL     1      -8.248  -1.507   2.948  1.00  0.00     0.059 C 
ATOM      7  C   UNL     1      -9.085  -1.511   0.022  1.00  0.00     0.008 C 
ATOM      8  C   UNL     1      -8.638  -2.812   2.220  1.00  0.00     0.143 C 
ATOM      9  C   UNL     1      -8.402  -2.719   0.698  1.00  0.00     0.034 C 
ENDROOT
BRANCH   1  10
ATOM     10  C   UNL     1      -8.008   1.721   3.688  1.00  0.00     0.246 C 
ATOM     11  O   UNL     1      -8.343   1.571   4.868  1.00  0.00    -0.272 OA
BRANCH  10  12
ATOM     12  C   UNL     1      -6.824   2.652   3.295  1.00  0.00     0.174 C 
BRANCH  12  13
ATOM     13  N   UNL     1      -6.199   2.172   2.063  1.00  0.00    -0.342 N 
ATOM     14  C   UNL     1      -6.023   2.921   0.922  1.00  0.00     0.249 C 
ATOM     15  O   UNL     1      -6.350   4.097   0.821  1.00  0.00    -0.272 OA
ATOM     16  H   UNL     1      -6.021   1.178   1.944  1.00  0.00     0.164 HD
BRANCH  14  17
ATOM     17  C   UNL     1      -5.348   2.125  -0.215  1.00  0.00     0.207 C 
BRANCH  17  18
ATOM     18  C   UNL     1      -6.395   1.348  -1.019  1.00  0.00     0.077 C 
BRANCH  18  19
ATOM     19  C   UNL     1      -6.769   2.065  -2.297  1.00  0.00    -0.043 A 
ATOM     20  C   UNL     1      -8.434   3.146  -3.691  1.00  0.00     0.083 A 
ATOM     21  C   UNL     1      -8.080   2.529  -2.491  1.00  0.00     0.028 A 
ATOM     22  C   UNL     1      -7.486   3.303  -4.702  1.00  0.00     0.134 A 
ATOM     23  C   UNL     1      -6.184   2.848  -4.523  1.00  0.00     0.048 A 
ATOM     24  C   UNL     1      -5.827   2.228  -3.324  1.00  0.00     0.008 A 
ATOM     25  Cl  UNL     1     -10.049   3.709  -3.910  1.00  0.00    -0.080 Cl
BRANCH  22  26
ATOM     26  O   UNL     1      -7.789   3.893  -5.899  1.00  0.00    -0.506 OA
ATOM     27  H   UNL     1      -6.944   4.027  -6.367  1.00  0.00     0.293 HD
ENDBRANCH  22  26
ENDBRANCH  18  19
ENDBRANCH  17  18
BRANCH  17  28
ATOM     28  O   UNL     1      -4.369   1.211   0.304  1.00  0.00    -0.383 OA
ATOM     29  H   UNL     1      -4.858   0.384   0.520  1.00  0.00     0.211 HD
ENDBRANCH  17  28
ENDBRANCH  14  17
ENDBRANCH  12  13
BRANCH  12  30
ATOM     30  C   UNL     1      -5.799   2.838   4.446  1.00  0.00     0.018 C 
ATOM     31  C   UNL     1      -5.314   4.294   4.517  1.00  0.00     0.010 C 
BRANCH  30  32
ATOM     32  C   UNL     1      -4.588   1.878   4.360  1.00  0.00     0.002 C 
ATOM     33  C   UNL     1      -4.820   0.483   4.927  1.00  0.00     0.004 C 
ENDBRANCH  30  32
ENDBRANCH  12  30
ENDBRANCH  10  12
ENDBRANCH   1  10
BRANCH   5  34
ATOM     34  C   UNL     1     -11.127   1.501   2.695  1.00  0.00     0.242 C 
ATOM     35  O   UNL     1     -12.210   1.652   2.130  1.00  0.00    -0.273 OA
ATOM     36  N   UNL     1     -11.028   1.217   4.039  1.00  0.00    -0.354 N 
ATOM     37  H   UNL     1     -10.106   1.222   4.476  1.00  0.00     0.163 HD
BRANCH  36  38
ATOM     38  C   UNL     1     -12.171   0.810   4.830  1.00  0.00     0.116 C 
BRANCH  38  39
ATOM     39  C   UNL     1     -12.117   1.478   6.202  1.00  0.00     0.023 C 
BRANCH  39  40
ATOM     40  C   UNL     1     -11.846   2.976   6.110  1.00  0.00     0.026 C 
BRANCH  40  41
ATOM     41  C   UNL     1     -10.522   3.330   6.787  1.00  0.00     0.146 C 
BRANCH  41  42
ATOM     42  N   UNL     1     -10.761   4.272   7.873  1.00  0.00    -0.254 NA
ATOM     43  C   UNL     1      -9.934   5.228   8.074  1.00  0.00     0.185 C 
ATOM     44  N   UNL     1      -8.802   5.546   7.419  1.00  0.00    -0.370 N 
ATOM     45  N   UNL     1     -10.169   6.084   9.083  1.00  0.00    -0.370 N 
ATOM     46  H   UNL     1      -8.128   6.168   7.832  1.00  0.00     0.159 HD
ATOM     47  H   UNL     1      -8.481   5.011   6.618  1.00  0.00     0.159 HD
ATOM     48  H   UNL     1     -11.008   5.920   9.623  1.00  0.00     0.159 HD
ATOM     49  H   UNL     1      -9.713   6.976   9.157  1.00  0.00     0.159 HD
ENDBRANCH  41  42
ENDBRANCH  40  41
ENDBRANCH  39  40
ENDBRANCH  38  39
ENDBRANCH  36  38
ENDBRANCH   5  34
BRANCH   8  50
ATOM     50  O   UNL     1     -10.016  -3.108   2.448  1.00  0.00    -0.245 OA
BRANCH  50  51
ATOM     51  S   UNL     1     -10.436  -4.063   3.696  1.00  0.00     0.397 S 
ATOM     52  O   UNL     1     -11.063  -5.250   3.159  1.00  0.00    -0.169 OA
ATOM     53  O   UNL     1     -11.072  -3.266   4.725  1.00  0.00    -0.169 OA
BRANCH  51  54
ATOM     54  O   UNL     1      -9.003  -4.538   4.252  1.00  0.00    -0.264 OA
ATOM     55  H   UNL     1      -8.653  -5.212   3.635  1.00  0.00     0.236 HD
ENDBRANCH  51  54
ENDBRANCH  50  51
ENDBRANCH   8  50
TORSDOF 19
ENDMDL
