MODEL 1
REMARK VINA RESULT:    -7.879      0.000      0.000
REMARK INTER + INTRA:         -29.232
REMARK INTER:                 -23.540
REMARK INTRA:                  -5.692
REMARK UNBOUND:                -5.692
REMARK SMILES C=C1C(=O)N[C@H](C)C(=O)N[C@@H](CC(C)C)C(=O)N[C@@H](C(=O)O)[C@H](C)C(=O)N[C@@H](CCCN=C(N)N)C(=O)N[C@@H](/C=C/C(C)=C/[C@H](C)[C@H](Cc2ccccc2)OC)[C@H](C)C(=O)N[C@@H](C(=O)O)CCC(=O)N1C
REMARK SMILES IDX 39 1 38 2 37 3 36 4 28 6 27 7 25 8 26 9 23 11 24 12 19 13
REMARK SMILES IDX 18 14 16 15 17 16 11 18 10 19 8 20 9 21 12 24 13 25 14 26
REMARK SMILES IDX 15 27 20 28 21 29 22 30 29 32 30 33 31 34 32 35 33 36 34 37
REMARK SMILES IDX 35 38 57 43 58 44 59 45 60 46 61 47 62 49 66 50 67 51 68 52
REMARK SMILES IDX 69 53 70 54 71 55 2 56 1 57 3 58 4 59 5 60 6 62 7 63 63 65
REMARK SMILES IDX 64 66 65 67 40 69 41 70 42 71 44 72 43 73 45 74 46 75 47 76
REMARK SMILES IDX 55 77 56 78 48 79 49 80 50 81 54 82 51 83 53 84 52 85
REMARK H PARENT 38 5 27 10 18 17 10 22 22 31 34 39 34 40 35 41 35 42 61 48
REMARK H PARENT 5 61 65 68
REMARK Flexibility Score:  369.900
ROOT
ATOM      1  C   UNL     1      -1.131  -6.279  -0.344  1.00  0.00     0.117 C 
ENDROOT
BRANCH   1   2
ATOM      2  N   UNL     1      -1.872  -6.094   0.904  1.00  0.00    -0.347 N 
ATOM      3  O   UNL     1      -0.174  -6.624   2.356  1.00  0.00    -0.273 OA
ATOM      4  C   UNL     1      -1.306  -6.193   2.161  1.00  0.00     0.243 C 
ATOM      5  H   UNL     1      -2.844  -5.830   0.868  1.00  0.00     0.164 HD
BRANCH   4   6
ATOM      6  C   UNL     1      -2.288  -5.867   3.314  1.00  0.00     0.171 C 
BRANCH   6   7
ATOM      7  N   UNL     1      -3.369  -6.864   3.367  1.00  0.00    -0.344 N 
ATOM      8  C   UNL     1      -4.593  -6.546   3.915  1.00  0.00     0.226 C 
ATOM      9  O   UNL     1      -4.834  -5.446   4.397  1.00  0.00    -0.275 OA
ATOM     10  H   UNL     1      -3.186  -7.804   3.039  1.00  0.00     0.164 HD
BRANCH   8  11
ATOM     11  C   UNL     1      -5.619  -7.663   3.845  1.00  0.00     0.109 C 
ATOM     12  C   UNL     1      -5.326  -8.573   2.652  1.00  0.00     0.021 C 
BRANCH  11  13
ATOM     13  C   UNL     1      -5.698  -8.383   5.206  1.00  0.00     0.204 C 
BRANCH  13  14
ATOM     14  N   UNL     1      -6.259  -7.524   6.253  1.00  0.00    -0.340 N 
ATOM     15  C   UNL     1      -5.597  -7.251   7.431  1.00  0.00     0.243 C 
ATOM     16  O   UNL     1      -4.461  -7.662   7.661  1.00  0.00    -0.273 OA
ATOM     17  H   UNL     1      -7.250  -7.278   6.193  1.00  0.00     0.164 HD
BRANCH  15  18
ATOM     18  C   UNL     1      -6.466  -6.497   8.468  1.00  0.00     0.171 C 
BRANCH  18  19
ATOM     19  N   UNL     1      -7.858  -6.696   8.072  1.00  0.00    -0.343 N 
ATOM     20  C   UNL     1      -8.502  -7.904   8.253  1.00  0.00     0.242 CG0
ATOM     21  O   UNL     1      -7.897  -8.905   8.632  1.00  0.00    -0.273 OA
ATOM     22  H   UNL     1      -8.368  -5.930   7.646  1.00  0.00     0.164 HD
ATOM     23  G   UNL     1      -9.990  -7.900   7.847  1.00  0.00     0.000 G0
ENDBRANCH  18  19
BRANCH  18  24
ATOM     24  C   UNL     1      -6.203  -7.027   9.883  1.00  0.00     0.038 C 
BRANCH  24  25
ATOM     25  C   UNL     1      -5.831  -5.944  10.918  1.00  0.00    -0.015 C 
ATOM     26  C   UNL     1      -5.081  -6.517  12.121  1.00  0.00     0.007 C 
ATOM     27  C   UNL     1      -7.100  -5.230  11.394  1.00  0.00     0.007 C 
ENDBRANCH  24  25
ENDBRANCH  18  24
ENDBRANCH  15  18
ENDBRANCH  13  14
BRANCH  13  28
ATOM     28  C   UNL     1      -6.544  -9.660   5.165  1.00  0.00     0.327 C 
ATOM     29  O   UNL     1      -7.745  -9.724   4.951  1.00  0.00    -0.250 OA
BRANCH  28  30
ATOM     30  O   UNL     1      -5.853 -10.764   5.513  1.00  0.00    -0.480 OA
ATOM     31  H   UNL     1      -5.356 -10.495   6.314  1.00  0.00     0.296 HD
ENDBRANCH  28  30
ENDBRANCH  13  28
ENDBRANCH  11  13
ENDBRANCH   8  11
ENDBRANCH   6   7
BRANCH   6  32
ATOM     32  C   UNL     1      -1.515  -5.827   4.637  1.00  0.00     0.037 C 
BRANCH  32  33
ATOM     33  C   UNL     1      -1.093  -4.401   5.018  1.00  0.00     0.026 C 
BRANCH  33  34
ATOM     34  C   UNL     1      -1.533  -3.364   3.984  1.00  0.00     0.146 C 
BRANCH  34  35
ATOM     35  N   UNL     1      -0.349  -2.747   3.403  1.00  0.00    -0.254 NA
ATOM     36  C   UNL     1      -0.422  -2.276   2.214  1.00  0.00     0.185 C 
ATOM     37  N   UNL     1       0.661  -1.701   1.670  1.00  0.00    -0.370 N 
ATOM     38  N   UNL     1      -1.473  -2.262   1.374  1.00  0.00    -0.370 N 
ATOM     39  H   UNL     1       1.493  -1.662   2.247  1.00  0.00     0.159 HD
ATOM     40  H   UNL     1       0.638  -1.159   0.824  1.00  0.00     0.159 HD
ATOM     41  H   UNL     1      -1.366  -1.987   0.411  1.00  0.00     0.159 HD
ATOM     42  H   UNL     1      -2.351  -2.675   1.645  1.00  0.00     0.159 HD
ENDBRANCH  34  35
ENDBRANCH  33  34
ENDBRANCH  32  33
ENDBRANCH   6  32
ENDBRANCH   4   6
ENDBRANCH   1   2
BRANCH   1  43
ATOM     43  C   UNL     1      -0.898  -4.884  -0.993  1.00  0.00     0.102 C 
ATOM     44  C   UNL     1      -1.313  -4.820  -2.473  1.00  0.00     0.020 C 
BRANCH  43  45
ATOM     45  C   UNL     1       0.523  -4.382  -0.723  1.00  0.00     0.225 C 
ATOM     46  O   UNL     1       1.252  -4.863   0.140  1.00  0.00    -0.275 OA
ATOM     47  N   UNL     1       0.912  -3.282  -1.453  1.00  0.00    -0.342 N 
ATOM     48  H   UNL     1       0.368  -2.997  -2.256  1.00  0.00     0.164 HD
BRANCH  47  49
ATOM     49  C   UNL     1       2.257  -2.714  -1.327  1.00  0.00     0.192 C 
BRANCH  49  50
ATOM     50  C   UNL     1       2.319  -1.369  -2.055  1.00  0.00     0.047 C 
BRANCH  50  51
ATOM     51  C   UNL     1       3.669  -0.664  -1.861  1.00  0.00     0.103 C 
BRANCH  51  52
ATOM     52  C   UNL     1       4.395  -0.441  -3.186  1.00  0.00     0.226 C 
ATOM     53  O   UNL     1       3.770  -0.018  -4.161  1.00  0.00    -0.275 OA
BRANCH  52  54
ATOM     54  N   UNL     1       5.783  -0.670  -3.186  1.00  0.00    -0.311 N 
ATOM     55  C   UNL     1       6.731   0.430  -2.963  1.00  0.00     0.153 C 
BRANCH  54  56
ATOM     56  C   UNL     1       6.314  -1.954  -3.393  1.00  0.00     0.102 C 
ATOM     57  C   UNL     1       6.786  -2.755  -2.424  1.00  0.00     0.043 C 
BRANCH  56  58
ATOM     58  C   UNL     1       6.351  -2.564  -4.775  1.00  0.00     0.268 C 
ATOM     59  O   UNL     1       7.389  -2.882  -5.339  1.00  0.00    -0.268 OA
ATOM     60  N   UNL     1       5.100  -2.785  -5.300  1.00  0.00    -0.339 N 
ATOM     61  H   UNL     1       4.289  -2.484  -4.773  1.00  0.00     0.164 HD
BRANCH  60  62
ATOM     62  C   UNL     1       4.904  -3.425  -6.601  1.00  0.00     0.168 CG0
ATOM     63  C   UNL     1       4.242  -4.789  -6.445  1.00  0.00     0.041 C 
ATOM     64  G   UNL     1       6.261  -3.556  -7.322  1.00  0.00     0.000 G0
ENDBRANCH  60  62
ENDBRANCH  56  58
ENDBRANCH  54  56
ENDBRANCH  52  54
ENDBRANCH  51  52
ENDBRANCH  50  51
ENDBRANCH  49  50
BRANCH  49  65
ATOM     65  C   UNL     1       3.326  -3.656  -1.904  1.00  0.00     0.326 C 
ATOM     66  O   UNL     1       3.476  -3.918  -3.088  1.00  0.00    -0.250 OA
BRANCH  65  67
ATOM     67  O   UNL     1       4.104  -4.261  -0.979  1.00  0.00    -0.480 OA
ATOM     68  H   UNL     1       4.223  -3.571  -0.291  1.00  0.00     0.296 HD
ENDBRANCH  65  67
ENDBRANCH  49  65
ENDBRANCH  47  49
ENDBRANCH  43  45
ENDBRANCH   1  43
BRANCH   1  69
ATOM     69  C   UNL     1      -1.883  -7.337  -1.131  1.00  0.00    -0.001 C 
ATOM     70  C   UNL     1      -3.099  -7.845  -0.862  1.00  0.00     0.001 C 
BRANCH  70  71
ATOM     71  C   UNL     1      -3.824  -8.851  -1.640  1.00  0.00    -0.055 C 
ATOM     72  C   UNL     1      -3.127  -9.913  -2.097  1.00  0.00    -0.018 C 
ATOM     73  C   UNL     1      -5.297  -8.634  -1.870  1.00  0.00     0.044 C 
BRANCH  72  74
ATOM     74  C   UNL     1      -3.610 -11.100  -2.919  1.00  0.00     0.038 C 
ATOM     75  C   UNL     1      -2.979 -12.358  -2.310  1.00  0.00     0.015 C 
BRANCH  74  76
ATOM     76  C   UNL     1      -3.256 -10.850  -4.415  1.00  0.00     0.128 C 
BRANCH  76  77
ATOM     77  O   UNL     1      -4.460 -10.741  -5.192  1.00  0.00    -0.381 OA
ATOM     78  C   UNL     1      -4.761 -11.908  -5.946  1.00  0.00     0.195 C 
ENDBRANCH  76  77
BRANCH  76  79
ATOM     79  C   UNL     1      -2.286  -9.663  -4.642  1.00  0.00     0.068 C 
BRANCH  79  80
ATOM     80  C   UNL     1      -2.819  -8.440  -5.349  1.00  0.00    -0.045 A 
ATOM     81  C   UNL     1      -2.877  -8.382  -6.748  1.00  0.00     0.004 A 
ATOM     82  C   UNL     1      -3.240  -7.324  -4.610  1.00  0.00     0.004 A 
ATOM     83  C   UNL     1      -3.358  -7.241  -7.394  1.00  0.00     0.000 A 
ATOM     84  C   UNL     1      -3.720  -6.184  -5.257  1.00  0.00     0.000 A 
ATOM     85  C   UNL     1      -3.781  -6.143  -6.648  1.00  0.00     0.000 A 
ENDBRANCH  79  80
ENDBRANCH  76  79
ENDBRANCH  74  76
ENDBRANCH  72  74
ENDBRANCH  70  71
ENDBRANCH   1  69
TORSDOF 17
ENDMDL
MODEL 2
REMARK VINA RESULT:    -7.857      1.804      2.563
REMARK INTER + INTRA:         -29.165
REMARK INTER:                 -22.609
REMARK INTRA:                  -6.556
REMARK UNBOUND:                -5.692
REMARK SMILES C=C1C(=O)N[C@H](C)C(=O)N[C@@H](CC(C)C)C(=O)N[C@@H](C(=O)O)[C@H](C)C(=O)N[C@@H](CCCN=C(N)N)C(=O)N[C@@H](/C=C/C(C)=C/[C@H](C)[C@H](Cc2ccccc2)OC)[C@H](C)C(=O)N[C@@H](C(=O)O)CCC(=O)N1C
REMARK SMILES IDX 39 1 38 2 37 3 36 4 28 6 27 7 25 8 26 9 23 11 24 12 19 13
REMARK SMILES IDX 18 14 16 15 17 16 11 18 10 19 8 20 9 21 12 24 13 25 14 26
REMARK SMILES IDX 15 27 20 28 21 29 22 30 29 32 30 33 31 34 32 35 33 36 34 37
REMARK SMILES IDX 35 38 57 43 58 44 59 45 60 46 61 47 62 49 66 50 67 51 68 52
REMARK SMILES IDX 69 53 70 54 71 55 2 56 1 57 3 58 4 59 5 60 6 62 7 63 63 65
REMARK SMILES IDX 64 66 65 67 40 69 41 70 42 71 44 72 43 73 45 74 46 75 47 76
REMARK SMILES IDX 55 77 56 78 48 79 49 80 50 81 54 82 51 83 53 84 52 85
REMARK H PARENT 38 5 27 10 18 17 10 22 22 31 34 39 34 40 35 41 35 42 61 48
REMARK H PARENT 5 61 65 68
REMARK Flexibility Score:  369.900
ROOT
ATOM      1  C   UNL     1      -0.888  -7.025  -0.526  1.00  0.00     0.117 C 
ENDROOT
BRANCH   1   2
ATOM      2  N   UNL     1      -1.643  -6.649   0.670  1.00  0.00    -0.347 N 
ATOM      3  O   UNL     1       0.099  -6.688   2.165  1.00  0.00    -0.273 OA
ATOM      4  C   UNL     1      -1.070  -6.421   1.906  1.00  0.00     0.243 C 
ATOM      5  H   UNL     1      -2.637  -6.494   0.599  1.00  0.00     0.164 HD
BRANCH   4   6
ATOM      6  C   UNL     1      -2.079  -5.951   2.984  1.00  0.00     0.171 C 
BRANCH   6   7
ATOM      7  N   UNL     1      -3.179  -6.920   3.117  1.00  0.00    -0.344 N 
ATOM      8  C   UNL     1      -4.346  -6.575   3.763  1.00  0.00     0.226 C 
ATOM      9  O   UNL     1      -4.518  -5.474   4.272  1.00  0.00    -0.275 OA
ATOM     10  H   UNL     1      -3.047  -7.862   2.769  1.00  0.00     0.164 HD
BRANCH   8  11
ATOM     11  C   UNL     1      -5.404  -7.665   3.769  1.00  0.00     0.109 C 
ATOM     12  C   UNL     1      -5.231  -8.572   2.551  1.00  0.00     0.021 C 
BRANCH  11  13
ATOM     13  C   UNL     1      -5.394  -8.394   5.127  1.00  0.00     0.204 C 
BRANCH  13  14
ATOM     14  N   UNL     1      -6.176  -7.681   6.142  1.00  0.00    -0.340 N 
ATOM     15  C   UNL     1      -5.649  -7.290   7.354  1.00  0.00     0.243 C 
ATOM     16  O   UNL     1      -4.466  -7.459   7.646  1.00  0.00    -0.273 OA
ATOM     17  H   UNL     1      -7.192  -7.645   6.028  1.00  0.00     0.164 HD
BRANCH  15  18
ATOM     18  C   UNL     1      -6.709  -6.743   8.342  1.00  0.00     0.171 C 
BRANCH  18  19
ATOM     19  N   UNL     1      -7.247  -7.897   9.059  1.00  0.00    -0.343 N 
ATOM     20  C   UNL     1      -8.352  -8.589   8.602  1.00  0.00     0.242 CG0
ATOM     21  O   UNL     1      -9.012  -8.189   7.646  1.00  0.00    -0.273 OA
ATOM     22  H   UNL     1      -6.805  -8.198   9.920  1.00  0.00     0.164 HD
ATOM     23  G   UNL     1      -8.725  -9.824   9.448  1.00  0.00     0.000 G0
ENDBRANCH  18  19
BRANCH  18  24
ATOM     24  C   UNL     1      -6.080  -5.727   9.303  1.00  0.00     0.038 C 
BRANCH  24  25
ATOM     25  C   UNL     1      -5.991  -6.197  10.770  1.00  0.00    -0.015 C 
ATOM     26  C   UNL     1      -7.015  -5.505  11.670  1.00  0.00     0.007 C 
ATOM     27  C   UNL     1      -4.579  -5.945  11.306  1.00  0.00     0.007 C 
ENDBRANCH  24  25
ENDBRANCH  18  24
ENDBRANCH  15  18
ENDBRANCH  13  14
BRANCH  13  28
ATOM     28  C   UNL     1      -5.945  -9.821   5.050  1.00  0.00     0.327 C 
ATOM     29  O   UNL     1      -7.124 -10.140   5.012  1.00  0.00    -0.250 OA
BRANCH  28  30
ATOM     30  O   UNL     1      -4.986 -10.764   5.145  1.00  0.00    -0.480 OA
ATOM     31  H   UNL     1      -4.914 -10.939   6.106  1.00  0.00     0.296 HD
ENDBRANCH  28  30
ENDBRANCH  13  28
ENDBRANCH  11  13
ENDBRANCH   8  11
ENDBRANCH   6   7
BRANCH   6  32
ATOM     32  C   UNL     1      -1.345  -5.771   4.318  1.00  0.00     0.037 C 
BRANCH  32  33
ATOM     33  C   UNL     1      -1.258  -4.297   4.737  1.00  0.00     0.026 C 
BRANCH  33  34
ATOM     34  C   UNL     1      -1.563  -3.342   3.582  1.00  0.00     0.146 C 
BRANCH  34  35
ATOM     35  N   UNL     1      -0.327  -2.690   3.172  1.00  0.00    -0.254 NA
ATOM     36  C   UNL     1      -0.104  -2.527   1.921  1.00  0.00     0.185 C 
ATOM     37  N   UNL     1       1.030  -1.924   1.532  1.00  0.00    -0.370 N 
ATOM     38  N   UNL     1      -0.868  -2.885   0.874  1.00  0.00    -0.370 N 
ATOM     39  H   UNL     1       1.655  -1.615   2.266  1.00  0.00     0.159 HD
ATOM     40  H   UNL     1       1.196  -1.606   0.593  1.00  0.00     0.159 HD
ATOM     41  H   UNL     1      -0.518  -2.828  -0.069  1.00  0.00     0.159 HD
ATOM     42  H   UNL     1      -1.743  -3.363   1.017  1.00  0.00     0.159 HD
ENDBRANCH  34  35
ENDBRANCH  33  34
ENDBRANCH  32  33
ENDBRANCH   6  32
ENDBRANCH   4   6
ENDBRANCH   1   2
BRANCH   1  43
ATOM     43  C   UNL     1      -0.281  -5.737  -1.153  1.00  0.00     0.102 C 
ATOM     44  C   UNL     1      -1.053  -5.233  -2.384  1.00  0.00     0.020 C 
BRANCH  43  45
ATOM     45  C   UNL     1       1.225  -5.897  -1.386  1.00  0.00     0.225 C 
ATOM     46  O   UNL     1       2.073  -5.456  -0.616  1.00  0.00    -0.275 OA
ATOM     47  N   UNL     1       1.580  -6.491  -2.576  1.00  0.00    -0.342 N 
ATOM     48  H   UNL     1       0.882  -6.978  -3.120  1.00  0.00     0.164 HD
BRANCH  47  49
ATOM     49  C   UNL     1       2.983  -6.741  -2.918  1.00  0.00     0.192 C 
BRANCH  49  50
ATOM     50  C   UNL     1       3.492  -5.634  -3.845  1.00  0.00     0.047 C 
BRANCH  50  51
ATOM     51  C   UNL     1       4.738  -4.933  -3.285  1.00  0.00     0.103 C 
BRANCH  51  52
ATOM     52  C   UNL     1       4.687  -3.420  -3.492  1.00  0.00     0.226 C 
ATOM     53  O   UNL     1       4.527  -2.965  -4.626  1.00  0.00    -0.275 OA
BRANCH  52  54
ATOM     54  N   UNL     1       4.752  -2.626  -2.332  1.00  0.00    -0.311 N 
ATOM     55  C   UNL     1       5.651  -2.977  -1.225  1.00  0.00     0.153 C 
BRANCH  54  56
ATOM     56  C   UNL     1       3.967  -1.469  -2.192  1.00  0.00     0.102 C 
ATOM     57  C   UNL     1       2.708  -1.447  -1.726  1.00  0.00     0.043 C 
BRANCH  56  58
ATOM     58  C   UNL     1       4.528  -0.107  -2.527  1.00  0.00     0.268 C 
ATOM     59  O   UNL     1       4.597   0.807  -1.717  1.00  0.00    -0.268 OA
ATOM     60  N   UNL     1       5.010  -0.023  -3.812  1.00  0.00    -0.339 N 
ATOM     61  H   UNL     1       4.906  -0.823  -4.425  1.00  0.00     0.164 HD
BRANCH  60  62
ATOM     62  C   UNL     1       5.653   1.186  -4.325  1.00  0.00     0.168 CG0
ATOM     63  C   UNL     1       7.152   1.167  -4.052  1.00  0.00     0.041 C 
ATOM     64  G   UNL     1       4.997   2.429  -3.689  1.00  0.00     0.000 G0
ENDBRANCH  60  62
ENDBRANCH  56  58
ENDBRANCH  54  56
ENDBRANCH  52  54
ENDBRANCH  51  52
ENDBRANCH  50  51
ENDBRANCH  49  50
BRANCH  49  65
ATOM     65  C   UNL     1       3.165  -8.103  -3.605  1.00  0.00     0.326 C 
ATOM     66  O   UNL     1       2.388  -8.604  -4.406  1.00  0.00    -0.250 OA
BRANCH  65  67
ATOM     67  O   UNL     1       4.263  -8.789  -3.217  1.00  0.00    -0.480 OA
ATOM     68  H   UNL     1       3.895  -9.552  -2.721  1.00  0.00     0.296 HD
ENDBRANCH  65  67
ENDBRANCH  49  65
ENDBRANCH  47  49
ENDBRANCH  43  45
ENDBRANCH   1  43
BRANCH   1  69
ATOM     69  C   UNL     1      -1.821  -7.880  -1.364  1.00  0.00    -0.001 C 
ATOM     70  C   UNL     1      -3.110  -8.171  -1.113  1.00  0.00     0.001 C 
BRANCH  70  71
ATOM     71  C   UNL     1      -4.006  -8.980  -1.941  1.00  0.00    -0.055 C 
ATOM     72  C   UNL     1      -3.480 -10.048  -2.578  1.00  0.00    -0.018 C 
ATOM     73  C   UNL     1      -5.453  -8.568  -2.018  1.00  0.00     0.044 C 
BRANCH  72  74
ATOM     74  C   UNL     1      -4.162 -11.057  -3.491  1.00  0.00     0.038 C 
ATOM     75  C   UNL     1      -3.973 -12.440  -2.857  1.00  0.00     0.015 C 
BRANCH  74  76
ATOM     76  C   UNL     1      -3.576 -10.910  -4.926  1.00  0.00     0.128 C 
BRANCH  76  77
ATOM     77  O   UNL     1      -3.609 -12.179  -5.602  1.00  0.00    -0.381 OA
ATOM     78  C   UNL     1      -4.537 -12.228  -6.677  1.00  0.00     0.195 C 
ENDBRANCH  76  77
BRANCH  76  79
ATOM     79  C   UNL     1      -4.220  -9.771  -5.756  1.00  0.00     0.068 C 
BRANCH  79  80
ATOM     80  C   UNL     1      -3.521  -8.434  -5.784  1.00  0.00    -0.045 A 
ATOM     81  C   UNL     1      -4.093  -7.307  -5.179  1.00  0.00     0.004 A 
ATOM     82  C   UNL     1      -2.291  -8.293  -6.445  1.00  0.00     0.004 A 
ATOM     83  C   UNL     1      -3.447  -6.070  -5.222  1.00  0.00     0.000 A 
ATOM     84  C   UNL     1      -1.645  -7.055  -6.487  1.00  0.00     0.000 A 
ATOM     85  C   UNL     1      -2.222  -5.945  -5.875  1.00  0.00     0.000 A 
ENDBRANCH  79  80
ENDBRANCH  76  79
ENDBRANCH  74  76
ENDBRANCH  72  74
ENDBRANCH  70  71
ENDBRANCH   1  69
TORSDOF 17
ENDMDL
MODEL 3
REMARK VINA RESULT:    -7.726      3.477     13.220
REMARK INTER + INTRA:         -28.776
REMARK INTER:                 -20.812
REMARK INTRA:                  -7.964
REMARK UNBOUND:                -5.692
REMARK SMILES C=C1C(=O)N[C@H](C)C(=O)N[C@@H](CC(C)C)C(=O)N[C@@H](C(=O)O)[C@H](C)C(=O)N[C@@H](CCCN=C(N)N)C(=O)N[C@@H](/C=C/C(C)=C/[C@H](C)[C@H](Cc2ccccc2)OC)[C@H](C)C(=O)N[C@@H](C(=O)O)CCC(=O)N1C
REMARK SMILES IDX 39 1 38 2 37 3 36 4 28 6 27 7 25 8 26 9 23 11 24 12 19 13
REMARK SMILES IDX 18 14 16 15 17 16 11 18 10 19 8 20 9 21 12 24 13 25 14 26
REMARK SMILES IDX 15 27 20 28 21 29 22 30 29 32 30 33 31 34 32 35 33 36 34 37
REMARK SMILES IDX 35 38 57 43 58 44 59 45 60 46 61 47 62 49 66 50 67 51 68 52
REMARK SMILES IDX 69 53 70 54 71 55 2 56 1 57 3 58 4 59 5 60 6 62 7 63 63 65
REMARK SMILES IDX 64 66 65 67 40 69 41 70 42 71 44 72 43 73 45 74 46 75 47 76
REMARK SMILES IDX 55 77 56 78 48 79 49 80 50 81 54 82 51 83 53 84 52 85
REMARK H PARENT 38 5 27 10 18 17 10 22 22 31 34 39 34 40 35 41 35 42 61 48
REMARK H PARENT 5 61 65 68
REMARK Flexibility Score:  369.900
ROOT
ATOM      1  C   UNL     1       0.655  -6.298  -2.807  1.00  0.00     0.117 C 
ENDROOT
BRANCH   1   2
ATOM      2  N   UNL     1       0.502  -6.787  -4.178  1.00  0.00    -0.347 N 
ATOM      3  O   UNL     1       0.374  -9.028  -3.698  1.00  0.00    -0.273 OA
ATOM      4  C   UNL     1       0.281  -8.110  -4.506  1.00  0.00     0.243 C 
ATOM      5  H   UNL     1       0.506  -6.128  -4.941  1.00  0.00     0.164 HD
BRANCH   4   6
ATOM      6  C   UNL     1       0.067  -8.349  -6.023  1.00  0.00     0.171 C 
BRANCH   6   7
ATOM      7  N   UNL     1       1.224  -9.051  -6.601  1.00  0.00    -0.344 N 
ATOM      8  C   UNL     1       2.327  -8.348  -7.037  1.00  0.00     0.226 C 
ATOM      9  O   UNL     1       2.392  -7.126  -6.988  1.00  0.00    -0.275 OA
ATOM     10  H   UNL     1       1.179 -10.055  -6.720  1.00  0.00     0.164 HD
BRANCH   8  11
ATOM     11  C   UNL     1       3.458  -9.219  -7.557  1.00  0.00     0.109 C 
ATOM     12  C   UNL     1       3.747  -8.886  -9.020  1.00  0.00     0.021 C 
BRANCH  11  13
ATOM     13  C   UNL     1       4.673  -9.111  -6.615  1.00  0.00     0.204 C 
BRANCH  13  14
ATOM     14  N   UNL     1       5.266  -7.771  -6.630  1.00  0.00    -0.340 N 
ATOM     15  C   UNL     1       6.614  -7.546  -6.448  1.00  0.00     0.243 C 
ATOM     16  O   UNL     1       7.424  -8.462  -6.320  1.00  0.00    -0.273 OA
ATOM     17  H   UNL     1       4.636  -6.966  -6.579  1.00  0.00     0.164 HD
BRANCH  15  18
ATOM     18  C   UNL     1       6.976  -6.048  -6.295  1.00  0.00     0.171 C 
BRANCH  18  19
ATOM     19  N   UNL     1       7.922  -5.735  -7.365  1.00  0.00    -0.343 N 
ATOM     20  C   UNL     1       7.568  -5.818  -8.698  1.00  0.00     0.242 CG0
ATOM     21  O   UNL     1       6.487  -6.285  -9.049  1.00  0.00    -0.273 OA
ATOM     22  H   UNL     1       8.867  -5.455  -7.127  1.00  0.00     0.164 HD
ATOM     23  G   UNL     1       8.673  -5.374  -9.678  1.00  0.00     0.000 G0
ENDBRANCH  18  19
BRANCH  18  24
ATOM     24  C   UNL     1       5.719  -5.175  -6.384  1.00  0.00     0.038 C 
BRANCH  24  25
ATOM     25  C   UNL     1       5.640  -4.049  -5.331  1.00  0.00    -0.015 C 
ATOM     26  C   UNL     1       4.899  -2.816  -5.847  1.00  0.00     0.007 C 
ATOM     27  C   UNL     1       7.053  -3.656  -4.892  1.00  0.00     0.007 C 
ENDBRANCH  24  25
ENDBRANCH  18  24
ENDBRANCH  15  18
ENDBRANCH  13  14
BRANCH  13  28
ATOM     28  C   UNL     1       4.339  -9.443  -5.157  1.00  0.00     0.327 C 
ATOM     29  O   UNL     1       4.473 -10.529  -4.614  1.00  0.00    -0.250 OA
BRANCH  28  30
ATOM     30  O   UNL     1       3.745  -8.423  -4.505  1.00  0.00    -0.480 OA
ATOM     31  H   UNL     1       4.322  -8.264  -3.730  1.00  0.00     0.296 HD
ENDBRANCH  28  30
ENDBRANCH  13  28
ENDBRANCH  11  13
ENDBRANCH   8  11
ENDBRANCH   6   7
BRANCH   6  32
ATOM     32  C   UNL     1      -1.221  -9.153  -6.229  1.00  0.00     0.037 C 
BRANCH  32  33
ATOM     33  C   UNL     1      -2.358  -8.290  -6.793  1.00  0.00     0.026 C 
BRANCH  33  34
ATOM     34  C   UNL     1      -2.001  -6.804  -6.834  1.00  0.00     0.146 C 
BRANCH  34  35
ATOM     35  N   UNL     1      -2.497  -6.168  -5.622  1.00  0.00    -0.254 NA
ATOM     36  C   UNL     1      -3.629  -5.569  -5.661  1.00  0.00     0.185 C 
ATOM     37  N   UNL     1      -4.098  -4.984  -4.549  1.00  0.00    -0.370 N 
ATOM     38  N   UNL     1      -4.473  -5.426  -6.698  1.00  0.00    -0.370 N 
ATOM     39  H   UNL     1      -3.523  -5.057  -3.719  1.00  0.00     0.159 HD
ATOM     40  H   UNL     1      -5.042  -4.651  -4.451  1.00  0.00     0.159 HD
ATOM     41  H   UNL     1      -5.270  -4.813  -6.641  1.00  0.00     0.159 HD
ATOM     42  H   UNL     1      -4.241  -5.803  -7.604  1.00  0.00     0.159 HD
ENDBRANCH  34  35
ENDBRANCH  33  34
ENDBRANCH  32  33
ENDBRANCH   6  32
ENDBRANCH   4   6
ENDBRANCH   1   2
BRANCH   1  43
ATOM     43  C   UNL     1      -0.601  -5.458  -2.437  1.00  0.00     0.102 C 
ATOM     44  C   UNL     1      -0.287  -4.248  -1.542  1.00  0.00     0.020 C 
BRANCH  43  45
ATOM     45  C   UNL     1      -1.722  -6.353  -1.901  1.00  0.00     0.225 C 
ATOM     46  O   UNL     1      -2.907  -6.179  -2.171  1.00  0.00    -0.275 OA
ATOM     47  N   UNL     1      -1.329  -7.324  -1.008  1.00  0.00    -0.342 N 
ATOM     48  H   UNL     1      -0.349  -7.551  -0.915  1.00  0.00     0.164 HD
BRANCH  47  49
ATOM     49  C   UNL     1      -2.289  -8.276  -0.440  1.00  0.00     0.192 C 
BRANCH  49  50
ATOM     50  C   UNL     1      -2.224  -8.222   1.088  1.00  0.00     0.047 C 
BRANCH  50  51
ATOM     51  C   UNL     1      -1.449  -6.998   1.595  1.00  0.00     0.103 C 
BRANCH  51  52
ATOM     52  C   UNL     1      -2.360  -5.992   2.296  1.00  0.00     0.226 C 
ATOM     53  O   UNL     1      -3.546  -6.270   2.483  1.00  0.00    -0.275 OA
BRANCH  52  54
ATOM     54  N   UNL     1      -1.750  -4.812   2.761  1.00  0.00    -0.311 N 
ATOM     55  C   UNL     1      -1.304  -3.771   1.825  1.00  0.00     0.153 C 
BRANCH  54  56
ATOM     56  C   UNL     1      -1.550  -4.583   4.132  1.00  0.00     0.102 C 
ATOM     57  C   UNL     1      -0.723  -3.656   4.644  1.00  0.00     0.043 C 
BRANCH  56  58
ATOM     58  C   UNL     1      -2.318  -5.367   5.169  1.00  0.00     0.268 C 
ATOM     59  O   UNL     1      -1.846  -6.322   5.772  1.00  0.00    -0.268 OA
ATOM     60  N   UNL     1      -3.572  -4.860   5.412  1.00  0.00    -0.339 N 
ATOM     61  H   UNL     1      -3.893  -4.072   4.862  1.00  0.00     0.164 HD
BRANCH  60  62
ATOM     62  C   UNL     1      -4.461  -5.429   6.423  1.00  0.00     0.168 CG0
ATOM     63  C   UNL     1      -5.411  -6.448   5.806  1.00  0.00     0.041 C 
ATOM     64  G   UNL     1      -5.249  -4.298   7.115  1.00  0.00     0.000 G0
ENDBRANCH  60  62
ENDBRANCH  56  58
ENDBRANCH  54  56
ENDBRANCH  52  54
ENDBRANCH  51  52
ENDBRANCH  50  51
ENDBRANCH  49  50
BRANCH  49  65
ATOM     65  C   UNL     1      -2.009  -9.712  -0.911  1.00  0.00     0.326 C 
ATOM     66  O   UNL     1      -1.703 -10.650  -0.189  1.00  0.00    -0.250 OA
BRANCH  65  67
ATOM     67  O   UNL     1      -2.064  -9.887  -2.250  1.00  0.00    -0.480 OA
ATOM     68  H   UNL     1      -2.590 -10.709  -2.354  1.00  0.00     0.296 HD
ENDBRANCH  65  67
ENDBRANCH  49  65
ENDBRANCH  47  49
ENDBRANCH  43  45
ENDBRANCH   1  43
BRANCH   1  69
ATOM     69  C   UNL     1       2.022  -5.641  -2.742  1.00  0.00    -0.001 C 
ATOM     70  C   UNL     1       3.125  -6.108  -2.129  1.00  0.00     0.001 C 
BRANCH  70  71
ATOM     71  C   UNL     1       4.444  -5.474  -2.091  1.00  0.00    -0.055 C 
ATOM     72  C   UNL     1       4.508  -4.178  -1.722  1.00  0.00    -0.018 C 
ATOM     73  C   UNL     1       5.638  -6.316  -2.459  1.00  0.00     0.044 C 
BRANCH  72  74
ATOM     74  C   UNL     1       5.724  -3.272  -1.590  1.00  0.00     0.038 C 
ATOM     75  C   UNL     1       6.399  -3.612  -0.256  1.00  0.00     0.015 C 
BRANCH  74  76
ATOM     76  C   UNL     1       5.264  -1.791  -1.730  1.00  0.00     0.128 C 
BRANCH  76  77
ATOM     77  O   UNL     1       6.326  -0.997  -2.284  1.00  0.00    -0.381 OA
ATOM     78  C   UNL     1       5.924  -0.191  -3.383  1.00  0.00     0.195 C 
ENDBRANCH  76  77
BRANCH  76  79
ATOM     79  C   UNL     1       3.926  -1.618  -2.492  1.00  0.00     0.068 C 
BRANCH  79  80
ATOM     80  C   UNL     1       2.731  -1.117  -1.718  1.00  0.00    -0.045 A 
ATOM     81  C   UNL     1       2.082   0.071  -2.080  1.00  0.00     0.004 A 
ATOM     82  C   UNL     1       2.266  -1.825  -0.599  1.00  0.00     0.004 A 
ATOM     83  C   UNL     1       0.986   0.535  -1.350  1.00  0.00     0.000 A 
ATOM     84  C   UNL     1       1.170  -1.359   0.131  1.00  0.00     0.000 A 
ATOM     85  C   UNL     1       0.529  -0.181  -0.245  1.00  0.00     0.000 A 
ENDBRANCH  79  80
ENDBRANCH  76  79
ENDBRANCH  74  76
ENDBRANCH  72  74
ENDBRANCH  70  71
ENDBRANCH   1  69
TORSDOF 17
ENDMDL
MODEL 4
REMARK VINA RESULT:    -7.655      3.265     13.006
REMARK INTER + INTRA:         -28.562
REMARK INTER:                 -21.376
REMARK INTRA:                  -7.187
REMARK UNBOUND:                -5.692
REMARK SMILES C=C1C(=O)N[C@H](C)C(=O)N[C@@H](CC(C)C)C(=O)N[C@@H](C(=O)O)[C@H](C)C(=O)N[C@@H](CCCN=C(N)N)C(=O)N[C@@H](/C=C/C(C)=C/[C@H](C)[C@H](Cc2ccccc2)OC)[C@H](C)C(=O)N[C@@H](C(=O)O)CCC(=O)N1C
REMARK SMILES IDX 39 1 38 2 37 3 36 4 28 6 27 7 25 8 26 9 23 11 24 12 19 13
REMARK SMILES IDX 18 14 16 15 17 16 11 18 10 19 8 20 9 21 12 24 13 25 14 26
REMARK SMILES IDX 15 27 20 28 21 29 22 30 29 32 30 33 31 34 32 35 33 36 34 37
REMARK SMILES IDX 35 38 57 43 58 44 59 45 60 46 61 47 62 49 66 50 67 51 68 52
REMARK SMILES IDX 69 53 70 54 71 55 2 56 1 57 3 58 4 59 5 60 6 62 7 63 63 65
REMARK SMILES IDX 64 66 65 67 40 69 41 70 42 71 44 72 43 73 45 74 46 75 47 76
REMARK SMILES IDX 55 77 56 78 48 79 49 80 50 81 54 82 51 83 53 84 52 85
REMARK H PARENT 38 5 27 10 18 17 10 22 22 31 34 39 34 40 35 41 35 42 61 48
REMARK H PARENT 5 61 65 68
REMARK Flexibility Score:  369.900
ROOT
ATOM      1  C   UNL     1      -0.086  -6.338  -0.316  1.00  0.00     0.117 C 
ENDROOT
BRANCH   1   2
ATOM      2  N   UNL     1      -0.681  -7.086  -1.424  1.00  0.00    -0.347 N 
ATOM      3  O   UNL     1      -0.926  -9.099  -0.348  1.00  0.00    -0.273 OA
ATOM      4  C   UNL     1      -1.139  -8.385  -1.323  1.00  0.00     0.243 C 
ATOM      5  H   UNL     1      -0.820  -6.627  -2.312  1.00  0.00     0.164 HD
BRANCH   4   6
ATOM      6  C   UNL     1      -1.805  -8.915  -2.619  1.00  0.00     0.171 C 
BRANCH   6   7
ATOM      7  N   UNL     1      -1.146 -10.152  -3.066  1.00  0.00    -0.344 N 
ATOM      8  C   UNL     1      -1.071 -10.463  -4.407  1.00  0.00     0.226 C 
ATOM      9  O   UNL     1      -1.558  -9.752  -5.278  1.00  0.00    -0.275 OA
ATOM     10  H   UNL     1      -0.791 -10.798  -2.372  1.00  0.00     0.164 HD
BRANCH   8  11
ATOM     11  C   UNL     1      -0.314 -11.744  -4.711  1.00  0.00     0.109 C 
ATOM     12  C   UNL     1      -1.048 -12.547  -5.785  1.00  0.00     0.021 C 
BRANCH  11  13
ATOM     13  C   UNL     1       1.156 -11.415  -5.038  1.00  0.00     0.204 C 
BRANCH  13  14
ATOM     14  N   UNL     1       1.371  -9.978  -5.230  1.00  0.00    -0.340 N 
ATOM     15  C   UNL     1       1.704  -9.427  -6.449  1.00  0.00     0.243 C 
ATOM     16  O   UNL     1       1.786 -10.097  -7.477  1.00  0.00    -0.273 OA
ATOM     17  H   UNL     1       1.468  -9.391  -4.397  1.00  0.00     0.164 HD
BRANCH  15  18
ATOM     18  C   UNL     1       2.084  -7.928  -6.367  1.00  0.00     0.171 C 
BRANCH  18  19
ATOM     19  N   UNL     1       3.470  -7.822  -6.818  1.00  0.00    -0.343 N 
ATOM     20  C   UNL     1       4.527  -8.230  -6.027  1.00  0.00     0.242 CG0
ATOM     21  O   UNL     1       4.361  -8.575  -4.860  1.00  0.00    -0.273 OA
ATOM     22  H   UNL     1       3.667  -7.434  -7.734  1.00  0.00     0.164 HD
ATOM     23  G   UNL     1       5.909  -8.114  -6.703  1.00  0.00     0.000 G0
ENDBRANCH  18  19
BRANCH  18  24
ATOM     24  C   UNL     1       1.144  -7.083  -7.236  1.00  0.00     0.038 C 
BRANCH  24  25
ATOM     25  C   UNL     1       0.053  -6.321  -6.453  1.00  0.00    -0.015 C 
ATOM     26  C   UNL     1       0.086  -6.627  -4.956  1.00  0.00     0.007 C 
ATOM     27  C   UNL     1      -1.325  -6.669  -7.020  1.00  0.00     0.007 C 
ENDBRANCH  24  25
ENDBRANCH  18  24
ENDBRANCH  15  18
ENDBRANCH  13  14
BRANCH  13  28
ATOM     28  C   UNL     1       2.135 -11.880  -3.955  1.00  0.00     0.327 C 
ATOM     29  O   UNL     1       2.003 -12.856  -3.233  1.00  0.00    -0.250 OA
BRANCH  28  30
ATOM     30  O   UNL     1       3.158 -11.023  -3.764  1.00  0.00    -0.480 OA
ATOM     31  H   UNL     1       3.209 -10.921  -2.791  1.00  0.00     0.296 HD
ENDBRANCH  28  30
ENDBRANCH  13  28
ENDBRANCH  11  13
ENDBRANCH   8  11
ENDBRANCH   6   7
BRANCH   6  32
ATOM     32  C   UNL     1      -3.296  -9.152  -2.358  1.00  0.00     0.037 C 
BRANCH  32  33
ATOM     33  C   UNL     1      -4.184  -8.466  -3.407  1.00  0.00     0.026 C 
BRANCH  33  34
ATOM     34  C   UNL     1      -4.836  -7.189  -2.876  1.00  0.00     0.146 C 
BRANCH  34  35
ATOM     35  N   UNL     1      -3.790  -6.249  -2.497  1.00  0.00    -0.254 NA
ATOM     36  C   UNL     1      -3.480  -5.312  -3.313  1.00  0.00     0.185 C 
ATOM     37  N   UNL     1      -2.521  -4.438  -2.972  1.00  0.00    -0.370 N 
ATOM     38  N   UNL     1      -3.992  -5.047  -4.529  1.00  0.00    -0.370 N 
ATOM     39  H   UNL     1      -2.092  -4.565  -2.064  1.00  0.00     0.159 HD
ATOM     40  H   UNL     1      -2.343  -3.584  -3.472  1.00  0.00     0.159 HD
ATOM     41  H   UNL     1      -3.567  -4.365  -5.135  1.00  0.00     0.159 HD
ATOM     42  H   UNL     1      -4.711  -5.634  -4.921  1.00  0.00     0.159 HD
ENDBRANCH  34  35
ENDBRANCH  33  34
ENDBRANCH  32  33
ENDBRANCH   6  32
ENDBRANCH   4   6
ENDBRANCH   1   2
BRANCH   1  43
ATOM     43  C   UNL     1      -1.221  -5.596   0.447  1.00  0.00     0.102 C 
ATOM     44  C   UNL     1      -1.098  -4.064   0.387  1.00  0.00     0.020 C 
BRANCH  43  45
ATOM     45  C   UNL     1      -1.386  -6.151   1.864  1.00  0.00     0.225 C 
ATOM     46  O   UNL     1      -0.782  -7.139   2.273  1.00  0.00    -0.275 OA
ATOM     47  N   UNL     1      -2.336  -5.525   2.639  1.00  0.00    -0.342 N 
ATOM     48  H   UNL     1      -2.709  -4.633   2.349  1.00  0.00     0.164 HD
BRANCH  47  49
ATOM     49  C   UNL     1      -2.577  -5.926   4.028  1.00  0.00     0.192 C 
BRANCH  49  50
ATOM     50  C   UNL     1      -3.975  -5.476   4.458  1.00  0.00     0.047 C 
BRANCH  50  51
ATOM     51  C   UNL     1      -4.737  -6.577   5.208  1.00  0.00     0.103 C 
BRANCH  51  52
ATOM     52  C   UNL     1      -4.881  -6.264   6.696  1.00  0.00     0.226 C 
ATOM     53  O   UNL     1      -4.478  -5.184   7.134  1.00  0.00    -0.275 OA
BRANCH  52  54
ATOM     54  N   UNL     1      -5.551  -7.223   7.477  1.00  0.00    -0.311 N 
ATOM     55  C   UNL     1      -5.281  -8.657   7.310  1.00  0.00     0.153 C 
BRANCH  54  56
ATOM     56  C   UNL     1      -6.497  -6.849   8.446  1.00  0.00     0.102 C 
ATOM     57  C   UNL     1      -7.813  -7.104   8.375  1.00  0.00     0.043 C 
BRANCH  56  58
ATOM     58  C   UNL     1      -6.071  -6.141   9.711  1.00  0.00     0.268 C 
ATOM     59  O   UNL     1      -6.768  -5.314  10.283  1.00  0.00    -0.268 OA
ATOM     60  N   UNL     1      -4.855  -6.570  10.187  1.00  0.00    -0.339 N 
ATOM     61  H   UNL     1      -4.334  -7.252   9.648  1.00  0.00     0.164 HD
BRANCH  60  62
ATOM     62  C   UNL     1      -4.282  -6.062  11.433  1.00  0.00     0.168 CG0
ATOM     63  C   UNL     1      -4.487  -7.053  12.572  1.00  0.00     0.041 C 
ATOM     64  G   UNL     1      -4.917  -4.698  11.775  1.00  0.00     0.000 G0
ENDBRANCH  60  62
ENDBRANCH  56  58
ENDBRANCH  54  56
ENDBRANCH  52  54
ENDBRANCH  51  52
ENDBRANCH  50  51
ENDBRANCH  49  50
BRANCH  49  65
ATOM     65  C   UNL     1      -1.533  -5.324   4.982  1.00  0.00     0.326 C 
ATOM     66  O   UNL     1      -0.347  -5.619   5.015  1.00  0.00    -0.250 OA
BRANCH  65  67
ATOM     67  O   UNL     1      -2.028  -4.439   5.874  1.00  0.00    -0.480 OA
ATOM     68  H   UNL     1      -2.986  -4.651   5.904  1.00  0.00     0.296 HD
ENDBRANCH  65  67
ENDBRANCH  49  65
ENDBRANCH  47  49
ENDBRANCH  43  45
ENDBRANCH   1  43
BRANCH   1  69
ATOM     69  C   UNL     1       1.049  -5.527  -0.913  1.00  0.00    -0.001 C 
ATOM     70  C   UNL     1       2.054  -5.974  -1.686  1.00  0.00     0.001 C 
BRANCH  70  71
ATOM     71  C   UNL     1       3.133  -5.177  -2.274  1.00  0.00    -0.055 C 
ATOM     72  C   UNL     1       3.827  -4.358  -1.456  1.00  0.00    -0.018 C 
ATOM     73  C   UNL     1       3.397  -5.334  -3.749  1.00  0.00     0.044 C 
BRANCH  72  74
ATOM     74  C   UNL     1       4.986  -3.427  -1.782  1.00  0.00     0.038 C 
ATOM     75  C   UNL     1       6.111  -3.741  -0.788  1.00  0.00     0.015 C 
BRANCH  74  76
ATOM     76  C   UNL     1       4.473  -1.957  -1.745  1.00  0.00     0.128 C 
BRANCH  76  77
ATOM     77  O   UNL     1       5.431  -1.088  -2.371  1.00  0.00    -0.381 OA
ATOM     78  C   UNL     1       5.216   0.290  -2.098  1.00  0.00     0.195 C 
ENDBRANCH  76  77
BRANCH  76  79
ATOM     79  C   UNL     1       3.041  -1.776  -2.308  1.00  0.00     0.068 C 
BRANCH  79  80
ATOM     80  C   UNL     1       2.021  -1.084  -1.436  1.00  0.00    -0.045 A 
ATOM     81  C   UNL     1       1.535  -1.693  -0.271  1.00  0.00     0.004 A 
ATOM     82  C   UNL     1       1.520   0.176  -1.796  1.00  0.00     0.004 A 
ATOM     83  C   UNL     1       0.581  -1.053   0.523  1.00  0.00     0.000 A 
ATOM     84  C   UNL     1       0.566   0.815  -1.002  1.00  0.00     0.000 A 
ATOM     85  C   UNL     1       0.098   0.202   0.157  1.00  0.00     0.000 A 
ENDBRANCH  79  80
ENDBRANCH  76  79
ENDBRANCH  74  76
ENDBRANCH  72  74
ENDBRANCH  70  71
ENDBRANCH   1  69
TORSDOF 17
ENDMDL
MODEL 5
REMARK VINA RESULT:    -7.614      1.244      2.162
REMARK INTER + INTRA:         -28.440
REMARK INTER:                 -22.123
REMARK INTRA:                  -6.317
REMARK UNBOUND:                -5.692
REMARK SMILES C=C1C(=O)N[C@H](C)C(=O)N[C@@H](CC(C)C)C(=O)N[C@@H](C(=O)O)[C@H](C)C(=O)N[C@@H](CCCN=C(N)N)C(=O)N[C@@H](/C=C/C(C)=C/[C@H](C)[C@H](Cc2ccccc2)OC)[C@H](C)C(=O)N[C@@H](C(=O)O)CCC(=O)N1C
REMARK SMILES IDX 39 1 38 2 37 3 36 4 28 6 27 7 25 8 26 9 23 11 24 12 19 13
REMARK SMILES IDX 18 14 16 15 17 16 11 18 10 19 8 20 9 21 12 24 13 25 14 26
REMARK SMILES IDX 15 27 20 28 21 29 22 30 29 32 30 33 31 34 32 35 33 36 34 37
REMARK SMILES IDX 35 38 57 43 58 44 59 45 60 46 61 47 62 49 66 50 67 51 68 52
REMARK SMILES IDX 69 53 70 54 71 55 2 56 1 57 3 58 4 59 5 60 6 62 7 63 63 65
REMARK SMILES IDX 64 66 65 67 40 69 41 70 42 71 44 72 43 73 45 74 46 75 47 76
REMARK SMILES IDX 55 77 56 78 48 79 49 80 50 81 54 82 51 83 53 84 52 85
REMARK H PARENT 38 5 27 10 18 17 10 22 22 31 34 39 34 40 35 41 35 42 61 48
REMARK H PARENT 5 61 65 68
REMARK Flexibility Score:  369.900
ROOT
ATOM      1  C   UNL     1      -0.957  -5.860  -0.180  1.00  0.00     0.117 C 
ENDROOT
BRANCH   1   2
ATOM      2  N   UNL     1      -1.710  -5.680   1.062  1.00  0.00    -0.347 N 
ATOM      3  O   UNL     1      -0.220  -6.696   2.482  1.00  0.00    -0.273 OA
ATOM      4  C   UNL     1      -1.237  -6.033   2.311  1.00  0.00     0.243 C 
ATOM      5  H   UNL     1      -2.611  -5.228   1.032  1.00  0.00     0.164 HD
BRANCH   4   6
ATOM      6  C   UNL     1      -2.196  -5.656   3.469  1.00  0.00     0.171 C 
BRANCH   6   7
ATOM      7  N   UNL     1      -3.275  -6.650   3.588  1.00  0.00    -0.344 N 
ATOM      8  C   UNL     1      -4.474  -6.317   4.178  1.00  0.00     0.226 C 
ATOM      9  O   UNL     1      -4.694  -5.206   4.647  1.00  0.00    -0.275 OA
ATOM     10  H   UNL     1      -3.106  -7.597   3.273  1.00  0.00     0.164 HD
BRANCH   8  11
ATOM     11  C   UNL     1      -5.504  -7.433   4.175  1.00  0.00     0.109 C 
ATOM     12  C   UNL     1      -5.316  -8.319   2.943  1.00  0.00     0.021 C 
BRANCH  11  13
ATOM     13  C   UNL     1      -5.467  -8.181   5.523  1.00  0.00     0.204 C 
BRANCH  13  14
ATOM     14  N   UNL     1      -6.001  -7.368   6.620  1.00  0.00    -0.340 N 
ATOM     15  C   UNL     1      -5.474  -7.388   7.892  1.00  0.00     0.243 C 
ATOM     16  O   UNL     1      -4.477  -8.046   8.183  1.00  0.00    -0.273 OA
ATOM     17  H   UNL     1      -6.912  -6.920   6.486  1.00  0.00     0.164 HD
BRANCH  15  18
ATOM     18  C   UNL     1      -6.326  -6.613   8.928  1.00  0.00     0.171 C 
BRANCH  18  19
ATOM     19  N   UNL     1      -7.189  -7.596   9.579  1.00  0.00    -0.343 N 
ATOM     20  C   UNL     1      -8.389  -7.995   9.021  1.00  0.00     0.242 CG0
ATOM     21  O   UNL     1      -8.848  -7.446   8.022  1.00  0.00    -0.273 OA
ATOM     22  H   UNL     1      -6.908  -7.995  10.467  1.00  0.00     0.164 HD
ATOM     23  G   UNL     1      -9.124  -9.097   9.812  1.00  0.00     0.000 G0
ENDBRANCH  18  19
BRANCH  18  24
ATOM     24  C   UNL     1      -5.425  -5.897   9.942  1.00  0.00     0.038 C 
BRANCH  24  25
ATOM     25  C   UNL     1      -5.420  -6.522  11.353  1.00  0.00    -0.015 C 
ATOM     26  C   UNL     1      -5.972  -5.572  12.416  1.00  0.00     0.007 C 
ATOM     27  C   UNL     1      -3.995  -6.940  11.726  1.00  0.00     0.007 C 
ENDBRANCH  24  25
ENDBRANCH  18  24
ENDBRANCH  15  18
ENDBRANCH  13  14
BRANCH  13  28
ATOM     28  C   UNL     1      -6.255  -9.495   5.506  1.00  0.00     0.327 C 
ATOM     29  O   UNL     1      -7.459  -9.613   5.340  1.00  0.00    -0.250 OA
BRANCH  28  30
ATOM     30  O   UNL     1      -5.500 -10.568   5.818  1.00  0.00    -0.480 OA
ATOM     31  H   UNL     1      -6.120 -11.323   5.763  1.00  0.00     0.296 HD
ENDBRANCH  28  30
ENDBRANCH  13  28
ENDBRANCH  11  13
ENDBRANCH   8  11
ENDBRANCH   6   7
BRANCH   6  32
ATOM     32  C   UNL     1      -1.396  -5.559   4.773  1.00  0.00     0.037 C 
BRANCH  32  33
ATOM     33  C   UNL     1      -0.804  -4.158   4.987  1.00  0.00     0.026 C 
BRANCH  33  34
ATOM     34  C   UNL     1      -1.319  -3.144   3.965  1.00  0.00     0.146 C 
BRANCH  34  35
ATOM     35  N   UNL     1      -0.179  -2.532   3.296  1.00  0.00    -0.254 NA
ATOM     36  C   UNL     1      -0.352  -2.015   2.137  1.00  0.00     0.185 C 
ATOM     37  N   UNL     1       0.690  -1.444   1.513  1.00  0.00    -0.370 N 
ATOM     38  N   UNL     1      -1.476  -1.947   1.401  1.00  0.00    -0.370 N 
ATOM     39  H   UNL     1       1.572  -1.446   2.009  1.00  0.00     0.159 HD
ATOM     40  H   UNL     1       0.600  -0.871   0.692  1.00  0.00     0.159 HD
ATOM     41  H   UNL     1      -1.454  -1.639   0.443  1.00  0.00     0.159 HD
ATOM     42  H   UNL     1      -2.336  -2.351   1.740  1.00  0.00     0.159 HD
ENDBRANCH  34  35
ENDBRANCH  33  34
ENDBRANCH  32  33
ENDBRANCH   6  32
ENDBRANCH   4   6
ENDBRANCH   1   2
BRANCH   1  43
ATOM     43  C   UNL     1      -0.938  -4.507  -0.948  1.00  0.00     0.102 C 
ATOM     44  C   UNL     1      -1.955  -4.442  -2.099  1.00  0.00     0.020 C 
BRANCH  43  45
ATOM     45  C   UNL     1       0.488  -4.127  -1.357  1.00  0.00     0.225 C 
ATOM     46  O   UNL     1       1.365  -4.956  -1.582  1.00  0.00    -0.275 OA
ATOM     47  N   UNL     1       0.762  -2.778  -1.368  1.00  0.00    -0.342 N 
ATOM     48  H   UNL     1       0.002  -2.114  -1.332  1.00  0.00     0.164 HD
BRANCH  47  49
ATOM     49  C   UNL     1       2.074  -2.266  -1.775  1.00  0.00     0.192 C 
BRANCH  49  50
ATOM     50  C   UNL     1       3.111  -2.599  -0.699  1.00  0.00     0.047 C 
BRANCH  50  51
ATOM     51  C   UNL     1       4.523  -2.758  -1.281  1.00  0.00     0.103 C 
BRANCH  51  52
ATOM     52  C   UNL     1       4.774  -4.174  -1.795  1.00  0.00     0.226 C 
ATOM     53  O   UNL     1       4.819  -5.114  -0.999  1.00  0.00    -0.275 OA
BRANCH  52  54
ATOM     54  N   UNL     1       4.866  -4.327  -3.191  1.00  0.00    -0.311 N 
ATOM     55  C   UNL     1       3.909  -5.165  -3.925  1.00  0.00     0.153 C 
BRANCH  54  56
ATOM     56  C   UNL     1       5.870  -3.682  -3.934  1.00  0.00     0.102 C 
ATOM     57  C   UNL     1       7.073  -4.207  -4.216  1.00  0.00     0.043 C 
BRANCH  56  58
ATOM     58  C   UNL     1       5.635  -2.313  -4.528  1.00  0.00     0.268 C 
ATOM     59  O   UNL     1       4.527  -1.902  -4.846  1.00  0.00    -0.268 OA
ATOM     60  N   UNL     1       6.780  -1.558  -4.614  1.00  0.00    -0.339 N 
ATOM     61  H   UNL     1       7.661  -1.976  -4.340  1.00  0.00     0.164 HD
BRANCH  60  62
ATOM     62  C   UNL     1       6.770  -0.180  -5.102  1.00  0.00     0.168 CG0
ATOM     63  C   UNL     1       6.619   0.807  -3.951  1.00  0.00     0.041 C 
ATOM     64  G   UNL     1       5.630  -0.003  -6.126  1.00  0.00     0.000 G0
ENDBRANCH  60  62
ENDBRANCH  56  58
ENDBRANCH  54  56
ENDBRANCH  52  54
ENDBRANCH  51  52
ENDBRANCH  50  51
ENDBRANCH  49  50
BRANCH  49  65
ATOM     65  C   UNL     1       2.044  -0.746  -2.000  1.00  0.00     0.326 C 
ATOM     66  O   UNL     1       1.398   0.057  -1.344  1.00  0.00    -0.250 OA
BRANCH  65  67
ATOM     67  O   UNL     1       2.767  -0.319  -3.059  1.00  0.00    -0.480 OA
ATOM     68  H   UNL     1       2.449   0.598  -3.202  1.00  0.00     0.296 HD
ENDBRANCH  65  67
ENDBRANCH  49  65
ENDBRANCH  47  49
ENDBRANCH  43  45
ENDBRANCH   1  43
BRANCH   1  69
ATOM     69  C   UNL     1      -1.548  -7.081  -0.861  1.00  0.00    -0.001 C 
ATOM     70  C   UNL     1      -2.781  -7.592  -0.696  1.00  0.00     0.001 C 
BRANCH  70  71
ATOM     71  C   UNL     1      -3.347  -8.759  -1.375  1.00  0.00    -0.055 C 
ATOM     72  C   UNL     1      -2.490  -9.701  -1.825  1.00  0.00    -0.018 C 
ATOM     73  C   UNL     1      -4.845  -8.832  -1.516  1.00  0.00     0.044 C 
BRANCH  72  74
ATOM     74  C   UNL     1      -2.787 -11.003  -2.554  1.00  0.00     0.038 C 
ATOM     75  C   UNL     1      -1.854 -12.071  -1.971  1.00  0.00     0.015 C 
BRANCH  74  76
ATOM     76  C   UNL     1      -2.632 -10.766  -4.086  1.00  0.00     0.128 C 
BRANCH  76  77
ATOM     77  O   UNL     1      -3.926 -10.736  -4.711  1.00  0.00    -0.381 OA
ATOM     78  C   UNL     1      -4.837 -11.693  -4.186  1.00  0.00     0.195 C 
ENDBRANCH  76  77
BRANCH  76  79
ATOM     79  C   UNL     1      -1.763  -9.536  -4.447  1.00  0.00     0.068 C 
BRANCH  79  80
ATOM     80  C   UNL     1      -2.418  -8.404  -5.200  1.00  0.00    -0.045 A 
ATOM     81  C   UNL     1      -3.105  -7.388  -4.523  1.00  0.00     0.004 A 
ATOM     82  C   UNL     1      -2.373  -8.367  -6.602  1.00  0.00     0.004 A 
ATOM     83  C   UNL     1      -3.721  -6.352  -5.227  1.00  0.00     0.000 A 
ATOM     84  C   UNL     1      -2.990  -7.331  -7.306  1.00  0.00     0.000 A 
ATOM     85  C   UNL     1      -3.662  -6.323  -6.619  1.00  0.00     0.000 A 
ENDBRANCH  79  80
ENDBRANCH  76  79
ENDBRANCH  74  76
ENDBRANCH  72  74
ENDBRANCH  70  71
ENDBRANCH   1  69
TORSDOF 17
ENDMDL
MODEL 6
REMARK VINA RESULT:    -7.323      4.552     14.353
REMARK INTER + INTRA:         -27.570
REMARK INTER:                 -20.924
REMARK INTRA:                  -6.647
REMARK UNBOUND:                -5.692
REMARK SMILES C=C1C(=O)N[C@H](C)C(=O)N[C@@H](CC(C)C)C(=O)N[C@@H](C(=O)O)[C@H](C)C(=O)N[C@@H](CCCN=C(N)N)C(=O)N[C@@H](/C=C/C(C)=C/[C@H](C)[C@H](Cc2ccccc2)OC)[C@H](C)C(=O)N[C@@H](C(=O)O)CCC(=O)N1C
REMARK SMILES IDX 39 1 38 2 37 3 36 4 28 6 27 7 25 8 26 9 23 11 24 12 19 13
REMARK SMILES IDX 18 14 16 15 17 16 11 18 10 19 8 20 9 21 12 24 13 25 14 26
REMARK SMILES IDX 15 27 20 28 21 29 22 30 29 32 30 33 31 34 32 35 33 36 34 37
REMARK SMILES IDX 35 38 57 43 58 44 59 45 60 46 61 47 62 49 66 50 67 51 68 52
REMARK SMILES IDX 69 53 70 54 71 55 2 56 1 57 3 58 4 59 5 60 6 62 7 63 63 65
REMARK SMILES IDX 64 66 65 67 40 69 41 70 42 71 44 72 43 73 45 74 46 75 47 76
REMARK SMILES IDX 55 77 56 78 48 79 49 80 50 81 54 82 51 83 53 84 52 85
REMARK H PARENT 38 5 27 10 18 17 10 22 22 31 34 39 34 40 35 41 35 42 61 48
REMARK H PARENT 5 61 65 68
REMARK Flexibility Score:  369.900
ROOT
ATOM      1  C   UNL     1       0.601  -6.155  -2.529  1.00  0.00     0.117 C 
ENDROOT
BRANCH   1   2
ATOM      2  N   UNL     1       0.638  -6.483  -3.955  1.00  0.00    -0.347 N 
ATOM      3  O   UNL     1       0.853  -8.759  -3.748  1.00  0.00    -0.273 OA
ATOM      4  C   UNL     1       0.669  -7.771  -4.452  1.00  0.00     0.243 C 
ATOM      5  H   UNL     1       0.589  -5.739  -4.634  1.00  0.00     0.164 HD
BRANCH   4   6
ATOM      6  C   UNL     1       0.615  -7.844  -5.999  1.00  0.00     0.171 C 
BRANCH   6   7
ATOM      7  N   UNL     1       1.454  -8.948  -6.492  1.00  0.00    -0.344 N 
ATOM      8  C   UNL     1       2.308  -8.760  -7.557  1.00  0.00     0.226 C 
ATOM      9  O   UNL     1       2.396  -7.693  -8.153  1.00  0.00    -0.275 OA
ATOM     10  H   UNL     1       1.360  -9.863  -6.068  1.00  0.00     0.164 HD
BRANCH   8  11
ATOM     11  C   UNL     1       3.145  -9.978  -7.910  1.00  0.00     0.109 C 
ATOM     12  C   UNL     1       2.374 -10.887  -8.867  1.00  0.00     0.021 C 
BRANCH  11  13
ATOM     13  C   UNL     1       4.530  -9.529  -8.416  1.00  0.00     0.204 C 
BRANCH  13  14
ATOM     14  N   UNL     1       4.465  -8.951  -9.762  1.00  0.00    -0.340 N 
ATOM     15  C   UNL     1       5.183  -9.450 -10.827  1.00  0.00     0.243 C 
ATOM     16  O   UNL     1       5.884 -10.456 -10.737  1.00  0.00    -0.273 OA
ATOM     17  H   UNL     1       4.025  -8.033  -9.870  1.00  0.00     0.164 HD
BRANCH  15  18
ATOM     18  C   UNL     1       5.117  -8.557 -12.091  1.00  0.00     0.171 C 
BRANCH  18  19
ATOM     19  N   UNL     1       6.482  -8.104 -12.354  1.00  0.00    -0.343 N 
ATOM     20  C   UNL     1       7.094  -7.143 -11.572  1.00  0.00     0.242 CG0
ATOM     21  O   UNL     1       6.477  -6.531 -10.704  1.00  0.00    -0.273 OA
ATOM     22  H   UNL     1       6.995  -8.498 -13.134  1.00  0.00     0.164 HD
ATOM     23  G   UNL     1       8.560  -6.852 -11.954  1.00  0.00     0.000 G0
ENDBRANCH  18  19
BRANCH  18  24
ATOM     24  C   UNL     1       4.546  -9.341 -13.279  1.00  0.00     0.038 C 
BRANCH  24  25
ATOM     25  C   UNL     1       3.030  -9.161 -13.500  1.00  0.00    -0.015 C 
ATOM     26  C   UNL     1       2.517  -7.819 -12.978  1.00  0.00     0.007 C 
ATOM     27  C   UNL     1       2.271 -10.303 -12.819  1.00  0.00     0.007 C 
ENDBRANCH  24  25
ENDBRANCH  18  24
ENDBRANCH  15  18
ENDBRANCH  13  14
BRANCH  13  28
ATOM     28  C   UNL     1       5.198  -8.492  -7.509  1.00  0.00     0.327 C 
ATOM     29  O   UNL     1       5.475  -8.636  -6.328  1.00  0.00    -0.250 OA
BRANCH  28  30
ATOM     30  O   UNL     1       5.369  -7.296  -8.109  1.00  0.00    -0.480 OA
ATOM     31  H   UNL     1       5.542  -6.677  -7.369  1.00  0.00     0.296 HD
ENDBRANCH  28  30
ENDBRANCH  13  28
ENDBRANCH  11  13
ENDBRANCH   8  11
ENDBRANCH   6   7
BRANCH   6  32
ATOM     32  C   UNL     1      -0.841  -8.022  -6.444  1.00  0.00     0.037 C 
BRANCH  32  33
ATOM     33  C   UNL     1      -1.484  -6.694  -6.866  1.00  0.00     0.026 C 
BRANCH  33  34
ATOM     34  C   UNL     1      -2.848  -6.471  -6.211  1.00  0.00     0.146 C 
BRANCH  34  35
ATOM     35  N   UNL     1      -3.853  -7.221  -6.951  1.00  0.00    -0.254 NA
ATOM     36  C   UNL     1      -4.623  -8.017  -6.307  1.00  0.00     0.185 C 
ATOM     37  N   UNL     1      -5.556  -8.710  -6.978  1.00  0.00    -0.370 N 
ATOM     38  N   UNL     1      -4.649  -8.286  -4.990  1.00  0.00    -0.370 N 
ATOM     39  H   UNL     1      -5.607  -8.553  -7.977  1.00  0.00     0.159 HD
ATOM     40  H   UNL     1      -6.303  -9.214  -6.532  1.00  0.00     0.159 HD
ATOM     41  H   UNL     1      -5.210  -9.037  -4.622  1.00  0.00     0.159 HD
ATOM     42  H   UNL     1      -3.992  -7.848  -4.364  1.00  0.00     0.159 HD
ENDBRANCH  34  35
ENDBRANCH  33  34
ENDBRANCH  32  33
ENDBRANCH   6  32
ENDBRANCH   4   6
ENDBRANCH   1   2
BRANCH   1  43
ATOM     43  C   UNL     1      -0.681  -5.320  -2.246  1.00  0.00     0.102 C 
ATOM     44  C   UNL     1      -0.550  -4.393  -1.025  1.00  0.00     0.020 C 
BRANCH  43  45
ATOM     45  C   UNL     1      -1.924  -6.214  -2.216  1.00  0.00     0.225 C 
ATOM     46  O   UNL     1      -3.028  -5.840  -2.601  1.00  0.00    -0.275 OA
ATOM     47  N   UNL     1      -1.751  -7.450  -1.637  1.00  0.00    -0.342 N 
ATOM     48  H   UNL     1      -0.818  -7.797  -1.467  1.00  0.00     0.164 HD
BRANCH  47  49
ATOM     49  C   UNL     1      -2.844  -8.425  -1.571  1.00  0.00     0.192 C 
BRANCH  49  50
ATOM     50  C   UNL     1      -3.245  -8.651  -0.111  1.00  0.00     0.047 C 
BRANCH  50  51
ATOM     51  C   UNL     1      -2.115  -8.294   0.864  1.00  0.00     0.103 C 
BRANCH  51  52
ATOM     52  C   UNL     1      -2.467  -7.088   1.733  1.00  0.00     0.226 C 
ATOM     53  O   UNL     1      -3.644  -6.868   2.022  1.00  0.00    -0.275 OA
BRANCH  52  54
ATOM     54  N   UNL     1      -1.386  -6.331   2.222  1.00  0.00    -0.311 N 
ATOM     55  C   UNL     1      -0.002  -6.668   1.862  1.00  0.00     0.153 C 
BRANCH  54  56
ATOM     56  C   UNL     1      -1.588  -5.226   3.066  1.00  0.00     0.102 C 
ATOM     57  C   UNL     1      -1.467  -3.942   2.692  1.00  0.00     0.043 C 
BRANCH  56  58
ATOM     58  C   UNL     1      -2.019  -5.415   4.501  1.00  0.00     0.268 C 
ATOM     59  O   UNL     1      -1.245  -5.725   5.397  1.00  0.00    -0.268 OA
ATOM     60  N   UNL     1      -3.350  -5.140   4.707  1.00  0.00    -0.339 N 
ATOM     61  H   UNL     1      -3.926  -4.900   3.910  1.00  0.00     0.164 HD
BRANCH  60  62
ATOM     62  C   UNL     1      -3.961  -5.200   6.034  1.00  0.00     0.168 CG0
ATOM     63  C   UNL     1      -4.606  -6.558   6.279  1.00  0.00     0.041 C 
ATOM     64  G   UNL     1      -5.001  -4.069   6.175  1.00  0.00     0.000 G0
ENDBRANCH  60  62
ENDBRANCH  56  58
ENDBRANCH  54  56
ENDBRANCH  52  54
ENDBRANCH  51  52
ENDBRANCH  50  51
ENDBRANCH  49  50
BRANCH  49  65
ATOM     65  C   UNL     1      -2.445  -9.768  -2.203  1.00  0.00     0.326 C 
ATOM     66  O   UNL     1      -1.455 -10.424  -1.913  1.00  0.00    -0.250 OA
BRANCH  65  67
ATOM     67  O   UNL     1      -3.260 -10.188  -3.196  1.00  0.00    -0.480 OA
ATOM     68  H   UNL     1      -2.965 -11.109  -3.364  1.00  0.00     0.296 HD
ENDBRANCH  65  67
ENDBRANCH  49  65
ENDBRANCH  47  49
ENDBRANCH  43  45
ENDBRANCH   1  43
BRANCH   1  69
ATOM     69  C   UNL     1       1.955  -5.556  -2.197  1.00  0.00    -0.001 C 
ATOM     70  C   UNL     1       3.166  -6.100  -2.415  1.00  0.00     0.001 C 
BRANCH  70  71
ATOM     71  C   UNL     1       4.467  -5.502  -2.110  1.00  0.00    -0.055 C 
ATOM     72  C   UNL     1       4.518  -4.165  -1.935  1.00  0.00    -0.018 C 
ATOM     73  C   UNL     1       5.655  -6.423  -2.004  1.00  0.00     0.044 C 
BRANCH  72  74
ATOM     74  C   UNL     1       5.713  -3.281  -1.610  1.00  0.00     0.038 C 
ATOM     75  C   UNL     1       6.223  -3.700  -0.225  1.00  0.00     0.015 C 
BRANCH  74  76
ATOM     76  C   UNL     1       5.279  -1.790  -1.722  1.00  0.00     0.128 C 
BRANCH  76  77
ATOM     77  O   UNL     1       6.358  -1.003  -2.253  1.00  0.00    -0.381 OA
ATOM     78  C   UNL     1       5.930   0.175  -2.924  1.00  0.00     0.195 C 
ENDBRANCH  76  77
BRANCH  76  79
ATOM     79  C   UNL     1       3.949  -1.578  -2.488  1.00  0.00     0.068 C 
BRANCH  79  80
ATOM     80  C   UNL     1       2.742  -1.130  -1.698  1.00  0.00    -0.045 A 
ATOM     81  C   UNL     1       2.281  -1.870  -0.602  1.00  0.00     0.004 A 
ATOM     82  C   UNL     1       2.043   0.028  -2.071  1.00  0.00     0.004 A 
ATOM     83  C   UNL     1       1.156  -1.457   0.114  1.00  0.00     0.000 A 
ATOM     84  C   UNL     1       0.917   0.440  -1.355  1.00  0.00     0.000 A 
ATOM     85  C   UNL     1       0.475  -0.301  -0.262  1.00  0.00     0.000 A 
ENDBRANCH  79  80
ENDBRANCH  76  79
ENDBRANCH  74  76
ENDBRANCH  72  74
ENDBRANCH  70  71
ENDBRANCH   1  69
TORSDOF 17
ENDMDL
MODEL 7
REMARK VINA RESULT:    -7.174      2.545      5.042
REMARK INTER + INTRA:         -27.126
REMARK INTER:                 -21.569
REMARK INTRA:                  -5.558
REMARK UNBOUND:                -5.692
REMARK SMILES C=C1C(=O)N[C@H](C)C(=O)N[C@@H](CC(C)C)C(=O)N[C@@H](C(=O)O)[C@H](C)C(=O)N[C@@H](CCCN=C(N)N)C(=O)N[C@@H](/C=C/C(C)=C/[C@H](C)[C@H](Cc2ccccc2)OC)[C@H](C)C(=O)N[C@@H](C(=O)O)CCC(=O)N1C
REMARK SMILES IDX 39 1 38 2 37 3 36 4 28 6 27 7 25 8 26 9 23 11 24 12 19 13
REMARK SMILES IDX 18 14 16 15 17 16 11 18 10 19 8 20 9 21 12 24 13 25 14 26
REMARK SMILES IDX 15 27 20 28 21 29 22 30 29 32 30 33 31 34 32 35 33 36 34 37
REMARK SMILES IDX 35 38 57 43 58 44 59 45 60 46 61 47 62 49 66 50 67 51 68 52
REMARK SMILES IDX 69 53 70 54 71 55 2 56 1 57 3 58 4 59 5 60 6 62 7 63 63 65
REMARK SMILES IDX 64 66 65 67 40 69 41 70 42 71 44 72 43 73 45 74 46 75 47 76
REMARK SMILES IDX 55 77 56 78 48 79 49 80 50 81 54 82 51 83 53 84 52 85
REMARK H PARENT 38 5 27 10 18 17 10 22 22 31 34 39 34 40 35 41 35 42 61 48
REMARK H PARENT 5 61 65 68
REMARK Flexibility Score:  369.900
ROOT
ATOM      1  C   UNL     1      -0.107  -4.774   1.682  1.00  0.00     0.117 C 
ENDROOT
BRANCH   1   2
ATOM      2  N   UNL     1      -1.353  -5.097   2.380  1.00  0.00    -0.347 N 
ATOM      3  O   UNL     1      -0.426  -5.939   4.304  1.00  0.00    -0.273 OA
ATOM      4  C   UNL     1      -1.413  -5.570   3.676  1.00  0.00     0.243 C 
ATOM      5  H   UNL     1      -2.235  -4.924   1.922  1.00  0.00     0.164 HD
BRANCH   4   6
ATOM      6  C   UNL     1      -2.858  -5.749   4.208  1.00  0.00     0.171 C 
BRANCH   6   7
ATOM      7  N   UNL     1      -3.457  -6.979   3.667  1.00  0.00    -0.344 N 
ATOM      8  C   UNL     1      -4.823  -7.090   3.519  1.00  0.00     0.226 C 
ATOM      9  O   UNL     1      -5.596  -6.197   3.845  1.00  0.00    -0.275 OA
ATOM     10  H   UNL     1      -2.855  -7.763   3.449  1.00  0.00     0.164 HD
BRANCH   8  11
ATOM     11  C   UNL     1      -5.281  -8.397   2.897  1.00  0.00     0.109 C 
ATOM     12  C   UNL     1      -4.118  -9.067   2.165  1.00  0.00     0.021 C 
BRANCH  11  13
ATOM     13  C   UNL     1      -5.964  -9.273   3.967  1.00  0.00     0.204 C 
BRANCH  13  14
ATOM     14  N   UNL     1      -7.365  -9.553   3.639  1.00  0.00    -0.340 N 
ATOM     15  C   UNL     1      -8.344  -9.698   4.598  1.00  0.00     0.243 C 
ATOM     16  O   UNL     1      -8.122  -9.542   5.797  1.00  0.00    -0.273 OA
ATOM     17  H   UNL     1      -7.585  -9.842   2.682  1.00  0.00     0.164 HD
BRANCH  15  18
ATOM     18  C   UNL     1      -9.697 -10.194   4.031  1.00  0.00     0.171 C 
BRANCH  18  19
ATOM     19  N   UNL     1     -10.538  -9.011   3.859  1.00  0.00    -0.343 N 
ATOM     20  C   UNL     1     -11.643  -8.781   4.656  1.00  0.00     0.242 CG0
ATOM     21  O   UNL     1     -12.047  -9.623   5.455  1.00  0.00    -0.273 OA
ATOM     22  H   UNL     1     -10.312  -8.341   3.134  1.00  0.00     0.164 HD
ATOM     23  G   UNL     1     -12.360  -7.443   4.380  1.00  0.00     0.000 G0
ENDBRANCH  18  19
BRANCH  18  24
ATOM     24  C   UNL     1      -9.489 -10.933   2.703  1.00  0.00     0.038 C 
BRANCH  24  25
ATOM     25  C   UNL     1     -10.545 -12.015   2.396  1.00  0.00    -0.015 C 
ATOM     26  C   UNL     1     -11.660 -11.504   1.483  1.00  0.00     0.007 C 
ATOM     27  C   UNL     1     -11.147 -12.533   3.705  1.00  0.00     0.007 C 
ENDBRANCH  24  25
ENDBRANCH  18  24
ENDBRANCH  15  18
ENDBRANCH  13  14
BRANCH  13  28
ATOM     28  C   UNL     1      -5.269 -10.621   4.178  1.00  0.00     0.327 C 
ATOM     29  O   UNL     1      -5.447 -11.636   3.522  1.00  0.00    -0.250 OA
BRANCH  28  30
ATOM     30  O   UNL     1      -4.481 -10.645   5.273  1.00  0.00    -0.480 OA
ATOM     31  H   UNL     1      -4.941 -10.063   5.913  1.00  0.00     0.296 HD
ENDBRANCH  28  30
ENDBRANCH  13  28
ENDBRANCH  11  13
ENDBRANCH   8  11
ENDBRANCH   6   7
BRANCH   6  32
ATOM     32  C   UNL     1      -2.830  -5.781   5.740  1.00  0.00     0.037 C 
BRANCH  32  33
ATOM     33  C   UNL     1      -4.109  -5.197   6.355  1.00  0.00     0.026 C 
BRANCH  33  34
ATOM     34  C   UNL     1      -4.854  -6.209   7.228  1.00  0.00     0.146 C 
BRANCH  34  35
ATOM     35  N   UNL     1      -5.208  -5.571   8.489  1.00  0.00    -0.254 NA
ATOM     36  C   UNL     1      -6.381  -5.763   8.966  1.00  0.00     0.185 C 
ATOM     37  N   UNL     1      -6.716  -5.184  10.129  1.00  0.00    -0.370 N 
ATOM     38  N   UNL     1      -7.390  -6.494   8.460  1.00  0.00    -0.370 N 
ATOM     39  H   UNL     1      -6.004  -4.624  10.580  1.00  0.00     0.159 HD
ATOM     40  H   UNL     1      -7.542  -5.422  10.651  1.00  0.00     0.159 HD
ATOM     41  H   UNL     1      -8.313  -6.454   8.859  1.00  0.00     0.159 HD
ATOM     42  H   UNL     1      -7.284  -6.974   7.579  1.00  0.00     0.159 HD
ENDBRANCH  34  35
ENDBRANCH  33  34
ENDBRANCH  32  33
ENDBRANCH   6  32
ENDBRANCH   4   6
ENDBRANCH   1   2
BRANCH   1  43
ATOM     43  C   UNL     1       0.052  -3.227   1.643  1.00  0.00     0.102 C 
ATOM     44  C   UNL     1      -0.994  -2.482   2.490  1.00  0.00     0.020 C 
BRANCH  43  45
ATOM     45  C   UNL     1       0.157  -2.722   0.201  1.00  0.00     0.225 C 
ATOM     46  O   UNL     1      -0.737  -2.866  -0.628  1.00  0.00    -0.275 OA
ATOM     47  N   UNL     1       1.369  -2.169  -0.146  1.00  0.00    -0.342 N 
ATOM     48  H   UNL     1       2.031  -1.922   0.576  1.00  0.00     0.164 HD
BRANCH  47  49
ATOM     49  C   UNL     1       1.603  -1.611  -1.481  1.00  0.00     0.192 C 
BRANCH  49  50
ATOM     50  C   UNL     1       3.033  -1.926  -1.927  1.00  0.00     0.047 C 
BRANCH  50  51
ATOM     51  C   UNL     1       3.560  -3.230  -1.314  1.00  0.00     0.103 C 
BRANCH  51  52
ATOM     52  C   UNL     1       3.115  -4.458  -2.106  1.00  0.00     0.226 C 
ATOM     53  O   UNL     1       1.927  -4.784  -2.108  1.00  0.00    -0.275 OA
BRANCH  52  54
ATOM     54  N   UNL     1       4.107  -5.110  -2.862  1.00  0.00    -0.311 N 
ATOM     55  C   UNL     1       4.842  -6.258  -2.315  1.00  0.00     0.153 C 
BRANCH  54  56
ATOM     56  C   UNL     1       4.427  -4.692  -4.164  1.00  0.00     0.102 C 
ATOM     57  C   UNL     1       3.897  -5.204  -5.287  1.00  0.00     0.043 C 
BRANCH  56  58
ATOM     58  C   UNL     1       5.399  -3.560  -4.399  1.00  0.00     0.268 C 
ATOM     59  O   UNL     1       6.313  -3.292  -3.630  1.00  0.00    -0.268 OA
ATOM     60  N   UNL     1       5.193  -2.909  -5.591  1.00  0.00    -0.339 N 
ATOM     61  H   UNL     1       4.407  -3.185  -6.168  1.00  0.00     0.164 HD
BRANCH  60  62
ATOM     62  C   UNL     1       6.059  -1.821  -6.045  1.00  0.00     0.168 CG0
ATOM     63  C   UNL     1       6.777  -2.196  -7.335  1.00  0.00     0.041 C 
ATOM     64  G   UNL     1       7.073  -1.471  -4.937  1.00  0.00     0.000 G0
ENDBRANCH  60  62
ENDBRANCH  56  58
ENDBRANCH  54  56
ENDBRANCH  52  54
ENDBRANCH  51  52
ENDBRANCH  50  51
ENDBRANCH  49  50
BRANCH  49  65
ATOM     65  C   UNL     1       1.385  -0.090  -1.506  1.00  0.00     0.326 C 
ATOM     66  O   UNL     1       0.313   0.477  -1.347  1.00  0.00    -0.250 OA
BRANCH  65  67
ATOM     67  O   UNL     1       2.491   0.633  -1.786  1.00  0.00    -0.480 OA
ATOM     68  H   UNL     1       2.139   1.530  -1.976  1.00  0.00     0.296 HD
ENDBRANCH  65  67
ENDBRANCH  49  65
ENDBRANCH  47  49
ENDBRANCH  43  45
ENDBRANCH   1  43
BRANCH   1  69
ATOM     69  C   UNL     1      -0.144  -5.542   0.373  1.00  0.00    -0.001 C 
ATOM     70  C   UNL     1      -1.084  -6.410  -0.039  1.00  0.00     0.001 C 
BRANCH  70  71
ATOM     71  C   UNL     1      -1.119  -7.129  -1.314  1.00  0.00    -0.055 C 
ATOM     72  C   UNL     1      -1.129  -6.395  -2.448  1.00  0.00    -0.018 C 
ATOM     73  C   UNL     1      -1.134  -8.634  -1.272  1.00  0.00     0.044 C 
BRANCH  72  74
ATOM     74  C   UNL     1      -1.160  -6.862  -3.896  1.00  0.00     0.038 C 
ATOM     75  C   UNL     1       0.288  -6.871  -4.400  1.00  0.00     0.015 C 
BRANCH  74  76
ATOM     76  C   UNL     1      -2.125  -5.940  -4.698  1.00  0.00     0.128 C 
BRANCH  76  77
ATOM     77  O   UNL     1      -1.705  -5.867  -6.072  1.00  0.00    -0.381 OA
ATOM     78  C   UNL     1      -2.551  -6.579  -6.965  1.00  0.00     0.195 C 
ENDBRANCH  76  77
BRANCH  76  79
ATOM     79  C   UNL     1      -3.621  -6.311  -4.547  1.00  0.00     0.068 C 
BRANCH  79  80
ATOM     80  C   UNL     1      -3.965  -7.560  -3.772  1.00  0.00    -0.045 A 
ATOM     81  C   UNL     1      -3.755  -8.831  -4.322  1.00  0.00     0.004 A 
ATOM     82  C   UNL     1      -4.531  -7.464  -2.491  1.00  0.00     0.004 A 
ATOM     83  C   UNL     1      -4.090  -9.981  -3.604  1.00  0.00     0.000 A 
ATOM     84  C   UNL     1      -4.865  -8.615  -1.775  1.00  0.00     0.000 A 
ATOM     85  C   UNL     1      -4.643  -9.873  -2.330  1.00  0.00     0.000 A 
ENDBRANCH  79  80
ENDBRANCH  76  79
ENDBRANCH  74  76
ENDBRANCH  72  74
ENDBRANCH  70  71
ENDBRANCH   1  69
TORSDOF 17
ENDMDL
MODEL 8
REMARK VINA RESULT:    -7.141      2.547      4.634
REMARK INTER + INTRA:         -27.028
REMARK INTER:                 -21.741
REMARK INTRA:                  -5.288
REMARK UNBOUND:                -5.692
REMARK SMILES C=C1C(=O)N[C@H](C)C(=O)N[C@@H](CC(C)C)C(=O)N[C@@H](C(=O)O)[C@H](C)C(=O)N[C@@H](CCCN=C(N)N)C(=O)N[C@@H](/C=C/C(C)=C/[C@H](C)[C@H](Cc2ccccc2)OC)[C@H](C)C(=O)N[C@@H](C(=O)O)CCC(=O)N1C
REMARK SMILES IDX 39 1 38 2 37 3 36 4 28 6 27 7 25 8 26 9 23 11 24 12 19 13
REMARK SMILES IDX 18 14 16 15 17 16 11 18 10 19 8 20 9 21 12 24 13 25 14 26
REMARK SMILES IDX 15 27 20 28 21 29 22 30 29 32 30 33 31 34 32 35 33 36 34 37
REMARK SMILES IDX 35 38 57 43 58 44 59 45 60 46 61 47 62 49 66 50 67 51 68 52
REMARK SMILES IDX 69 53 70 54 71 55 2 56 1 57 3 58 4 59 5 60 6 62 7 63 63 65
REMARK SMILES IDX 64 66 65 67 40 69 41 70 42 71 44 72 43 73 45 74 46 75 47 76
REMARK SMILES IDX 55 77 56 78 48 79 49 80 50 81 54 82 51 83 53 84 52 85
REMARK H PARENT 38 5 27 10 18 17 10 22 22 31 34 39 34 40 35 41 35 42 61 48
REMARK H PARENT 5 61 65 68
REMARK Flexibility Score:  369.900
ROOT
ATOM      1  C   UNL     1      -0.284  -4.533   1.318  1.00  0.00     0.117 C 
ENDROOT
BRANCH   1   2
ATOM      2  N   UNL     1      -1.472  -4.971   2.052  1.00  0.00    -0.347 N 
ATOM      3  O   UNL     1      -0.399  -5.945   3.832  1.00  0.00    -0.273 OA
ATOM      4  C   UNL     1      -1.435  -5.563   3.300  1.00  0.00     0.243 C 
ATOM      5  H   UNL     1      -2.386  -4.795   1.663  1.00  0.00     0.164 HD
BRANCH   4   6
ATOM      6  C   UNL     1      -2.837  -5.852   3.894  1.00  0.00     0.171 C 
BRANCH   6   7
ATOM      7  N   UNL     1      -3.408  -7.071   3.299  1.00  0.00    -0.344 N 
ATOM      8  C   UNL     1      -4.770  -7.274   3.284  1.00  0.00     0.226 C 
ATOM      9  O   UNL     1      -5.562  -6.479   3.776  1.00  0.00    -0.275 OA
ATOM     10  H   UNL     1      -2.782  -7.782   2.943  1.00  0.00     0.164 HD
BRANCH   8  11
ATOM     11  C   UNL     1      -5.205  -8.552   2.587  1.00  0.00     0.109 C 
ATOM     12  C   UNL     1      -3.994  -9.252   1.971  1.00  0.00     0.021 C 
BRANCH  11  13
ATOM     13  C   UNL     1      -6.032  -9.420   3.556  1.00  0.00     0.204 C 
BRANCH  13  14
ATOM     14  N   UNL     1      -5.469  -9.426   4.909  1.00  0.00    -0.340 N 
ATOM     15  C   UNL     1      -5.223 -10.586   5.612  1.00  0.00     0.243 C 
ATOM     16  O   UNL     1      -5.403 -11.702   5.129  1.00  0.00    -0.273 OA
ATOM     17  H   UNL     1      -5.439  -8.540   5.422  1.00  0.00     0.164 HD
BRANCH  15  18
ATOM     18  C   UNL     1      -4.826 -10.342   7.089  1.00  0.00     0.171 C 
BRANCH  18  19
ATOM     19  N   UNL     1      -6.071 -10.149   7.830  1.00  0.00    -0.343 N 
ATOM     20  C   UNL     1      -6.146  -9.307   8.923  1.00  0.00     0.242 CG0
ATOM     21  O   UNL     1      -5.142  -8.786   9.403  1.00  0.00    -0.273 OA
ATOM     22  H   UNL     1      -6.905 -10.649   7.542  1.00  0.00     0.164 HD
ATOM     23  G   UNL     1      -7.559  -9.171   9.527  1.00  0.00     0.000 G0
ENDBRANCH  18  19
BRANCH  18  24
ATOM     24  C   UNL     1      -4.024 -11.528   7.637  1.00  0.00     0.038 C 
BRANCH  24  25
ATOM     25  C   UNL     1      -2.592 -11.180   8.097  1.00  0.00    -0.015 C 
ATOM     26  C   UNL     1      -2.301  -9.681   8.022  1.00  0.00     0.007 C 
ATOM     27  C   UNL     1      -1.578 -11.946   7.244  1.00  0.00     0.007 C 
ENDBRANCH  24  25
ENDBRANCH  18  24
ENDBRANCH  15  18
ENDBRANCH  13  14
BRANCH  13  28
ATOM     28  C   UNL     1      -7.491  -8.968   3.674  1.00  0.00     0.327 C 
ATOM     29  O   UNL     1      -8.290  -9.321   4.528  1.00  0.00    -0.250 OA
BRANCH  28  30
ATOM     30  O   UNL     1      -7.891  -8.195   2.644  1.00  0.00    -0.480 OA
ATOM     31  H   UNL     1      -7.286  -7.425   2.672  1.00  0.00     0.296 HD
ENDBRANCH  28  30
ENDBRANCH  13  28
ENDBRANCH  11  13
ENDBRANCH   8  11
ENDBRANCH   6   7
BRANCH   6  32
ATOM     32  C   UNL     1      -2.720  -5.989   5.416  1.00  0.00     0.037 C 
BRANCH  32  33
ATOM     33  C   UNL     1      -3.588  -4.963   6.159  1.00  0.00     0.026 C 
BRANCH  33  34
ATOM     34  C   UNL     1      -4.851  -5.587   6.755  1.00  0.00     0.146 C 
BRANCH  34  35
ATOM     35  N   UNL     1      -4.787  -5.480   8.206  1.00  0.00    -0.254 NA
ATOM     36  C   UNL     1      -5.859  -5.661   8.883  1.00  0.00     0.185 C 
ATOM     37  N   UNL     1      -5.811  -5.570  10.221  1.00  0.00    -0.370 N 
ATOM     38  N   UNL     1      -7.098  -5.945   8.443  1.00  0.00    -0.370 N 
ATOM     39  H   UNL     1      -4.907  -5.368  10.630  1.00  0.00     0.159 HD
ATOM     40  H   UNL     1      -6.558  -5.866  10.826  1.00  0.00     0.159 HD
ATOM     41  H   UNL     1      -7.889  -5.926   9.066  1.00  0.00     0.159 HD
ATOM     42  H   UNL     1      -7.285  -6.027   7.456  1.00  0.00     0.159 HD
ENDBRANCH  34  35
ENDBRANCH  33  34
ENDBRANCH  32  33
ENDBRANCH   6  32
ENDBRANCH   4   6
ENDBRANCH   1   2
BRANCH   1  43
ATOM     43  C   UNL     1      -0.056  -3.021   1.603  1.00  0.00     0.102 C 
ATOM     44  C   UNL     1      -1.100  -2.413   2.555  1.00  0.00     0.020 C 
BRANCH  43  45
ATOM     45  C   UNL     1       0.128  -2.237   0.300  1.00  0.00     0.225 C 
ATOM     46  O   UNL     1      -0.802  -1.707  -0.301  1.00  0.00    -0.275 OA
ATOM     47  N   UNL     1       1.403  -2.240  -0.219  1.00  0.00    -0.342 N 
ATOM     48  H   UNL     1       2.176  -2.545   0.356  1.00  0.00     0.164 HD
BRANCH  47  49
ATOM     49  C   UNL     1       1.734  -1.502  -1.441  1.00  0.00     0.192 C 
BRANCH  49  50
ATOM     50  C   UNL     1       2.964  -2.129  -2.103  1.00  0.00     0.047 C 
BRANCH  50  51
ATOM     51  C   UNL     1       3.267  -3.532  -1.558  1.00  0.00     0.103 C 
BRANCH  51  52
ATOM     52  C   UNL     1       4.482  -4.161  -2.237  1.00  0.00     0.226 C 
ATOM     53  O   UNL     1       4.327  -5.109  -3.009  1.00  0.00    -0.275 OA
BRANCH  52  54
ATOM     54  N   UNL     1       5.725  -3.551  -1.986  1.00  0.00    -0.311 N 
ATOM     55  C   UNL     1       6.389  -3.695  -0.683  1.00  0.00     0.153 C 
BRANCH  54  56
ATOM     56  C   UNL     1       6.379  -2.790  -2.969  1.00  0.00     0.102 C 
ATOM     57  C   UNL     1       7.073  -3.299  -4.000  1.00  0.00     0.043 C 
BRANCH  56  58
ATOM     58  C   UNL     1       6.305  -1.281  -2.957  1.00  0.00     0.268 C 
ATOM     59  O   UNL     1       6.027  -0.632  -1.957  1.00  0.00    -0.268 OA
ATOM     60  N   UNL     1       6.645  -0.714  -4.162  1.00  0.00    -0.339 N 
ATOM     61  H   UNL     1       6.853  -1.322  -4.945  1.00  0.00     0.164 HD
BRANCH  60  62
ATOM     62  C   UNL     1       6.700   0.735  -4.353  1.00  0.00     0.168 CG0
ATOM     63  C   UNL     1       8.100   1.180  -4.758  1.00  0.00     0.041 C 
ATOM     64  G   UNL     1       6.255   1.444  -3.058  1.00  0.00     0.000 G0
ENDBRANCH  60  62
ENDBRANCH  56  58
ENDBRANCH  54  56
ENDBRANCH  52  54
ENDBRANCH  51  52
ENDBRANCH  50  51
ENDBRANCH  49  50
BRANCH  49  65
ATOM     65  C   UNL     1       2.013  -0.019  -1.150  1.00  0.00     0.326 C 
ATOM     66  O   UNL     1       1.181   0.805  -0.800  1.00  0.00    -0.250 OA
BRANCH  65  67
ATOM     67  O   UNL     1       3.290   0.367  -1.368  1.00  0.00    -0.480 OA
ATOM     68  H   UNL     1       3.813  -0.439  -1.168  1.00  0.00     0.296 HD
ENDBRANCH  65  67
ENDBRANCH  49  65
ENDBRANCH  47  49
ENDBRANCH  43  45
ENDBRANCH   1  43
BRANCH   1  69
ATOM     69  C   UNL     1      -0.480  -4.988  -0.117  1.00  0.00    -0.001 C 
ATOM     70  C   UNL     1       0.331  -5.778  -0.842  1.00  0.00     0.001 C 
BRANCH  70  71
ATOM     71  C   UNL     1       0.120  -6.228  -2.219  1.00  0.00    -0.055 C 
ATOM     72  C   UNL     1       0.998  -7.116  -2.731  1.00  0.00    -0.018 C 
ATOM     73  C   UNL     1      -1.066  -5.674  -2.965  1.00  0.00     0.044 C 
BRANCH  72  74
ATOM     74  C   UNL     1       1.029  -7.753  -4.113  1.00  0.00     0.038 C 
ATOM     75  C   UNL     1       1.928  -8.992  -4.020  1.00  0.00     0.015 C 
BRANCH  74  76
ATOM     76  C   UNL     1       1.492  -6.685  -5.147  1.00  0.00     0.128 C 
BRANCH  76  77
ATOM     77  O   UNL     1       2.916  -6.764  -5.330  1.00  0.00    -0.381 OA
ATOM     78  C   UNL     1       3.402  -5.948  -6.386  1.00  0.00     0.195 C 
ENDBRANCH  76  77
BRANCH  76  79
ATOM     79  C   UNL     1       0.712  -6.726  -6.485  1.00  0.00     0.068 C 
BRANCH  79  80
ATOM     80  C   UNL     1      -0.711  -7.227  -6.460  1.00  0.00    -0.045 A 
ATOM     81  C   UNL     1      -0.993  -8.599  -6.430  1.00  0.00     0.004 A 
ATOM     82  C   UNL     1      -1.781  -6.320  -6.494  1.00  0.00     0.004 A 
ATOM     83  C   UNL     1      -2.313  -9.055  -6.421  1.00  0.00     0.000 A 
ATOM     84  C   UNL     1      -3.101  -6.777  -6.485  1.00  0.00     0.000 A 
ATOM     85  C   UNL     1      -3.366  -8.144  -6.447  1.00  0.00     0.000 A 
ENDBRANCH  79  80
ENDBRANCH  76  79
ENDBRANCH  74  76
ENDBRANCH  72  74
ENDBRANCH  70  71
ENDBRANCH   1  69
TORSDOF 17
ENDMDL
MODEL 9
REMARK VINA RESULT:    -6.828      2.556      4.846
REMARK INTER + INTRA:         -26.091
REMARK INTER:                 -19.102
REMARK INTRA:                  -6.990
REMARK UNBOUND:                -5.692
REMARK SMILES C=C1C(=O)N[C@H](C)C(=O)N[C@@H](CC(C)C)C(=O)N[C@@H](C(=O)O)[C@H](C)C(=O)N[C@@H](CCCN=C(N)N)C(=O)N[C@@H](/C=C/C(C)=C/[C@H](C)[C@H](Cc2ccccc2)OC)[C@H](C)C(=O)N[C@@H](C(=O)O)CCC(=O)N1C
REMARK SMILES IDX 39 1 38 2 37 3 36 4 28 6 27 7 25 8 26 9 23 11 24 12 19 13
REMARK SMILES IDX 18 14 16 15 17 16 11 18 10 19 8 20 9 21 12 24 13 25 14 26
REMARK SMILES IDX 15 27 20 28 21 29 22 30 29 32 30 33 31 34 32 35 33 36 34 37
REMARK SMILES IDX 35 38 57 43 58 44 59 45 60 46 61 47 62 49 66 50 67 51 68 52
REMARK SMILES IDX 69 53 70 54 71 55 2 56 1 57 3 58 4 59 5 60 6 62 7 63 63 65
REMARK SMILES IDX 64 66 65 67 40 69 41 70 42 71 44 72 43 73 45 74 46 75 47 76
REMARK SMILES IDX 55 77 56 78 48 79 49 80 50 81 54 82 51 83 53 84 52 85
REMARK H PARENT 38 5 27 10 18 17 10 22 22 31 34 39 34 40 35 41 35 42 61 48
REMARK H PARENT 5 61 65 68
REMARK Flexibility Score:  369.900
ROOT
ATOM      1  C   UNL     1      -0.126  -4.410   1.380  1.00  0.00     0.117 C 
ENDROOT
BRANCH   1   2
ATOM      2  N   UNL     1      -1.342  -4.766   2.112  1.00  0.00    -0.347 N 
ATOM      3  O   UNL     1      -0.414  -6.320   3.524  1.00  0.00    -0.273 OA
ATOM      4  C   UNL     1      -1.371  -5.630   3.190  1.00  0.00     0.243 C 
ATOM      5  H   UNL     1      -2.216  -4.329   1.862  1.00  0.00     0.164 HD
BRANCH   4   6
ATOM      6  C   UNL     1      -2.771  -5.769   3.840  1.00  0.00     0.171 C 
BRANCH   6   7
ATOM      7  N   UNL     1      -3.354  -7.084   3.529  1.00  0.00    -0.344 N 
ATOM      8  C   UNL     1      -4.717  -7.235   3.396  1.00  0.00     0.226 C 
ATOM      9  O   UNL     1      -5.502  -6.307   3.549  1.00  0.00    -0.275 OA
ATOM     10  H   UNL     1      -2.743  -7.888   3.462  1.00  0.00     0.164 HD
BRANCH   8  11
ATOM     11  C   UNL     1      -5.157  -8.639   3.020  1.00  0.00     0.109 C 
ATOM     12  C   UNL     1      -4.122  -9.287   2.101  1.00  0.00     0.021 C 
BRANCH  11  13
ATOM     13  C   UNL     1      -5.485  -9.442   4.296  1.00  0.00     0.204 C 
BRANCH  13  14
ATOM     14  N   UNL     1      -6.893  -9.310   4.684  1.00  0.00    -0.340 N 
ATOM     15  C   UNL     1      -7.402  -9.849   5.846  1.00  0.00     0.243 C 
ATOM     16  O   UNL     1      -6.696 -10.426   6.671  1.00  0.00    -0.273 OA
ATOM     17  H   UNL     1      -7.556  -8.979   3.979  1.00  0.00     0.164 HD
BRANCH  15  18
ATOM     18  C   UNL     1      -8.945  -9.765   5.942  1.00  0.00     0.171 C 
BRANCH  18  19
ATOM     19  N   UNL     1      -9.251  -8.571   6.728  1.00  0.00    -0.343 N 
ATOM     20  C   UNL     1      -9.348  -8.610   8.105  1.00  0.00     0.242 CG0
ATOM     21  O   UNL     1      -9.314  -9.672   8.723  1.00  0.00    -0.273 OA
ATOM     22  H   UNL     1      -9.403  -7.689   6.253  1.00  0.00     0.164 HD
ATOM     23  G   UNL     1      -9.600  -7.239   8.765  1.00  0.00     0.000 G0
ENDBRANCH  18  19
BRANCH  18  24
ATOM     24  C   UNL     1      -9.572  -9.694   4.544  1.00  0.00     0.038 C 
BRANCH  24  25
ATOM     25  C   UNL     1     -10.191 -11.017   4.048  1.00  0.00    -0.015 C 
ATOM     26  C   UNL     1     -10.293 -12.067   5.155  1.00  0.00     0.007 C 
ATOM     27  C   UNL     1      -9.361 -11.571   2.887  1.00  0.00     0.007 C 
ENDBRANCH  24  25
ENDBRANCH  18  24
ENDBRANCH  15  18
ENDBRANCH  13  14
BRANCH  13  28
ATOM     28  C   UNL     1      -5.189 -10.938   4.160  1.00  0.00     0.327 C 
ATOM     29  O   UNL     1      -5.844 -11.749   3.522  1.00  0.00    -0.250 OA
BRANCH  28  30
ATOM     30  O   UNL     1      -4.159 -11.346   4.928  1.00  0.00    -0.480 OA
ATOM     31  H   UNL     1      -3.776 -12.103   4.437  1.00  0.00     0.296 HD
ENDBRANCH  28  30
ENDBRANCH  13  28
ENDBRANCH  11  13
ENDBRANCH   8  11
ENDBRANCH   6   7
BRANCH   6  32
ATOM     32  C   UNL     1      -2.646  -5.570   5.354  1.00  0.00     0.037 C 
BRANCH  32  33
ATOM     33  C   UNL     1      -3.911  -4.950   5.964  1.00  0.00     0.026 C 
BRANCH  33  34
ATOM     34  C   UNL     1      -4.649  -5.917   6.890  1.00  0.00     0.146 C 
BRANCH  34  35
ATOM     35  N   UNL     1      -4.011  -7.224   6.810  1.00  0.00    -0.254 NA
ATOM     36  C   UNL     1      -4.465  -8.175   7.538  1.00  0.00     0.185 C 
ATOM     37  N   UNL     1      -3.888  -9.384   7.469  1.00  0.00    -0.370 N 
ATOM     38  N   UNL     1      -5.488  -8.156   8.411  1.00  0.00    -0.370 N 
ATOM     39  H   UNL     1      -3.114  -9.482   6.823  1.00  0.00     0.159 HD
ATOM     40  H   UNL     1      -4.288 -10.215   7.869  1.00  0.00     0.159 HD
ATOM     41  H   UNL     1      -5.660  -8.933   9.028  1.00  0.00     0.159 HD
ATOM     42  H   UNL     1      -6.004  -7.306   8.578  1.00  0.00     0.159 HD
ENDBRANCH  34  35
ENDBRANCH  33  34
ENDBRANCH  32  33
ENDBRANCH   6  32
ENDBRANCH   4   6
ENDBRANCH   1   2
BRANCH   1  43
ATOM     43  C   UNL     1       0.153  -2.894   1.592  1.00  0.00     0.102 C 
ATOM     44  C   UNL     1      -0.752  -2.248   2.655  1.00  0.00     0.020 C 
BRANCH  43  45
ATOM     45  C   UNL     1       0.173  -2.146   0.256  1.00  0.00     0.225 C 
ATOM     46  O   UNL     1      -0.845  -1.757  -0.310  1.00  0.00    -0.275 OA
ATOM     47  N   UNL     1       1.410  -2.015  -0.331  1.00  0.00    -0.342 N 
ATOM     48  H   UNL     1       2.243  -2.201   0.211  1.00  0.00     0.164 HD
BRANCH  47  49
ATOM     49  C   UNL     1       1.587  -1.291  -1.594  1.00  0.00     0.192 C 
BRANCH  49  50
ATOM     50  C   UNL     1       2.823  -1.822  -2.323  1.00  0.00     0.047 C 
BRANCH  50  51
ATOM     51  C   UNL     1       3.801  -2.527  -1.373  1.00  0.00     0.103 C 
BRANCH  51  52
ATOM     52  C   UNL     1       5.251  -2.131  -1.645  1.00  0.00     0.226 C 
ATOM     53  O   UNL     1       5.653  -1.016  -1.306  1.00  0.00    -0.275 OA
BRANCH  52  54
ATOM     54  N   UNL     1       6.075  -3.120  -2.212  1.00  0.00    -0.311 N 
ATOM     55  C   UNL     1       6.894  -3.999  -1.367  1.00  0.00     0.153 C 
BRANCH  54  56
ATOM     56  C   UNL     1       6.142  -3.308  -3.603  1.00  0.00     0.102 C 
ATOM     57  C   UNL     1       6.375  -4.484  -4.209  1.00  0.00     0.043 C 
BRANCH  56  58
ATOM     58  C   UNL     1       5.901  -2.159  -4.553  1.00  0.00     0.268 C 
ATOM     59  O   UNL     1       5.010  -2.158  -5.392  1.00  0.00    -0.268 OA
ATOM     60  N   UNL     1       6.740  -1.092  -4.334  1.00  0.00    -0.339 N 
ATOM     61  H   UNL     1       7.460  -1.176  -3.626  1.00  0.00     0.164 HD
BRANCH  60  62
ATOM     62  C   UNL     1       6.638   0.149  -5.100  1.00  0.00     0.168 CG0
ATOM     63  C   UNL     1       5.793   1.180  -4.361  1.00  0.00     0.041 C 
ATOM     64  G   UNL     1       6.043  -0.149  -6.491  1.00  0.00     0.000 G0
ENDBRANCH  60  62
ENDBRANCH  56  58
ENDBRANCH  54  56
ENDBRANCH  52  54
ENDBRANCH  51  52
ENDBRANCH  50  51
ENDBRANCH  49  50
BRANCH  49  65
ATOM     65  C   UNL     1       1.742   0.221  -1.364  1.00  0.00     0.326 C 
ATOM     66  O   UNL     1       2.801   0.829  -1.332  1.00  0.00    -0.250 OA
BRANCH  65  67
ATOM     67  O   UNL     1       0.585   0.877  -1.127  1.00  0.00    -0.480 OA
ATOM     68  H   UNL     1      -0.004   0.577  -1.853  1.00  0.00     0.296 HD
ENDBRANCH  65  67
ENDBRANCH  49  65
ENDBRANCH  47  49
ENDBRANCH  43  45
ENDBRANCH   1  43
BRANCH   1  69
ATOM     69  C   UNL     1      -0.314  -4.931  -0.033  1.00  0.00    -0.001 C 
ATOM     70  C   UNL     1      -0.599  -6.190  -0.408  1.00  0.00     0.001 C 
BRANCH  70  71
ATOM     71  C   UNL     1      -0.799  -6.676  -1.775  1.00  0.00    -0.055 C 
ATOM     72  C   UNL     1      -0.686  -8.004  -1.992  1.00  0.00    -0.018 C 
ATOM     73  C   UNL     1      -1.124  -5.662  -2.841  1.00  0.00     0.044 C 
BRANCH  72  74
ATOM     74  C   UNL     1      -0.842  -8.785  -3.289  1.00  0.00     0.038 C 
ATOM     75  C   UNL     1      -1.820  -9.933  -3.011  1.00  0.00     0.015 C 
BRANCH  74  76
ATOM     76  C   UNL     1       0.568  -9.231  -3.777  1.00  0.00     0.128 C 
BRANCH  76  77
ATOM     77  O   UNL     1       0.445 -10.345  -4.678  1.00  0.00    -0.381 OA
ATOM     78  C   UNL     1       1.374 -11.390  -4.423  1.00  0.00     0.195 C 
ENDBRANCH  76  77
BRANCH  76  79
ATOM     79  C   UNL     1       1.425  -8.080  -4.361  1.00  0.00     0.068 C 
BRANCH  79  80
ATOM     80  C   UNL     1       2.651  -7.651  -3.591  1.00  0.00    -0.045 A 
ATOM     81  C   UNL     1       3.808  -8.442  -3.578  1.00  0.00     0.004 A 
ATOM     82  C   UNL     1       2.641  -6.460  -2.850  1.00  0.00     0.004 A 
ATOM     83  C   UNL     1       4.933  -8.045  -2.852  1.00  0.00     0.000 A 
ATOM     84  C   UNL     1       3.766  -6.065  -2.124  1.00  0.00     0.000 A 
ATOM     85  C   UNL     1       4.912  -6.856  -2.126  1.00  0.00     0.000 A 
ENDBRANCH  79  80
ENDBRANCH  76  79
ENDBRANCH  74  76
ENDBRANCH  72  74
ENDBRANCH  70  71
ENDBRANCH   1  69
TORSDOF 17
ENDMDL
MODEL 10
REMARK VINA RESULT:    -6.757      2.467      5.014
REMARK INTER + INTRA:         -25.881
REMARK INTER:                 -20.910
REMARK INTRA:                  -4.971
REMARK UNBOUND:                -5.692
REMARK SMILES C=C1C(=O)N[C@H](C)C(=O)N[C@@H](CC(C)C)C(=O)N[C@@H](C(=O)O)[C@H](C)C(=O)N[C@@H](CCCN=C(N)N)C(=O)N[C@@H](/C=C/C(C)=C/[C@H](C)[C@H](Cc2ccccc2)OC)[C@H](C)C(=O)N[C@@H](C(=O)O)CCC(=O)N1C
REMARK SMILES IDX 39 1 38 2 37 3 36 4 28 6 27 7 25 8 26 9 23 11 24 12 19 13
REMARK SMILES IDX 18 14 16 15 17 16 11 18 10 19 8 20 9 21 12 24 13 25 14 26
REMARK SMILES IDX 15 27 20 28 21 29 22 30 29 32 30 33 31 34 32 35 33 36 34 37
REMARK SMILES IDX 35 38 57 43 58 44 59 45 60 46 61 47 62 49 66 50 67 51 68 52
REMARK SMILES IDX 69 53 70 54 71 55 2 56 1 57 3 58 4 59 5 60 6 62 7 63 63 65
REMARK SMILES IDX 64 66 65 67 40 69 41 70 42 71 44 72 43 73 45 74 46 75 47 76
REMARK SMILES IDX 55 77 56 78 48 79 49 80 50 81 54 82 51 83 53 84 52 85
REMARK H PARENT 38 5 27 10 18 17 10 22 22 31 34 39 34 40 35 41 35 42 61 48
REMARK H PARENT 5 61 65 68
REMARK Flexibility Score:  369.900
ROOT
ATOM      1  C   UNL     1      -1.452  -5.726   3.149  1.00  0.00     0.117 C 
ENDROOT
BRANCH   1   2
ATOM      2  N   UNL     1      -2.761  -5.548   3.778  1.00  0.00    -0.347 N 
ATOM      3  O   UNL     1      -2.220  -6.351   5.859  1.00  0.00    -0.273 OA
ATOM      4  C   UNL     1      -3.017  -5.791   5.114  1.00  0.00     0.243 C 
ATOM      5  H   UNL     1      -3.526  -5.180   3.233  1.00  0.00     0.164 HD
BRANCH   4   6
ATOM      6  C   UNL     1      -4.463  -5.440   5.546  1.00  0.00     0.171 C 
BRANCH   6   7
ATOM      7  N   UNL     1      -5.433  -6.276   4.820  1.00  0.00    -0.344 N 
ATOM      8  C   UNL     1      -5.483  -7.637   5.029  1.00  0.00     0.226 C 
ATOM      9  O   UNL     1      -4.722  -8.215   5.796  1.00  0.00    -0.275 OA
ATOM     10  H   UNL     1      -6.033  -5.843   4.128  1.00  0.00     0.164 HD
BRANCH   8  11
ATOM     11  C   UNL     1      -6.573  -8.350   4.248  1.00  0.00     0.109 C 
ATOM     12  C   UNL     1      -6.095  -8.642   2.825  1.00  0.00     0.021 C 
BRANCH  11  13
ATOM     13  C   UNL     1      -7.056  -9.585   5.035  1.00  0.00     0.204 C 
BRANCH  13  14
ATOM     14  N   UNL     1      -7.003  -9.370   6.485  1.00  0.00    -0.340 N 
ATOM     15  C   UNL     1      -6.814 -10.395   7.387  1.00  0.00     0.243 C 
ATOM     16  O   UNL     1      -6.616 -11.556   7.035  1.00  0.00    -0.273 OA
ATOM     17  H   UNL     1      -7.309  -8.463   6.847  1.00  0.00     0.164 HD
BRANCH  15  18
ATOM     18  C   UNL     1      -7.002  -9.963   8.862  1.00  0.00     0.171 C 
BRANCH  18  19
ATOM     19  N   UNL     1      -8.292 -10.498   9.294  1.00  0.00    -0.343 N 
ATOM     20  C   UNL     1      -9.475  -9.824   9.059  1.00  0.00     0.242 CG0
ATOM     21  O   UNL     1      -9.487  -8.686   8.598  1.00  0.00    -0.273 OA
ATOM     22  H   UNL     1      -8.323 -11.384   9.784  1.00  0.00     0.164 HD
ATOM     23  G   UNL     1     -10.740 -10.581   9.517  1.00  0.00     0.000 G0
ENDBRANCH  18  19
BRANCH  18  24
ATOM     24  C   UNL     1      -5.855 -10.491   9.731  1.00  0.00     0.038 C 
BRANCH  24  25
ATOM     25  C   UNL     1      -4.771  -9.447  10.073  1.00  0.00    -0.015 C 
ATOM     26  C   UNL     1      -3.714  -9.319   8.976  1.00  0.00     0.007 C 
ATOM     27  C   UNL     1      -4.098  -9.818  11.397  1.00  0.00     0.007 C 
ENDBRANCH  24  25
ENDBRANCH  18  24
ENDBRANCH  15  18
ENDBRANCH  13  14
BRANCH  13  28
ATOM     28  C   UNL     1      -8.489  -9.998   4.690  1.00  0.00     0.327 C 
ATOM     29  O   UNL     1      -8.889 -11.138   4.507  1.00  0.00    -0.250 OA
BRANCH  28  30
ATOM     30  O   UNL     1      -9.307  -8.946   4.479  1.00  0.00    -0.480 OA
ATOM     31  H   UNL     1      -9.813  -8.863   5.313  1.00  0.00     0.296 HD
ENDBRANCH  28  30
ENDBRANCH  13  28
ENDBRANCH  11  13
ENDBRANCH   8  11
ENDBRANCH   6   7
BRANCH   6  32
ATOM     32  C   UNL     1      -4.598  -5.635   7.060  1.00  0.00     0.037 C 
BRANCH  32  33
ATOM     33  C   UNL     1      -6.059  -5.570   7.525  1.00  0.00     0.026 C 
BRANCH  33  34
ATOM     34  C   UNL     1      -6.380  -6.615   8.594  1.00  0.00     0.146 C 
BRANCH  34  35
ATOM     35  N   UNL     1      -6.181  -6.020   9.908  1.00  0.00    -0.254 NA
ATOM     36  C   UNL     1      -7.122  -6.111  10.773  1.00  0.00     0.185 C 
ATOM     37  N   UNL     1      -6.947  -5.570  11.988  1.00  0.00    -0.370 N 
ATOM     38  N   UNL     1      -8.327  -6.695  10.652  1.00  0.00    -0.370 N 
ATOM     39  H   UNL     1      -6.057  -5.119  12.161  1.00  0.00     0.159 HD
ATOM     40  H   UNL     1      -7.556  -5.747  12.769  1.00  0.00     0.159 HD
ATOM     41  H   UNL     1      -9.035  -6.579  11.358  1.00  0.00     0.159 HD
ATOM     42  H   UNL     1      -8.601  -7.129   9.784  1.00  0.00     0.159 HD
ENDBRANCH  34  35
ENDBRANCH  33  34
ENDBRANCH  32  33
ENDBRANCH   6  32
ENDBRANCH   4   6
ENDBRANCH   1   2
BRANCH   1  43
ATOM     43  C   UNL     1      -0.724  -4.351   3.123  1.00  0.00     0.102 C 
ATOM     44  C   UNL     1      -0.996  -3.491   4.369  1.00  0.00     0.020 C 
BRANCH  43  45
ATOM     45  C   UNL     1      -0.973  -3.622   1.799  1.00  0.00     0.225 C 
ATOM     46  O   UNL     1      -1.846  -3.955   1.003  1.00  0.00    -0.275 OA
ATOM     47  N   UNL     1      -0.086  -2.612   1.504  1.00  0.00    -0.342 N 
ATOM     48  H   UNL     1       0.522  -2.253   2.226  1.00  0.00     0.164 HD
BRANCH  47  49
ATOM     49  C   UNL     1      -0.223  -1.804   0.288  1.00  0.00     0.192 C 
BRANCH  49  50
ATOM     50  C   UNL     1       1.086  -1.058   0.016  1.00  0.00     0.047 C 
BRANCH  50  51
ATOM     51  C   UNL     1       1.144  -0.484  -1.406  1.00  0.00     0.103 C 
BRANCH  51  52
ATOM     52  C   UNL     1       2.405  -0.921  -2.150  1.00  0.00     0.226 C 
ATOM     53  O   UNL     1       2.559  -2.108  -2.443  1.00  0.00    -0.275 OA
BRANCH  52  54
ATOM     54  N   UNL     1       3.295   0.101  -2.529  1.00  0.00    -0.311 N 
ATOM     55  C   UNL     1       3.079   1.489  -2.100  1.00  0.00     0.153 C 
BRANCH  54  56
ATOM     56  C   UNL     1       4.422  -0.167  -3.323  1.00  0.00     0.102 C 
ATOM     57  C   UNL     1       4.527   0.122  -4.630  1.00  0.00     0.043 C 
BRANCH  56  58
ATOM     58  C   UNL     1       5.664  -0.784  -2.724  1.00  0.00     0.268 C 
ATOM     59  O   UNL     1       6.561  -0.125  -2.216  1.00  0.00    -0.268 OA
ATOM     60  N   UNL     1       5.649  -2.159  -2.747  1.00  0.00    -0.339 N 
ATOM     61  H   UNL     1       4.872  -2.630  -3.196  1.00  0.00     0.164 HD
BRANCH  60  62
ATOM     62  C   UNL     1       6.724  -2.959  -2.163  1.00  0.00     0.168 CG0
ATOM     63  C   UNL     1       6.257  -3.655  -0.890  1.00  0.00     0.041 C 
ATOM     64  G   UNL     1       7.943  -2.059  -1.877  1.00  0.00     0.000 G0
ENDBRANCH  60  62
ENDBRANCH  56  58
ENDBRANCH  54  56
ENDBRANCH  52  54
ENDBRANCH  51  52
ENDBRANCH  50  51
ENDBRANCH  49  50
BRANCH  49  65
ATOM     65  C   UNL     1      -1.371  -0.789   0.408  1.00  0.00     0.326 C 
ATOM     66  O   UNL     1      -1.473   0.070   1.271  1.00  0.00    -0.250 OA
BRANCH  65  67
ATOM     67  O   UNL     1      -2.352  -0.937  -0.510  1.00  0.00    -0.480 OA
ATOM     68  H   UNL     1      -3.138  -1.174   0.027  1.00  0.00     0.296 HD
ENDBRANCH  65  67
ENDBRANCH  49  65
ENDBRANCH  47  49
ENDBRANCH  43  45
ENDBRANCH   1  43
BRANCH   1  69
ATOM     69  C   UNL     1      -1.706  -6.446   1.837  1.00  0.00    -0.001 C 
ATOM     70  C   UNL     1      -2.598  -7.424   1.602  1.00  0.00     0.001 C 
BRANCH  70  71
ATOM     71  C   UNL     1      -2.850  -8.097   0.326  1.00  0.00    -0.055 C 
ATOM     72  C   UNL     1      -2.277  -7.579  -0.781  1.00  0.00    -0.018 C 
ATOM     73  C   UNL     1      -3.723  -9.325   0.339  1.00  0.00     0.044 C 
BRANCH  72  74
ATOM     74  C   UNL     1      -2.357  -8.060  -2.222  1.00  0.00     0.038 C 
ATOM     75  C   UNL     1      -1.450  -9.291  -2.340  1.00  0.00     0.015 C 
BRANCH  74  76
ATOM     76  C   UNL     1      -1.982  -6.879  -3.166  1.00  0.00     0.128 C 
BRANCH  76  77
ATOM     77  O   UNL     1      -3.124  -6.495  -3.950  1.00  0.00    -0.381 OA
ATOM     78  C   UNL     1      -4.059  -5.693  -3.242  1.00  0.00     0.195 C 
ENDBRANCH  76  77
BRANCH  76  79
ATOM     79  C   UNL     1      -1.321  -5.680  -2.441  1.00  0.00     0.068 C 
BRANCH  79  80
ATOM     80  C   UNL     1       0.176  -5.704  -2.253  1.00  0.00    -0.045 A 
ATOM     81  C   UNL     1       0.774  -5.104  -1.137  1.00  0.00     0.004 A 
ATOM     82  C   UNL     1       1.000  -6.308  -3.216  1.00  0.00     0.004 A 
ATOM     83  C   UNL     1       2.161  -5.119  -0.978  1.00  0.00     0.000 A 
ATOM     84  C   UNL     1       2.387  -6.322  -3.056  1.00  0.00     0.000 A 
ATOM     85  C   UNL     1       2.967  -5.729  -1.937  1.00  0.00     0.000 A 
ENDBRANCH  79  80
ENDBRANCH  76  79
ENDBRANCH  74  76
ENDBRANCH  72  74
ENDBRANCH  70  71
ENDBRANCH   1  69
TORSDOF 17
ENDMDL
