MODEL 1
REMARK VINA RESULT:    -6.862      0.000      0.000
REMARK INTER + INTRA:         -27.425
REMARK INTER:                 -20.501
REMARK INTRA:                  -6.925
REMARK UNBOUND:                -6.925
REMARK SMILES C=C1C(=O)N[C@H](C)C(=O)N[C@@H](CC(C)C)C(=O)N[C@@H](C(=O)O)[C@H](C)C(=O)N[C@@H](CCCN=C(N)N)C(=O)N[C@@H](/C=C/C(C)=C/[C@H](C)[C@H](Cc2ccccc2)OC)[C@H](C)C(=O)N[C@@H](C(=O)O)CCC(=O)N1C
REMARK SMILES IDX 39 1 38 2 37 3 36 4 28 6 27 7 25 8 26 9 23 11 24 12 19 13
REMARK SMILES IDX 18 14 16 15 17 16 11 18 10 19 8 20 9 21 12 24 13 25 14 26
REMARK SMILES IDX 15 27 20 28 21 29 22 30 29 32 30 33 31 34 32 35 33 36 34 37
REMARK SMILES IDX 35 38 57 43 58 44 59 45 60 46 61 47 62 49 66 50 67 51 68 52
REMARK SMILES IDX 69 53 70 54 71 55 2 56 1 57 3 58 4 59 5 60 6 62 7 63 63 65
REMARK SMILES IDX 64 66 65 67 40 69 41 70 42 71 44 72 43 73 45 74 46 75 47 76
REMARK SMILES IDX 55 77 56 78 48 79 49 80 50 81 54 82 51 83 53 84 52 85
REMARK H PARENT 38 5 27 10 18 17 10 22 22 31 34 39 34 40 35 41 35 42 61 48
REMARK H PARENT 5 61 65 68
REMARK Flexibility Score:  369.900
ROOT
ATOM      1  C   UNL     1      -0.709   7.163   7.846  1.00  0.00     0.117 C 
ENDROOT
BRANCH   1   2
ATOM      2  N   UNL     1      -0.044   8.125   6.967  1.00  0.00    -0.347 N 
ATOM      3  O   UNL     1       1.977   8.196   8.052  1.00  0.00    -0.273 OA
ATOM      4  C   UNL     1       1.281   8.496   7.088  1.00  0.00     0.243 C 
ATOM      5  H   UNL     1      -0.552   8.517   6.188  1.00  0.00     0.164 HD
BRANCH   4   6
ATOM      6  C   UNL     1       1.761   9.465   5.978  1.00  0.00     0.171 C 
BRANCH   6   7
ATOM      7  N   UNL     1       1.838   8.767   4.685  1.00  0.00    -0.344 N 
ATOM      8  C   UNL     1       2.974   8.074   4.326  1.00  0.00     0.226 C 
ATOM      9  O   UNL     1       3.968   8.023   5.040  1.00  0.00    -0.275 OA
ATOM     10  H   UNL     1       1.062   8.843   4.039  1.00  0.00     0.164 HD
BRANCH   8  11
ATOM     11  C   UNL     1       2.877   7.364   2.987  1.00  0.00     0.109 C 
ATOM     12  C   UNL     1       1.762   6.319   3.026  1.00  0.00     0.021 C 
BRANCH  11  13
ATOM     13  C   UNL     1       2.754   8.401   1.854  1.00  0.00     0.204 C 
BRANCH  13  14
ATOM     14  N   UNL     1       3.721   8.161   0.779  1.00  0.00    -0.340 N 
ATOM     15  C   UNL     1       4.903   8.861   0.666  1.00  0.00     0.243 C 
ATOM     16  O   UNL     1       5.258   9.696   1.496  1.00  0.00    -0.273 OA
ATOM     17  H   UNL     1       3.421   7.596  -0.020  1.00  0.00     0.164 HD
BRANCH  15  18
ATOM     18  C   UNL     1       5.661   8.585  -0.656  1.00  0.00     0.171 C 
BRANCH  18  19
ATOM     19  N   UNL     1       5.379   7.198  -1.019  1.00  0.00    -0.343 N 
ATOM     20  C   UNL     1       6.363   6.228  -1.013  1.00  0.00     0.242 CG0
ATOM     21  O   UNL     1       7.545   6.512  -0.832  1.00  0.00    -0.273 OA
ATOM     22  H   UNL     1       4.438   6.936  -1.289  1.00  0.00     0.164 HD
ATOM     23  G   UNL     1       5.860   4.809  -1.347  1.00  0.00     0.000 G0
ENDBRANCH  18  19
BRANCH  18  24
ATOM     24  C   UNL     1       5.209   9.556  -1.753  1.00  0.00     0.038 C 
BRANCH  24  25
ATOM     25  C   UNL     1       6.357  10.204  -2.555  1.00  0.00    -0.015 C 
ATOM     26  C   UNL     1       7.202   9.173  -3.304  1.00  0.00     0.007 C 
ATOM     27  C   UNL     1       7.250  11.015  -1.612  1.00  0.00     0.007 C 
ENDBRANCH  24  25
ENDBRANCH  18  24
ENDBRANCH  15  18
ENDBRANCH  13  14
BRANCH  13  28
ATOM     28  C   UNL     1       1.363   8.434   1.214  1.00  0.00     0.327 C 
ATOM     29  O   UNL     1       1.065   8.003   0.110  1.00  0.00    -0.250 OA
BRANCH  28  30
ATOM     30  O   UNL     1       0.458   9.111   1.949  1.00  0.00    -0.480 OA
ATOM     31  H   UNL     1       0.977   9.471   2.698  1.00  0.00     0.296 HD
ENDBRANCH  28  30
ENDBRANCH  13  28
ENDBRANCH  11  13
ENDBRANCH   8  11
ENDBRANCH   6   7
BRANCH   6  32
ATOM     32  C   UNL     1       0.802  10.657   5.900  1.00  0.00     0.037 C 
BRANCH  32  33
ATOM     33  C   UNL     1       0.697  11.405   7.237  1.00  0.00     0.026 C 
BRANCH  33  34
ATOM     34  C   UNL     1      -0.590  12.222   7.352  1.00  0.00     0.146 C 
BRANCH  34  35
ATOM     35  N   UNL     1      -1.655  11.523   6.645  1.00  0.00    -0.254 NA
ATOM     36  C   UNL     1      -2.849  11.980   6.725  1.00  0.00     0.185 C 
ATOM     37  N   UNL     1      -3.837  11.346   6.074  1.00  0.00    -0.370 N 
ATOM     38  N   UNL     1      -3.298  13.056   7.394  1.00  0.00    -0.370 N 
ATOM     39  H   UNL     1      -3.576  10.530   5.536  1.00  0.00     0.159 HD
ATOM     40  H   UNL     1      -4.755  11.734   5.944  1.00  0.00     0.159 HD
ATOM     41  H   UNL     1      -4.284  13.234   7.494  1.00  0.00     0.159 HD
ATOM     42  H   UNL     1      -2.667  13.620   7.942  1.00  0.00     0.159 HD
ENDBRANCH  34  35
ENDBRANCH  33  34
ENDBRANCH  32  33
ENDBRANCH   6  32
ENDBRANCH   4   6
ENDBRANCH   1   2
BRANCH   1  43
ATOM     43  C   UNL     1      -1.410   6.089   6.964  1.00  0.00     0.102 C 
ATOM     44  C   UNL     1      -0.891   6.052   5.517  1.00  0.00     0.020 C 
BRANCH  43  45
ATOM     45  C   UNL     1      -2.934   6.196   7.075  1.00  0.00     0.225 C 
ATOM     46  O   UNL     1      -3.575   7.143   6.627  1.00  0.00    -0.275 OA
ATOM     47  N   UNL     1      -3.547   5.199   7.799  1.00  0.00    -0.342 N 
ATOM     48  H   UNL     1      -3.034   4.359   8.026  1.00  0.00     0.164 HD
BRANCH  47  49
ATOM     49  C   UNL     1      -5.003   5.152   7.958  1.00  0.00     0.192 C 
BRANCH  49  50
ATOM     50  C   UNL     1      -5.371   4.119   9.026  1.00  0.00     0.047 C 
BRANCH  50  51
ATOM     51  C   UNL     1      -4.270   3.067   9.222  1.00  0.00     0.103 C 
BRANCH  51  52
ATOM     52  C   UNL     1      -4.561   2.146  10.405  1.00  0.00     0.226 C 
ATOM     53  O   UNL     1      -5.712   1.754  10.605  1.00  0.00    -0.275 OA
BRANCH  52  54
ATOM     54  N   UNL     1      -3.451   1.735  11.167  1.00  0.00    -0.311 N 
ATOM     55  C   UNL     1      -2.081   2.012  10.716  1.00  0.00     0.153 C 
BRANCH  54  56
ATOM     56  C   UNL     1      -3.610   1.052  12.384  1.00  0.00     0.102 C 
ATOM     57  C   UNL     1      -3.470  -0.274  12.545  1.00  0.00     0.043 C 
BRANCH  56  58
ATOM     58  C   UNL     1      -3.920   1.802  13.658  1.00  0.00     0.268 C 
ATOM     59  O   UNL     1      -3.066   2.365  14.328  1.00  0.00    -0.268 OA
ATOM     60  N   UNL     1      -5.263   1.840  13.949  1.00  0.00    -0.339 N 
ATOM     61  H   UNL     1      -5.906   1.338  13.349  1.00  0.00     0.164 HD
BRANCH  60  62
ATOM     62  C   UNL     1      -5.789   2.566  15.104  1.00  0.00     0.168 CG0
ATOM     63  C   UNL     1      -6.464   3.863  14.674  1.00  0.00     0.041 C 
ATOM     64  G   UNL     1      -4.646   2.850  16.101  1.00  0.00     0.000 G0
ENDBRANCH  60  62
ENDBRANCH  56  58
ENDBRANCH  54  56
ENDBRANCH  52  54
ENDBRANCH  51  52
ENDBRANCH  50  51
ENDBRANCH  49  50
BRANCH  49  65
ATOM     65  C   UNL     1      -5.707   4.794   6.640  1.00  0.00     0.326 C 
ATOM     66  O   UNL     1      -5.643   3.713   6.071  1.00  0.00    -0.250 OA
BRANCH  65  67
ATOM     67  O   UNL     1      -6.395   5.809   6.074  1.00  0.00    -0.480 OA
ATOM     68  H   UNL     1      -5.745   6.544   6.048  1.00  0.00     0.296 HD
ENDBRANCH  65  67
ENDBRANCH  49  65
ENDBRANCH  47  49
ENDBRANCH  43  45
ENDBRANCH   1  43
BRANCH   1  69
ATOM     69  C   UNL     1      -1.547   7.979   8.812  1.00  0.00    -0.001 C 
ATOM     70  C   UNL     1      -1.150   9.029   9.553  1.00  0.00     0.001 C 
BRANCH  70  71
ATOM     71  C   UNL     1      -1.974   9.823  10.467  1.00  0.00    -0.055 C 
ATOM     72  C   UNL     1      -3.159  10.277  10.008  1.00  0.00    -0.018 C 
ATOM     73  C   UNL     1      -1.444  10.070  11.855  1.00  0.00     0.044 C 
BRANCH  72  74
ATOM     74  C   UNL     1      -4.212  11.112  10.723  1.00  0.00     0.038 C 
ATOM     75  C   UNL     1      -3.589  12.486  10.999  1.00  0.00     0.015 C 
BRANCH  74  76
ATOM     76  C   UNL     1      -4.686  10.343  11.992  1.00  0.00     0.128 C 
BRANCH  76  77
ATOM     77  O   UNL     1      -5.555  11.177  12.775  1.00  0.00    -0.381 OA
ATOM     78  C   UNL     1      -6.917  10.772  12.743  1.00  0.00     0.195 C 
ENDBRANCH  76  77
BRANCH  76  79
ATOM     79  C   UNL     1      -5.299   8.952  11.692  1.00  0.00     0.068 C 
BRANCH  79  80
ATOM     80  C   UNL     1      -4.517   7.730  12.109  1.00  0.00    -0.045 A 
ATOM     81  C   UNL     1      -3.956   6.872  11.154  1.00  0.00     0.004 A 
ATOM     82  C   UNL     1      -4.364   7.418  13.468  1.00  0.00     0.004 A 
ATOM     83  C   UNL     1      -3.246   5.735  11.547  1.00  0.00     0.000 A 
ATOM     84  C   UNL     1      -3.655   6.281  13.861  1.00  0.00     0.000 A 
ATOM     85  C   UNL     1      -3.095   5.441  12.901  1.00  0.00     0.000 A 
ENDBRANCH  79  80
ENDBRANCH  76  79
ENDBRANCH  74  76
ENDBRANCH  72  74
ENDBRANCH  70  71
ENDBRANCH   1  69
TORSDOF 17
ENDMDL
MODEL 2
REMARK VINA RESULT:    -6.662      2.081      3.183
REMARK INTER + INTRA:         -26.827
REMARK INTER:                 -19.692
REMARK INTRA:                  -7.135
REMARK UNBOUND:                -6.925
REMARK SMILES C=C1C(=O)N[C@H](C)C(=O)N[C@@H](CC(C)C)C(=O)N[C@@H](C(=O)O)[C@H](C)C(=O)N[C@@H](CCCN=C(N)N)C(=O)N[C@@H](/C=C/C(C)=C/[C@H](C)[C@H](Cc2ccccc2)OC)[C@H](C)C(=O)N[C@@H](C(=O)O)CCC(=O)N1C
REMARK SMILES IDX 39 1 38 2 37 3 36 4 28 6 27 7 25 8 26 9 23 11 24 12 19 13
REMARK SMILES IDX 18 14 16 15 17 16 11 18 10 19 8 20 9 21 12 24 13 25 14 26
REMARK SMILES IDX 15 27 20 28 21 29 22 30 29 32 30 33 31 34 32 35 33 36 34 37
REMARK SMILES IDX 35 38 57 43 58 44 59 45 60 46 61 47 62 49 66 50 67 51 68 52
REMARK SMILES IDX 69 53 70 54 71 55 2 56 1 57 3 58 4 59 5 60 6 62 7 63 63 65
REMARK SMILES IDX 64 66 65 67 40 69 41 70 42 71 44 72 43 73 45 74 46 75 47 76
REMARK SMILES IDX 55 77 56 78 48 79 49 80 50 81 54 82 51 83 53 84 52 85
REMARK H PARENT 38 5 27 10 18 17 10 22 22 31 34 39 34 40 35 41 35 42 61 48
REMARK H PARENT 5 61 65 68
REMARK Flexibility Score:  369.900
ROOT
ATOM      1  C   UNL     1      -0.733   7.049   7.750  1.00  0.00     0.117 C 
ENDROOT
BRANCH   1   2
ATOM      2  N   UNL     1       0.456   7.485   7.017  1.00  0.00    -0.347 N 
ATOM      3  O   UNL     1       1.613   5.503   7.091  1.00  0.00    -0.273 OA
ATOM      4  C   UNL     1       1.498   6.648   6.666  1.00  0.00     0.243 C 
ATOM      5  H   UNL     1       0.517   8.439   6.696  1.00  0.00     0.164 HD
BRANCH   4   6
ATOM      6  C   UNL     1       2.594   7.340   5.817  1.00  0.00     0.171 C 
BRANCH   6   7
ATOM      7  N   UNL     1       2.106   7.592   4.452  1.00  0.00    -0.344 N 
ATOM      8  C   UNL     1       2.709   6.992   3.368  1.00  0.00     0.226 C 
ATOM      9  O   UNL     1       3.678   6.251   3.478  1.00  0.00    -0.275 OA
ATOM     10  H   UNL     1       1.350   8.251   4.315  1.00  0.00     0.164 HD
BRANCH   8  11
ATOM     11  C   UNL     1       2.055   7.309   2.034  1.00  0.00     0.109 C 
ATOM     12  C   UNL     1       0.579   7.646   2.239  1.00  0.00     0.021 C 
BRANCH  11  13
ATOM     13  C   UNL     1       2.871   8.390   1.297  1.00  0.00     0.204 C 
BRANCH  13  14
ATOM     14  N   UNL     1       4.155   7.876   0.811  1.00  0.00    -0.340 N 
ATOM     15  C   UNL     1       5.244   8.687   0.572  1.00  0.00     0.243 C 
ATOM     16  O   UNL     1       5.233   9.893   0.810  1.00  0.00    -0.273 OA
ATOM     17  H   UNL     1       4.184   6.918   0.452  1.00  0.00     0.164 HD
BRANCH  15  18
ATOM     18  C   UNL     1       6.415   7.958  -0.132  1.00  0.00     0.171 C 
BRANCH  18  19
ATOM     19  N   UNL     1       6.606   8.621  -1.421  1.00  0.00    -0.343 N 
ATOM     20  C   UNL     1       5.709   8.465  -2.460  1.00  0.00     0.242 CG0
ATOM     21  O   UNL     1       4.783   7.660  -2.395  1.00  0.00    -0.273 OA
ATOM     22  H   UNL     1       7.420   9.208  -1.563  1.00  0.00     0.164 HD
ATOM     23  G   UNL     1       6.034   9.303  -3.713  1.00  0.00     0.000 G0
ENDBRANCH  18  19
BRANCH  18  24
ATOM     24  C   UNL     1       7.685   8.021   0.725  1.00  0.00     0.038 C 
BRANCH  24  25
ATOM     25  C   UNL     1       7.521   7.478   2.161  1.00  0.00    -0.015 C 
ATOM     26  C   UNL     1       8.028   8.458   3.219  1.00  0.00     0.007 C 
ATOM     27  C   UNL     1       8.264   6.146   2.294  1.00  0.00     0.007 C 
ENDBRANCH  24  25
ENDBRANCH  18  24
ENDBRANCH  15  18
ENDBRANCH  13  14
BRANCH  13  28
ATOM     28  C   UNL     1       2.135   8.986   0.093  1.00  0.00     0.327 C 
ATOM     29  O   UNL     1       1.649   8.362  -0.838  1.00  0.00    -0.250 OA
BRANCH  28  30
ATOM     30  O   UNL     1       2.159  10.334   0.073  1.00  0.00    -0.480 OA
ATOM     31  H   UNL     1       1.780  10.595   0.938  1.00  0.00     0.296 HD
ENDBRANCH  28  30
ENDBRANCH  13  28
ENDBRANCH  11  13
ENDBRANCH   8  11
ENDBRANCH   6   7
BRANCH   6  32
ATOM     32  C   UNL     1       3.009   8.648   6.500  1.00  0.00     0.037 C 
BRANCH  32  33
ATOM     33  C   UNL     1       3.378   9.739   5.486  1.00  0.00     0.026 C 
BRANCH  33  34
ATOM     34  C   UNL     1       2.588  11.031   5.703  1.00  0.00     0.146 C 
BRANCH  34  35
ATOM     35  N   UNL     1       1.367  10.717   6.431  1.00  0.00    -0.254 NA
ATOM     36  C   UNL     1       0.314  11.406   6.189  1.00  0.00     0.185 C 
ATOM     37  N   UNL     1      -0.819  11.122   6.851  1.00  0.00    -0.370 N 
ATOM     38  N   UNL     1       0.150  12.425   5.328  1.00  0.00    -0.370 N 
ATOM     39  H   UNL     1      -0.779  10.357   7.512  1.00  0.00     0.159 HD
ATOM     40  H   UNL     1      -1.719  11.493   6.598  1.00  0.00     0.159 HD
ATOM     41  H   UNL     1      -0.691  12.978   5.329  1.00  0.00     0.159 HD
ATOM     42  H   UNL     1       0.924  12.757   4.773  1.00  0.00     0.159 HD
ENDBRANCH  34  35
ENDBRANCH  33  34
ENDBRANCH  32  33
ENDBRANCH   6  32
ENDBRANCH   4   6
ENDBRANCH   1   2
BRANCH   1  43
ATOM     43  C   UNL     1      -1.981   7.271   6.847  1.00  0.00     0.102 C 
ATOM     44  C   UNL     1      -2.902   8.398   7.343  1.00  0.00     0.020 C 
BRANCH  43  45
ATOM     45  C   UNL     1      -2.706   5.949   6.577  1.00  0.00     0.225 C 
ATOM     46  O   UNL     1      -2.118   4.902   6.323  1.00  0.00    -0.275 OA
ATOM     47  N   UNL     1      -4.079   6.024   6.542  1.00  0.00    -0.342 N 
ATOM     48  H   UNL     1      -4.545   6.846   6.899  1.00  0.00     0.164 HD
BRANCH  47  49
ATOM     49  C   UNL     1      -4.906   4.832   6.329  1.00  0.00     0.192 C 
BRANCH  49  50
ATOM     50  C   UNL     1      -4.726   3.865   7.502  1.00  0.00     0.047 C 
BRANCH  50  51
ATOM     51  C   UNL     1      -5.279   4.435   8.816  1.00  0.00     0.103 C 
BRANCH  51  52
ATOM     52  C   UNL     1      -4.311   4.234   9.980  1.00  0.00     0.226 C 
ATOM     53  O   UNL     1      -3.938   3.097  10.274  1.00  0.00    -0.275 OA
BRANCH  52  54
ATOM     54  N   UNL     1      -3.838   5.400  10.610  1.00  0.00    -0.311 N 
ATOM     55  C   UNL     1      -4.217   6.732  10.119  1.00  0.00     0.153 C 
BRANCH  54  56
ATOM     56  C   UNL     1      -2.994   5.336  11.731  1.00  0.00     0.102 C 
ATOM     57  C   UNL     1      -1.655   5.440  11.693  1.00  0.00     0.043 C 
BRANCH  56  58
ATOM     58  C   UNL     1      -3.563   5.182  13.122  1.00  0.00     0.268 C 
ATOM     59  O   UNL     1      -3.748   6.127  13.878  1.00  0.00    -0.268 OA
ATOM     60  N   UNL     1      -3.911   3.887  13.424  1.00  0.00    -0.339 N 
ATOM     61  H   UNL     1      -3.715   3.160  12.747  1.00  0.00     0.164 HD
BRANCH  60  62
ATOM     62  C   UNL     1      -4.537   3.525  14.695  1.00  0.00     0.168 CG0
ATOM     63  C   UNL     1      -6.056   3.592  14.594  1.00  0.00     0.041 C 
ATOM     64  G   UNL     1      -4.022   4.458  15.810  1.00  0.00     0.000 G0
ENDBRANCH  60  62
ENDBRANCH  56  58
ENDBRANCH  54  56
ENDBRANCH  52  54
ENDBRANCH  51  52
ENDBRANCH  50  51
ENDBRANCH  49  50
BRANCH  49  65
ATOM     65  C   UNL     1      -4.542   4.116   5.019  1.00  0.00     0.326 C 
ATOM     66  O   UNL     1      -4.592   4.610   3.902  1.00  0.00    -0.250 OA
BRANCH  65  67
ATOM     67  O   UNL     1      -4.196   2.818   5.163  1.00  0.00    -0.480 OA
ATOM     68  H   UNL     1      -4.728   2.359   4.479  1.00  0.00     0.296 HD
ENDBRANCH  65  67
ENDBRANCH  49  65
ENDBRANCH  47  49
ENDBRANCH  43  45
ENDBRANCH   1  43
BRANCH   1  69
ATOM     69  C   UNL     1      -0.674   7.738   9.101  1.00  0.00    -0.001 C 
ATOM     70  C   UNL     1       0.082   8.796   9.447  1.00  0.00     0.001 C 
BRANCH  70  71
ATOM     71  C   UNL     1       0.114   9.466  10.748  1.00  0.00    -0.055 C 
ATOM     72  C   UNL     1      -0.789   9.082  11.675  1.00  0.00    -0.018 C 
ATOM     73  C   UNL     1       1.159  10.529  10.965  1.00  0.00     0.044 C 
BRANCH  72  74
ATOM     74  C   UNL     1      -0.988   9.592  13.095  1.00  0.00     0.038 C 
ATOM     75  C   UNL     1      -1.097   8.362  14.006  1.00  0.00     0.015 C 
BRANCH  74  76
ATOM     76  C   UNL     1      -2.227  10.535  13.120  1.00  0.00     0.128 C 
BRANCH  76  77
ATOM     77  O   UNL     1      -1.824  11.883  12.824  1.00  0.00    -0.381 OA
ATOM     78  C   UNL     1      -2.450  12.425  11.669  1.00  0.00     0.195 C 
ENDBRANCH  76  77
BRANCH  76  79
ATOM     79  C   UNL     1      -3.403  10.053  12.235  1.00  0.00     0.068 C 
BRANCH  79  80
ATOM     80  C   UNL     1      -4.719   9.751  12.910  1.00  0.00    -0.045 A 
ATOM     81  C   UNL     1      -5.919   9.751  12.186  1.00  0.00     0.004 A 
ATOM     82  C   UNL     1      -4.764   9.492  14.288  1.00  0.00     0.004 A 
ATOM     83  C   UNL     1      -7.134   9.485  12.821  1.00  0.00     0.000 A 
ATOM     84  C   UNL     1      -5.980   9.227  14.922  1.00  0.00     0.000 A 
ATOM     85  C   UNL     1      -7.164   9.222  14.189  1.00  0.00     0.000 A 
ENDBRANCH  79  80
ENDBRANCH  76  79
ENDBRANCH  74  76
ENDBRANCH  72  74
ENDBRANCH  70  71
ENDBRANCH   1  69
TORSDOF 17
ENDMDL
MODEL 3
REMARK VINA RESULT:    -6.524      2.364      3.301
REMARK INTER + INTRA:         -26.416
REMARK INTER:                 -19.173
REMARK INTRA:                  -7.243
REMARK UNBOUND:                -6.925
REMARK SMILES C=C1C(=O)N[C@H](C)C(=O)N[C@@H](CC(C)C)C(=O)N[C@@H](C(=O)O)[C@H](C)C(=O)N[C@@H](CCCN=C(N)N)C(=O)N[C@@H](/C=C/C(C)=C/[C@H](C)[C@H](Cc2ccccc2)OC)[C@H](C)C(=O)N[C@@H](C(=O)O)CCC(=O)N1C
REMARK SMILES IDX 39 1 38 2 37 3 36 4 28 6 27 7 25 8 26 9 23 11 24 12 19 13
REMARK SMILES IDX 18 14 16 15 17 16 11 18 10 19 8 20 9 21 12 24 13 25 14 26
REMARK SMILES IDX 15 27 20 28 21 29 22 30 29 32 30 33 31 34 32 35 33 36 34 37
REMARK SMILES IDX 35 38 57 43 58 44 59 45 60 46 61 47 62 49 66 50 67 51 68 52
REMARK SMILES IDX 69 53 70 54 71 55 2 56 1 57 3 58 4 59 5 60 6 62 7 63 63 65
REMARK SMILES IDX 64 66 65 67 40 69 41 70 42 71 44 72 43 73 45 74 46 75 47 76
REMARK SMILES IDX 55 77 56 78 48 79 49 80 50 81 54 82 51 83 53 84 52 85
REMARK H PARENT 38 5 27 10 18 17 10 22 22 31 34 39 34 40 35 41 35 42 61 48
REMARK H PARENT 5 61 65 68
REMARK Flexibility Score:  369.900
ROOT
ATOM      1  C   UNL     1      -0.224   6.731   9.010  1.00  0.00     0.117 C 
ENDROOT
BRANCH   1   2
ATOM      2  N   UNL     1       0.540   7.113   7.822  1.00  0.00    -0.347 N 
ATOM      3  O   UNL     1       2.380   7.970   8.896  1.00  0.00    -0.273 OA
ATOM      4  C   UNL     1       1.825   7.619   7.859  1.00  0.00     0.243 C 
ATOM      5  H   UNL     1       0.143   6.958   6.908  1.00  0.00     0.164 HD
BRANCH   4   6
ATOM      6  C   UNL     1       2.441   7.860   6.457  1.00  0.00     0.171 C 
BRANCH   6   7
ATOM      7  N   UNL     1       1.620   7.219   5.418  1.00  0.00    -0.344 N 
ATOM      8  C   UNL     1       2.110   6.155   4.691  1.00  0.00     0.226 C 
ATOM      9  O   UNL     1       3.240   5.711   4.853  1.00  0.00    -0.275 OA
ATOM     10  H   UNL     1       0.706   7.601   5.209  1.00  0.00     0.164 HD
BRANCH   8  11
ATOM     11  C   UNL     1       1.124   5.570   3.696  1.00  0.00     0.109 C 
ATOM     12  C   UNL     1      -0.280   6.111   3.967  1.00  0.00     0.021 C 
BRANCH  11  13
ATOM     13  C   UNL     1       1.638   5.791   2.260  1.00  0.00     0.204 C 
BRANCH  13  14
ATOM     14  N   UNL     1       2.647   6.853   2.193  1.00  0.00    -0.340 N 
ATOM     15  C   UNL     1       2.778   7.694   1.109  1.00  0.00     0.243 C 
ATOM     16  O   UNL     1       2.016   7.652   0.145  1.00  0.00    -0.273 OA
ATOM     17  H   UNL     1       3.401   6.843   2.885  1.00  0.00     0.164 HD
BRANCH  15  18
ATOM     18  C   UNL     1       4.037   8.593   1.172  1.00  0.00     0.171 C 
BRANCH  18  19
ATOM     19  N   UNL     1       3.733   9.794   0.398  1.00  0.00    -0.343 N 
ATOM     20  C   UNL     1       4.513  10.189  -0.672  1.00  0.00     0.242 CG0
ATOM     21  O   UNL     1       5.572   9.626  -0.939  1.00  0.00    -0.273 OA
ATOM     22  H   UNL     1       2.931  10.360   0.652  1.00  0.00     0.164 HD
ATOM     23  G   UNL     1       3.991  11.436  -1.415  1.00  0.00     0.000 G0
ENDBRANCH  18  19
BRANCH  18  24
ATOM     24  C   UNL     1       4.387   8.935   2.626  1.00  0.00     0.038 C 
BRANCH  24  25
ATOM     25  C   UNL     1       5.850   8.645   3.022  1.00  0.00    -0.015 C 
ATOM     26  C   UNL     1       6.591   7.824   1.966  1.00  0.00     0.007 C 
ATOM     27  C   UNL     1       5.884   7.910   4.364  1.00  0.00     0.007 C 
ENDBRANCH  24  25
ENDBRANCH  18  24
ENDBRANCH  15  18
ENDBRANCH  13  14
BRANCH  13  28
ATOM     28  C   UNL     1       2.259   4.535   1.641  1.00  0.00     0.327 C 
ATOM     29  O   UNL     1       2.408   4.315   0.448  1.00  0.00    -0.250 OA
BRANCH  28  30
ATOM     30  O   UNL     1       2.546   3.583   2.552  1.00  0.00    -0.480 OA
ATOM     31  H   UNL     1       3.417   3.234   2.270  1.00  0.00     0.296 HD
ENDBRANCH  28  30
ENDBRANCH  13  28
ENDBRANCH  11  13
ENDBRANCH   8  11
ENDBRANCH   6   7
BRANCH   6  32
ATOM     32  C   UNL     1       2.557   9.368   6.210  1.00  0.00     0.037 C 
BRANCH  32  33
ATOM     33  C   UNL     1       1.205  10.082   6.340  1.00  0.00     0.026 C 
BRANCH  33  34
ATOM     34  C   UNL     1       1.319  11.425   7.063  1.00  0.00     0.146 C 
BRANCH  34  35
ATOM     35  N   UNL     1       0.454  11.402   8.235  1.00  0.00    -0.254 NA
ATOM     36  C   UNL     1       0.975  11.154   9.379  1.00  0.00     0.185 C 
ATOM     37  N   UNL     1       0.188  11.136  10.465  1.00  0.00    -0.370 N 
ATOM     38  N   UNL     1       2.259  10.895   9.684  1.00  0.00    -0.370 N 
ATOM     39  H   UNL     1      -0.794  11.333  10.319  1.00  0.00     0.159 HD
ATOM     40  H   UNL     1       0.540  11.123  11.407  1.00  0.00     0.159 HD
ATOM     41  H   UNL     1       2.522  10.577  10.602  1.00  0.00     0.159 HD
ATOM     42  H   UNL     1       2.961  10.860   8.961  1.00  0.00     0.159 HD
ENDBRANCH  34  35
ENDBRANCH  33  34
ENDBRANCH  32  33
ENDBRANCH   6  32
ENDBRANCH   4   6
ENDBRANCH   1   2
BRANCH   1  43
ATOM     43  C   UNL     1      -0.810   5.308   8.786  1.00  0.00     0.102 C 
ATOM     44  C   UNL     1      -0.231   4.595   7.552  1.00  0.00     0.020 C 
BRANCH  43  45
ATOM     45  C   UNL     1      -2.341   5.330   8.829  1.00  0.00     0.225 C 
ATOM     46  O   UNL     1      -2.980   5.567   9.850  1.00  0.00    -0.275 OA
ATOM     47  N   UNL     1      -2.972   4.970   7.659  1.00  0.00    -0.342 N 
ATOM     48  H   UNL     1      -2.444   4.928   6.799  1.00  0.00     0.164 HD
BRANCH  47  49
ATOM     49  C   UNL     1      -4.433   4.981   7.543  1.00  0.00     0.192 C 
BRANCH  49  50
ATOM     50  C   UNL     1      -4.986   3.595   7.885  1.00  0.00     0.047 C 
BRANCH  50  51
ATOM     51  C   UNL     1      -5.405   3.483   9.357  1.00  0.00     0.103 C 
BRANCH  51  52
ATOM     52  C   UNL     1      -4.709   2.322  10.065  1.00  0.00     0.226 C 
ATOM     53  O   UNL     1      -4.219   1.408   9.400  1.00  0.00    -0.275 OA
BRANCH  52  54
ATOM     54  N   UNL     1      -4.604   2.414  11.465  1.00  0.00    -0.311 N 
ATOM     55  C   UNL     1      -3.365   2.880  12.102  1.00  0.00     0.153 C 
BRANCH  54  56
ATOM     56  C   UNL     1      -5.677   2.069  12.304  1.00  0.00     0.102 C 
ATOM     57  C   UNL     1      -6.092   2.792  13.357  1.00  0.00     0.043 C 
BRANCH  56  58
ATOM     58  C   UNL     1      -6.501   0.831  12.039  1.00  0.00     0.268 C 
ATOM     59  O   UNL     1      -7.494   0.828  11.324  1.00  0.00    -0.268 OA
ATOM     60  N   UNL     1      -5.985  -0.298  12.629  1.00  0.00    -0.339 N 
ATOM     61  H   UNL     1      -5.164  -0.209  13.216  1.00  0.00     0.164 HD
BRANCH  60  62
ATOM     62  C   UNL     1      -6.591  -1.616  12.450  1.00  0.00     0.168 CG0
ATOM     63  C   UNL     1      -6.086  -2.597  13.502  1.00  0.00     0.041 C 
ATOM     64  G   UNL     1      -6.288  -2.136  11.030  1.00  0.00     0.000 G0
ENDBRANCH  60  62
ENDBRANCH  56  58
ENDBRANCH  54  56
ENDBRANCH  52  54
ENDBRANCH  51  52
ENDBRANCH  50  51
ENDBRANCH  49  50
BRANCH  49  65
ATOM     65  C   UNL     1      -4.886   5.374   6.128  1.00  0.00     0.326 C 
ATOM     66  O   UNL     1      -4.246   5.196   5.102  1.00  0.00    -0.250 OA
BRANCH  65  67
ATOM     67  O   UNL     1      -6.073   6.017   6.074  1.00  0.00    -0.480 OA
ATOM     68  H   UNL     1      -6.170   6.400   6.973  1.00  0.00     0.296 HD
ENDBRANCH  65  67
ENDBRANCH  49  65
ENDBRANCH  47  49
ENDBRANCH  43  45
ENDBRANCH   1  43
BRANCH   1  69
ATOM     69  C   UNL     1      -1.176   7.881   9.288  1.00  0.00    -0.001 C 
ATOM     70  C   UNL     1      -1.754   8.698   8.391  1.00  0.00     0.001 C 
BRANCH  70  71
ATOM     71  C   UNL     1      -2.688   9.791   8.670  1.00  0.00    -0.055 C 
ATOM     72  C   UNL     1      -3.121   9.937   9.940  1.00  0.00    -0.018 C 
ATOM     73  C   UNL     1      -3.094  10.679   7.522  1.00  0.00     0.044 C 
BRANCH  72  74
ATOM     74  C   UNL     1      -4.078  10.970  10.518  1.00  0.00     0.038 C 
ATOM     75  C   UNL     1      -3.298  12.283  10.655  1.00  0.00     0.015 C 
BRANCH  74  76
ATOM     76  C   UNL     1      -4.666  10.417  11.850  1.00  0.00     0.128 C 
BRANCH  76  77
ATOM     77  O   UNL     1      -5.924  11.054  12.132  1.00  0.00    -0.381 OA
ATOM     78  C   UNL     1      -7.035  10.168  12.086  1.00  0.00     0.195 C 
ENDBRANCH  76  77
BRANCH  76  79
ATOM     79  C   UNL     1      -4.750   8.871  11.907  1.00  0.00     0.068 C 
BRANCH  79  80
ATOM     80  C   UNL     1      -4.174   8.176  13.117  1.00  0.00    -0.045 A 
ATOM     81  C   UNL     1      -4.927   7.242  13.840  1.00  0.00     0.004 A 
ATOM     82  C   UNL     1      -2.875   8.479  13.554  1.00  0.00     0.004 A 
ATOM     83  C   UNL     1      -4.392   6.614  14.967  1.00  0.00     0.000 A 
ATOM     84  C   UNL     1      -2.341   7.850  14.681  1.00  0.00     0.000 A 
ATOM     85  C   UNL     1      -3.098   6.918  15.386  1.00  0.00     0.000 A 
ENDBRANCH  79  80
ENDBRANCH  76  79
ENDBRANCH  74  76
ENDBRANCH  72  74
ENDBRANCH  70  71
ENDBRANCH   1  69
TORSDOF 17
ENDMDL
MODEL 4
REMARK VINA RESULT:    -6.411      2.447      3.659
REMARK INTER + INTRA:         -26.077
REMARK INTER:                 -19.027
REMARK INTRA:                  -7.050
REMARK UNBOUND:                -6.925
REMARK SMILES C=C1C(=O)N[C@H](C)C(=O)N[C@@H](CC(C)C)C(=O)N[C@@H](C(=O)O)[C@H](C)C(=O)N[C@@H](CCCN=C(N)N)C(=O)N[C@@H](/C=C/C(C)=C/[C@H](C)[C@H](Cc2ccccc2)OC)[C@H](C)C(=O)N[C@@H](C(=O)O)CCC(=O)N1C
REMARK SMILES IDX 39 1 38 2 37 3 36 4 28 6 27 7 25 8 26 9 23 11 24 12 19 13
REMARK SMILES IDX 18 14 16 15 17 16 11 18 10 19 8 20 9 21 12 24 13 25 14 26
REMARK SMILES IDX 15 27 20 28 21 29 22 30 29 32 30 33 31 34 32 35 33 36 34 37
REMARK SMILES IDX 35 38 57 43 58 44 59 45 60 46 61 47 62 49 66 50 67 51 68 52
REMARK SMILES IDX 69 53 70 54 71 55 2 56 1 57 3 58 4 59 5 60 6 62 7 63 63 65
REMARK SMILES IDX 64 66 65 67 40 69 41 70 42 71 44 72 43 73 45 74 46 75 47 76
REMARK SMILES IDX 55 77 56 78 48 79 49 80 50 81 54 82 51 83 53 84 52 85
REMARK H PARENT 38 5 27 10 18 17 10 22 22 31 34 39 34 40 35 41 35 42 61 48
REMARK H PARENT 5 61 65 68
REMARK Flexibility Score:  369.900
ROOT
ATOM      1  C   UNL     1      -1.092   6.446   8.279  1.00  0.00     0.117 C 
ENDROOT
BRANCH   1   2
ATOM      2  N   UNL     1       0.293   6.311   7.826  1.00  0.00    -0.347 N 
ATOM      3  O   UNL     1      -0.031   4.592   6.339  1.00  0.00    -0.273 OA
ATOM      4  C   UNL     1       0.697   5.453   6.822  1.00  0.00     0.243 C 
ATOM      5  H   UNL     1       1.004   6.906   8.224  1.00  0.00     0.164 HD
BRANCH   4   6
ATOM      6  C   UNL     1       2.204   5.565   6.475  1.00  0.00     0.171 C 
BRANCH   6   7
ATOM      7  N   UNL     1       2.380   6.091   5.112  1.00  0.00    -0.344 N 
ATOM      8  C   UNL     1       2.543   5.235   4.045  1.00  0.00     0.226 C 
ATOM      9  O   UNL     1       2.572   4.017   4.174  1.00  0.00    -0.275 OA
ATOM     10  H   UNL     1       2.429   7.093   4.975  1.00  0.00     0.164 HD
BRANCH   8  11
ATOM     11  C   UNL     1       2.657   5.928   2.698  1.00  0.00     0.109 C 
ATOM     12  C   UNL     1       1.846   5.172   1.646  1.00  0.00     0.021 C 
BRANCH  11  13
ATOM     13  C   UNL     1       2.295   7.419   2.848  1.00  0.00     0.204 C 
BRANCH  13  14
ATOM     14  N   UNL     1       2.969   8.254   1.848  1.00  0.00    -0.340 N 
ATOM     15  C   UNL     1       4.271   8.684   1.988  1.00  0.00     0.243 C 
ATOM     16  O   UNL     1       4.980   8.347   2.935  1.00  0.00    -0.273 OA
ATOM     17  H   UNL     1       2.396   8.691   1.121  1.00  0.00     0.164 HD
BRANCH  15  18
ATOM     18  C   UNL     1       4.699   9.719   0.918  1.00  0.00     0.171 C 
BRANCH  18  19
ATOM     19  N   UNL     1       6.123   9.971   1.126  1.00  0.00    -0.343 N 
ATOM     20  C   UNL     1       6.618  11.247   1.315  1.00  0.00     0.242 CG0
ATOM     21  O   UNL     1       5.904  12.239   1.185  1.00  0.00    -0.273 OA
ATOM     22  H   UNL     1       6.772   9.191   1.127  1.00  0.00     0.164 HD
ATOM     23  G   UNL     1       8.133  11.308   1.597  1.00  0.00     0.000 G0
ENDBRANCH  18  19
BRANCH  18  24
ATOM     24  C   UNL     1       4.423   9.185  -0.492  1.00  0.00     0.038 C 
BRANCH  24  25
ATOM     25  C   UNL     1       5.675   9.040  -1.383  1.00  0.00    -0.015 C 
ATOM     26  C   UNL     1       5.922  10.274  -2.250  1.00  0.00     0.007 C 
ATOM     27  C   UNL     1       5.531   7.804  -2.275  1.00  0.00     0.007 C 
ENDBRANCH  24  25
ENDBRANCH  18  24
ENDBRANCH  15  18
ENDBRANCH  13  14
BRANCH  13  28
ATOM     28  C   UNL     1       0.792   7.690   2.725  1.00  0.00     0.327 C 
ATOM     29  O   UNL     1       0.249   8.380   1.876  1.00  0.00    -0.250 OA
BRANCH  28  30
ATOM     30  O   UNL     1       0.077   7.176   3.746  1.00  0.00    -0.480 OA
ATOM     31  H   UNL     1      -0.502   7.913   4.031  1.00  0.00     0.296 HD
ENDBRANCH  28  30
ENDBRANCH  13  28
ENDBRANCH  11  13
ENDBRANCH   8  11
ENDBRANCH   6   7
BRANCH   6  32
ATOM     32  C   UNL     1       2.891   6.471   7.504  1.00  0.00     0.037 C 
BRANCH  32  33
ATOM     33  C   UNL     1       4.052   7.266   6.892  1.00  0.00     0.026 C 
BRANCH  33  34
ATOM     34  C   UNL     1       3.832   8.777   6.970  1.00  0.00     0.146 C 
BRANCH  34  35
ATOM     35  N   UNL     1       3.132   9.213   5.769  1.00  0.00    -0.254 NA
ATOM     36  C   UNL     1       2.057   9.897   5.898  1.00  0.00     0.185 C 
ATOM     37  N   UNL     1       1.407  10.308   4.799  1.00  0.00    -0.370 N 
ATOM     38  N   UNL     1       1.439  10.295   7.025  1.00  0.00    -0.370 N 
ATOM     39  H   UNL     1       1.817  10.057   3.908  1.00  0.00     0.159 HD
ATOM     40  H   UNL     1       0.665  10.987   4.812  1.00  0.00     0.159 HD
ATOM     41  H   UNL     1       0.523  10.711   6.997  1.00  0.00     0.159 HD
ATOM     42  H   UNL     1       1.809  10.043   7.928  1.00  0.00     0.159 HD
ENDBRANCH  34  35
ENDBRANCH  33  34
ENDBRANCH  32  33
ENDBRANCH   6  32
ENDBRANCH   4   6
ENDBRANCH   1   2
BRANCH   1  43
ATOM     43  C   UNL     1      -1.898   7.206   7.186  1.00  0.00     0.102 C 
ATOM     44  C   UNL     1      -2.105   8.697   7.503  1.00  0.00     0.020 C 
BRANCH  43  45
ATOM     45  C   UNL     1      -3.190   6.461   6.837  1.00  0.00     0.225 C 
ATOM     46  O   UNL     1      -4.039   6.912   6.074  1.00  0.00    -0.275 OA
ATOM     47  N   UNL     1      -3.391   5.278   7.510  1.00  0.00    -0.342 N 
ATOM     48  H   UNL     1      -2.625   4.850   8.011  1.00  0.00     0.164 HD
BRANCH  47  49
ATOM     49  C   UNL     1      -4.566   4.439   7.252  1.00  0.00     0.192 C 
BRANCH  49  50
ATOM     50  C   UNL     1      -5.303   4.167   8.566  1.00  0.00     0.047 C 
BRANCH  50  51
ATOM     51  C   UNL     1      -4.564   4.749   9.779  1.00  0.00     0.103 C 
BRANCH  51  52
ATOM     52  C   UNL     1      -3.836   3.669  10.578  1.00  0.00     0.226 C 
ATOM     53  O   UNL     1      -2.754   3.238  10.176  1.00  0.00    -0.275 OA
BRANCH  52  54
ATOM     54  N   UNL     1      -4.431   3.282  11.793  1.00  0.00    -0.311 N 
ATOM     55  C   UNL     1      -4.223   4.063  13.020  1.00  0.00     0.153 C 
BRANCH  54  56
ATOM     56  C   UNL     1      -5.246   2.141  11.879  1.00  0.00     0.102 C 
ATOM     57  C   UNL     1      -6.470   2.030  11.337  1.00  0.00     0.043 C 
BRANCH  56  58
ATOM     58  C   UNL     1      -4.762   0.893  12.578  1.00  0.00     0.268 C 
ATOM     59  O   UNL     1      -3.680   0.372  12.345  1.00  0.00    -0.268 OA
ATOM     60  N   UNL     1      -5.631   0.443  13.544  1.00  0.00    -0.339 N 
ATOM     61  H   UNL     1      -6.513   0.925  13.668  1.00  0.00     0.164 HD
BRANCH  60  62
ATOM     62  C   UNL     1      -5.330  -0.715  14.384  1.00  0.00     0.168 CG0
ATOM     63  C   UNL     1      -3.907  -0.643  14.925  1.00  0.00     0.041 C 
ATOM     64  G   UNL     1      -5.541  -2.011  13.574  1.00  0.00     0.000 G0
ENDBRANCH  60  62
ENDBRANCH  56  58
ENDBRANCH  54  56
ENDBRANCH  52  54
ENDBRANCH  51  52
ENDBRANCH  50  51
ENDBRANCH  49  50
BRANCH  49  65
ATOM     65  C   UNL     1      -4.176   3.103   6.601  1.00  0.00     0.326 C 
ATOM     66  O   UNL     1      -3.797   2.106   7.198  1.00  0.00    -0.250 OA
BRANCH  65  67
ATOM     67  O   UNL     1      -4.220   3.100   5.250  1.00  0.00    -0.480 OA
ATOM     68  H   UNL     1      -3.489   3.702   4.993  1.00  0.00     0.296 HD
ENDBRANCH  65  67
ENDBRANCH  49  65
ENDBRANCH  47  49
ENDBRANCH  43  45
ENDBRANCH   1  43
BRANCH   1  69
ATOM     69  C   UNL     1      -1.025   7.029   9.679  1.00  0.00    -0.001 C 
ATOM     70  C   UNL     1      -1.987   7.009  10.619  1.00  0.00     0.001 C 
BRANCH  70  71
ATOM     71  C   UNL     1      -1.903   7.556  11.975  1.00  0.00    -0.055 C 
ATOM     72  C   UNL     1      -3.027   7.555  12.722  1.00  0.00    -0.018 C 
ATOM     73  C   UNL     1      -0.568   8.072  12.442  1.00  0.00     0.044 C 
BRANCH  72  74
ATOM     74  C   UNL     1      -3.237   8.049  14.146  1.00  0.00     0.038 C 
ATOM     75  C   UNL     1      -3.195   6.821  15.063  1.00  0.00     0.015 C 
BRANCH  74  76
ATOM     76  C   UNL     1      -4.563   8.863  14.204  1.00  0.00     0.128 C 
BRANCH  76  77
ATOM     77  O   UNL     1      -5.243   8.606  15.444  1.00  0.00    -0.381 OA
ATOM     78  C   UNL     1      -6.647   8.820  15.382  1.00  0.00     0.195 C 
ENDBRANCH  76  77
BRANCH  76  79
ATOM     79  C   UNL     1      -4.387  10.375  13.919  1.00  0.00     0.068 C 
BRANCH  79  80
ATOM     80  C   UNL     1      -3.615  10.777  12.686  1.00  0.00    -0.045 A 
ATOM     81  C   UNL     1      -2.342  11.355  12.787  1.00  0.00     0.004 A 
ATOM     82  C   UNL     1      -4.176  10.603  11.412  1.00  0.00     0.004 A 
ATOM     83  C   UNL     1      -1.640  11.737  11.643  1.00  0.00     0.000 A 
ATOM     84  C   UNL     1      -3.473  10.986  10.267  1.00  0.00     0.000 A 
ATOM     85  C   UNL     1      -2.205  11.551  10.383  1.00  0.00     0.000 A 
ENDBRANCH  79  80
ENDBRANCH  76  79
ENDBRANCH  74  76
ENDBRANCH  72  74
ENDBRANCH  70  71
ENDBRANCH   1  69
TORSDOF 17
ENDMDL
MODEL 5
REMARK VINA RESULT:    -6.368      2.674      4.387
REMARK INTER + INTRA:         -25.950
REMARK INTER:                 -18.289
REMARK INTRA:                  -7.661
REMARK UNBOUND:                -6.925
REMARK SMILES C=C1C(=O)N[C@H](C)C(=O)N[C@@H](CC(C)C)C(=O)N[C@@H](C(=O)O)[C@H](C)C(=O)N[C@@H](CCCN=C(N)N)C(=O)N[C@@H](/C=C/C(C)=C/[C@H](C)[C@H](Cc2ccccc2)OC)[C@H](C)C(=O)N[C@@H](C(=O)O)CCC(=O)N1C
REMARK SMILES IDX 39 1 38 2 37 3 36 4 28 6 27 7 25 8 26 9 23 11 24 12 19 13
REMARK SMILES IDX 18 14 16 15 17 16 11 18 10 19 8 20 9 21 12 24 13 25 14 26
REMARK SMILES IDX 15 27 20 28 21 29 22 30 29 32 30 33 31 34 32 35 33 36 34 37
REMARK SMILES IDX 35 38 57 43 58 44 59 45 60 46 61 47 62 49 66 50 67 51 68 52
REMARK SMILES IDX 69 53 70 54 71 55 2 56 1 57 3 58 4 59 5 60 6 62 7 63 63 65
REMARK SMILES IDX 64 66 65 67 40 69 41 70 42 71 44 72 43 73 45 74 46 75 47 76
REMARK SMILES IDX 55 77 56 78 48 79 49 80 50 81 54 82 51 83 53 84 52 85
REMARK H PARENT 38 5 27 10 18 17 10 22 22 31 34 39 34 40 35 41 35 42 61 48
REMARK H PARENT 5 61 65 68
REMARK Flexibility Score:  369.900
ROOT
ATOM      1  C   UNL     1      -1.101   6.852   8.138  1.00  0.00     0.117 C 
ENDROOT
BRANCH   1   2
ATOM      2  N   UNL     1       0.260   6.964   7.613  1.00  0.00    -0.347 N 
ATOM      3  O   UNL     1       0.184   5.185   6.164  1.00  0.00    -0.273 OA
ATOM      4  C   UNL     1       0.765   6.175   6.598  1.00  0.00     0.243 C 
ATOM      5  H   UNL     1       0.868   7.688   7.965  1.00  0.00     0.164 HD
BRANCH   4   6
ATOM      6  C   UNL     1       2.204   6.556   6.169  1.00  0.00     0.171 C 
BRANCH   6   7
ATOM      7  N   UNL     1       2.233   6.947   4.751  1.00  0.00    -0.344 N 
ATOM      8  C   UNL     1       2.514   6.019   3.771  1.00  0.00     0.226 C 
ATOM      9  O   UNL     1       2.773   4.848   4.026  1.00  0.00    -0.275 OA
ATOM     10  H   UNL     1       2.090   7.919   4.506  1.00  0.00     0.164 HD
BRANCH   8  11
ATOM     11  C   UNL     1       2.451   6.564   2.356  1.00  0.00     0.109 C 
ATOM     12  C   UNL     1       1.270   5.947   1.606  1.00  0.00     0.021 C 
BRANCH  11  13
ATOM     13  C   UNL     1       2.463   8.106   2.390  1.00  0.00     0.204 C 
BRANCH  13  14
ATOM     14  N   UNL     1       3.736   8.658   1.916  1.00  0.00    -0.340 N 
ATOM     15  C   UNL     1       4.719   9.110   2.770  1.00  0.00     0.243 C 
ATOM     16  O   UNL     1       4.623   9.025   3.993  1.00  0.00    -0.273 OA
ATOM     17  H   UNL     1       3.817   8.896   0.924  1.00  0.00     0.164 HD
BRANCH  15  18
ATOM     18  C   UNL     1       5.879   9.838   2.047  1.00  0.00     0.171 C 
BRANCH  18  19
ATOM     19  N   UNL     1       5.272  10.651   0.995  1.00  0.00    -0.343 N 
ATOM     20  C   UNL     1       5.726  10.612  -0.310  1.00  0.00     0.242 CG0
ATOM     21  O   UNL     1       6.743   9.996  -0.619  1.00  0.00    -0.273 OA
ATOM     22  H   UNL     1       4.500  11.266   1.224  1.00  0.00     0.164 HD
ATOM     23  G   UNL     1       4.911  11.477  -1.293  1.00  0.00     0.000 G0
ENDBRANCH  18  19
BRANCH  18  24
ATOM     24  C   UNL     1       6.676  10.700   3.034  1.00  0.00     0.038 C 
BRANCH  24  25
ATOM     25  C   UNL     1       6.283  12.193   3.048  1.00  0.00    -0.015 C 
ATOM     26  C   UNL     1       7.418  13.101   2.574  1.00  0.00     0.007 C 
ATOM     27  C   UNL     1       5.854  12.599   4.460  1.00  0.00     0.007 C 
ENDBRANCH  24  25
ENDBRANCH  18  24
ENDBRANCH  15  18
ENDBRANCH  13  14
BRANCH  13  28
ATOM     28  C   UNL     1       1.352   8.737   1.545  1.00  0.00     0.327 C 
ATOM     29  O   UNL     1       1.409   8.995   0.353  1.00  0.00    -0.250 OA
BRANCH  28  30
ATOM     30  O   UNL     1       0.283   9.114   2.275  1.00  0.00    -0.480 OA
ATOM     31  H   UNL     1      -0.333   9.502   1.619  1.00  0.00     0.296 HD
ENDBRANCH  28  30
ENDBRANCH  13  28
ENDBRANCH  11  13
ENDBRANCH   8  11
ENDBRANCH   6   7
BRANCH   6  32
ATOM     32  C   UNL     1       2.710   7.695   7.061  1.00  0.00     0.037 C 
BRANCH  32  33
ATOM     33  C   UNL     1       4.243   7.739   7.132  1.00  0.00     0.026 C 
BRANCH  33  34
ATOM     34  C   UNL     1       4.888   6.438   6.651  1.00  0.00     0.146 C 
BRANCH  34  35
ATOM     35  N   UNL     1       5.048   5.544   7.789  1.00  0.00    -0.254 NA
ATOM     36  C   UNL     1       4.695   4.319   7.663  1.00  0.00     0.185 C 
ATOM     37  N   UNL     1       4.843   3.485   8.704  1.00  0.00    -0.370 N 
ATOM     38  N   UNL     1       4.171   3.697   6.592  1.00  0.00    -0.370 N 
ATOM     39  H   UNL     1       5.242   3.878   9.547  1.00  0.00     0.159 HD
ATOM     40  H   UNL     1       4.755   2.486   8.633  1.00  0.00     0.159 HD
ATOM     41  H   UNL     1       3.805   2.762   6.660  1.00  0.00     0.159 HD
ATOM     42  H   UNL     1       3.990   4.207   5.741  1.00  0.00     0.159 HD
ENDBRANCH  34  35
ENDBRANCH  33  34
ENDBRANCH  32  33
ENDBRANCH   6  32
ENDBRANCH   4   6
ENDBRANCH   1   2
BRANCH   1  43
ATOM     43  C   UNL     1      -2.088   7.430   7.083  1.00  0.00     0.102 C 
ATOM     44  C   UNL     1      -2.536   8.870   7.387  1.00  0.00     0.020 C 
BRANCH  43  45
ATOM     45  C   UNL     1      -3.246   6.461   6.824  1.00  0.00     0.225 C 
ATOM     46  O   UNL     1      -4.417   6.822   6.743  1.00  0.00    -0.275 OA
ATOM     47  N   UNL     1      -2.905   5.129   6.779  1.00  0.00    -0.342 N 
ATOM     48  H   UNL     1      -1.934   4.864   6.695  1.00  0.00     0.164 HD
BRANCH  47  49
ATOM     49  C   UNL     1      -3.904   4.091   6.504  1.00  0.00     0.192 C 
BRANCH  49  50
ATOM     50  C   UNL     1      -3.471   2.776   7.155  1.00  0.00     0.047 C 
BRANCH  50  51
ATOM     51  C   UNL     1      -2.463   2.993   8.293  1.00  0.00     0.103 C 
BRANCH  51  52
ATOM     52  C   UNL     1      -3.050   2.630   9.655  1.00  0.00     0.226 C 
ATOM     53  O   UNL     1      -3.903   1.744   9.736  1.00  0.00    -0.275 OA
BRANCH  52  54
ATOM     54  N   UNL     1      -2.508   3.299  10.769  1.00  0.00    -0.311 N 
ATOM     55  C   UNL     1      -1.124   3.791  10.756  1.00  0.00     0.153 C 
BRANCH  54  56
ATOM     56  C   UNL     1      -3.269   3.526  11.928  1.00  0.00     0.102 C 
ATOM     57  C   UNL     1      -4.219   4.467  12.052  1.00  0.00     0.043 C 
BRANCH  56  58
ATOM     58  C   UNL     1      -3.093   2.659  13.153  1.00  0.00     0.268 C 
ATOM     59  O   UNL     1      -2.919   3.113  14.275  1.00  0.00    -0.268 OA
ATOM     60  N   UNL     1      -3.213   1.316  12.886  1.00  0.00    -0.339 N 
ATOM     61  H   UNL     1      -3.347   1.020  11.926  1.00  0.00     0.164 HD
BRANCH  60  62
ATOM     62  C   UNL     1      -3.139   0.303  13.938  1.00  0.00     0.168 CG0
ATOM     63  C   UNL     1      -1.986  -0.661  13.689  1.00  0.00     0.041 C 
ATOM     64  G   UNL     1      -4.479  -0.458  14.018  1.00  0.00     0.000 G0
ENDBRANCH  60  62
ENDBRANCH  56  58
ENDBRANCH  54  56
ENDBRANCH  52  54
ENDBRANCH  51  52
ENDBRANCH  50  51
ENDBRANCH  49  50
BRANCH  49  65
ATOM     65  C   UNL     1      -4.093   3.874   4.994  1.00  0.00     0.326 C 
ATOM     66  O   UNL     1      -4.488   4.714   4.199  1.00  0.00    -0.250 OA
BRANCH  65  67
ATOM     67  O   UNL     1      -3.841   2.616   4.570  1.00  0.00    -0.480 OA
ATOM     68  H   UNL     1      -4.413   2.520   3.778  1.00  0.00     0.296 HD
ENDBRANCH  65  67
ENDBRANCH  49  65
ENDBRANCH  47  49
ENDBRANCH  43  45
ENDBRANCH   1  43
BRANCH   1  69
ATOM     69  C   UNL     1      -1.072   7.464   9.527  1.00  0.00    -0.001 C 
ATOM     70  C   UNL     1      -1.844   7.139  10.579  1.00  0.00     0.001 C 
BRANCH  70  71
ATOM     71  C   UNL     1      -1.791   7.722  11.921  1.00  0.00    -0.055 C 
ATOM     72  C   UNL     1      -2.954   7.853  12.594  1.00  0.00    -0.018 C 
ATOM     73  C   UNL     1      -0.443   8.126  12.459  1.00  0.00     0.044 C 
BRANCH  72  74
ATOM     74  C   UNL     1      -3.202   8.413  13.988  1.00  0.00     0.038 C 
ATOM     75  C   UNL     1      -3.264   7.221  14.950  1.00  0.00     0.015 C 
BRANCH  74  76
ATOM     76  C   UNL     1      -4.487   9.292  13.952  1.00  0.00     0.128 C 
BRANCH  76  77
ATOM     77  O   UNL     1      -5.217   9.144  15.182  1.00  0.00    -0.381 OA
ATOM     78  C   UNL     1      -6.623   9.041  15.003  1.00  0.00     0.195 C 
ENDBRANCH  76  77
BRANCH  76  79
ATOM     79  C   UNL     1      -4.226  10.774  13.585  1.00  0.00     0.068 C 
BRANCH  79  80
ATOM     80  C   UNL     1      -3.409  11.063  12.349  1.00  0.00    -0.045 A 
ATOM     81  C   UNL     1      -3.965  10.934  11.069  1.00  0.00     0.004 A 
ATOM     82  C   UNL     1      -2.062  11.441  12.463  1.00  0.00     0.004 A 
ATOM     83  C   UNL     1      -3.199  11.189   9.930  1.00  0.00     0.000 A 
ATOM     84  C   UNL     1      -1.297  11.695  11.323  1.00  0.00     0.000 A 
ATOM     85  C   UNL     1      -1.865  11.571  10.058  1.00  0.00     0.000 A 
ENDBRANCH  79  80
ENDBRANCH  76  79
ENDBRANCH  74  76
ENDBRANCH  72  74
ENDBRANCH  70  71
ENDBRANCH   1  69
TORSDOF 17
ENDMDL
MODEL 6
REMARK VINA RESULT:    -6.305      6.149     11.118
REMARK INTER + INTRA:         -25.762
REMARK INTER:                 -17.935
REMARK INTRA:                  -7.827
REMARK UNBOUND:                -6.925
REMARK SMILES C=C1C(=O)N[C@H](C)C(=O)N[C@@H](CC(C)C)C(=O)N[C@@H](C(=O)O)[C@H](C)C(=O)N[C@@H](CCCN=C(N)N)C(=O)N[C@@H](/C=C/C(C)=C/[C@H](C)[C@H](Cc2ccccc2)OC)[C@H](C)C(=O)N[C@@H](C(=O)O)CCC(=O)N1C
REMARK SMILES IDX 39 1 38 2 37 3 36 4 28 6 27 7 25 8 26 9 23 11 24 12 19 13
REMARK SMILES IDX 18 14 16 15 17 16 11 18 10 19 8 20 9 21 12 24 13 25 14 26
REMARK SMILES IDX 15 27 20 28 21 29 22 30 29 32 30 33 31 34 32 35 33 36 34 37
REMARK SMILES IDX 35 38 57 43 58 44 59 45 60 46 61 47 62 49 66 50 67 51 68 52
REMARK SMILES IDX 69 53 70 54 71 55 2 56 1 57 3 58 4 59 5 60 6 62 7 63 63 65
REMARK SMILES IDX 64 66 65 67 40 69 41 70 42 71 44 72 43 73 45 74 46 75 47 76
REMARK SMILES IDX 55 77 56 78 48 79 49 80 50 81 54 82 51 83 53 84 52 85
REMARK H PARENT 38 5 27 10 18 17 10 22 22 31 34 39 34 40 35 41 35 42 61 48
REMARK H PARENT 5 61 65 68
REMARK Flexibility Score:  369.900
ROOT
ATOM      1  C   UNL     1      -2.134   0.387  11.468  1.00  0.00     0.117 C 
ENDROOT
BRANCH   1   2
ATOM      2  N   UNL     1      -2.188   1.777  11.014  1.00  0.00    -0.347 N 
ATOM      3  O   UNL     1      -4.177   1.656   9.874  1.00  0.00    -0.273 OA
ATOM      4  C   UNL     1      -3.255   2.325  10.328  1.00  0.00     0.243 C 
ATOM      5  H   UNL     1      -1.433   2.403  11.247  1.00  0.00     0.164 HD
BRANCH   4   6
ATOM      6  C   UNL     1      -3.098   3.840  10.040  1.00  0.00     0.171 C 
BRANCH   6   7
ATOM      7  N   UNL     1      -3.145   4.609  11.293  1.00  0.00    -0.344 N 
ATOM      8  C   UNL     1      -3.732   5.855  11.331  1.00  0.00     0.226 C 
ATOM      9  O   UNL     1      -4.217   6.387  10.340  1.00  0.00    -0.275 OA
ATOM     10  H   UNL     1      -2.695   4.232  12.118  1.00  0.00     0.164 HD
BRANCH   8  11
ATOM     11  C   UNL     1      -3.749   6.497  12.708  1.00  0.00     0.109 C 
ATOM     12  C   UNL     1      -4.063   5.447  13.774  1.00  0.00     0.021 C 
BRANCH  11  13
ATOM     13  C   UNL     1      -2.440   7.280  12.934  1.00  0.00     0.204 C 
BRANCH  13  14
ATOM     14  N   UNL     1      -2.143   8.190  11.824  1.00  0.00    -0.340 N 
ATOM     15  C   UNL     1      -0.858   8.514  11.445  1.00  0.00     0.243 C 
ATOM     16  O   UNL     1       0.132   8.013  11.974  1.00  0.00    -0.273 OA
ATOM     17  H   UNL     1      -2.910   8.753  11.446  1.00  0.00     0.164 HD
BRANCH  15  18
ATOM     18  C   UNL     1      -0.791   9.648  10.392  1.00  0.00     0.171 C 
BRANCH  18  19
ATOM     19  N   UNL     1       0.476  10.344  10.608  1.00  0.00    -0.343 N 
ATOM     20  C   UNL     1       0.546  11.524  11.324  1.00  0.00     0.242 CG0
ATOM     21  O   UNL     1      -0.466  12.111  11.698  1.00  0.00    -0.273 OA
ATOM     22  H   UNL     1       1.328   9.958  10.218  1.00  0.00     0.164 HD
ATOM     23  G   UNL     1       1.977  12.069  11.514  1.00  0.00     0.000 G0
ENDBRANCH  18  19
BRANCH  18  24
ATOM     24  C   UNL     1      -0.883   9.075   8.973  1.00  0.00     0.038 C 
BRANCH  24  25
ATOM     25  C   UNL     1      -1.613   9.981   7.958  1.00  0.00    -0.015 C 
ATOM     26  C   UNL     1      -2.720   9.242   7.205  1.00  0.00     0.007 C 
ATOM     27  C   UNL     1      -0.604  10.553   6.960  1.00  0.00     0.007 C 
ENDBRANCH  24  25
ENDBRANCH  18  24
ENDBRANCH  15  18
ENDBRANCH  13  14
BRANCH  13  28
ATOM     28  C   UNL     1      -2.452   8.117  14.217  1.00  0.00     0.327 C 
ATOM     29  O   UNL     1      -3.432   8.626  14.739  1.00  0.00    -0.250 OA
BRANCH  28  30
ATOM     30  O   UNL     1      -1.217   8.361  14.700  1.00  0.00    -0.480 OA
ATOM     31  H   UNL     1      -0.618   7.909  14.070  1.00  0.00     0.296 HD
ENDBRANCH  28  30
ENDBRANCH  13  28
ENDBRANCH  11  13
ENDBRANCH   8  11
ENDBRANCH   6   7
BRANCH   6  32
ATOM     32  C   UNL     1      -1.777   4.077   9.300  1.00  0.00     0.037 C 
BRANCH  32  33
ATOM     33  C   UNL     1      -1.914   5.133   8.194  1.00  0.00     0.026 C 
BRANCH  33  34
ATOM     34  C   UNL     1      -2.634   4.594   6.957  1.00  0.00     0.146 C 
BRANCH  34  35
ATOM     35  N   UNL     1      -3.756   5.469   6.648  1.00  0.00    -0.254 NA
ATOM     36  C   UNL     1      -4.886   4.939   6.358  1.00  0.00     0.185 C 
ATOM     37  N   UNL     1      -5.928   5.736   6.076  1.00  0.00    -0.370 N 
ATOM     38  N   UNL     1      -5.216   3.637   6.286  1.00  0.00    -0.370 N 
ATOM     39  H   UNL     1      -5.762   6.733   6.119  1.00  0.00     0.159 HD
ATOM     40  H   UNL     1      -6.877   5.409   6.011  1.00  0.00     0.159 HD
ATOM     41  H   UNL     1      -6.103   3.344   5.911  1.00  0.00     0.159 HD
ATOM     42  H   UNL     1      -4.525   2.923   6.458  1.00  0.00     0.159 HD
ENDBRANCH  34  35
ENDBRANCH  33  34
ENDBRANCH  32  33
ENDBRANCH   6  32
ENDBRANCH   4   6
ENDBRANCH   1   2
BRANCH   1  43
ATOM     43  C   UNL     1      -2.291   0.366  13.016  1.00  0.00     0.102 C 
ATOM     44  C   UNL     1      -1.346  -0.627  13.714  1.00  0.00     0.020 C 
BRANCH  43  45
ATOM     45  C   UNL     1      -3.761   0.211  13.417  1.00  0.00     0.225 C 
ATOM     46  O   UNL     1      -4.175   0.439  14.551  1.00  0.00    -0.275 OA
ATOM     47  N   UNL     1      -4.591  -0.296  12.444  1.00  0.00    -0.342 N 
ATOM     48  H   UNL     1      -4.273  -0.333  11.485  1.00  0.00     0.164 HD
BRANCH  47  49
ATOM     49  C   UNL     1      -6.029  -0.464  12.674  1.00  0.00     0.192 C 
BRANCH  49  50
ATOM     50  C   UNL     1      -6.487  -1.810  12.104  1.00  0.00     0.047 C 
BRANCH  50  51
ATOM     51  C   UNL     1      -5.614  -2.975  12.590  1.00  0.00     0.103 C 
BRANCH  51  52
ATOM     52  C   UNL     1      -5.214  -3.906  11.447  1.00  0.00     0.226 C 
ATOM     53  O   UNL     1      -6.012  -4.132  10.536  1.00  0.00    -0.275 OA
BRANCH  52  54
ATOM     54  N   UNL     1      -3.896  -4.399  11.473  1.00  0.00    -0.311 N 
ATOM     55  C   UNL     1      -2.753  -3.495  11.656  1.00  0.00     0.153 C 
BRANCH  54  56
ATOM     56  C   UNL     1      -3.624  -5.770  11.331  1.00  0.00     0.102 C 
ATOM     57  C   UNL     1      -3.833  -6.698  12.279  1.00  0.00     0.043 C 
BRANCH  56  58
ATOM     58  C   UNL     1      -3.097  -6.325  10.028  1.00  0.00     0.268 C 
ATOM     59  O   UNL     1      -3.361  -5.837   8.937  1.00  0.00    -0.268 OA
ATOM     60  N   UNL     1      -2.242  -7.387  10.200  1.00  0.00    -0.339 N 
ATOM     61  H   UNL     1      -2.083  -7.738  11.136  1.00  0.00     0.164 HD
BRANCH  60  62
ATOM     62  C   UNL     1      -1.569  -8.035   9.075  1.00  0.00     0.168 CG0
ATOM     63  C   UNL     1      -2.347  -9.257   8.602  1.00  0.00     0.041 C 
ATOM     64  G   UNL     1      -0.135  -8.427   9.486  1.00  0.00     0.000 G0
ENDBRANCH  60  62
ENDBRANCH  56  58
ENDBRANCH  54  56
ENDBRANCH  52  54
ENDBRANCH  51  52
ENDBRANCH  50  51
ENDBRANCH  49  50
BRANCH  49  65
ATOM     65  C   UNL     1      -6.843   0.666  12.026  1.00  0.00     0.326 C 
ATOM     66  O   UNL     1      -6.617   1.862  12.143  1.00  0.00    -0.250 OA
BRANCH  65  67
ATOM     67  O   UNL     1      -7.921   0.254  11.324  1.00  0.00    -0.480 OA
ATOM     68  H   UNL     1      -8.271  -0.494  11.854  1.00  0.00     0.296 HD
ENDBRANCH  65  67
ENDBRANCH  49  65
ENDBRANCH  47  49
ENDBRANCH  43  45
ENDBRANCH   1  43
BRANCH   1  69
ATOM     69  C   UNL     1      -0.884  -0.213  10.850  1.00  0.00    -0.001 C 
ATOM     70  C   UNL     1      -0.102   0.329   9.900  1.00  0.00     0.001 C 
BRANCH  70  71
ATOM     71  C   UNL     1       1.114  -0.250   9.326  1.00  0.00    -0.055 C 
ATOM     72  C   UNL     1       0.970  -1.223   8.401  1.00  0.00    -0.018 C 
ATOM     73  C   UNL     1       2.440   0.285   9.802  1.00  0.00     0.044 C 
BRANCH  72  74
ATOM     74  C   UNL     1       2.039  -1.995   7.641  1.00  0.00     0.038 C 
ATOM     75  C   UNL     1       1.945  -1.571   6.170  1.00  0.00     0.015 C 
BRANCH  74  76
ATOM     76  C   UNL     1       1.833  -3.517   7.896  1.00  0.00     0.128 C 
BRANCH  76  77
ATOM     77  O   UNL     1       2.031  -4.251   6.675  1.00  0.00    -0.381 OA
ATOM     78  C   UNL     1       3.303  -4.879   6.586  1.00  0.00     0.195 C 
ENDBRANCH  76  77
BRANCH  76  79
ATOM     79  C   UNL     1       2.670  -4.077   9.074  1.00  0.00     0.068 C 
BRANCH  79  80
ATOM     80  C   UNL     1       2.397  -3.535  10.456  1.00  0.00    -0.045 A 
ATOM     81  C   UNL     1       1.124  -3.640  11.033  1.00  0.00     0.004 A 
ATOM     82  C   UNL     1       3.413  -2.889  11.176  1.00  0.00     0.004 A 
ATOM     83  C   UNL     1       0.876  -3.123  12.306  1.00  0.00     0.000 A 
ATOM     84  C   UNL     1       3.163  -2.372  12.449  1.00  0.00     0.000 A 
ATOM     85  C   UNL     1       1.895  -2.491  13.015  1.00  0.00     0.000 A 
ENDBRANCH  79  80
ENDBRANCH  76  79
ENDBRANCH  74  76
ENDBRANCH  72  74
ENDBRANCH  70  71
ENDBRANCH   1  69
TORSDOF 17
ENDMDL
MODEL 7
REMARK VINA RESULT:    -6.275      6.714     12.673
REMARK INTER + INTRA:         -25.672
REMARK INTER:                 -19.559
REMARK INTRA:                  -6.113
REMARK UNBOUND:                -6.925
REMARK SMILES C=C1C(=O)N[C@H](C)C(=O)N[C@@H](CC(C)C)C(=O)N[C@@H](C(=O)O)[C@H](C)C(=O)N[C@@H](CCCN=C(N)N)C(=O)N[C@@H](/C=C/C(C)=C/[C@H](C)[C@H](Cc2ccccc2)OC)[C@H](C)C(=O)N[C@@H](C(=O)O)CCC(=O)N1C
REMARK SMILES IDX 39 1 38 2 37 3 36 4 28 6 27 7 25 8 26 9 23 11 24 12 19 13
REMARK SMILES IDX 18 14 16 15 17 16 11 18 10 19 8 20 9 21 12 24 13 25 14 26
REMARK SMILES IDX 15 27 20 28 21 29 22 30 29 32 30 33 31 34 32 35 33 36 34 37
REMARK SMILES IDX 35 38 57 43 58 44 59 45 60 46 61 47 62 49 66 50 67 51 68 52
REMARK SMILES IDX 69 53 70 54 71 55 2 56 1 57 3 58 4 59 5 60 6 62 7 63 63 65
REMARK SMILES IDX 64 66 65 67 40 69 41 70 42 71 44 72 43 73 45 74 46 75 47 76
REMARK SMILES IDX 55 77 56 78 48 79 49 80 50 81 54 82 51 83 53 84 52 85
REMARK H PARENT 38 5 27 10 18 17 10 22 22 31 34 39 34 40 35 41 35 42 61 48
REMARK H PARENT 5 61 65 68
REMARK Flexibility Score:  369.900
ROOT
ATOM      1  C   UNL     1      -0.861  -1.114   9.931  1.00  0.00     0.117 C 
ENDROOT
BRANCH   1   2
ATOM      2  N   UNL     1      -1.265   0.247  10.287  1.00  0.00    -0.347 N 
ATOM      3  O   UNL     1      -0.970   1.209   8.223  1.00  0.00    -0.273 OA
ATOM      4  C   UNL     1      -1.375   1.283   9.379  1.00  0.00     0.243 C 
ATOM      5  H   UNL     1      -1.531   0.451  11.238  1.00  0.00     0.164 HD
BRANCH   4   6
ATOM      6  C   UNL     1      -1.904   2.601   9.999  1.00  0.00     0.171 C 
BRANCH   6   7
ATOM      7  N   UNL     1      -1.920   3.673   8.991  1.00  0.00    -0.344 N 
ATOM      8  C   UNL     1      -1.157   4.808   9.160  1.00  0.00     0.226 C 
ATOM      9  O   UNL     1      -0.456   4.991  10.149  1.00  0.00    -0.275 OA
ATOM     10  H   UNL     1      -2.538   3.588   8.194  1.00  0.00     0.164 HD
BRANCH   8  11
ATOM     11  C   UNL     1      -1.239   5.795   8.009  1.00  0.00     0.109 C 
ATOM     12  C   UNL     1      -1.470   5.051   6.694  1.00  0.00     0.021 C 
BRANCH  11  13
ATOM     13  C   UNL     1      -2.283   6.884   8.329  1.00  0.00     0.204 C 
BRANCH  13  14
ATOM     14  N   UNL     1      -1.935   7.644   9.534  1.00  0.00    -0.340 N 
ATOM     15  C   UNL     1      -2.851   8.401  10.232  1.00  0.00     0.243 C 
ATOM     16  O   UNL     1      -4.041   8.443   9.927  1.00  0.00    -0.273 OA
ATOM     17  H   UNL     1      -0.943   7.773   9.751  1.00  0.00     0.164 HD
BRANCH  15  18
ATOM     18  C   UNL     1      -2.214   9.276  11.339  1.00  0.00     0.171 C 
BRANCH  18  19
ATOM     19  N   UNL     1      -3.153  10.364  11.604  1.00  0.00    -0.343 N 
ATOM     20  C   UNL     1      -2.742  11.567  12.145  1.00  0.00     0.242 CG0
ATOM     21  O   UNL     1      -1.594  11.730  12.552  1.00  0.00    -0.273 OA
ATOM     22  H   UNL     1      -4.136  10.236  11.392  1.00  0.00     0.164 HD
ATOM     23  G   UNL     1      -3.860  12.621  12.278  1.00  0.00     0.000 G0
ENDBRANCH  18  19
BRANCH  18  24
ATOM     24  C   UNL     1      -1.948   8.445  12.600  1.00  0.00     0.038 C 
BRANCH  24  25
ATOM     25  C   UNL     1      -3.116   7.530  13.028  1.00  0.00    -0.015 C 
ATOM     26  C   UNL     1      -3.541   7.764  14.478  1.00  0.00     0.007 C 
ATOM     27  C   UNL     1      -2.718   6.064  12.838  1.00  0.00     0.007 C 
ENDBRANCH  24  25
ENDBRANCH  18  24
ENDBRANCH  15  18
ENDBRANCH  13  14
BRANCH  13  28
ATOM     28  C   UNL     1      -2.469   7.894   7.193  1.00  0.00     0.327 C 
ATOM     29  O   UNL     1      -3.458   8.011   6.486  1.00  0.00    -0.250 OA
BRANCH  28  30
ATOM     30  O   UNL     1      -1.358   8.614   6.939  1.00  0.00    -0.480 OA
ATOM     31  H   UNL     1      -1.063   8.299   6.059  1.00  0.00     0.296 HD
ENDBRANCH  28  30
ENDBRANCH  13  28
ENDBRANCH  11  13
ENDBRANCH   8  11
ENDBRANCH   6   7
BRANCH   6  32
ATOM     32  C   UNL     1      -3.308   2.362  10.566  1.00  0.00     0.037 C 
BRANCH  32  33
ATOM     33  C   UNL     1      -4.343   2.103   9.461  1.00  0.00     0.026 C 
BRANCH  33  34
ATOM     34  C   UNL     1      -4.922   3.397   8.887  1.00  0.00     0.146 C 
BRANCH  34  35
ATOM     35  N   UNL     1      -4.911   3.312   7.433  1.00  0.00    -0.254 NA
ATOM     36  C   UNL     1      -5.109   4.379   6.754  1.00  0.00     0.185 C 
ATOM     37  N   UNL     1      -5.097   4.313   5.413  1.00  0.00    -0.370 N 
ATOM     38  N   UNL     1      -5.341   5.629   7.193  1.00  0.00    -0.370 N 
ATOM     39  H   UNL     1      -4.917   3.405   5.005  1.00  0.00     0.159 HD
ATOM     40  H   UNL     1      -5.070   5.123   4.817  1.00  0.00     0.159 HD
ATOM     41  H   UNL     1      -5.621   6.360   6.560  1.00  0.00     0.159 HD
ATOM     42  H   UNL     1      -5.394   5.824   8.181  1.00  0.00     0.159 HD
ENDBRANCH  34  35
ENDBRANCH  33  34
ENDBRANCH  32  33
ENDBRANCH   6  32
ENDBRANCH   4   6
ENDBRANCH   1   2
BRANCH   1  43
ATOM     43  C   UNL     1      -2.128  -2.018   9.917  1.00  0.00     0.102 C 
ATOM     44  C   UNL     1      -1.818  -3.508  10.139  1.00  0.00     0.020 C 
BRANCH  43  45
ATOM     45  C   UNL     1      -2.988  -1.740   8.681  1.00  0.00     0.225 C 
ATOM     46  O   UNL     1      -4.215  -1.709   8.712  1.00  0.00    -0.275 OA
ATOM     47  N   UNL     1      -2.301  -1.616   7.496  1.00  0.00    -0.342 N 
ATOM     48  H   UNL     1      -1.298  -1.492   7.510  1.00  0.00     0.164 HD
BRANCH  47  49
ATOM     49  C   UNL     1      -2.990  -1.313   6.238  1.00  0.00     0.192 C 
BRANCH  49  50
ATOM     50  C   UNL     1      -2.616  -2.356   5.182  1.00  0.00     0.047 C 
BRANCH  50  51
ATOM     51  C   UNL     1      -3.683  -2.485   4.087  1.00  0.00     0.103 C 
BRANCH  51  52
ATOM     52  C   UNL     1      -3.073  -2.821   2.728  1.00  0.00     0.226 C 
ATOM     53  O   UNL     1      -2.876  -3.999   2.423  1.00  0.00    -0.275 OA
BRANCH  52  54
ATOM     54  N   UNL     1      -2.840  -1.738   1.861  1.00  0.00    -0.311 N 
ATOM     55  C   UNL     1      -1.560  -1.016   1.879  1.00  0.00     0.153 C 
BRANCH  54  56
ATOM     56  C   UNL     1      -3.815  -1.310   0.944  1.00  0.00     0.102 C 
ATOM     57  C   UNL     1      -4.763  -0.395   1.202  1.00  0.00     0.043 C 
BRANCH  56  58
ATOM     58  C   UNL     1      -3.835  -1.842  -0.470  1.00  0.00     0.268 C 
ATOM     59  O   UNL     1      -3.515  -1.171  -1.442  1.00  0.00    -0.268 OA
ATOM     60  N   UNL     1      -4.185  -3.169  -0.543  1.00  0.00    -0.339 N 
ATOM     61  H   UNL     1      -4.446  -3.652   0.308  1.00  0.00     0.164 HD
BRANCH  60  62
ATOM     62  C   UNL     1      -4.207  -3.900  -1.809  1.00  0.00     0.168 CG0
ATOM     63  C   UNL     1      -5.091  -5.138  -1.711  1.00  0.00     0.041 C 
ATOM     64  G   UNL     1      -2.768  -4.288  -2.208  1.00  0.00     0.000 G0
ENDBRANCH  60  62
ENDBRANCH  56  58
ENDBRANCH  54  56
ENDBRANCH  52  54
ENDBRANCH  51  52
ENDBRANCH  50  51
ENDBRANCH  49  50
BRANCH  49  65
ATOM     65  C   UNL     1      -2.632   0.088   5.719  1.00  0.00     0.326 C 
ATOM     66  O   UNL     1      -1.657   0.365   5.034  1.00  0.00    -0.250 OA
BRANCH  65  67
ATOM     67  O   UNL     1      -3.465   1.071   6.126  1.00  0.00    -0.480 OA
ATOM     68  H   UNL     1      -3.025   1.891   5.816  1.00  0.00     0.296 HD
ENDBRANCH  65  67
ENDBRANCH  49  65
ENDBRANCH  47  49
ENDBRANCH  43  45
ENDBRANCH   1  43
BRANCH   1  69
ATOM     69  C   UNL     1       0.285  -1.472  10.859  1.00  0.00    -0.001 C 
ATOM     70  C   UNL     1       1.447  -2.065  10.531  1.00  0.00     0.001 C 
BRANCH  70  71
ATOM     71  C   UNL     1       2.555  -2.386  11.433  1.00  0.00    -0.055 C 
ATOM     72  C   UNL     1       3.811  -2.243  10.959  1.00  0.00    -0.018 C 
ATOM     73  C   UNL     1       2.217  -2.846  12.826  1.00  0.00     0.044 C 
BRANCH  72  74
ATOM     74  C   UNL     1       5.139  -2.495  11.658  1.00  0.00     0.038 C 
ATOM     75  C   UNL     1       5.475  -1.233  12.461  1.00  0.00     0.015 C 
BRANCH  74  76
ATOM     76  C   UNL     1       6.200  -2.892  10.590  1.00  0.00     0.128 C 
BRANCH  76  77
ATOM     77  O   UNL     1       7.524  -2.675  11.108  1.00  0.00    -0.381 OA
ATOM     78  C   UNL     1       8.558  -3.028  10.200  1.00  0.00     0.195 C 
ENDBRANCH  76  77
BRANCH  76  79
ATOM     79  C   UNL     1       6.009  -4.317  10.012  1.00  0.00     0.068 C 
BRANCH  79  80
ATOM     80  C   UNL     1       5.500  -4.443   8.596  1.00  0.00    -0.045 A 
ATOM     81  C   UNL     1       6.273  -4.012   7.510  1.00  0.00     0.004 A 
ATOM     82  C   UNL     1       4.224  -4.971   8.348  1.00  0.00     0.004 A 
ATOM     83  C   UNL     1       5.788  -4.119   6.204  1.00  0.00     0.000 A 
ATOM     84  C   UNL     1       3.740  -5.077   7.043  1.00  0.00     0.000 A 
ATOM     85  C   UNL     1       4.523  -4.653   5.971  1.00  0.00     0.000 A 
ENDBRANCH  79  80
ENDBRANCH  76  79
ENDBRANCH  74  76
ENDBRANCH  72  74
ENDBRANCH  70  71
ENDBRANCH   1  69
TORSDOF 17
ENDMDL
MODEL 8
REMARK VINA RESULT:    -6.261      2.660      4.368
REMARK INTER + INTRA:         -25.629
REMARK INTER:                 -19.083
REMARK INTRA:                  -6.546
REMARK UNBOUND:                -6.925
REMARK SMILES C=C1C(=O)N[C@H](C)C(=O)N[C@@H](CC(C)C)C(=O)N[C@@H](C(=O)O)[C@H](C)C(=O)N[C@@H](CCCN=C(N)N)C(=O)N[C@@H](/C=C/C(C)=C/[C@H](C)[C@H](Cc2ccccc2)OC)[C@H](C)C(=O)N[C@@H](C(=O)O)CCC(=O)N1C
REMARK SMILES IDX 39 1 38 2 37 3 36 4 28 6 27 7 25 8 26 9 23 11 24 12 19 13
REMARK SMILES IDX 18 14 16 15 17 16 11 18 10 19 8 20 9 21 12 24 13 25 14 26
REMARK SMILES IDX 15 27 20 28 21 29 22 30 29 32 30 33 31 34 32 35 33 36 34 37
REMARK SMILES IDX 35 38 57 43 58 44 59 45 60 46 61 47 62 49 66 50 67 51 68 52
REMARK SMILES IDX 69 53 70 54 71 55 2 56 1 57 3 58 4 59 5 60 6 62 7 63 63 65
REMARK SMILES IDX 64 66 65 67 40 69 41 70 42 71 44 72 43 73 45 74 46 75 47 76
REMARK SMILES IDX 55 77 56 78 48 79 49 80 50 81 54 82 51 83 53 84 52 85
REMARK H PARENT 38 5 27 10 18 17 10 22 22 31 34 39 34 40 35 41 35 42 61 48
REMARK H PARENT 5 61 65 68
REMARK Flexibility Score:  369.900
ROOT
ATOM      1  C   UNL     1       0.276   6.372   6.744  1.00  0.00     0.117 C 
ENDROOT
BRANCH   1   2
ATOM      2  N   UNL     1       1.460   6.771   5.983  1.00  0.00    -0.347 N 
ATOM      3  O   UNL     1       2.816   5.014   6.572  1.00  0.00    -0.273 OA
ATOM      4  C   UNL     1       2.609   6.009   5.885  1.00  0.00     0.243 C 
ATOM      5  H   UNL     1       1.441   7.627   5.450  1.00  0.00     0.164 HD
BRANCH   4   6
ATOM      6  C   UNL     1       3.682   6.618   4.947  1.00  0.00     0.171 C 
BRANCH   6   7
ATOM      7  N   UNL     1       3.109   6.894   3.620  1.00  0.00    -0.344 N 
ATOM      8  C   UNL     1       3.452   6.121   2.532  1.00  0.00     0.226 C 
ATOM      9  O   UNL     1       4.253   5.197   2.605  1.00  0.00    -0.275 OA
ATOM     10  H   UNL     1       2.496   7.692   3.507  1.00  0.00     0.164 HD
BRANCH   8  11
ATOM     11  C   UNL     1       2.736   6.498   1.247  1.00  0.00     0.109 C 
ATOM     12  C   UNL     1       1.339   5.878   1.223  1.00  0.00     0.021 C 
BRANCH  11  13
ATOM     13  C   UNL     1       2.769   8.028   1.060  1.00  0.00     0.204 C 
BRANCH  13  14
ATOM     14  N   UNL     1       3.769   8.441   0.070  1.00  0.00    -0.340 N 
ATOM     15  C   UNL     1       4.864   9.214   0.389  1.00  0.00     0.243 C 
ATOM     16  O   UNL     1       5.113   9.562   1.542  1.00  0.00    -0.273 OA
ATOM     17  H   UNL     1       3.543   8.316  -0.921  1.00  0.00     0.164 HD
BRANCH  15  18
ATOM     18  C   UNL     1       5.662   9.697  -0.847  1.00  0.00     0.171 C 
BRANCH  18  19
ATOM     19  N   UNL     1       7.019   9.980  -0.384  1.00  0.00    -0.343 N 
ATOM     20  C   UNL     1       7.745  11.051  -0.867  1.00  0.00     0.242 CG0
ATOM     21  O   UNL     1       7.336  11.737  -1.801  1.00  0.00    -0.273 OA
ATOM     22  H   UNL     1       7.446   9.372   0.305  1.00  0.00     0.164 HD
ATOM     23  G   UNL     1       9.126  11.235  -0.204  1.00  0.00     0.000 G0
ENDBRANCH  18  19
BRANCH  18  24
ATOM     24  C   UNL     1       5.654   8.629  -1.948  1.00  0.00     0.038 C 
BRANCH  24  25
ATOM     25  C   UNL     1       6.827   7.629  -1.884  1.00  0.00    -0.015 C 
ATOM     26  C   UNL     1       7.764   7.748  -3.086  1.00  0.00     0.007 C 
ATOM     27  C   UNL     1       6.282   6.201  -1.795  1.00  0.00     0.007 C 
ENDBRANCH  24  25
ENDBRANCH  18  24
ENDBRANCH  15  18
ENDBRANCH  13  14
BRANCH  13  28
ATOM     28  C   UNL     1       1.424   8.611   0.618  1.00  0.00     0.327 C 
ATOM     29  O   UNL     1       1.034   8.736  -0.533  1.00  0.00    -0.250 OA
BRANCH  28  30
ATOM     30  O   UNL     1       0.702   9.111   1.641  1.00  0.00    -0.480 OA
ATOM     31  H   UNL     1       0.288   8.323   2.051  1.00  0.00     0.296 HD
ENDBRANCH  28  30
ENDBRANCH  13  28
ENDBRANCH  11  13
ENDBRANCH   8  11
ENDBRANCH   6   7
BRANCH   6  32
ATOM     32  C   UNL     1       4.236   7.899   5.582  1.00  0.00     0.037 C 
BRANCH  32  33
ATOM     33  C   UNL     1       5.696   7.738   6.031  1.00  0.00     0.026 C 
BRANCH  33  34
ATOM     34  C   UNL     1       6.419   6.619   5.280  1.00  0.00     0.146 C 
BRANCH  34  35
ATOM     35  N   UNL     1       7.330   5.950   6.199  1.00  0.00    -0.254 NA
ATOM     36  C   UNL     1       6.949   4.864   6.760  1.00  0.00     0.185 C 
ATOM     37  N   UNL     1       7.783   4.237   7.604  1.00  0.00    -0.370 N 
ATOM     38  N   UNL     1       5.780   4.211   6.631  1.00  0.00    -0.370 N 
ATOM     39  H   UNL     1       8.690   4.662   7.746  1.00  0.00     0.159 HD
ATOM     40  H   UNL     1       7.631   3.303   7.944  1.00  0.00     0.159 HD
ATOM     41  H   UNL     1       5.546   3.439   7.233  1.00  0.00     0.159 HD
ATOM     42  H   UNL     1       5.051   4.578   6.039  1.00  0.00     0.159 HD
ENDBRANCH  34  35
ENDBRANCH  33  34
ENDBRANCH  32  33
ENDBRANCH   6  32
ENDBRANCH   4   6
ENDBRANCH   1   2
BRANCH   1  43
ATOM     43  C   UNL     1      -0.767   5.771   5.758  1.00  0.00     0.102 C 
ATOM     44  C   UNL     1      -0.483   6.111   4.285  1.00  0.00     0.020 C 
BRANCH  43  45
ATOM     45  C   UNL     1      -2.196   6.093   6.205  1.00  0.00     0.225 C 
ATOM     46  O   UNL     1      -2.664   7.229   6.192  1.00  0.00    -0.275 OA
ATOM     47  N   UNL     1      -2.909   5.034   6.719  1.00  0.00    -0.342 N 
ATOM     48  H   UNL     1      -2.572   4.092   6.584  1.00  0.00     0.164 HD
BRANCH  47  49
ATOM     49  C   UNL     1      -4.301   5.186   7.154  1.00  0.00     0.192 C 
BRANCH  49  50
ATOM     50  C   UNL     1      -4.450   4.675   8.589  1.00  0.00     0.047 C 
BRANCH  50  51
ATOM     51  C   UNL     1      -3.921   5.680   9.622  1.00  0.00     0.103 C 
BRANCH  51  52
ATOM     52  C   UNL     1      -2.571   5.254  10.197  1.00  0.00     0.226 C 
ATOM     53  O   UNL     1      -1.615   6.030  10.147  1.00  0.00    -0.275 OA
BRANCH  52  54
ATOM     54  N   UNL     1      -2.527   3.997  10.829  1.00  0.00    -0.311 N 
ATOM     55  C   UNL     1      -1.742   2.892  10.262  1.00  0.00     0.153 C 
BRANCH  54  56
ATOM     56  C   UNL     1      -3.224   3.755  12.024  1.00  0.00     0.102 C 
ATOM     57  C   UNL     1      -3.092   4.475  13.150  1.00  0.00     0.043 C 
BRANCH  56  58
ATOM     58  C   UNL     1      -4.246   2.646  12.114  1.00  0.00     0.268 C 
ATOM     59  O   UNL     1      -5.244   2.597  11.408  1.00  0.00    -0.268 OA
ATOM     60  N   UNL     1      -3.906   1.670  13.020  1.00  0.00    -0.339 N 
ATOM     61  H   UNL     1      -3.067   1.790  13.574  1.00  0.00     0.164 HD
BRANCH  60  62
ATOM     62  C   UNL     1      -4.724   0.474  13.220  1.00  0.00     0.168 CG0
ATOM     63  C   UNL     1      -5.418   0.507  14.576  1.00  0.00     0.041 C 
ATOM     64  G   UNL     1      -3.841  -0.784  13.090  1.00  0.00     0.000 G0
ENDBRANCH  60  62
ENDBRANCH  56  58
ENDBRANCH  54  56
ENDBRANCH  52  54
ENDBRANCH  51  52
ENDBRANCH  50  51
ENDBRANCH  49  50
BRANCH  49  65
ATOM     65  C   UNL     1      -5.267   4.419   6.238  1.00  0.00     0.326 C 
ATOM     66  O   UNL     1      -6.269   4.884   5.714  1.00  0.00    -0.250 OA
BRANCH  65  67
ATOM     67  O   UNL     1      -4.970   3.111   6.074  1.00  0.00    -0.480 OA
ATOM     68  H   UNL     1      -4.464   2.885   6.884  1.00  0.00     0.296 HD
ENDBRANCH  65  67
ENDBRANCH  49  65
ENDBRANCH  47  49
ENDBRANCH  43  45
ENDBRANCH   1  43
BRANCH   1  69
ATOM     69  C   UNL     1      -0.115   7.576   7.581  1.00  0.00    -0.001 C 
ATOM     70  C   UNL     1       0.366   8.828   7.486  1.00  0.00     0.001 C 
BRANCH  70  71
ATOM     71  C   UNL     1      -0.035   9.988   8.286  1.00  0.00    -0.055 C 
ATOM     72  C   UNL     1       0.540  10.143   9.497  1.00  0.00    -0.018 C 
ATOM     73  C   UNL     1      -1.053  10.929   7.697  1.00  0.00     0.044 C 
BRANCH  72  74
ATOM     74  C   UNL     1       0.324  11.239  10.532  1.00  0.00     0.038 C 
ATOM     75  C   UNL     1       1.684  11.904  10.777  1.00  0.00     0.015 C 
BRANCH  74  76
ATOM     76  C   UNL     1      -0.333  10.611  11.796  1.00  0.00     0.128 C 
BRANCH  76  77
ATOM     77  O   UNL     1      -1.318  11.509  12.335  1.00  0.00    -0.381 OA
ATOM     78  C   UNL     1      -1.990  12.278  11.347  1.00  0.00     0.195 C 
ENDBRANCH  76  77
BRANCH  76  79
ATOM     79  C   UNL     1      -0.883   9.180  11.575  1.00  0.00     0.068 C 
BRANCH  79  80
ATOM     80  C   UNL     1      -1.973   8.690  12.498  1.00  0.00    -0.045 A 
ATOM     81  C   UNL     1      -3.295   8.563  12.052  1.00  0.00     0.004 A 
ATOM     82  C   UNL     1      -1.680   8.380  13.835  1.00  0.00     0.004 A 
ATOM     83  C   UNL     1      -4.299   8.124  12.916  1.00  0.00     0.000 A 
ATOM     84  C   UNL     1      -2.686   7.941  14.699  1.00  0.00     0.000 A 
ATOM     85  C   UNL     1      -3.994   7.812  14.239  1.00  0.00     0.000 A 
ENDBRANCH  79  80
ENDBRANCH  76  79
ENDBRANCH  74  76
ENDBRANCH  72  74
ENDBRANCH  70  71
ENDBRANCH   1  69
TORSDOF 17
ENDMDL
MODEL 9
REMARK VINA RESULT:    -6.242      5.554      9.859
REMARK INTER + INTRA:         -25.575
REMARK INTER:                 -17.506
REMARK INTRA:                  -8.069
REMARK UNBOUND:                -6.925
REMARK SMILES C=C1C(=O)N[C@H](C)C(=O)N[C@@H](CC(C)C)C(=O)N[C@@H](C(=O)O)[C@H](C)C(=O)N[C@@H](CCCN=C(N)N)C(=O)N[C@@H](/C=C/C(C)=C/[C@H](C)[C@H](Cc2ccccc2)OC)[C@H](C)C(=O)N[C@@H](C(=O)O)CCC(=O)N1C
REMARK SMILES IDX 39 1 38 2 37 3 36 4 28 6 27 7 25 8 26 9 23 11 24 12 19 13
REMARK SMILES IDX 18 14 16 15 17 16 11 18 10 19 8 20 9 21 12 24 13 25 14 26
REMARK SMILES IDX 15 27 20 28 21 29 22 30 29 32 30 33 31 34 32 35 33 36 34 37
REMARK SMILES IDX 35 38 57 43 58 44 59 45 60 46 61 47 62 49 66 50 67 51 68 52
REMARK SMILES IDX 69 53 70 54 71 55 2 56 1 57 3 58 4 59 5 60 6 62 7 63 63 65
REMARK SMILES IDX 64 66 65 67 40 69 41 70 42 71 44 72 43 73 45 74 46 75 47 76
REMARK SMILES IDX 55 77 56 78 48 79 49 80 50 81 54 82 51 83 53 84 52 85
REMARK H PARENT 38 5 27 10 18 17 10 22 22 31 34 39 34 40 35 41 35 42 61 48
REMARK H PARENT 5 61 65 68
REMARK Flexibility Score:  369.900
ROOT
ATOM      1  C   UNL     1       0.295   4.836   6.414  1.00  0.00     0.117 C 
ENDROOT
BRANCH   1   2
ATOM      2  N   UNL     1       1.289   4.258   7.319  1.00  0.00    -0.347 N 
ATOM      3  O   UNL     1       1.448   2.192   6.332  1.00  0.00    -0.273 OA
ATOM      4  C   UNL     1       1.856   3.010   7.150  1.00  0.00     0.243 C 
ATOM      5  H   UNL     1       1.632   4.808   8.093  1.00  0.00     0.164 HD
BRANCH   4   6
ATOM      6  C   UNL     1       2.945   2.673   8.200  1.00  0.00     0.171 C 
BRANCH   6   7
ATOM      7  N   UNL     1       2.771   1.299   8.699  1.00  0.00    -0.344 N 
ATOM      8  C   UNL     1       1.846   1.022   9.683  1.00  0.00     0.226 C 
ATOM      9  O   UNL     1       1.151   1.889  10.199  1.00  0.00    -0.275 OA
ATOM     10  H   UNL     1       3.374   0.568   8.345  1.00  0.00     0.164 HD
BRANCH   8  11
ATOM     11  C   UNL     1       1.747  -0.448  10.051  1.00  0.00     0.109 C 
ATOM     12  C   UNL     1       0.418  -0.725  10.754  1.00  0.00     0.021 C 
BRANCH  11  13
ATOM     13  C   UNL     1       2.015  -1.317   8.806  1.00  0.00     0.204 C 
BRANCH  13  14
ATOM     14  N   UNL     1       2.879  -2.462   9.109  1.00  0.00    -0.340 N 
ATOM     15  C   UNL     1       4.011  -2.759   8.381  1.00  0.00     0.243 C 
ATOM     16  O   UNL     1       4.411  -2.046   7.462  1.00  0.00    -0.273 OA
ATOM     17  H   UNL     1       2.526  -3.173   9.756  1.00  0.00     0.164 HD
BRANCH  15  18
ATOM     18  C   UNL     1       4.644  -4.123   8.750  1.00  0.00     0.171 C 
BRANCH  18  19
ATOM     19  N   UNL     1       4.214  -5.074   7.726  1.00  0.00    -0.343 N 
ATOM     20  C   UNL     1       2.959  -5.652   7.750  1.00  0.00     0.242 CG0
ATOM     21  O   UNL     1       2.197  -5.496   8.701  1.00  0.00    -0.273 OA
ATOM     22  H   UNL     1       4.852  -5.324   6.980  1.00  0.00     0.164 HD
ATOM     23  G   UNL     1       2.657  -6.567   6.546  1.00  0.00     0.000 G0
ENDBRANCH  18  19
BRANCH  18  24
ATOM     24  C   UNL     1       6.173  -4.013   8.807  1.00  0.00     0.038 C 
BRANCH  24  25
ATOM     25  C   UNL     1       6.772  -4.099  10.227  1.00  0.00    -0.015 C 
ATOM     26  C   UNL     1       5.988  -3.269  11.244  1.00  0.00     0.007 C 
ATOM     27  C   UNL     1       8.231  -3.637  10.199  1.00  0.00     0.007 C 
ENDBRANCH  24  25
ENDBRANCH  18  24
ENDBRANCH  15  18
ENDBRANCH  13  14
BRANCH  13  28
ATOM     28  C   UNL     1       0.737  -1.869   8.168  1.00  0.00     0.327 C 
ATOM     29  O   UNL     1      -0.066  -1.239   7.496  1.00  0.00    -0.250 OA
BRANCH  28  30
ATOM     30  O   UNL     1       0.484  -3.148   8.512  1.00  0.00    -0.480 OA
ATOM     31  H   UNL     1       0.170  -3.563   7.683  1.00  0.00     0.296 HD
ENDBRANCH  28  30
ENDBRANCH  13  28
ENDBRANCH  11  13
ENDBRANCH   8  11
ENDBRANCH   6   7
BRANCH   6  32
ATOM     32  C   UNL     1       4.329   2.852   7.564  1.00  0.00     0.037 C 
BRANCH  32  33
ATOM     33  C   UNL     1       5.187   3.872   8.324  1.00  0.00     0.026 C 
BRANCH  33  34
ATOM     34  C   UNL     1       5.695   4.998   7.421  1.00  0.00     0.146 C 
BRANCH  34  35
ATOM     35  N   UNL     1       4.793   6.135   7.537  1.00  0.00    -0.254 NA
ATOM     36  C   UNL     1       5.264   7.254   7.946  1.00  0.00     0.185 C 
ATOM     37  N   UNL     1       4.444   8.310   8.051  1.00  0.00    -0.370 N 
ATOM     38  N   UNL     1       6.524   7.559   8.307  1.00  0.00    -0.370 N 
ATOM     39  H   UNL     1       3.478   8.163   7.787  1.00  0.00     0.159 HD
ATOM     40  H   UNL     1       4.765   9.252   8.195  1.00  0.00     0.159 HD
ATOM     41  H   UNL     1       6.741   8.439   8.745  1.00  0.00     0.159 HD
ATOM     42  H   UNL     1       7.245   6.855   8.293  1.00  0.00     0.159 HD
ENDBRANCH  34  35
ENDBRANCH  33  34
ENDBRANCH  32  33
ENDBRANCH   6  32
ENDBRANCH   4   6
ENDBRANCH   1   2
BRANCH   1  43
ATOM     43  C   UNL     1       0.869   6.158   5.827  1.00  0.00     0.102 C 
ATOM     44  C   UNL     1       2.172   5.960   5.034  1.00  0.00     0.020 C 
BRANCH  43  45
ATOM     45  C   UNL     1       0.955   7.246   6.901  1.00  0.00     0.225 C 
ATOM     46  O   UNL     1       1.673   7.155   7.892  1.00  0.00    -0.275 OA
ATOM     47  N   UNL     1       0.096   8.309   6.738  1.00  0.00    -0.342 N 
ATOM     48  H   UNL     1      -0.372   8.442   5.852  1.00  0.00     0.164 HD
BRANCH  47  49
ATOM     49  C   UNL     1       0.092   9.441   7.669  1.00  0.00     0.192 C 
BRANCH  49  50
ATOM     50  C   UNL     1      -1.124   9.343   8.593  1.00  0.00     0.047 C 
BRANCH  50  51
ATOM     51  C   UNL     1      -0.821   8.551   9.872  1.00  0.00     0.103 C 
BRANCH  51  52
ATOM     52  C   UNL     1       0.246   9.230  10.728  1.00  0.00     0.226 C 
ATOM     53  O   UNL     1       1.374   8.738  10.800  1.00  0.00    -0.275 OA
BRANCH  52  54
ATOM     54  N   UNL     1      -0.118  10.446  11.335  1.00  0.00    -0.311 N 
ATOM     55  C   UNL     1       0.571  11.698  10.994  1.00  0.00     0.153 C 
BRANCH  54  56
ATOM     56  C   UNL     1      -1.153  10.510  12.283  1.00  0.00     0.102 C 
ATOM     57  C   UNL     1      -1.248   9.729  13.371  1.00  0.00     0.043 C 
BRANCH  56  58
ATOM     58  C   UNL     1      -2.253  11.539  12.160  1.00  0.00     0.268 C 
ATOM     59  O   UNL     1      -2.374  12.484  12.928  1.00  0.00    -0.268 OA
ATOM     60  N   UNL     1      -3.058  11.340  11.065  1.00  0.00    -0.339 N 
ATOM     61  H   UNL     1      -2.898  10.526  10.484  1.00  0.00     0.164 HD
BRANCH  60  62
ATOM     62  C   UNL     1      -4.147  12.254  10.722  1.00  0.00     0.168 CG0
ATOM     63  C   UNL     1      -4.214  12.486   9.218  1.00  0.00     0.041 C 
ATOM     64  G   UNL     1      -3.956  13.589  11.472  1.00  0.00     0.000 G0
ENDBRANCH  60  62
ENDBRANCH  56  58
ENDBRANCH  54  56
ENDBRANCH  52  54
ENDBRANCH  51  52
ENDBRANCH  50  51
ENDBRANCH  49  50
BRANCH  49  65
ATOM     65  C   UNL     1       0.060  10.786   6.925  1.00  0.00     0.326 C 
ATOM     66  O   UNL     1      -0.469  10.986   5.842  1.00  0.00    -0.250 OA
BRANCH  65  67
ATOM     67  O   UNL     1       0.733  11.785   7.537  1.00  0.00    -0.480 OA
ATOM     68  H   UNL     1       0.032  12.434   7.760  1.00  0.00     0.296 HD
ENDBRANCH  65  67
ENDBRANCH  49  65
ENDBRANCH  47  49
ENDBRANCH  43  45
ENDBRANCH   1  43
BRANCH   1  69
ATOM     69  C   UNL     1      -1.008   4.884   7.191  1.00  0.00    -0.001 C 
ATOM     70  C   UNL     1      -1.181   4.685   8.510  1.00  0.00     0.001 C 
BRANCH  70  71
ATOM     71  C   UNL     1      -2.442   4.755   9.252  1.00  0.00    -0.055 C 
ATOM     72  C   UNL     1      -2.474   5.520  10.363  1.00  0.00    -0.018 C 
ATOM     73  C   UNL     1      -3.615   3.976   8.718  1.00  0.00     0.044 C 
BRANCH  72  74
ATOM     74  C   UNL     1      -3.629   5.781  11.320  1.00  0.00     0.038 C 
ATOM     75  C   UNL     1      -4.216   7.150  10.958  1.00  0.00     0.015 C 
BRANCH  74  76
ATOM     76  C   UNL     1      -3.106   5.661  12.781  1.00  0.00     0.128 C 
BRANCH  76  77
ATOM     77  O   UNL     1      -3.583   6.766  13.566  1.00  0.00    -0.381 OA
ATOM     78  C   UNL     1      -3.091   6.775  14.900  1.00  0.00     0.195 C 
ENDBRANCH  76  77
BRANCH  76  79
ATOM     79  C   UNL     1      -3.392   4.288  13.442  1.00  0.00     0.068 C 
BRANCH  79  80
ATOM     80  C   UNL     1      -3.723   3.125  12.539  1.00  0.00    -0.045 A 
ATOM     81  C   UNL     1      -2.716   2.286  12.044  1.00  0.00     0.004 A 
ATOM     82  C   UNL     1      -5.051   2.882  12.157  1.00  0.00     0.004 A 
ATOM     83  C   UNL     1      -3.029   1.220  11.198  1.00  0.00     0.000 A 
ATOM     84  C   UNL     1      -5.363   1.816  11.310  1.00  0.00     0.000 A 
ATOM     85  C   UNL     1      -4.353   0.984  10.832  1.00  0.00     0.000 A 
ENDBRANCH  79  80
ENDBRANCH  76  79
ENDBRANCH  74  76
ENDBRANCH  72  74
ENDBRANCH  70  71
ENDBRANCH   1  69
TORSDOF 17
ENDMDL
MODEL 10
REMARK VINA RESULT:    -6.148      7.178     14.471
REMARK INTER + INTRA:         -25.292
REMARK INTER:                 -18.067
REMARK INTRA:                  -7.225
REMARK UNBOUND:                -6.925
REMARK SMILES C=C1C(=O)N[C@H](C)C(=O)N[C@@H](CC(C)C)C(=O)N[C@@H](C(=O)O)[C@H](C)C(=O)N[C@@H](CCCN=C(N)N)C(=O)N[C@@H](/C=C/C(C)=C/[C@H](C)[C@H](Cc2ccccc2)OC)[C@H](C)C(=O)N[C@@H](C(=O)O)CCC(=O)N1C
REMARK SMILES IDX 39 1 38 2 37 3 36 4 28 6 27 7 25 8 26 9 23 11 24 12 19 13
REMARK SMILES IDX 18 14 16 15 17 16 11 18 10 19 8 20 9 21 12 24 13 25 14 26
REMARK SMILES IDX 15 27 20 28 21 29 22 30 29 32 30 33 31 34 32 35 33 36 34 37
REMARK SMILES IDX 35 38 57 43 58 44 59 45 60 46 61 47 62 49 66 50 67 51 68 52
REMARK SMILES IDX 69 53 70 54 71 55 2 56 1 57 3 58 4 59 5 60 6 62 7 63 63 65
REMARK SMILES IDX 64 66 65 67 40 69 41 70 42 71 44 72 43 73 45 74 46 75 47 76
REMARK SMILES IDX 55 77 56 78 48 79 49 80 50 81 54 82 51 83 53 84 52 85
REMARK H PARENT 38 5 27 10 18 17 10 22 22 31 34 39 34 40 35 41 35 42 61 48
REMARK H PARENT 5 61 65 68
REMARK Flexibility Score:  369.900
ROOT
ATOM      1  C   UNL     1       0.751  -0.854   9.773  1.00  0.00     0.117 C 
ENDROOT
BRANCH   1   2
ATOM      2  N   UNL     1      -0.280   0.120   9.411  1.00  0.00    -0.347 N 
ATOM      3  O   UNL     1      -1.549  -0.044  11.317  1.00  0.00    -0.273 OA
ATOM      4  C   UNL     1      -1.300   0.515  10.254  1.00  0.00     0.243 C 
ATOM      5  H   UNL     1      -0.233   0.579   8.514  1.00  0.00     0.164 HD
BRANCH   4   6
ATOM      6  C   UNL     1      -2.206   1.623   9.659  1.00  0.00     0.171 C 
BRANCH   6   7
ATOM      7  N   UNL     1      -3.035   2.231  10.712  1.00  0.00    -0.344 N 
ATOM      8  C   UNL     1      -4.403   2.316  10.569  1.00  0.00     0.226 C 
ATOM      9  O   UNL     1      -4.988   1.918   9.568  1.00  0.00    -0.275 OA
ATOM     10  H   UNL     1      -2.581   2.631  11.524  1.00  0.00     0.164 HD
BRANCH   8  11
ATOM     11  C   UNL     1      -5.121   2.918  11.764  1.00  0.00     0.109 C 
ATOM     12  C   UNL     1      -6.288   2.024  12.181  1.00  0.00     0.021 C 
BRANCH  11  13
ATOM     13  C   UNL     1      -4.105   3.223  12.883  1.00  0.00     0.204 C 
BRANCH  13  14
ATOM     14  N   UNL     1      -4.394   4.491  13.559  1.00  0.00    -0.340 N 
ATOM     15  C   UNL     1      -3.950   5.708  13.089  1.00  0.00     0.243 C 
ATOM     16  O   UNL     1      -3.331   5.822  12.032  1.00  0.00    -0.273 OA
ATOM     17  H   UNL     1      -4.769   4.454  14.511  1.00  0.00     0.164 HD
BRANCH  15  18
ATOM     18  C   UNL     1      -4.196   6.879  14.072  1.00  0.00     0.171 C 
BRANCH  18  19
ATOM     19  N   UNL     1      -5.215   6.425  15.017  1.00  0.00    -0.343 N 
ATOM     20  C   UNL     1      -6.467   7.007  15.073  1.00  0.00     0.242 CG0
ATOM     21  O   UNL     1      -6.737   8.016  14.426  1.00  0.00    -0.273 OA
ATOM     22  H   UNL     1      -5.000   5.667  15.654  1.00  0.00     0.164 HD
ATOM     23  G   UNL     1      -7.433   6.343  16.076  1.00  0.00     0.000 G0
ENDBRANCH  18  19
BRANCH  18  24
ATOM     24  C   UNL     1      -2.897   7.265  14.790  1.00  0.00     0.038 C 
BRANCH  24  25
ATOM     25  C   UNL     1      -2.276   8.600  14.326  1.00  0.00    -0.015 C 
ATOM     26  C   UNL     1      -3.089   9.269  13.217  1.00  0.00     0.007 C 
ATOM     27  C   UNL     1      -0.844   8.361  13.843  1.00  0.00     0.007 C 
ENDBRANCH  24  25
ENDBRANCH  18  24
ENDBRANCH  15  18
ENDBRANCH  13  14
BRANCH  13  28
ATOM     28  C   UNL     1      -4.050   2.136  13.961  1.00  0.00     0.327 C 
ATOM     29  O   UNL     1      -4.580   2.182  15.061  1.00  0.00    -0.250 OA
BRANCH  28  30
ATOM     30  O   UNL     1      -3.236   1.111  13.638  1.00  0.00    -0.480 OA
ATOM     31  H   UNL     1      -3.713   0.639  12.924  1.00  0.00     0.296 HD
ENDBRANCH  28  30
ENDBRANCH  13  28
ENDBRANCH  11  13
ENDBRANCH   8  11
ENDBRANCH   6   7
BRANCH   6  32
ATOM     32  C   UNL     1      -1.329   2.678   8.976  1.00  0.00     0.037 C 
BRANCH  32  33
ATOM     33  C   UNL     1      -1.374   4.029   9.704  1.00  0.00     0.026 C 
BRANCH  33  34
ATOM     34  C   UNL     1      -1.993   5.134   8.848  1.00  0.00     0.146 C 
BRANCH  34  35
ATOM     35  N   UNL     1      -3.186   4.611   8.196  1.00  0.00    -0.254 NA
ATOM     36  C   UNL     1      -4.317   5.151   8.459  1.00  0.00     0.185 C 
ATOM     37  N   UNL     1      -5.422   4.681   7.861  1.00  0.00    -0.370 N 
ATOM     38  N   UNL     1      -4.592   6.175   9.287  1.00  0.00    -0.370 N 
ATOM     39  H   UNL     1      -5.296   3.913   7.213  1.00  0.00     0.159 HD
ATOM     40  H   UNL     1      -6.309   5.154   7.878  1.00  0.00     0.159 HD
ATOM     41  H   UNL     1      -5.542   6.419   9.516  1.00  0.00     0.159 HD
ATOM     42  H   UNL     1      -3.857   6.618   9.817  1.00  0.00     0.159 HD
ENDBRANCH  34  35
ENDBRANCH  33  34
ENDBRANCH  32  33
ENDBRANCH   6  32
ENDBRANCH   4   6
ENDBRANCH   1   2
BRANCH   1  43
ATOM     43  C   UNL     1       2.100  -0.102   9.958  1.00  0.00     0.102 C 
ATOM     44  C   UNL     1       2.116   1.293   9.311  1.00  0.00     0.020 C 
BRANCH  43  45
ATOM     45  C   UNL     1       3.283  -0.988   9.556  1.00  0.00     0.225 C 
ATOM     46  O   UNL     1       3.664  -1.111   8.395  1.00  0.00    -0.275 OA
ATOM     47  N   UNL     1       3.846  -1.723  10.574  1.00  0.00    -0.342 N 
ATOM     48  H   UNL     1       3.625  -1.498  11.534  1.00  0.00     0.164 HD
BRANCH  47  49
ATOM     49  C   UNL     1       5.008  -2.586  10.343  1.00  0.00     0.192 C 
BRANCH  49  50
ATOM     50  C   UNL     1       4.537  -3.983   9.931  1.00  0.00     0.047 C 
BRANCH  50  51
ATOM     51  C   UNL     1       5.621  -4.765   9.178  1.00  0.00     0.103 C 
BRANCH  51  52
ATOM     52  C   UNL     1       6.192  -3.970   8.005  1.00  0.00     0.226 C 
ATOM     53  O   UNL     1       7.213  -3.297   8.163  1.00  0.00    -0.275 OA
BRANCH  52  54
ATOM     54  N   UNL     1       5.537  -4.120   6.768  1.00  0.00    -0.311 N 
ATOM     55  C   UNL     1       4.475  -5.120   6.592  1.00  0.00     0.153 C 
BRANCH  54  56
ATOM     56  C   UNL     1       5.869  -3.321   5.662  1.00  0.00     0.102 C 
ATOM     57  C   UNL     1       5.308  -2.136   5.374  1.00  0.00     0.043 C 
BRANCH  56  58
ATOM     58  C   UNL     1       6.960  -3.738   4.704  1.00  0.00     0.268 C 
ATOM     59  O   UNL     1       7.033  -4.860   4.219  1.00  0.00    -0.268 OA
ATOM     60  N   UNL     1       7.819  -2.714   4.383  1.00  0.00    -0.339 N 
ATOM     61  H   UNL     1       7.697  -1.816   4.836  1.00  0.00     0.164 HD
BRANCH  60  62
ATOM     62  C   UNL     1       8.910  -2.883   3.424  1.00  0.00     0.168 CG0
ATOM     63  C   UNL     1       9.208  -1.577   2.699  1.00  0.00     0.041 C 
ATOM     64  G   UNL     1       8.546  -3.995   2.419  1.00  0.00     0.000 G0
ENDBRANCH  60  62
ENDBRANCH  56  58
ENDBRANCH  54  56
ENDBRANCH  52  54
ENDBRANCH  51  52
ENDBRANCH  50  51
ENDBRANCH  49  50
BRANCH  49  65
ATOM     65  C   UNL     1       5.890  -2.696  11.597  1.00  0.00     0.326 C 
ATOM     66  O   UNL     1       7.064  -2.365  11.670  1.00  0.00    -0.250 OA
BRANCH  65  67
ATOM     67  O   UNL     1       5.286  -3.264  12.664  1.00  0.00    -0.480 OA
ATOM     68  H   UNL     1       5.754  -4.120  12.767  1.00  0.00     0.296 HD
ENDBRANCH  65  67
ENDBRANCH  49  65
ENDBRANCH  47  49
ENDBRANCH  43  45
ENDBRANCH   1  43
BRANCH   1  69
ATOM     69  C   UNL     1       0.665  -1.965   8.742  1.00  0.00    -0.001 C 
ATOM     70  C   UNL     1       0.192  -1.879   7.486  1.00  0.00     0.001 C 
BRANCH  70  71
ATOM     71  C   UNL     1       0.134  -2.953   6.493  1.00  0.00    -0.055 C 
ATOM     72  C   UNL     1      -1.084  -3.359   6.077  1.00  0.00    -0.018 C 
ATOM     73  C   UNL     1       1.438  -3.524   5.999  1.00  0.00     0.044 C 
BRANCH  72  74
ATOM     74  C   UNL     1      -1.447  -4.437   5.065  1.00  0.00     0.038 C 
ATOM     75  C   UNL     1      -2.463  -3.823   4.094  1.00  0.00     0.015 C 
BRANCH  74  76
ATOM     76  C   UNL     1      -1.954  -5.694   5.832  1.00  0.00     0.128 C 
BRANCH  76  77
ATOM     77  O   UNL     1      -3.334  -5.940   5.514  1.00  0.00    -0.381 OA
ATOM     78  C   UNL     1      -4.009  -6.736   6.478  1.00  0.00     0.195 C 
ENDBRANCH  76  77
BRANCH  76  79
ATOM     79  C   UNL     1      -1.062  -6.947   5.646  1.00  0.00     0.068 C 
BRANCH  79  80
ATOM     80  C   UNL     1       0.100  -7.135   6.591  1.00  0.00    -0.045 A 
ATOM     81  C   UNL     1       0.134  -6.486   7.832  1.00  0.00     0.004 A 
ATOM     82  C   UNL     1       1.184  -7.947   6.225  1.00  0.00     0.004 A 
ATOM     83  C   UNL     1       1.219  -6.654   8.694  1.00  0.00     0.000 A 
ATOM     84  C   UNL     1       2.269  -8.114   7.088  1.00  0.00     0.000 A 
ATOM     85  C   UNL     1       2.286  -7.470   8.323  1.00  0.00     0.000 A 
ENDBRANCH  79  80
ENDBRANCH  76  79
ENDBRANCH  74  76
ENDBRANCH  72  74
ENDBRANCH  70  71
ENDBRANCH   1  69
TORSDOF 17
ENDMDL
