MODEL 1
REMARK VINA RESULT:    -7.296      0.000      0.000
REMARK INTER + INTRA:         -17.978
REMARK INTER:                 -14.760
REMARK INTRA:                  -3.218
REMARK UNBOUND:                -3.218
REMARK SMILES CC[C@@H](C)[C@@H](NC(=O)[C@@H](O)Cc1ccc(O)c(Cl)c1)C(=O)N1[C@H](C(=O)NCCCCN=C(N)N)C[C@H]2CC[C@H](OS(=O)(=O)O)C[C@@H]21
REMARK SMILES IDX 22 1 36 2 46 3 35 4 23 5 45 6 37 7 39 8 38 9 20 10 21 11
REMARK SMILES IDX 5 12 6 13 7 14 8 15 9 17 11 18 12 19 17 20 19 21 15 22 14 23
REMARK SMILES IDX 13 24 18 25 16 26 10 28 3 30 4 31 2 32 1 33 24 34 25 35
REMARK SMILES IDX 26 36 27 38 28 39 29 40 30 41 31 42 32 43 33 44 34 45 40 50
REMARK SMILES IDX 41 51 42 52 43 53 44 54
REMARK H PARENT 6 16 16 27 10 29 26 37 33 46 33 47 34 48 34 49 44 55
ROOT
ATOM      1  N   UNL     1      -7.226  -2.084  -6.318  1.00  0.00    -0.326 N 
ATOM      2  C   UNL     1      -9.392  -2.721  -6.985  1.00  0.00     0.014 C 
ATOM      3  C   UNL     1      -8.075  -2.146  -7.512  1.00  0.00     0.091 C 
ATOM      4  C   UNL     1      -9.483  -2.125  -5.588  1.00  0.00     0.041 C 
ATOM      5  C   UNL     1      -8.038  -2.345  -5.104  1.00  0.00     0.175 C 
ATOM      6  C   UNL     1      -7.610  -3.003  -8.687  1.00  0.00     0.059 C 
ATOM      7  C   UNL     1     -10.520  -2.483  -7.969  1.00  0.00     0.008 C 
ATOM      8  C   UNL     1      -8.767  -3.616  -9.506  1.00  0.00     0.143 C 
ATOM      9  C   UNL     1     -10.054  -2.772  -9.412  1.00  0.00     0.034 C 
ENDROOT
BRANCH   1  10
ATOM     10  C   UNL     1      -5.927  -1.629  -6.176  1.00  0.00     0.246 C 
ATOM     11  O   UNL     1      -5.647  -0.897  -5.220  1.00  0.00    -0.272 OA
BRANCH  10  12
ATOM     12  C   UNL     1      -4.840  -2.082  -7.194  1.00  0.00     0.174 C 
BRANCH  12  13
ATOM     13  N   UNL     1      -4.489  -3.482  -6.959  1.00  0.00    -0.342 N 
ATOM     14  C   UNL     1      -4.265  -4.417  -7.945  1.00  0.00     0.249 C 
ATOM     15  O   UNL     1      -4.308  -4.167  -9.143  1.00  0.00    -0.272 OA
ATOM     16  H   UNL     1      -4.571  -3.872  -6.023  1.00  0.00     0.164 HD
BRANCH  14  17
ATOM     17  C   UNL     1      -3.932  -5.813  -7.378  1.00  0.00     0.207 C 
BRANCH  17  18
ATOM     18  C   UNL     1      -5.208  -6.645  -7.220  1.00  0.00     0.077 C 
BRANCH  18  19
ATOM     19  C   UNL     1      -5.108  -7.970  -7.942  1.00  0.00    -0.043 A 
ATOM     20  C   UNL     1      -4.633  -9.236  -9.956  1.00  0.00     0.083 A 
ATOM     21  C   UNL     1      -4.676  -8.018  -9.277  1.00  0.00     0.028 A 
ATOM     22  C   UNL     1      -5.019 -10.410  -9.310  1.00  0.00     0.134 A 
ATOM     23  C   UNL     1      -5.449 -10.377  -7.988  1.00  0.00     0.048 A 
ATOM     24  C   UNL     1      -5.496  -9.159  -7.306  1.00  0.00     0.008 A 
ATOM     25  Cl  UNL     1      -4.100  -9.275 -11.596  1.00  0.00    -0.080 Cl
BRANCH  22  26
ATOM     26  O   UNL     1      -5.003 -11.626  -9.937  1.00  0.00    -0.506 OA
ATOM     27  H   UNL     1      -5.663 -12.184  -9.485  1.00  0.00     0.293 HD
ENDBRANCH  22  26
ENDBRANCH  18  19
ENDBRANCH  17  18
BRANCH  17  28
ATOM     28  O   UNL     1      -3.269  -5.710  -6.107  1.00  0.00    -0.383 OA
ATOM     29  H   UNL     1      -3.849  -5.150  -5.543  1.00  0.00     0.211 HD
ENDBRANCH  17  28
ENDBRANCH  14  17
ENDBRANCH  12  13
BRANCH  12  30
ATOM     30  C   UNL     1      -3.596  -1.153  -7.197  1.00  0.00     0.018 C 
ATOM     31  C   UNL     1      -3.389  -0.522  -8.582  1.00  0.00     0.010 C 
BRANCH  30  32
ATOM     32  C   UNL     1      -2.296  -1.853  -6.731  1.00  0.00     0.002 C 
ATOM     33  C   UNL     1      -1.031  -1.432  -7.467  1.00  0.00     0.004 C 
ENDBRANCH  30  32
ENDBRANCH  12  30
ENDBRANCH  10  12
ENDBRANCH   1  10
BRANCH   5  34
ATOM     34  C   UNL     1      -7.819  -3.795  -4.597  1.00  0.00     0.242 C 
ATOM     35  O   UNL     1      -6.812  -4.445  -4.877  1.00  0.00    -0.273 OA
ATOM     36  N   UNL     1      -8.856  -4.321  -3.858  1.00  0.00    -0.354 N 
ATOM     37  H   UNL     1      -9.714  -3.777  -3.761  1.00  0.00     0.163 HD
BRANCH  36  38
ATOM     38  C   UNL     1      -8.733  -5.567  -3.131  1.00  0.00     0.116 C 
BRANCH  38  39
ATOM     39  C   UNL     1      -7.832  -5.371  -1.914  1.00  0.00     0.023 C 
BRANCH  39  40
ATOM     40  C   UNL     1      -6.692  -6.382  -1.863  1.00  0.00     0.026 C 
BRANCH  40  41
ATOM     41  C   UNL     1      -6.908  -7.494  -2.889  1.00  0.00     0.146 C 
BRANCH  41  42
ATOM     42  N   UNL     1      -6.974  -8.783  -2.212  1.00  0.00    -0.254 NA
ATOM     43  C   UNL     1      -8.107  -9.357  -2.053  1.00  0.00     0.185 C 
ATOM     44  N   UNL     1      -9.339  -8.960  -2.423  1.00  0.00    -0.370 N 
ATOM     45  N   UNL     1      -8.147 -10.542  -1.422  1.00  0.00    -0.370 N 
ATOM     46  H   UNL     1     -10.157  -9.384  -2.022  1.00  0.00     0.159 HD
ATOM     47  H   UNL     1      -9.489  -8.090  -2.925  1.00  0.00     0.159 HD
ATOM     48  H   UNL     1      -7.260 -10.918  -1.117  1.00  0.00     0.159 HD
ATOM     49  H   UNL     1      -8.942 -11.155  -1.467  1.00  0.00     0.159 HD
ENDBRANCH  41  42
ENDBRANCH  40  41
ENDBRANCH  39  40
ENDBRANCH  38  39
ENDBRANCH  36  38
ENDBRANCH   5  34
BRANCH   8  50
ATOM     50  O   UNL     1      -9.054  -4.934  -9.038  1.00  0.00    -0.245 OA
BRANCH  50  51
ATOM     51  S   UNL     1      -9.091  -6.171 -10.094  1.00  0.00     0.397 S 
ATOM     52  O   UNL     1      -7.929  -6.996  -9.856  1.00  0.00    -0.169 OA
ATOM     53  O   UNL     1      -9.411  -5.672 -11.415  1.00  0.00    -0.169 OA
BRANCH  51  54
ATOM     54  O   UNL     1     -10.349  -7.023  -9.568  1.00  0.00    -0.264 OA
ATOM     55  H   UNL     1     -10.915  -6.424  -9.039  1.00  0.00     0.236 HD
ENDBRANCH  51  54
ENDBRANCH  50  51
ENDBRANCH   8  50
TORSDOF 19
ENDMDL
MODEL 2
REMARK VINA RESULT:    -7.042      4.193      8.552
REMARK INTER + INTRA:         -17.463
REMARK INTER:                 -14.272
REMARK INTRA:                  -3.192
REMARK UNBOUND:                -3.218
REMARK SMILES CC[C@@H](C)[C@@H](NC(=O)[C@@H](O)Cc1ccc(O)c(Cl)c1)C(=O)N1[C@H](C(=O)NCCCCN=C(N)N)C[C@H]2CC[C@H](OS(=O)(=O)O)C[C@@H]21
REMARK SMILES IDX 22 1 36 2 46 3 35 4 23 5 45 6 37 7 39 8 38 9 20 10 21 11
REMARK SMILES IDX 5 12 6 13 7 14 8 15 9 17 11 18 12 19 17 20 19 21 15 22 14 23
REMARK SMILES IDX 13 24 18 25 16 26 10 28 3 30 4 31 2 32 1 33 24 34 25 35
REMARK SMILES IDX 26 36 27 38 28 39 29 40 30 41 31 42 32 43 33 44 34 45 40 50
REMARK SMILES IDX 41 51 42 52 43 53 44 54
REMARK H PARENT 6 16 16 27 10 29 26 37 33 46 33 47 34 48 34 49 44 55
ROOT
ATOM      1  N   UNL     1      -5.629  -5.641  -5.326  1.00  0.00    -0.326 N 
ATOM      2  C   UNL     1      -4.582  -5.702  -7.433  1.00  0.00     0.014 C 
ATOM      3  C   UNL     1      -4.564  -6.347  -6.044  1.00  0.00     0.091 C 
ATOM      4  C   UNL     1      -4.946  -4.257  -7.127  1.00  0.00     0.041 C 
ATOM      5  C   UNL     1      -6.087  -4.473  -6.116  1.00  0.00     0.175 C 
ATOM      6  C   UNL     1      -4.683  -7.860  -6.212  1.00  0.00     0.059 C 
ATOM      7  C   UNL     1      -3.301  -6.002  -8.187  1.00  0.00     0.008 C 
ATOM      8  C   UNL     1      -4.036  -8.394  -7.509  1.00  0.00     0.143 C 
ATOM      9  C   UNL     1      -2.898  -7.481  -8.007  1.00  0.00     0.034 C 
ENDROOT
BRANCH   1  10
ATOM     10  C   UNL     1      -6.064  -5.784  -4.019  1.00  0.00     0.246 C 
ATOM     11  O   UNL     1      -5.229  -5.826  -3.109  1.00  0.00    -0.272 OA
BRANCH  10  12
ATOM     12  C   UNL     1      -7.590  -5.846  -3.720  1.00  0.00     0.174 C 
BRANCH  12  13
ATOM     13  N   UNL     1      -8.070  -4.529  -3.303  1.00  0.00    -0.342 N 
ATOM     14  C   UNL     1      -9.233  -3.936  -3.742  1.00  0.00     0.249 C 
ATOM     15  O   UNL     1     -10.017  -4.466  -4.519  1.00  0.00    -0.272 OA
ATOM     16  H   UNL     1      -7.452  -3.908  -2.787  1.00  0.00     0.164 HD
BRANCH  14  17
ATOM     17  C   UNL     1      -9.455  -2.536  -3.132  1.00  0.00     0.207 C 
BRANCH  17  18
ATOM     18  C   UNL     1      -9.275  -2.580  -1.611  1.00  0.00     0.077 C 
BRANCH  18  19
ATOM     19  C   UNL     1     -10.508  -3.109  -0.914  1.00  0.00    -0.043 A 
ATOM     20  C   UNL     1     -12.627  -2.713   0.197  1.00  0.00     0.083 A 
ATOM     21  C   UNL     1     -11.514  -2.227  -0.489  1.00  0.00     0.028 A 
ATOM     22  C   UNL     1     -12.743  -4.077   0.464  1.00  0.00     0.134 A 
ATOM     23  C   UNL     1     -11.754  -4.962   0.049  1.00  0.00     0.048 A 
ATOM     24  C   UNL     1     -10.637  -4.478  -0.637  1.00  0.00     0.008 A 
ATOM     25  Cl  UNL     1     -13.853  -1.614   0.712  1.00  0.00    -0.080 Cl
BRANCH  22  26
ATOM     26  O   UNL     1     -13.810  -4.599   1.143  1.00  0.00    -0.506 OA
ATOM     27  H   UNL     1     -13.975  -5.484   0.769  1.00  0.00     0.293 HD
ENDBRANCH  22  26
ENDBRANCH  18  19
ENDBRANCH  17  18
BRANCH  17  28
ATOM     28  O   UNL     1     -10.766  -2.038  -3.443  1.00  0.00    -0.383 OA
ATOM     29  H   UNL     1     -11.397  -2.602  -2.940  1.00  0.00     0.211 HD
ENDBRANCH  17  28
ENDBRANCH  14  17
ENDBRANCH  12  13
BRANCH  12  30
ATOM     30  C   UNL     1      -7.958  -6.960  -2.704  1.00  0.00     0.018 C 
ATOM     31  C   UNL     1      -7.156  -8.241  -2.983  1.00  0.00     0.010 C 
BRANCH  30  32
ATOM     32  C   UNL     1      -9.471  -7.280  -2.653  1.00  0.00     0.002 C 
ATOM     33  C   UNL     1      -9.959  -7.920  -1.360  1.00  0.00     0.004 C 
ENDBRANCH  30  32
ENDBRANCH  12  30
ENDBRANCH  10  12
ENDBRANCH   1  10
BRANCH   5  34
ATOM     34  C   UNL     1      -7.431  -4.783  -6.829  1.00  0.00     0.242 C 
ATOM     35  O   UNL     1      -7.790  -5.932  -7.085  1.00  0.00    -0.273 OA
ATOM     36  N   UNL     1      -8.165  -3.679  -7.200  1.00  0.00    -0.354 N 
ATOM     37  H   UNL     1      -7.760  -2.752  -7.068  1.00  0.00     0.163 HD
BRANCH  36  38
ATOM     38  C   UNL     1      -9.530  -3.782  -7.676  1.00  0.00     0.116 C 
BRANCH  38  39
ATOM     39  C   UNL     1      -9.811  -2.674  -8.687  1.00  0.00     0.023 C 
BRANCH  39  40
ATOM     40  C   UNL     1      -8.820  -2.677  -9.846  1.00  0.00     0.026 C 
BRANCH  40  41
ATOM     41  C   UNL     1      -9.057  -3.881 -10.758  1.00  0.00     0.146 C 
BRANCH  41  42
ATOM     42  N   UNL     1      -8.009  -4.871 -10.550  1.00  0.00    -0.254 NA
ATOM     43  C   UNL     1      -8.318  -6.045 -10.144  1.00  0.00     0.185 C 
ATOM     44  N   UNL     1      -9.523  -6.571  -9.856  1.00  0.00    -0.370 N 
ATOM     45  N   UNL     1      -7.337  -6.942  -9.954  1.00  0.00    -0.370 N 
ATOM     46  H   UNL     1      -9.597  -7.418  -9.319  1.00  0.00     0.159 HD
ATOM     47  H   UNL     1     -10.378  -6.034  -9.958  1.00  0.00     0.159 HD
ATOM     48  H   UNL     1      -6.397  -6.628 -10.157  1.00  0.00     0.159 HD
ATOM     49  H   UNL     1      -7.509  -7.928  -9.871  1.00  0.00     0.159 HD
ENDBRANCH  41  42
ENDBRANCH  40  41
ENDBRANCH  39  40
ENDBRANCH  38  39
ENDBRANCH  36  38
ENDBRANCH   5  34
BRANCH   8  50
ATOM     50  O   UNL     1      -5.019  -8.497  -8.540  1.00  0.00    -0.245 OA
BRANCH  50  51
ATOM     51  S   UNL     1      -4.866  -9.644  -9.683  1.00  0.00     0.397 S 
ATOM     52  O   UNL     1      -3.754 -10.492  -9.319  1.00  0.00    -0.169 OA
ATOM     53  O   UNL     1      -4.962  -9.039 -10.995  1.00  0.00    -0.169 OA
BRANCH  51  54
ATOM     54  O   UNL     1      -6.187 -10.530  -9.448  1.00  0.00    -0.264 OA
ATOM     55  H   UNL     1      -6.907 -10.139  -9.984  1.00  0.00     0.236 HD
ENDBRANCH  51  54
ENDBRANCH  50  51
ENDBRANCH   8  50
TORSDOF 19
ENDMDL
MODEL 3
REMARK VINA RESULT:    -7.025     13.025     17.186
REMARK INTER + INTRA:         -17.431
REMARK INTER:                 -13.124
REMARK INTRA:                  -4.306
REMARK UNBOUND:                -3.218
REMARK SMILES CC[C@@H](C)[C@@H](NC(=O)[C@@H](O)Cc1ccc(O)c(Cl)c1)C(=O)N1[C@H](C(=O)NCCCCN=C(N)N)C[C@H]2CC[C@H](OS(=O)(=O)O)C[C@@H]21
REMARK SMILES IDX 22 1 36 2 46 3 35 4 23 5 45 6 37 7 39 8 38 9 20 10 21 11
REMARK SMILES IDX 5 12 6 13 7 14 8 15 9 17 11 18 12 19 17 20 19 21 15 22 14 23
REMARK SMILES IDX 13 24 18 25 16 26 10 28 3 30 4 31 2 32 1 33 24 34 25 35
REMARK SMILES IDX 26 36 27 38 28 39 29 40 30 41 31 42 32 43 33 44 34 45 40 50
REMARK SMILES IDX 41 51 42 52 43 53 44 54
REMARK H PARENT 6 16 16 27 10 29 26 37 33 46 33 47 34 48 34 49 44 55
ROOT
ATOM      1  N   UNL     1     -13.633  -6.550   7.057  1.00  0.00    -0.326 N 
ATOM      2  C   UNL     1     -14.422  -5.972   9.198  1.00  0.00     0.014 C 
ATOM      3  C   UNL     1     -14.567  -7.015   8.087  1.00  0.00     0.091 C 
ATOM      4  C   UNL     1     -14.176  -4.687   8.422  1.00  0.00     0.041 C 
ATOM      5  C   UNL     1     -13.150  -5.186   7.388  1.00  0.00     0.175 C 
ATOM      6  C   UNL     1     -14.346  -8.400   8.692  1.00  0.00     0.059 C 
ATOM      7  C   UNL     1     -15.588  -6.044  10.165  1.00  0.00     0.008 C 
ATOM      8  C   UNL     1     -14.806  -8.516  10.162  1.00  0.00     0.143 C 
ATOM      9  C   UNL     1     -15.928  -7.512  10.499  1.00  0.00     0.034 C 
ENDROOT
BRANCH   1  10
ATOM     10  C   UNL     1     -13.347  -7.083   5.812  1.00  0.00     0.246 C 
ATOM     11  O   UNL     1     -13.808  -6.537   4.804  1.00  0.00    -0.272 OA
BRANCH  10  12
ATOM     12  C   UNL     1     -12.420  -8.328   5.706  1.00  0.00     0.174 C 
BRANCH  12  13
ATOM     13  N   UNL     1     -11.582  -8.429   6.900  1.00  0.00    -0.342 N 
ATOM     14  C   UNL     1     -11.390  -9.577   7.636  1.00  0.00     0.249 C 
ATOM     15  O   UNL     1     -11.885 -10.660   7.351  1.00  0.00    -0.272 OA
ATOM     16  H   UNL     1     -11.234  -7.583   7.345  1.00  0.00     0.164 HD
BRANCH  14  17
ATOM     17  C   UNL     1     -10.464  -9.357   8.851  1.00  0.00     0.207 C 
BRANCH  17  18
ATOM     18  C   UNL     1      -9.041  -9.030   8.388  1.00  0.00     0.077 C 
BRANCH  18  19
ATOM     19  C   UNL     1      -8.298  -8.190   9.402  1.00  0.00    -0.043 A 
ATOM     20  C   UNL     1      -7.764  -7.663  11.709  1.00  0.00     0.083 A 
ATOM     21  C   UNL     1      -8.411  -8.471  10.773  1.00  0.00     0.028 A 
ATOM     22  C   UNL     1      -7.005  -6.572  11.284  1.00  0.00     0.134 A 
ATOM     23  C   UNL     1      -6.885  -6.282   9.930  1.00  0.00     0.048 A 
ATOM     24  C   UNL     1      -7.533  -7.088   8.991  1.00  0.00     0.008 A 
ATOM     25  Cl  UNL     1      -7.915  -8.024  13.389  1.00  0.00    -0.080 Cl
BRANCH  22  26
ATOM     26  O   UNL     1      -6.362  -5.745  12.165  1.00  0.00    -0.506 OA
ATOM     27  H   UNL     1      -6.529  -6.102  13.057  1.00  0.00     0.293 HD
ENDBRANCH  22  26
ENDBRANCH  18  19
ENDBRANCH  17  18
BRANCH  17  28
ATOM     28  O   UNL     1     -10.435 -10.519   9.696  1.00  0.00    -0.383 OA
ATOM     29  H   UNL     1     -10.138 -10.205  10.580  1.00  0.00     0.211 HD
ENDBRANCH  17  28
ENDBRANCH  14  17
ENDBRANCH  12  13
BRANCH  12  30
ATOM     30  C   UNL     1     -11.588  -8.347   4.395  1.00  0.00     0.018 C 
ATOM     31  C   UNL     1     -11.949  -9.569   3.536  1.00  0.00     0.010 C 
BRANCH  30  32
ATOM     32  C   UNL     1     -10.059  -8.293   4.629  1.00  0.00     0.002 C 
ATOM     33  C   UNL     1      -9.322  -9.610   4.420  1.00  0.00     0.004 C 
ENDBRANCH  30  32
ENDBRANCH  12  30
ENDBRANCH  10  12
ENDBRANCH   1  10
BRANCH   5  34
ATOM     34  C   UNL     1     -11.718  -5.239   7.982  1.00  0.00     0.242 C 
ATOM     35  O   UNL     1     -11.406  -6.022   8.880  1.00  0.00    -0.273 OA
ATOM     36  N   UNL     1     -10.837  -4.311   7.472  1.00  0.00    -0.354 N 
ATOM     37  H   UNL     1     -11.187  -3.610   6.817  1.00  0.00     0.163 HD
BRANCH  36  38
ATOM     38  C   UNL     1      -9.417  -4.357   7.752  1.00  0.00     0.116 C 
BRANCH  38  39
ATOM     39  C   UNL     1      -8.631  -3.939   6.511  1.00  0.00     0.023 C 
BRANCH  39  40
ATOM     40  C   UNL     1      -8.945  -4.812   5.301  1.00  0.00     0.026 C 
BRANCH  40  41
ATOM     41  C   UNL     1      -9.408  -3.956   4.122  1.00  0.00     0.146 C 
BRANCH  41  42
ATOM     42  N   UNL     1     -10.192  -4.769   3.201  1.00  0.00    -0.254 NA
ATOM     43  C   UNL     1     -11.470  -4.728   3.250  1.00  0.00     0.185 C 
ATOM     44  N   UNL     1     -12.283  -4.018   4.054  1.00  0.00    -0.370 N 
ATOM     45  N   UNL     1     -12.174  -5.488   2.395  1.00  0.00    -0.370 N 
ATOM     46  H   UNL     1     -13.253  -4.264   4.148  1.00  0.00     0.159 HD
ATOM     47  H   UNL     1     -11.916  -3.379   4.752  1.00  0.00     0.159 HD
ATOM     48  H   UNL     1     -11.637  -6.049   1.748  1.00  0.00     0.159 HD
ATOM     49  H   UNL     1     -13.150  -5.338   2.210  1.00  0.00     0.159 HD
ENDBRANCH  41  42
ENDBRANCH  40  41
ENDBRANCH  39  40
ENDBRANCH  38  39
ENDBRANCH  36  38
ENDBRANCH   5  34
BRANCH   8  50
ATOM     50  O   UNL     1     -13.706  -8.279  11.040  1.00  0.00    -0.245 OA
BRANCH  50  51
ATOM     51  S   UNL     1     -13.069  -9.516  11.882  1.00  0.00     0.397 S 
ATOM     52  O   UNL     1     -11.903  -9.026  12.582  1.00  0.00    -0.169 OA
ATOM     53  O   UNL     1     -13.011 -10.695  11.043  1.00  0.00    -0.169 OA
BRANCH  51  54
ATOM     54  O   UNL     1     -14.186  -9.765  13.011  1.00  0.00    -0.264 OA
ATOM     55  H   UNL     1     -14.743 -10.514  12.719  1.00  0.00     0.236 HD
ENDBRANCH  51  54
ENDBRANCH  50  51
ENDBRANCH   8  50
TORSDOF 19
ENDMDL
MODEL 4
REMARK VINA RESULT:    -6.999     13.845     17.874
REMARK INTER + INTRA:         -17.376
REMARK INTER:                 -13.036
REMARK INTRA:                  -4.341
REMARK UNBOUND:                -3.218
REMARK SMILES CC[C@@H](C)[C@@H](NC(=O)[C@@H](O)Cc1ccc(O)c(Cl)c1)C(=O)N1[C@H](C(=O)NCCCCN=C(N)N)C[C@H]2CC[C@H](OS(=O)(=O)O)C[C@@H]21
REMARK SMILES IDX 22 1 36 2 46 3 35 4 23 5 45 6 37 7 39 8 38 9 20 10 21 11
REMARK SMILES IDX 5 12 6 13 7 14 8 15 9 17 11 18 12 19 17 20 19 21 15 22 14 23
REMARK SMILES IDX 13 24 18 25 16 26 10 28 3 30 4 31 2 32 1 33 24 34 25 35
REMARK SMILES IDX 26 36 27 38 28 39 29 40 30 41 31 42 32 43 33 44 34 45 40 50
REMARK SMILES IDX 41 51 42 52 43 53 44 54
REMARK H PARENT 6 16 16 27 10 29 26 37 33 46 33 47 34 48 34 49 44 55
ROOT
ATOM      1  N   UNL     1     -12.534  -6.938   7.660  1.00  0.00    -0.326 N 
ATOM      2  C   UNL     1     -13.350  -6.176   5.587  1.00  0.00     0.014 C 
ATOM      3  C   UNL     1     -13.582  -6.080   7.098  1.00  0.00     0.091 C 
ATOM      4  C   UNL     1     -12.877  -7.611   5.411  1.00  0.00     0.041 C 
ATOM      5  C   UNL     1     -11.878  -7.714   6.578  1.00  0.00     0.175 C 
ATOM      6  C   UNL     1     -13.598  -4.604   7.492  1.00  0.00     0.059 C 
ATOM      7  C   UNL     1     -14.566  -5.694   4.821  1.00  0.00     0.008 C 
ATOM      8  C   UNL     1     -14.152  -3.674   6.391  1.00  0.00     0.143 C 
ATOM      9  C   UNL     1     -15.133  -4.406   5.453  1.00  0.00     0.034 C 
ENDROOT
BRANCH   1  10
ATOM     10  C   UNL     1     -12.259  -7.254   8.979  1.00  0.00     0.246 C 
ATOM     11  O   UNL     1     -11.509  -6.519   9.630  1.00  0.00    -0.272 OA
BRANCH  10  12
ATOM     12  C   UNL     1     -12.931  -8.500   9.625  1.00  0.00     0.174 C 
BRANCH  12  13
ATOM     13  N   UNL     1     -14.164  -8.105  10.307  1.00  0.00    -0.342 N 
ATOM     14  C   UNL     1     -15.406  -8.038   9.717  1.00  0.00     0.249 C 
ATOM     15  O   UNL     1     -15.623  -8.332   8.548  1.00  0.00    -0.272 OA
ATOM     16  H   UNL     1     -14.116  -7.685  11.231  1.00  0.00     0.164 HD
BRANCH  14  17
ATOM     17  C   UNL     1     -16.505  -7.571  10.695  1.00  0.00     0.207 C 
BRANCH  17  18
ATOM     18  C   UNL     1     -16.329  -6.085  11.028  1.00  0.00     0.077 C 
BRANCH  18  19
ATOM     19  C   UNL     1     -17.091  -5.200  10.067  1.00  0.00    -0.043 A 
ATOM     20  C   UNL     1     -17.371  -3.068   8.944  1.00  0.00     0.083 A 
ATOM     21  C   UNL     1     -16.639  -3.900   9.793  1.00  0.00     0.028 A 
ATOM     22  C   UNL     1     -18.556  -3.528   8.367  1.00  0.00     0.134 A 
ATOM     23  C   UNL     1     -19.014  -4.813   8.630  1.00  0.00     0.048 A 
ATOM     24  C   UNL     1     -18.285  -5.647   9.480  1.00  0.00     0.008 A 
ATOM     25  Cl  UNL     1     -16.801  -1.473   8.620  1.00  0.00    -0.080 Cl
BRANCH  22  26
ATOM     26  O   UNL     1     -19.312  -2.745   7.537  1.00  0.00    -0.506 OA
ATOM     27  H   UNL     1     -19.433  -1.891   7.991  1.00  0.00     0.293 HD
ENDBRANCH  22  26
ENDBRANCH  18  19
ENDBRANCH  17  18
BRANCH  17  28
ATOM     28  O   UNL     1     -16.478  -8.338  11.909  1.00  0.00    -0.383 OA
ATOM     29  H   UNL     1     -16.010  -9.176  11.691  1.00  0.00     0.211 HD
ENDBRANCH  17  28
ENDBRANCH  14  17
ENDBRANCH  12  13
BRANCH  12  30
ATOM     30  C   UNL     1     -11.968  -9.288  10.553  1.00  0.00     0.018 C 
ATOM     31  C   UNL     1     -11.348 -10.482   9.810  1.00  0.00     0.010 C 
BRANCH  30  32
ATOM     32  C   UNL     1     -12.626  -9.766  11.871  1.00  0.00     0.002 C 
ATOM     33  C   UNL     1     -13.000 -11.242  11.914  1.00  0.00     0.004 C 
ENDBRANCH  30  32
ENDBRANCH  12  30
ENDBRANCH  10  12
ENDBRANCH   1  10
BRANCH   5  34
ATOM     34  C   UNL     1     -10.504  -7.093   6.212  1.00  0.00     0.242 C 
ATOM     35  O   UNL     1     -10.376  -6.265   5.310  1.00  0.00    -0.273 OA
ATOM     36  N   UNL     1      -9.433  -7.575   6.930  1.00  0.00    -0.354 N 
ATOM     37  H   UNL     1      -9.585  -8.347   7.581  1.00  0.00     0.163 HD
BRANCH  36  38
ATOM     38  C   UNL     1      -8.123  -6.960   6.872  1.00  0.00     0.116 C 
BRANCH  38  39
ATOM     39  C   UNL     1      -7.949  -5.999   8.046  1.00  0.00     0.023 C 
BRANCH  39  40
ATOM     40  C   UNL     1      -6.930  -4.902   7.755  1.00  0.00     0.026 C 
BRANCH  40  41
ATOM     41  C   UNL     1      -7.615  -3.539   7.655  1.00  0.00     0.146 C 
BRANCH  41  42
ATOM     42  N   UNL     1      -8.001  -3.282   6.273  1.00  0.00    -0.254 NA
ATOM     43  C   UNL     1      -9.238  -3.306   5.947  1.00  0.00     0.185 C 
ATOM     44  N   UNL     1     -10.328  -3.540   6.701  1.00  0.00    -0.370 N 
ATOM     45  N   UNL     1      -9.573  -3.071   4.668  1.00  0.00    -0.370 N 
ATOM     46  H   UNL     1     -11.208  -3.768   6.272  1.00  0.00     0.159 HD
ATOM     47  H   UNL     1     -10.257  -3.723   7.697  1.00  0.00     0.159 HD
ATOM     48  H   UNL     1      -8.810  -2.876   4.033  1.00  0.00     0.159 HD
ATOM     49  H   UNL     1     -10.508  -2.839   4.384  1.00  0.00     0.159 HD
ENDBRANCH  41  42
ENDBRANCH  40  41
ENDBRANCH  39  40
ENDBRANCH  38  39
ENDBRANCH  36  38
ENDBRANCH   5  34
BRANCH   8  50
ATOM     50  O   UNL     1     -13.080  -3.150   5.606  1.00  0.00    -0.245 OA
BRANCH  50  51
ATOM     51  S   UNL     1     -13.154  -1.618   5.066  1.00  0.00     0.397 S 
ATOM     52  O   UNL     1     -11.849  -1.020   5.238  1.00  0.00    -0.169 OA
ATOM     53  O   UNL     1     -14.354  -0.982   5.569  1.00  0.00    -0.169 OA
BRANCH  51  54
ATOM     54  O   UNL     1     -13.332  -1.830   3.482  1.00  0.00    -0.264 OA
ATOM     55  H   UNL     1     -13.450  -2.788   3.320  1.00  0.00     0.236 HD
ENDBRANCH  51  54
ENDBRANCH  50  51
ENDBRANCH   8  50
TORSDOF 19
ENDMDL
MODEL 5
REMARK VINA RESULT:    -6.983     13.935     17.961
REMARK INTER + INTRA:         -17.344
REMARK INTER:                 -14.407
REMARK INTRA:                  -2.937
REMARK UNBOUND:                -3.218
REMARK SMILES CC[C@@H](C)[C@@H](NC(=O)[C@@H](O)Cc1ccc(O)c(Cl)c1)C(=O)N1[C@H](C(=O)NCCCCN=C(N)N)C[C@H]2CC[C@H](OS(=O)(=O)O)C[C@@H]21
REMARK SMILES IDX 22 1 36 2 46 3 35 4 23 5 45 6 37 7 39 8 38 9 20 10 21 11
REMARK SMILES IDX 5 12 6 13 7 14 8 15 9 17 11 18 12 19 17 20 19 21 15 22 14 23
REMARK SMILES IDX 13 24 18 25 16 26 10 28 3 30 4 31 2 32 1 33 24 34 25 35
REMARK SMILES IDX 26 36 27 38 28 39 29 40 30 41 31 42 32 43 33 44 34 45 40 50
REMARK SMILES IDX 41 51 42 52 43 53 44 54
REMARK H PARENT 6 16 16 27 10 29 26 37 33 46 33 47 34 48 34 49 44 55
ROOT
ATOM      1  N   UNL     1     -12.112  -6.602   7.938  1.00  0.00    -0.326 N 
ATOM      2  C   UNL     1     -12.119  -6.462   5.588  1.00  0.00     0.014 C 
ATOM      3  C   UNL     1     -13.042  -6.509   6.809  1.00  0.00     0.091 C 
ATOM      4  C   UNL     1     -10.967  -7.363   6.005  1.00  0.00     0.041 C 
ATOM      5  C   UNL     1     -10.738  -6.864   7.444  1.00  0.00     0.175 C 
ATOM      6  C   UNL     1     -13.987  -5.310   6.746  1.00  0.00     0.059 C 
ATOM      7  C   UNL     1     -12.885  -6.775   4.318  1.00  0.00     0.008 C 
ATOM      8  C   UNL     1     -14.345  -4.876   5.308  1.00  0.00     0.143 C 
ATOM      9  C   UNL     1     -14.245  -6.045   4.308  1.00  0.00     0.034 C 
ENDROOT
BRANCH   1  10
ATOM     10  C   UNL     1     -12.370  -6.694   9.295  1.00  0.00     0.246 C 
ATOM     11  O   UNL     1     -12.228  -5.692  10.004  1.00  0.00    -0.272 OA
BRANCH  10  12
ATOM     12  C   UNL     1     -12.873  -8.041   9.891  1.00  0.00     0.174 C 
BRANCH  12  13
ATOM     13  N   UNL     1     -14.272  -7.915  10.299  1.00  0.00    -0.342 N 
ATOM     14  C   UNL     1     -15.355  -8.271   9.527  1.00  0.00     0.249 C 
ATOM     15  O   UNL     1     -15.264  -8.764   8.410  1.00  0.00    -0.272 OA
ATOM     16  H   UNL     1     -14.507  -7.380  11.131  1.00  0.00     0.164 HD
BRANCH  14  17
ATOM     17  C   UNL     1     -16.702  -8.000  10.231  1.00  0.00     0.207 C 
BRANCH  17  18
ATOM     18  C   UNL     1     -16.823  -6.519  10.604  1.00  0.00     0.077 C 
BRANCH  18  19
ATOM     19  C   UNL     1     -17.047  -5.649   9.387  1.00  0.00    -0.043 A 
ATOM     20  C   UNL     1     -17.083  -3.459   8.346  1.00  0.00     0.083 A 
ATOM     21  C   UNL     1     -16.828  -4.265   9.456  1.00  0.00     0.028 A 
ATOM     22  C   UNL     1     -17.559  -4.028   7.164  1.00  0.00     0.134 A 
ATOM     23  C   UNL     1     -17.780  -5.398   7.082  1.00  0.00     0.048 A 
ATOM     24  C   UNL     1     -17.528  -6.207   8.192  1.00  0.00     0.008 A 
ATOM     25  Cl  UNL     1     -16.808  -1.759   8.450  1.00  0.00    -0.080 Cl
BRANCH  22  26
ATOM     26  O   UNL     1     -17.834  -3.277   6.053  1.00  0.00    -0.506 OA
ATOM     27  H   UNL     1     -18.591  -2.706   6.281  1.00  0.00     0.293 HD
ENDBRANCH  22  26
ENDBRANCH  18  19
ENDBRANCH  17  18
BRANCH  17  28
ATOM     28  O   UNL     1     -16.838  -8.802  11.415  1.00  0.00    -0.383 OA
ATOM     29  H   UNL     1     -16.099  -9.452  11.389  1.00  0.00     0.211 HD
ENDBRANCH  17  28
ENDBRANCH  14  17
ENDBRANCH  12  13
BRANCH  12  30
ATOM     30  C   UNL     1     -11.967  -8.566  11.037  1.00  0.00     0.018 C 
ATOM     31  C   UNL     1     -10.482  -8.361  10.697  1.00  0.00     0.010 C 
BRANCH  30  32
ATOM     32  C   UNL     1     -12.228 -10.046  11.408  1.00  0.00     0.002 C 
ATOM     33  C   UNL     1     -13.428 -10.288  12.315  1.00  0.00     0.004 C 
ENDBRANCH  30  32
ENDBRANCH  12  30
ENDBRANCH  10  12
ENDBRANCH   1  10
BRANCH   5  34
ATOM     34  C   UNL     1      -9.887  -5.566   7.471  1.00  0.00     0.242 C 
ATOM     35  O   UNL     1     -10.205  -4.584   8.141  1.00  0.00    -0.273 OA
ATOM     36  N   UNL     1      -8.781  -5.574   6.650  1.00  0.00    -0.354 N 
ATOM     37  H   UNL     1      -8.636  -6.371   6.028  1.00  0.00     0.163 HD
BRANCH  36  38
ATOM     38  C   UNL     1      -7.766  -4.543   6.711  1.00  0.00     0.116 C 
BRANCH  38  39
ATOM     39  C   UNL     1      -6.923  -4.720   7.972  1.00  0.00     0.023 C 
BRANCH  39  40
ATOM     40  C   UNL     1      -7.058  -3.543   8.933  1.00  0.00     0.026 C 
BRANCH  40  41
ATOM     41  C   UNL     1      -5.881  -3.501   9.908  1.00  0.00     0.146 C 
BRANCH  41  42
ATOM     42  N   UNL     1      -6.219  -2.665  11.052  1.00  0.00    -0.254 NA
ATOM     43  C   UNL     1      -6.241  -3.176  12.225  1.00  0.00     0.185 C 
ATOM     44  N   UNL     1      -5.990  -4.436  12.625  1.00  0.00    -0.370 N 
ATOM     45  N   UNL     1      -6.559  -2.389  13.266  1.00  0.00    -0.370 N 
ATOM     46  H   UNL     1      -6.281  -4.753  13.534  1.00  0.00     0.159 HD
ATOM     47  H   UNL     1      -5.721  -5.161  11.967  1.00  0.00     0.159 HD
ATOM     48  H   UNL     1      -6.755  -1.421  13.053  1.00  0.00     0.159 HD
ATOM     49  H   UNL     1      -6.370  -2.645  14.219  1.00  0.00     0.159 HD
ENDBRANCH  41  42
ENDBRANCH  40  41
ENDBRANCH  39  40
ENDBRANCH  38  39
ENDBRANCH  36  38
ENDBRANCH   5  34
BRANCH   8  50
ATOM     50  O   UNL     1     -13.468  -3.835   4.878  1.00  0.00    -0.245 OA
BRANCH  50  51
ATOM     51  S   UNL     1     -14.066  -2.351   4.585  1.00  0.00     0.397 S 
ATOM     52  O   UNL     1     -15.095  -2.082   5.564  1.00  0.00    -0.169 OA
ATOM     53  O   UNL     1     -14.309  -2.197   3.165  1.00  0.00    -0.169 OA
BRANCH  51  54
ATOM     54  O   UNL     1     -12.827  -1.405   4.980  1.00  0.00    -0.264 OA
ATOM     55  H   UNL     1     -12.791  -0.673   4.332  1.00  0.00     0.236 HD
ENDBRANCH  51  54
ENDBRANCH  50  51
ENDBRANCH   8  50
TORSDOF 19
ENDMDL
MODEL 6
REMARK VINA RESULT:    -6.980      9.752     14.304
REMARK INTER + INTRA:         -17.340
REMARK INTER:                 -12.759
REMARK INTRA:                  -4.581
REMARK UNBOUND:                -3.218
REMARK SMILES CC[C@@H](C)[C@@H](NC(=O)[C@@H](O)Cc1ccc(O)c(Cl)c1)C(=O)N1[C@H](C(=O)NCCCCN=C(N)N)C[C@H]2CC[C@H](OS(=O)(=O)O)C[C@@H]21
REMARK SMILES IDX 22 1 36 2 46 3 35 4 23 5 45 6 37 7 39 8 38 9 20 10 21 11
REMARK SMILES IDX 5 12 6 13 7 14 8 15 9 17 11 18 12 19 17 20 19 21 15 22 14 23
REMARK SMILES IDX 13 24 18 25 16 26 10 28 3 30 4 31 2 32 1 33 24 34 25 35
REMARK SMILES IDX 26 36 27 38 28 39 29 40 30 41 31 42 32 43 33 44 34 45 40 50
REMARK SMILES IDX 41 51 42 52 43 53 44 54
REMARK H PARENT 6 16 16 27 10 29 26 37 33 46 33 47 34 48 34 49 44 55
ROOT
ATOM      1  N   UNL     1     -10.603  -7.137   5.021  1.00  0.00    -0.326 N 
ATOM      2  C   UNL     1     -12.741  -6.697   4.139  1.00  0.00     0.014 C 
ATOM      3  C   UNL     1     -11.472  -6.014   4.657  1.00  0.00     0.091 C 
ATOM      4  C   UNL     1     -12.837  -7.935   5.017  1.00  0.00     0.041 C 
ATOM      5  C   UNL     1     -11.371  -8.406   4.985  1.00  0.00     0.175 C 
ATOM      6  C   UNL     1     -10.981  -5.034   3.593  1.00  0.00     0.059 C 
ATOM      7  C   UNL     1     -13.902  -5.723   4.098  1.00  0.00     0.008 C 
ATOM      8  C   UNL     1     -12.117  -4.406   2.756  1.00  0.00     0.143 C 
ATOM      9  C   UNL     1     -13.450  -4.361   3.530  1.00  0.00     0.034 C 
ENDROOT
BRANCH   1  10
ATOM     10  C   UNL     1      -9.330  -7.134   5.565  1.00  0.00     0.246 C 
ATOM     11  O   UNL     1      -8.355  -7.243   4.814  1.00  0.00    -0.272 OA
BRANCH  10  12
ATOM     12  C   UNL     1      -9.152  -6.952   7.100  1.00  0.00     0.174 C 
BRANCH  12  13
ATOM     13  N   UNL     1     -10.408  -6.499   7.697  1.00  0.00    -0.342 N 
ATOM     14  C   UNL     1     -11.124  -7.188   8.650  1.00  0.00     0.249 C 
ATOM     15  O   UNL     1     -10.769  -8.258   9.128  1.00  0.00    -0.272 OA
ATOM     16  H   UNL     1     -10.903  -5.710   7.290  1.00  0.00     0.164 HD
BRANCH  14  17
ATOM     17  C   UNL     1     -12.417  -6.456   9.068  1.00  0.00     0.207 C 
BRANCH  17  18
ATOM     18  C   UNL     1     -12.638  -5.218   8.194  1.00  0.00     0.077 C 
BRANCH  18  19
ATOM     19  C   UNL     1     -14.045  -5.163   7.643  1.00  0.00    -0.043 A 
ATOM     20  C   UNL     1     -15.840  -3.925   6.579  1.00  0.00     0.083 A 
ATOM     21  C   UNL     1     -14.525  -3.988   7.042  1.00  0.00     0.028 A 
ATOM     22  C   UNL     1     -16.682  -5.029   6.714  1.00  0.00     0.134 A 
ATOM     23  C   UNL     1     -16.220  -6.198   7.307  1.00  0.00     0.048 A 
ATOM     24  C   UNL     1     -14.905  -6.264   7.773  1.00  0.00     0.008 A 
ATOM     25  Cl  UNL     1     -16.411  -2.473   5.844  1.00  0.00    -0.080 Cl
BRANCH  22  26
ATOM     26  O   UNL     1     -17.981  -5.010   6.285  1.00  0.00    -0.506 OA
ATOM     27  H   UNL     1     -17.960  -4.786   5.337  1.00  0.00     0.293 HD
ENDBRANCH  22  26
ENDBRANCH  18  19
ENDBRANCH  17  18
BRANCH  17  28
ATOM     28  O   UNL     1     -12.365  -6.062  10.449  1.00  0.00    -0.383 OA
ATOM     29  H   UNL     1     -11.517  -5.576  10.561  1.00  0.00     0.211 HD
ENDBRANCH  17  28
ENDBRANCH  14  17
ENDBRANCH  12  13
BRANCH  12  30
ATOM     30  C   UNL     1      -7.957  -6.028   7.460  1.00  0.00     0.018 C 
ATOM     31  C   UNL     1      -7.519  -6.245   8.917  1.00  0.00     0.010 C 
BRANCH  30  32
ATOM     32  C   UNL     1      -8.235  -4.526   7.206  1.00  0.00     0.002 C 
ATOM     33  C   UNL     1      -7.077  -3.588   7.520  1.00  0.00     0.004 C 
ENDBRANCH  30  32
ENDBRANCH  12  30
ENDBRANCH  10  12
ENDBRANCH   1  10
BRANCH   5  34
ATOM     34  C   UNL     1     -11.055  -9.204   3.692  1.00  0.00     0.242 C 
ATOM     35  O   UNL     1     -11.939  -9.678   2.979  1.00  0.00    -0.273 OA
ATOM     36  N   UNL     1      -9.715  -9.390   3.432  1.00  0.00    -0.354 N 
ATOM     37  H   UNL     1      -9.032  -9.077   4.123  1.00  0.00     0.163 HD
BRANCH  36  38
ATOM     38  C   UNL     1      -9.239  -9.918   2.170  1.00  0.00     0.116 C 
BRANCH  38  39
ATOM     39  C   UNL     1      -8.082  -9.066   1.655  1.00  0.00     0.023 C 
BRANCH  39  40
ATOM     40  C   UNL     1      -7.505  -9.596   0.347  1.00  0.00     0.026 C 
BRANCH  40  41
ATOM     41  C   UNL     1      -7.728  -8.597  -0.789  1.00  0.00     0.146 C 
BRANCH  41  42
ATOM     42  N   UNL     1      -9.149  -8.514  -1.099  1.00  0.00    -0.254 NA
ATOM     43  C   UNL     1      -9.714  -7.368  -1.178  1.00  0.00     0.185 C 
ATOM     44  N   UNL     1      -9.197  -6.136  -1.018  1.00  0.00    -0.370 N 
ATOM     45  N   UNL     1     -11.026  -7.313  -1.461  1.00  0.00    -0.370 N 
ATOM     46  H   UNL     1      -9.798  -5.343  -0.867  1.00  0.00     0.159 HD
ATOM     47  H   UNL     1      -8.213  -5.993  -0.813  1.00  0.00     0.159 HD
ATOM     48  H   UNL     1     -11.491  -8.199  -1.606  1.00  0.00     0.159 HD
ATOM     49  H   UNL     1     -11.481  -6.472  -1.770  1.00  0.00     0.159 HD
ENDBRANCH  41  42
ENDBRANCH  40  41
ENDBRANCH  39  40
ENDBRANCH  38  39
ENDBRANCH  36  38
ENDBRANCH   5  34
BRANCH   8  50
ATOM     50  O   UNL     1     -12.314  -5.155   1.557  1.00  0.00    -0.245 OA
BRANCH  50  51
ATOM     51  S   UNL     1     -12.551  -4.372   0.151  1.00  0.00     0.397 S 
ATOM     52  O   UNL     1     -11.270  -4.233  -0.504  1.00  0.00    -0.169 OA
ATOM     53  O   UNL     1     -13.420  -3.234   0.368  1.00  0.00    -0.169 OA
BRANCH  51  54
ATOM     54  O   UNL     1     -13.366  -5.461  -0.707  1.00  0.00    -0.264 OA
ATOM     55  H   UNL     1     -14.296  -5.447  -0.402  1.00  0.00     0.236 HD
ENDBRANCH  51  54
ENDBRANCH  50  51
ENDBRANCH   8  50
TORSDOF 19
ENDMDL
MODEL 7
REMARK VINA RESULT:    -6.974     12.128     16.095
REMARK INTER + INTRA:         -17.327
REMARK INTER:                 -12.271
REMARK INTRA:                  -5.056
REMARK UNBOUND:                -3.218
REMARK SMILES CC[C@@H](C)[C@@H](NC(=O)[C@@H](O)Cc1ccc(O)c(Cl)c1)C(=O)N1[C@H](C(=O)NCCCCN=C(N)N)C[C@H]2CC[C@H](OS(=O)(=O)O)C[C@@H]21
REMARK SMILES IDX 22 1 36 2 46 3 35 4 23 5 45 6 37 7 39 8 38 9 20 10 21 11
REMARK SMILES IDX 5 12 6 13 7 14 8 15 9 17 11 18 12 19 17 20 19 21 15 22 14 23
REMARK SMILES IDX 13 24 18 25 16 26 10 28 3 30 4 31 2 32 1 33 24 34 25 35
REMARK SMILES IDX 26 36 27 38 28 39 29 40 30 41 31 42 32 43 33 44 34 45 40 50
REMARK SMILES IDX 41 51 42 52 43 53 44 54
REMARK H PARENT 6 16 16 27 10 29 26 37 33 46 33 47 34 48 34 49 44 55
ROOT
ATOM      1  N   UNL     1     -13.918  -6.345   7.079  1.00  0.00    -0.326 N 
ATOM      2  C   UNL     1     -14.710  -5.945   9.259  1.00  0.00     0.014 C 
ATOM      3  C   UNL     1     -14.849  -6.896   8.067  1.00  0.00     0.091 C 
ATOM      4  C   UNL     1     -14.470  -4.601   8.588  1.00  0.00     0.041 C 
ATOM      5  C   UNL     1     -13.441  -5.011   7.518  1.00  0.00     0.175 C 
ATOM      6  C   UNL     1     -14.622  -8.324   8.560  1.00  0.00     0.059 C 
ATOM      7  C   UNL     1     -15.876  -6.100  10.216  1.00  0.00     0.008 C 
ATOM      8  C   UNL     1     -15.082  -8.560  10.015  1.00  0.00     0.143 C 
ATOM      9  C   UNL     1     -16.208  -7.591  10.431  1.00  0.00     0.034 C 
ENDROOT
BRANCH   1  10
ATOM     10  C   UNL     1     -13.629  -6.776   5.795  1.00  0.00     0.246 C 
ATOM     11  O   UNL     1     -14.029  -6.111   4.833  1.00  0.00    -0.272 OA
BRANCH  10  12
ATOM     12  C   UNL     1     -12.774  -8.060   5.591  1.00  0.00     0.174 C 
BRANCH  12  13
ATOM     13  N   UNL     1     -11.519  -7.948   6.335  1.00  0.00    -0.342 N 
ATOM     14  C   UNL     1     -11.070  -8.855   7.268  1.00  0.00     0.249 C 
ATOM     15  O   UNL     1     -11.666  -9.884   7.561  1.00  0.00    -0.272 OA
ATOM     16  H   UNL     1     -10.998  -7.075   6.313  1.00  0.00     0.164 HD
BRANCH  14  17
ATOM     17  C   UNL     1      -9.719  -8.447   7.892  1.00  0.00     0.207 C 
BRANCH  17  18
ATOM     18  C   UNL     1      -8.564  -9.165   7.188  1.00  0.00     0.077 C 
BRANCH  18  19
ATOM     19  C   UNL     1      -7.704  -8.205   6.396  1.00  0.00    -0.043 A 
ATOM     20  C   UNL     1      -7.005  -7.273   4.268  1.00  0.00     0.083 A 
ATOM     21  C   UNL     1      -7.834  -8.124   5.001  1.00  0.00     0.028 A 
ATOM     22  C   UNL     1      -6.043  -6.502   4.922  1.00  0.00     0.134 A 
ATOM     23  C   UNL     1      -5.904  -6.573   6.303  1.00  0.00     0.048 A 
ATOM     24  C   UNL     1      -6.731  -7.425   7.039  1.00  0.00     0.008 A 
ATOM     25  Cl  UNL     1      -7.180  -7.187   2.555  1.00  0.00    -0.080 Cl
BRANCH  22  26
ATOM     26  O   UNL     1      -5.201  -5.662   4.246  1.00  0.00    -0.506 OA
ATOM     27  H   UNL     1      -5.447  -4.753   4.501  1.00  0.00     0.293 HD
ENDBRANCH  22  26
ENDBRANCH  18  19
ENDBRANCH  17  18
BRANCH  17  28
ATOM     28  O   UNL     1      -9.684  -8.752   9.296  1.00  0.00    -0.383 OA
ATOM     29  H   UNL     1      -9.457  -7.910   9.752  1.00  0.00     0.211 HD
ENDBRANCH  17  28
ENDBRANCH  14  17
ENDBRANCH  12  13
BRANCH  12  30
ATOM     30  C   UNL     1     -12.546  -8.398   4.093  1.00  0.00     0.018 C 
ATOM     31  C   UNL     1     -12.599  -9.916   3.860  1.00  0.00     0.010 C 
BRANCH  30  32
ATOM     32  C   UNL     1     -11.230  -7.817   3.518  1.00  0.00     0.002 C 
ATOM     33  C   UNL     1     -10.596  -8.628   2.396  1.00  0.00     0.004 C 
ENDBRANCH  30  32
ENDBRANCH  12  30
ENDBRANCH  10  12
ENDBRANCH   1  10
BRANCH   5  34
ATOM     34  C   UNL     1     -12.009  -5.104   8.107  1.00  0.00     0.242 C 
ATOM     35  O   UNL     1     -11.765  -5.709   9.151  1.00  0.00    -0.273 OA
ATOM     36  N   UNL     1     -11.042  -4.417   7.408  1.00  0.00    -0.354 N 
ATOM     37  H   UNL     1     -11.326  -3.835   6.619  1.00  0.00     0.163 HD
BRANCH  36  38
ATOM     38  C   UNL     1      -9.629  -4.569   7.688  1.00  0.00     0.116 C 
BRANCH  38  39
ATOM     39  C   UNL     1      -8.828  -4.444   6.395  1.00  0.00     0.023 C 
BRANCH  39  40
ATOM     40  C   UNL     1      -9.629  -4.871   5.169  1.00  0.00     0.026 C 
BRANCH  40  41
ATOM     41  C   UNL     1      -9.853  -3.686   4.230  1.00  0.00     0.146 C 
BRANCH  41  42
ATOM     42  N   UNL     1     -10.957  -2.871   4.720  1.00  0.00    -0.254 NA
ATOM     43  C   UNL     1     -10.754  -1.641   5.012  1.00  0.00     0.185 C 
ATOM     44  N   UNL     1      -9.627  -0.909   4.942  1.00  0.00    -0.370 N 
ATOM     45  N   UNL     1     -11.783  -0.907   5.466  1.00  0.00    -0.370 N 
ATOM     46  H   UNL     1      -9.553  -0.033   5.430  1.00  0.00     0.159 HD
ATOM     47  H   UNL     1      -8.754  -1.305   4.606  1.00  0.00     0.159 HD
ATOM     48  H   UNL     1     -12.673  -1.381   5.541  1.00  0.00     0.159 HD
ATOM     49  H   UNL     1     -11.767   0.097   5.489  1.00  0.00     0.159 HD
ENDBRANCH  41  42
ENDBRANCH  40  41
ENDBRANCH  39  40
ENDBRANCH  38  39
ENDBRANCH  36  38
ENDBRANCH   5  34
BRANCH   8  50
ATOM     50  O   UNL     1     -13.983  -8.388  10.910  1.00  0.00    -0.245 OA
BRANCH  50  51
ATOM     51  S   UNL     1     -13.266  -9.695  11.561  1.00  0.00     0.397 S 
ATOM     52  O   UNL     1     -14.237 -10.766  11.597  1.00  0.00    -0.169 OA
ATOM     53  O   UNL     1     -12.522  -9.305  12.740  1.00  0.00    -0.169 OA
BRANCH  51  54
ATOM     54  O   UNL     1     -12.209 -10.101  10.419  1.00  0.00    -0.264 OA
ATOM     55  H   UNL     1     -12.650 -10.733   9.815  1.00  0.00     0.236 HD
ENDBRANCH  51  54
ENDBRANCH  50  51
ENDBRANCH   8  50
TORSDOF 19
ENDMDL
MODEL 8
REMARK VINA RESULT:    -6.953      3.507      6.843
REMARK INTER + INTRA:         -17.285
REMARK INTER:                 -13.399
REMARK INTRA:                  -3.886
REMARK UNBOUND:                -3.218
REMARK SMILES CC[C@@H](C)[C@@H](NC(=O)[C@@H](O)Cc1ccc(O)c(Cl)c1)C(=O)N1[C@H](C(=O)NCCCCN=C(N)N)C[C@H]2CC[C@H](OS(=O)(=O)O)C[C@@H]21
REMARK SMILES IDX 22 1 36 2 46 3 35 4 23 5 45 6 37 7 39 8 38 9 20 10 21 11
REMARK SMILES IDX 5 12 6 13 7 14 8 15 9 17 11 18 12 19 17 20 19 21 15 22 14 23
REMARK SMILES IDX 13 24 18 25 16 26 10 28 3 30 4 31 2 32 1 33 24 34 25 35
REMARK SMILES IDX 26 36 27 38 28 39 29 40 30 41 31 42 32 43 33 44 34 45 40 50
REMARK SMILES IDX 41 51 42 52 43 53 44 54
REMARK H PARENT 6 16 16 27 10 29 26 37 33 46 33 47 34 48 34 49 44 55
ROOT
ATOM      1  N   UNL     1      -8.643  -2.319  -8.402  1.00  0.00    -0.326 N 
ATOM      2  C   UNL     1      -7.451  -1.325 -10.172  1.00  0.00     0.014 C 
ATOM      3  C   UNL     1      -7.565  -1.356  -8.646  1.00  0.00     0.091 C 
ATOM      4  C   UNL     1      -8.893  -1.513 -10.619  1.00  0.00     0.041 C 
ATOM      5  C   UNL     1      -9.323  -2.653  -9.678  1.00  0.00     0.175 C 
ATOM      6  C   UNL     1      -6.184  -1.653  -8.064  1.00  0.00     0.059 C 
ATOM      7  C   UNL     1      -6.683  -0.102 -10.634  1.00  0.00     0.008 C 
ATOM      8  C   UNL     1      -5.020  -1.097  -8.913  1.00  0.00     0.143 C 
ATOM      9  C   UNL     1      -5.444   0.130  -9.744  1.00  0.00     0.034 C 
ENDROOT
BRANCH   1  10
ATOM     10  C   UNL     1      -9.202  -2.743  -7.208  1.00  0.00     0.246 C 
ATOM     11  O   UNL     1     -10.367  -3.155  -7.203  1.00  0.00    -0.272 OA
BRANCH  10  12
ATOM     12  C   UNL     1      -8.341  -2.732  -5.912  1.00  0.00     0.174 C 
BRANCH  12  13
ATOM     13  N   UNL     1      -8.177  -4.096  -5.411  1.00  0.00    -0.342 N 
ATOM     14  C   UNL     1      -6.999  -4.809  -5.430  1.00  0.00     0.249 C 
ATOM     15  O   UNL     1      -5.939  -4.362  -5.850  1.00  0.00    -0.272 OA
ATOM     16  H   UNL     1      -8.998  -4.649  -5.178  1.00  0.00     0.164 HD
BRANCH  14  17
ATOM     17  C   UNL     1      -7.153  -6.229  -4.845  1.00  0.00     0.207 C 
BRANCH  17  18
ATOM     18  C   UNL     1      -6.831  -6.228  -3.347  1.00  0.00     0.077 C 
BRANCH  18  19
ATOM     19  C   UNL     1      -8.032  -6.613  -2.513  1.00  0.00    -0.043 A 
ATOM     20  C   UNL     1      -9.034  -7.971  -0.770  1.00  0.00     0.083 A 
ATOM     21  C   UNL     1      -7.913  -7.582  -1.504  1.00  0.00     0.028 A 
ATOM     22  C   UNL     1     -10.278  -7.398  -1.040  1.00  0.00     0.134 A 
ATOM     23  C   UNL     1     -10.410  -6.438  -2.036  1.00  0.00     0.048 A 
ATOM     24  C   UNL     1      -9.290  -6.048  -2.774  1.00  0.00     0.008 A 
ATOM     25  Cl  UNL     1      -8.868  -9.162   0.465  1.00  0.00    -0.080 Cl
BRANCH  22  26
ATOM     26  O   UNL     1     -11.407  -7.756  -0.354  1.00  0.00    -0.506 OA
ATOM     27  H   UNL     1     -12.160  -7.350  -0.823  1.00  0.00     0.293 HD
ENDBRANCH  22  26
ENDBRANCH  18  19
ENDBRANCH  17  18
BRANCH  17  28
ATOM     28  O   UNL     1      -6.292  -7.161  -5.517  1.00  0.00    -0.383 OA
ATOM     29  H   UNL     1      -5.646  -7.471  -4.842  1.00  0.00     0.211 HD
ENDBRANCH  17  28
ENDBRANCH  14  17
ENDBRANCH  12  13
BRANCH  12  30
ATOM     30  C   UNL     1      -8.897  -1.766  -4.831  1.00  0.00     0.018 C 
ATOM     31  C   UNL     1      -7.752  -1.077  -4.073  1.00  0.00     0.010 C 
BRANCH  30  32
ATOM     32  C   UNL     1      -9.865  -2.444  -3.831  1.00  0.00     0.002 C 
ATOM     33  C   UNL     1      -9.492  -2.295  -2.361  1.00  0.00     0.004 C 
ENDBRANCH  30  32
ENDBRANCH  12  30
ENDBRANCH  10  12
ENDBRANCH   1  10
BRANCH   5  34
ATOM     34  C   UNL     1      -8.856  -4.037 -10.204  1.00  0.00     0.242 C 
ATOM     35  O   UNL     1      -8.190  -4.159 -11.232  1.00  0.00    -0.273 OA
ATOM     36  N   UNL     1      -9.287  -5.119  -9.469  1.00  0.00    -0.354 N 
ATOM     37  H   UNL     1      -9.936  -4.961  -8.697  1.00  0.00     0.163 HD
BRANCH  36  38
ATOM     38  C   UNL     1      -8.774  -6.455  -9.687  1.00  0.00     0.116 C 
BRANCH  38  39
ATOM     39  C   UNL     1      -7.517  -6.671  -8.847  1.00  0.00     0.023 C 
BRANCH  39  40
ATOM     40  C   UNL     1      -6.378  -7.290  -9.651  1.00  0.00     0.026 C 
BRANCH  40  41
ATOM     41  C   UNL     1      -5.558  -8.244  -8.784  1.00  0.00     0.146 C 
BRANCH  41  42
ATOM     42  N   UNL     1      -4.137  -8.033  -9.026  1.00  0.00    -0.254 NA
ATOM     43  C   UNL     1      -3.504  -7.148  -8.352  1.00  0.00     0.185 C 
ATOM     44  N   UNL     1      -3.942  -6.318  -7.388  1.00  0.00    -0.370 N 
ATOM     45  N   UNL     1      -2.196  -6.966  -8.594  1.00  0.00    -0.370 N 
ATOM     46  H   UNL     1      -3.401  -5.513  -7.119  1.00  0.00     0.159 HD
ATOM     47  H   UNL     1      -4.907  -6.331  -7.071  1.00  0.00     0.159 HD
ATOM     48  H   UNL     1      -1.784  -7.559  -9.301  1.00  0.00     0.159 HD
ATOM     49  H   UNL     1      -1.589  -6.476  -7.961  1.00  0.00     0.159 HD
ENDBRANCH  41  42
ENDBRANCH  40  41
ENDBRANCH  39  40
ENDBRANCH  38  39
ENDBRANCH  36  38
ENDBRANCH   5  34
BRANCH   8  50
ATOM     50  O   UNL     1      -4.538  -2.104  -9.804  1.00  0.00    -0.245 OA
BRANCH  50  51
ATOM     51  S   UNL     1      -2.971  -2.535  -9.756  1.00  0.00     0.397 S 
ATOM     52  O   UNL     1      -2.900  -3.919  -9.344  1.00  0.00    -0.169 OA
ATOM     53  O   UNL     1      -2.203  -1.504  -9.090  1.00  0.00    -0.169 OA
BRANCH  51  54
ATOM     54  O   UNL     1      -2.572  -2.522 -11.314  1.00  0.00    -0.264 OA
ATOM     55  H   UNL     1      -2.971  -3.312 -11.731  1.00  0.00     0.236 HD
ENDBRANCH  51  54
ENDBRANCH  50  51
ENDBRANCH   8  50
TORSDOF 19
ENDMDL
MODEL 9
REMARK VINA RESULT:    -6.935     10.133     14.679
REMARK INTER + INTRA:         -17.247
REMARK INTER:                 -12.859
REMARK INTRA:                  -4.388
REMARK UNBOUND:                -3.218
REMARK SMILES CC[C@@H](C)[C@@H](NC(=O)[C@@H](O)Cc1ccc(O)c(Cl)c1)C(=O)N1[C@H](C(=O)NCCCCN=C(N)N)C[C@H]2CC[C@H](OS(=O)(=O)O)C[C@@H]21
REMARK SMILES IDX 22 1 36 2 46 3 35 4 23 5 45 6 37 7 39 8 38 9 20 10 21 11
REMARK SMILES IDX 5 12 6 13 7 14 8 15 9 17 11 18 12 19 17 20 19 21 15 22 14 23
REMARK SMILES IDX 13 24 18 25 16 26 10 28 3 30 4 31 2 32 1 33 24 34 25 35
REMARK SMILES IDX 26 36 27 38 28 39 29 40 30 41 31 42 32 43 33 44 34 45 40 50
REMARK SMILES IDX 41 51 42 52 43 53 44 54
REMARK H PARENT 6 16 16 27 10 29 26 37 33 46 33 47 34 48 34 49 44 55
ROOT
ATOM      1  N   UNL     1     -10.780  -7.186   5.282  1.00  0.00    -0.326 N 
ATOM      2  C   UNL     1     -12.915  -6.727   4.404  1.00  0.00     0.014 C 
ATOM      3  C   UNL     1     -11.645  -6.056   4.934  1.00  0.00     0.091 C 
ATOM      4  C   UNL     1     -13.016  -7.978   5.264  1.00  0.00     0.041 C 
ATOM      5  C   UNL     1     -11.551  -8.452   5.227  1.00  0.00     0.175 C 
ATOM      6  C   UNL     1     -11.151  -5.062   3.884  1.00  0.00     0.059 C 
ATOM      7  C   UNL     1     -14.074  -5.750   4.376  1.00  0.00     0.008 C 
ATOM      8  C   UNL     1     -12.284  -4.418   3.056  1.00  0.00     0.143 C 
ATOM      9  C   UNL     1     -13.618  -4.381   3.829  1.00  0.00     0.034 C 
ENDROOT
BRANCH   1  10
ATOM     10  C   UNL     1      -9.507  -7.195   5.828  1.00  0.00     0.246 C 
ATOM     11  O   UNL     1      -8.531  -7.278   5.075  1.00  0.00    -0.272 OA
BRANCH  10  12
ATOM     12  C   UNL     1      -9.332  -7.057   7.368  1.00  0.00     0.174 C 
BRANCH  12  13
ATOM     13  N   UNL     1     -10.583  -6.602   7.973  1.00  0.00    -0.342 N 
ATOM     14  C   UNL     1     -11.318  -7.311   8.897  1.00  0.00     0.249 C 
ATOM     15  O   UNL     1     -10.986  -8.403   9.339  1.00  0.00    -0.272 OA
ATOM     16  H   UNL     1     -11.061  -5.790   7.591  1.00  0.00     0.164 HD
BRANCH  14  17
ATOM     17  C   UNL     1     -12.600  -6.570   9.333  1.00  0.00     0.207 C 
BRANCH  17  18
ATOM     18  C   UNL     1     -12.952  -5.470   8.327  1.00  0.00     0.077 C 
BRANCH  18  19
ATOM     19  C   UNL     1     -14.427  -5.466   7.992  1.00  0.00    -0.043 A 
ATOM     20  C   UNL     1     -16.573  -6.595   7.935  1.00  0.00     0.083 A 
ATOM     21  C   UNL     1     -15.224  -6.582   8.289  1.00  0.00     0.028 A 
ATOM     22  C   UNL     1     -17.133  -5.497   7.281  1.00  0.00     0.134 A 
ATOM     23  C   UNL     1     -16.356  -4.384   6.981  1.00  0.00     0.048 A 
ATOM     24  C   UNL     1     -15.004  -4.370   7.333  1.00  0.00     0.008 A 
ATOM     25  Cl  UNL     1     -17.536  -7.976   8.308  1.00  0.00    -0.080 Cl
BRANCH  22  26
ATOM     26  O   UNL     1     -18.449  -5.467   6.904  1.00  0.00    -0.506 OA
ATOM     27  H   UNL     1     -18.736  -6.395   6.818  1.00  0.00     0.293 HD
ENDBRANCH  22  26
ENDBRANCH  18  19
ENDBRANCH  17  18
BRANCH  17  28
ATOM     28  O   UNL     1     -12.443  -5.989  10.638  1.00  0.00    -0.383 OA
ATOM     29  H   UNL     1     -12.766  -5.063  10.564  1.00  0.00     0.211 HD
ENDBRANCH  17  28
ENDBRANCH  14  17
ENDBRANCH  12  13
BRANCH  12  30
ATOM     30  C   UNL     1      -8.125  -6.161   7.756  1.00  0.00     0.018 C 
ATOM     31  C   UNL     1      -7.575  -6.554   9.136  1.00  0.00     0.010 C 
BRANCH  30  32
ATOM     32  C   UNL     1      -8.440  -4.645   7.721  1.00  0.00     0.002 C 
ATOM     33  C   UNL     1      -7.397  -3.780   7.025  1.00  0.00     0.004 C 
ENDBRANCH  30  32
ENDBRANCH  12  30
ENDBRANCH  10  12
ENDBRANCH   1  10
BRANCH   5  34
ATOM     34  C   UNL     1     -11.235  -9.232   3.923  1.00  0.00     0.242 C 
ATOM     35  O   UNL     1     -12.117  -9.739   3.229  1.00  0.00    -0.273 OA
ATOM     36  N   UNL     1      -9.897  -9.362   3.628  1.00  0.00    -0.354 N 
ATOM     37  H   UNL     1      -9.210  -9.025   4.303  1.00  0.00     0.163 HD
BRANCH  36  38
ATOM     38  C   UNL     1      -9.431  -9.866   2.352  1.00  0.00     0.116 C 
BRANCH  38  39
ATOM     39  C   UNL     1      -8.750  -8.746   1.569  1.00  0.00     0.023 C 
BRANCH  39  40
ATOM     40  C   UNL     1      -9.666  -7.546   1.352  1.00  0.00     0.026 C 
BRANCH  40  41
ATOM     41  C   UNL     1     -10.429  -7.678   0.034  1.00  0.00     0.146 C 
BRANCH  41  42
ATOM     42  N   UNL     1      -9.589  -7.226  -1.068  1.00  0.00    -0.254 NA
ATOM     43  C   UNL     1     -10.124  -6.937  -2.194  1.00  0.00     0.185 C 
ATOM     44  N   UNL     1     -11.414  -6.975  -2.575  1.00  0.00    -0.370 N 
ATOM     45  N   UNL     1      -9.332  -6.526  -3.198  1.00  0.00    -0.370 N 
ATOM     46  H   UNL     1     -11.662  -6.958  -3.550  1.00  0.00     0.159 HD
ATOM     47  H   UNL     1     -12.151  -7.251  -1.933  1.00  0.00     0.159 HD
ATOM     48  H   UNL     1      -8.344  -6.461  -2.993  1.00  0.00     0.159 HD
ATOM     49  H   UNL     1      -9.686  -6.063  -4.016  1.00  0.00     0.159 HD
ENDBRANCH  41  42
ENDBRANCH  40  41
ENDBRANCH  39  40
ENDBRANCH  38  39
ENDBRANCH  36  38
ENDBRANCH   5  34
BRANCH   8  50
ATOM     50  O   UNL     1     -12.482  -5.149   1.845  1.00  0.00    -0.245 OA
BRANCH  50  51
ATOM     51  S   UNL     1     -12.467  -4.363   0.421  1.00  0.00     0.397 S 
ATOM     52  O   UNL     1     -11.089  -4.207   0.012  1.00  0.00    -0.169 OA
ATOM     53  O   UNL     1     -13.375  -3.236   0.479  1.00  0.00    -0.169 OA
BRANCH  51  54
ATOM     54  O   UNL     1     -13.098  -5.458  -0.573  1.00  0.00    -0.264 OA
ATOM     55  H   UNL     1     -13.159  -5.054  -1.462  1.00  0.00     0.236 HD
ENDBRANCH  51  54
ENDBRANCH  50  51
ENDBRANCH   8  50
TORSDOF 19
ENDMDL
MODEL 10
REMARK VINA RESULT:    -6.871      3.754      7.401
REMARK INTER + INTRA:         -17.119
REMARK INTER:                 -13.833
REMARK INTRA:                  -3.286
REMARK UNBOUND:                -3.218
REMARK SMILES CC[C@@H](C)[C@@H](NC(=O)[C@@H](O)Cc1ccc(O)c(Cl)c1)C(=O)N1[C@H](C(=O)NCCCCN=C(N)N)C[C@H]2CC[C@H](OS(=O)(=O)O)C[C@@H]21
REMARK SMILES IDX 22 1 36 2 46 3 35 4 23 5 45 6 37 7 39 8 38 9 20 10 21 11
REMARK SMILES IDX 5 12 6 13 7 14 8 15 9 17 11 18 12 19 17 20 19 21 15 22 14 23
REMARK SMILES IDX 13 24 18 25 16 26 10 28 3 30 4 31 2 32 1 33 24 34 25 35
REMARK SMILES IDX 26 36 27 38 28 39 29 40 30 41 31 42 32 43 33 44 34 45 40 50
REMARK SMILES IDX 41 51 42 52 43 53 44 54
REMARK H PARENT 6 16 16 27 10 29 26 37 33 46 33 47 34 48 34 49 44 55
ROOT
ATOM      1  N   UNL     1      -6.135  -3.765  -8.344  1.00  0.00    -0.326 N 
ATOM      2  C   UNL     1      -6.076  -6.113  -8.499  1.00  0.00     0.014 C 
ATOM      3  C   UNL     1      -5.305  -4.908  -7.954  1.00  0.00     0.091 C 
ATOM      4  C   UNL     1      -6.684  -5.569  -9.783  1.00  0.00     0.041 C 
ATOM      5  C   UNL     1      -7.194  -4.204  -9.286  1.00  0.00     0.175 C 
ATOM      6  C   UNL     1      -5.039  -5.137  -6.467  1.00  0.00     0.059 C 
ATOM      7  C   UNL     1      -5.191  -7.342  -8.558  1.00  0.00     0.008 C 
ATOM      8  C   UNL     1      -4.857  -6.623  -6.090  1.00  0.00     0.143 C 
ATOM      9  C   UNL     1      -4.341  -7.463  -7.276  1.00  0.00     0.034 C 
ENDROOT
BRANCH   1  10
ATOM     10  C   UNL     1      -5.933  -2.411  -8.139  1.00  0.00     0.246 C 
ATOM     11  O   UNL     1      -6.433  -1.872  -7.146  1.00  0.00    -0.272 OA
BRANCH  10  12
ATOM     12  C   UNL     1      -5.050  -1.607  -9.137  1.00  0.00     0.174 C 
BRANCH  12  13
ATOM     13  N   UNL     1      -3.844  -1.129  -8.462  1.00  0.00    -0.342 N 
ATOM     14  C   UNL     1      -2.680  -1.850  -8.318  1.00  0.00     0.249 C 
ATOM     15  O   UNL     1      -2.515  -2.977  -8.770  1.00  0.00    -0.272 OA
ATOM     16  H   UNL     1      -3.882  -0.279  -7.905  1.00  0.00     0.164 HD
BRANCH  14  17
ATOM     17  C   UNL     1      -1.593  -1.077  -7.542  1.00  0.00     0.207 C 
BRANCH  17  18
ATOM     18  C   UNL     1      -0.484  -0.614  -8.492  1.00  0.00     0.077 C 
BRANCH  18  19
ATOM     19  C   UNL     1      -0.153   0.849  -8.298  1.00  0.00    -0.043 A 
ATOM     20  C   UNL     1       1.383   2.709  -8.554  1.00  0.00     0.083 A 
ATOM     21  C   UNL     1       1.059   1.371  -8.778  1.00  0.00     0.028 A 
ATOM     22  C   UNL     1       0.503   3.533  -7.851  1.00  0.00     0.134 A 
ATOM     23  C   UNL     1      -0.701   3.029  -7.371  1.00  0.00     0.048 A 
ATOM     24  C   UNL     1      -1.027   1.689  -7.592  1.00  0.00     0.008 A 
ATOM     25  Cl  UNL     1       2.877   3.332  -9.150  1.00  0.00    -0.080 Cl
BRANCH  22  26
ATOM     26  O   UNL     1       0.782   4.849  -7.598  1.00  0.00    -0.506 OA
ATOM     27  H   UNL     1       0.008   5.361  -7.898  1.00  0.00     0.293 HD
ENDBRANCH  22  26
ENDBRANCH  18  19
ENDBRANCH  17  18
BRANCH  17  28
ATOM     28  O   UNL     1      -1.022  -1.890  -6.504  1.00  0.00    -0.383 OA
ATOM     29  H   UNL     1      -1.572  -2.705  -6.463  1.00  0.00     0.211 HD
ENDBRANCH  17  28
ENDBRANCH  14  17
ENDBRANCH  12  13
BRANCH  12  30
ATOM     30  C   UNL     1      -5.828  -0.463  -9.841  1.00  0.00     0.018 C 
ATOM     31  C   UNL     1      -7.214  -0.945 -10.297  1.00  0.00     0.010 C 
BRANCH  30  32
ATOM     32  C   UNL     1      -5.066   0.166 -11.033  1.00  0.00     0.002 C 
ATOM     33  C   UNL     1      -4.482  -0.827 -12.030  1.00  0.00     0.004 C 
ENDBRANCH  30  32
ENDBRANCH  12  30
ENDBRANCH  10  12
ENDBRANCH   1  10
BRANCH   5  34
ATOM     34  C   UNL     1      -8.559  -4.334  -8.558  1.00  0.00     0.242 C 
ATOM     35  O   UNL     1      -9.287  -5.317  -8.696  1.00  0.00    -0.273 OA
ATOM     36  N   UNL     1      -8.919  -3.249  -7.791  1.00  0.00    -0.354 N 
ATOM     37  H   UNL     1      -8.330  -2.415  -7.812  1.00  0.00     0.163 HD
BRANCH  36  38
ATOM     38  C   UNL     1     -10.044  -3.285  -6.880  1.00  0.00     0.116 C 
BRANCH  38  39
ATOM     39  C   UNL     1      -9.626  -2.738  -5.518  1.00  0.00     0.023 C 
BRANCH  39  40
ATOM     40  C   UNL     1      -8.517  -3.563  -4.873  1.00  0.00     0.026 C 
BRANCH  40  41
ATOM     41  C   UNL     1      -8.250  -3.090  -3.444  1.00  0.00     0.146 C 
BRANCH  41  42
ATOM     42  N   UNL     1      -7.582  -4.145  -2.693  1.00  0.00    -0.254 NA
ATOM     43  C   UNL     1      -6.947  -3.853  -1.621  1.00  0.00     0.185 C 
ATOM     44  N   UNL     1      -6.771  -2.665  -1.015  1.00  0.00    -0.370 N 
ATOM     45  N   UNL     1      -6.335  -4.840  -0.945  1.00  0.00    -0.370 N 
ATOM     46  H   UNL     1      -6.053  -2.544  -0.322  1.00  0.00     0.159 HD
ATOM     47  H   UNL     1      -7.180  -1.812  -1.385  1.00  0.00     0.159 HD
ATOM     48  H   UNL     1      -6.426  -5.770  -1.330  1.00  0.00     0.159 HD
ATOM     49  H   UNL     1      -6.027  -4.738   0.006  1.00  0.00     0.159 HD
ENDBRANCH  41  42
ENDBRANCH  40  41
ENDBRANCH  39  40
ENDBRANCH  38  39
ENDBRANCH  36  38
ENDBRANCH   5  34
BRANCH   8  50
ATOM     50  O   UNL     1      -6.100  -7.173  -5.652  1.00  0.00    -0.245 OA
BRANCH  50  51
ATOM     51  S   UNL     1      -6.314  -7.522  -4.078  1.00  0.00     0.397 S 
ATOM     52  O   UNL     1      -5.402  -6.702  -3.312  1.00  0.00    -0.169 OA
ATOM     53  O   UNL     1      -6.375  -8.958  -3.902  1.00  0.00    -0.169 OA
BRANCH  51  54
ATOM     54  O   UNL     1      -7.780  -6.925  -3.798  1.00  0.00    -0.264 OA
ATOM     55  H   UNL     1      -8.231  -6.824  -4.661  1.00  0.00     0.236 HD
ENDBRANCH  51  54
ENDBRANCH  50  51
ENDBRANCH   8  50
TORSDOF 19
ENDMDL
MODEL 11
REMARK VINA RESULT:    -6.842     11.861     16.044
REMARK INTER + INTRA:         -17.059
REMARK INTER:                 -11.879
REMARK INTRA:                  -5.180
REMARK UNBOUND:                -3.218
REMARK SMILES CC[C@@H](C)[C@@H](NC(=O)[C@@H](O)Cc1ccc(O)c(Cl)c1)C(=O)N1[C@H](C(=O)NCCCCN=C(N)N)C[C@H]2CC[C@H](OS(=O)(=O)O)C[C@@H]21
REMARK SMILES IDX 22 1 36 2 46 3 35 4 23 5 45 6 37 7 39 8 38 9 20 10 21 11
REMARK SMILES IDX 5 12 6 13 7 14 8 15 9 17 11 18 12 19 17 20 19 21 15 22 14 23
REMARK SMILES IDX 13 24 18 25 16 26 10 28 3 30 4 31 2 32 1 33 24 34 25 35
REMARK SMILES IDX 26 36 27 38 28 39 29 40 30 41 31 42 32 43 33 44 34 45 40 50
REMARK SMILES IDX 41 51 42 52 43 53 44 54
REMARK H PARENT 6 16 16 27 10 29 26 37 33 46 33 47 34 48 34 49 44 55
ROOT
ATOM      1  N   UNL     1     -13.958  -6.362   7.140  1.00  0.00    -0.326 N 
ATOM      2  C   UNL     1     -14.712  -5.965   9.334  1.00  0.00     0.014 C 
ATOM      3  C   UNL     1     -14.921  -6.873   8.119  1.00  0.00     0.091 C 
ATOM      4  C   UNL     1     -14.382  -4.624   8.697  1.00  0.00     0.041 C 
ATOM      5  C   UNL     1     -13.389  -5.075   7.611  1.00  0.00     0.175 C 
ATOM      6  C   UNL     1     -14.791  -8.326   8.573  1.00  0.00     0.059 C 
ATOM      7  C   UNL     1     -15.881  -6.065  10.294  1.00  0.00     0.008 C 
ATOM      8  C   UNL     1     -15.260  -8.568  10.024  1.00  0.00     0.143 C 
ATOM      9  C   UNL     1     -16.315  -7.535  10.472  1.00  0.00     0.034 C 
ENDROOT
BRANCH   1  10
ATOM     10  C   UNL     1     -13.705  -6.778   5.844  1.00  0.00     0.246 C 
ATOM     11  O   UNL     1     -14.154  -6.116   4.902  1.00  0.00    -0.272 OA
BRANCH  10  12
ATOM     12  C   UNL     1     -12.827  -8.040   5.600  1.00  0.00     0.174 C 
BRANCH  12  13
ATOM     13  N   UNL     1     -11.744  -8.090   6.581  1.00  0.00    -0.342 N 
ATOM     14  C   UNL     1     -11.497  -9.143   7.433  1.00  0.00     0.249 C 
ATOM     15  O   UNL     1     -12.151 -10.179   7.444  1.00  0.00    -0.272 OA
ATOM     16  H   UNL     1     -11.218  -7.246   6.795  1.00  0.00     0.164 HD
BRANCH  14  17
ATOM     17  C   UNL     1     -10.292  -8.888   8.363  1.00  0.00     0.207 C 
BRANCH  17  18
ATOM     18  C   UNL     1      -9.195  -9.930   8.116  1.00  0.00     0.077 C 
BRANCH  18  19
ATOM     19  C   UNL     1      -8.329  -9.564   6.932  1.00  0.00    -0.043 A 
ATOM     20  C   UNL     1      -6.381  -8.444   6.019  1.00  0.00     0.083 A 
ATOM     21  C   UNL     1      -7.152  -8.822   7.118  1.00  0.00     0.028 A 
ATOM     22  C   UNL     1      -6.779  -8.802   4.730  1.00  0.00     0.134 A 
ATOM     23  C   UNL     1      -7.942  -9.537   4.532  1.00  0.00     0.048 A 
ATOM     24  C   UNL     1      -8.717  -9.915   5.630  1.00  0.00     0.008 A 
ATOM     25  Cl  UNL     1      -4.938  -7.532   6.267  1.00  0.00    -0.080 Cl
BRANCH  22  26
ATOM     26  O   UNL     1      -6.061  -8.445   3.621  1.00  0.00    -0.506 OA
ATOM     27  H   UNL     1      -5.673  -9.265   3.263  1.00  0.00     0.293 HD
ENDBRANCH  22  26
ENDBRANCH  18  19
ENDBRANCH  17  18
BRANCH  17  28
ATOM     28  O   UNL     1     -10.686  -8.928   9.744  1.00  0.00    -0.383 OA
ATOM     29  H   UNL     1     -11.603  -8.574   9.775  1.00  0.00     0.211 HD
ENDBRANCH  17  28
ENDBRANCH  14  17
ENDBRANCH  12  13
BRANCH  12  30
ATOM     30  C   UNL     1     -12.310  -8.138   4.140  1.00  0.00     0.018 C 
ATOM     31  C   UNL     1     -12.064  -9.603   3.745  1.00  0.00     0.010 C 
BRANCH  30  32
ATOM     32  C   UNL     1     -11.039  -7.295   3.873  1.00  0.00     0.002 C 
ATOM     33  C   UNL     1     -11.222  -6.128   2.911  1.00  0.00     0.004 C 
ENDBRANCH  30  32
ENDBRANCH  12  30
ENDBRANCH  10  12
ENDBRANCH   1  10
BRANCH   5  34
ATOM     34  C   UNL     1     -11.964  -5.283   8.189  1.00  0.00     0.242 C 
ATOM     35  O   UNL     1     -11.753  -5.964   9.193  1.00  0.00    -0.273 OA
ATOM     36  N   UNL     1     -10.960  -4.607   7.530  1.00  0.00    -0.354 N 
ATOM     37  H   UNL     1     -11.212  -3.964   6.779  1.00  0.00     0.163 HD
BRANCH  36  38
ATOM     38  C   UNL     1      -9.558  -4.854   7.797  1.00  0.00     0.116 C 
BRANCH  38  39
ATOM     39  C   UNL     1      -8.962  -5.710   6.682  1.00  0.00     0.023 C 
BRANCH  39  40
ATOM     40  C   UNL     1      -7.812  -5.013   5.963  1.00  0.00     0.026 C 
BRANCH  40  41
ATOM     41  C   UNL     1      -8.155  -4.780   4.492  1.00  0.00     0.146 C 
BRANCH  41  42
ATOM     42  N   UNL     1      -7.314  -5.622   3.651  1.00  0.00    -0.254 NA
ATOM     43  C   UNL     1      -7.351  -5.484   2.379  1.00  0.00     0.185 C 
ATOM     44  N   UNL     1      -8.076  -4.642   1.620  1.00  0.00    -0.370 N 
ATOM     45  N   UNL     1      -6.572  -6.273   1.621  1.00  0.00    -0.370 N 
ATOM     46  H   UNL     1      -8.189  -4.807   0.635  1.00  0.00     0.159 HD
ATOM     47  H   UNL     1      -8.710  -3.965   2.033  1.00  0.00     0.159 HD
ATOM     48  H   UNL     1      -5.985  -6.932   2.115  1.00  0.00     0.159 HD
ATOM     49  H   UNL     1      -6.367  -6.072   0.658  1.00  0.00     0.159 HD
ENDBRANCH  41  42
ENDBRANCH  40  41
ENDBRANCH  39  40
ENDBRANCH  38  39
ENDBRANCH  36  38
ENDBRANCH   5  34
BRANCH   8  50
ATOM     50  O   UNL     1     -14.149  -8.496  10.917  1.00  0.00    -0.245 OA
BRANCH  50  51
ATOM     51  S   UNL     1     -13.609  -9.851  11.638  1.00  0.00     0.397 S 
ATOM     52  O   UNL     1     -13.212  -9.511  12.986  1.00  0.00    -0.169 OA
ATOM     53  O   UNL     1     -12.720 -10.558  10.740  1.00  0.00    -0.169 OA
BRANCH  51  54
ATOM     54  O   UNL     1     -14.958 -10.714  11.782  1.00  0.00    -0.264 OA
ATOM     55  H   UNL     1     -15.708 -10.088  11.842  1.00  0.00     0.236 HD
ENDBRANCH  51  54
ENDBRANCH  50  51
ENDBRANCH   8  50
TORSDOF 19
ENDMDL
MODEL 12
REMARK VINA RESULT:    -6.798      4.155      8.496
REMARK INTER + INTRA:         -16.971
REMARK INTER:                 -13.063
REMARK INTRA:                  -3.908
REMARK UNBOUND:                -3.218
REMARK SMILES CC[C@@H](C)[C@@H](NC(=O)[C@@H](O)Cc1ccc(O)c(Cl)c1)C(=O)N1[C@H](C(=O)NCCCCN=C(N)N)C[C@H]2CC[C@H](OS(=O)(=O)O)C[C@@H]21
REMARK SMILES IDX 22 1 36 2 46 3 35 4 23 5 45 6 37 7 39 8 38 9 20 10 21 11
REMARK SMILES IDX 5 12 6 13 7 14 8 15 9 17 11 18 12 19 17 20 19 21 15 22 14 23
REMARK SMILES IDX 13 24 18 25 16 26 10 28 3 30 4 31 2 32 1 33 24 34 25 35
REMARK SMILES IDX 26 36 27 38 28 39 29 40 30 41 31 42 32 43 33 44 34 45 40 50
REMARK SMILES IDX 41 51 42 52 43 53 44 54
REMARK H PARENT 6 16 16 27 10 29 26 37 33 46 33 47 34 48 34 49 44 55
ROOT
ATOM      1  N   UNL     1      -5.590  -5.974  -5.161  1.00  0.00    -0.326 N 
ATOM      2  C   UNL     1      -4.508  -5.799  -7.245  1.00  0.00     0.014 C 
ATOM      3  C   UNL     1      -4.510  -6.593  -5.935  1.00  0.00     0.091 C 
ATOM      4  C   UNL     1      -4.883  -4.398  -6.788  1.00  0.00     0.041 C 
ATOM      5  C   UNL     1      -6.040  -4.726  -5.826  1.00  0.00     0.175 C 
ATOM      6  C   UNL     1      -4.619  -8.079  -6.271  1.00  0.00     0.059 C 
ATOM      7  C   UNL     1      -3.213  -6.011  -8.005  1.00  0.00     0.008 C 
ATOM      8  C   UNL     1      -3.949  -8.465  -7.608  1.00  0.00     0.143 C 
ATOM      9  C   UNL     1      -2.807  -7.500  -7.983  1.00  0.00     0.034 C 
ENDROOT
BRANCH   1  10
ATOM     10  C   UNL     1      -6.045  -6.261  -3.886  1.00  0.00     0.246 C 
ATOM     11  O   UNL     1      -5.498  -5.724  -2.917  1.00  0.00    -0.272 OA
BRANCH  10  12
ATOM     12  C   UNL     1      -7.260  -7.217  -3.702  1.00  0.00     0.174 C 
BRANCH  12  13
ATOM     13  N   UNL     1      -8.116  -6.732  -2.620  1.00  0.00    -0.342 N 
ATOM     14  C   UNL     1      -9.263  -5.990  -2.792  1.00  0.00     0.249 C 
ATOM     15  O   UNL     1      -9.712  -5.673  -3.886  1.00  0.00    -0.272 OA
ATOM     16  H   UNL     1      -7.790  -6.782  -1.658  1.00  0.00     0.164 HD
BRANCH  14  17
ATOM     17  C   UNL     1      -9.936  -5.616  -1.455  1.00  0.00     0.207 C 
BRANCH  17  18
ATOM     18  C   UNL     1     -10.829  -6.761  -0.965  1.00  0.00     0.077 C 
BRANCH  18  19
ATOM     19  C   UNL     1     -10.344  -7.329   0.350  1.00  0.00    -0.043 A 
ATOM     20  C   UNL     1     -10.243  -7.233   2.771  1.00  0.00     0.083 A 
ATOM     21  C   UNL     1     -10.732  -6.737   1.562  1.00  0.00     0.028 A 
ATOM     22  C   UNL     1      -9.366  -8.319   2.778  1.00  0.00     0.134 A 
ATOM     23  C   UNL     1      -8.974  -8.914   1.584  1.00  0.00     0.048 A 
ATOM     24  C   UNL     1      -9.460  -8.418   0.372  1.00  0.00     0.008 A 
ATOM     25  Cl  UNL     1     -10.730  -6.493   4.251  1.00  0.00    -0.080 Cl
BRANCH  22  26
ATOM     26  O   UNL     1      -8.852  -8.833   3.937  1.00  0.00    -0.506 OA
ATOM     27  H   UNL     1      -8.493  -9.713   3.719  1.00  0.00     0.293 HD
ENDBRANCH  22  26
ENDBRANCH  18  19
ENDBRANCH  17  18
BRANCH  17  28
ATOM     28  O   UNL     1     -10.724  -4.421  -1.588  1.00  0.00    -0.383 OA
ATOM     29  H   UNL     1     -10.284  -3.882  -2.284  1.00  0.00     0.211 HD
ENDBRANCH  17  28
ENDBRANCH  14  17
ENDBRANCH  12  13
BRANCH  12  30
ATOM     30  C   UNL     1      -6.834  -8.696  -3.503  1.00  0.00     0.018 C 
ATOM     31  C   UNL     1      -7.914  -9.478  -2.739  1.00  0.00     0.010 C 
BRANCH  30  32
ATOM     32  C   UNL     1      -5.463  -8.860  -2.801  1.00  0.00     0.002 C 
ATOM     33  C   UNL     1      -5.246 -10.193  -2.098  1.00  0.00     0.004 C 
ENDBRANCH  30  32
ENDBRANCH  12  30
ENDBRANCH  10  12
ENDBRANCH   1  10
BRANCH   5  34
ATOM     34  C   UNL     1      -7.371  -4.959  -6.590  1.00  0.00     0.242 C 
ATOM     35  O   UNL     1      -7.733  -6.078  -6.955  1.00  0.00    -0.273 OA
ATOM     36  N   UNL     1      -8.088  -3.820  -6.878  1.00  0.00    -0.354 N 
ATOM     37  H   UNL     1      -7.678  -2.912  -6.657  1.00  0.00     0.163 HD
BRANCH  36  38
ATOM     38  C   UNL     1      -9.443  -3.868  -7.389  1.00  0.00     0.116 C 
BRANCH  38  39
ATOM     39  C   UNL     1      -9.620  -2.820  -8.485  1.00  0.00     0.023 C 
BRANCH  39  40
ATOM     40  C   UNL     1      -8.289  -2.326  -9.041  1.00  0.00     0.026 C 
BRANCH  40  41
ATOM     41  C   UNL     1      -7.947  -3.041 -10.348  1.00  0.00     0.146 C 
BRANCH  41  42
ATOM     42  N   UNL     1      -7.124  -4.210 -10.069  1.00  0.00    -0.254 NA
ATOM     43  C   UNL     1      -7.598  -5.382 -10.272  1.00  0.00     0.185 C 
ATOM     44  N   UNL     1      -8.805  -5.759 -10.731  1.00  0.00    -0.370 N 
ATOM     45  N   UNL     1      -6.824  -6.447 -10.005  1.00  0.00    -0.370 N 
ATOM     46  H   UNL     1      -9.127  -6.704 -10.609  1.00  0.00     0.159 HD
ATOM     47  H   UNL     1      -9.511  -5.079 -10.995  1.00  0.00     0.159 HD
ATOM     48  H   UNL     1      -5.893  -6.250  -9.662  1.00  0.00     0.159 HD
ATOM     49  H   UNL     1      -7.026  -7.367 -10.353  1.00  0.00     0.159 HD
ENDBRANCH  41  42
ENDBRANCH  40  41
ENDBRANCH  39  40
ENDBRANCH  38  39
ENDBRANCH  36  38
ENDBRANCH   5  34
BRANCH   8  50
ATOM     50  O   UNL     1      -4.914  -8.456  -8.660  1.00  0.00    -0.245 OA
BRANCH  50  51
ATOM     51  S   UNL     1      -4.976  -9.702  -9.703  1.00  0.00     0.397 S 
ATOM     52  O   UNL     1      -4.687  -9.193 -11.025  1.00  0.00    -0.169 OA
ATOM     53  O   UNL     1      -6.155 -10.500  -9.438  1.00  0.00    -0.169 OA
BRANCH  51  54
ATOM     54  O   UNL     1      -3.688 -10.563  -9.274  1.00  0.00    -0.264 OA
ATOM     55  H   UNL     1      -3.847 -11.492  -9.541  1.00  0.00     0.236 HD
ENDBRANCH  51  54
ENDBRANCH  50  51
ENDBRANCH   8  50
TORSDOF 19
ENDMDL
MODEL 13
REMARK VINA RESULT:    -6.798     13.501     17.481
REMARK INTER + INTRA:         -16.971
REMARK INTER:                 -12.323
REMARK INTRA:                  -4.647
REMARK UNBOUND:                -3.218
REMARK SMILES CC[C@@H](C)[C@@H](NC(=O)[C@@H](O)Cc1ccc(O)c(Cl)c1)C(=O)N1[C@H](C(=O)NCCCCN=C(N)N)C[C@H]2CC[C@H](OS(=O)(=O)O)C[C@@H]21
REMARK SMILES IDX 22 1 36 2 46 3 35 4 23 5 45 6 37 7 39 8 38 9 20 10 21 11
REMARK SMILES IDX 5 12 6 13 7 14 8 15 9 17 11 18 12 19 17 20 19 21 15 22 14 23
REMARK SMILES IDX 13 24 18 25 16 26 10 28 3 30 4 31 2 32 1 33 24 34 25 35
REMARK SMILES IDX 26 36 27 38 28 39 29 40 30 41 31 42 32 43 33 44 34 45 40 50
REMARK SMILES IDX 41 51 42 52 43 53 44 54
REMARK H PARENT 6 16 16 27 10 29 26 37 33 46 33 47 34 48 34 49 44 55
ROOT
ATOM      1  N   UNL     1     -10.006  -6.149   5.831  1.00  0.00    -0.326 N 
ATOM      2  C   UNL     1      -7.750  -5.641   6.273  1.00  0.00     0.014 C 
ATOM      3  C   UNL     1      -9.162  -5.050   6.308  1.00  0.00     0.091 C 
ATOM      4  C   UNL     1      -7.800  -6.555   5.058  1.00  0.00     0.041 C 
ATOM      5  C   UNL     1      -9.160  -7.241   5.289  1.00  0.00     0.175 C 
ATOM      6  C   UNL     1      -9.418  -4.494   7.708  1.00  0.00     0.059 C 
ATOM      7  C   UNL     1      -6.702  -4.548   6.337  1.00  0.00     0.008 C 
ATOM      8  C   UNL     1      -8.150  -3.953   8.403  1.00  0.00     0.143 C 
ATOM      9  C   UNL     1      -7.087  -3.486   7.388  1.00  0.00     0.034 C 
ENDROOT
BRANCH   1  10
ATOM     10  C   UNL     1     -11.375  -6.195   5.634  1.00  0.00     0.246 C 
ATOM     11  O   UNL     1     -11.816  -6.703   4.597  1.00  0.00    -0.272 OA
BRANCH  10  12
ATOM     12  C   UNL     1     -12.328  -5.647   6.735  1.00  0.00     0.174 C 
BRANCH  12  13
ATOM     13  N   UNL     1     -12.955  -6.758   7.451  1.00  0.00    -0.342 N 
ATOM     14  C   UNL     1     -12.624  -7.164   8.724  1.00  0.00     0.249 C 
ATOM     15  O   UNL     1     -11.776  -6.615   9.417  1.00  0.00    -0.272 OA
ATOM     16  H   UNL     1     -13.561  -7.402   6.949  1.00  0.00     0.164 HD
BRANCH  14  17
ATOM     17  C   UNL     1     -13.453  -8.378   9.196  1.00  0.00     0.207 C 
BRANCH  17  18
ATOM     18  C   UNL     1     -14.254  -8.024  10.453  1.00  0.00     0.077 C 
BRANCH  18  19
ATOM     19  C   UNL     1     -15.504  -7.241  10.120  1.00  0.00    -0.043 A 
ATOM     20  C   UNL     1     -17.671  -7.101   9.039  1.00  0.00     0.083 A 
ATOM     21  C   UNL     1     -16.540  -7.841   9.387  1.00  0.00     0.028 A 
ATOM     22  C   UNL     1     -17.774  -5.762   9.419  1.00  0.00     0.134 A 
ATOM     23  C   UNL     1     -16.755  -5.156  10.145  1.00  0.00     0.048 A 
ATOM     24  C   UNL     1     -15.621  -5.893  10.493  1.00  0.00     0.008 A 
ATOM     25  Cl  UNL     1     -18.934  -7.855   8.138  1.00  0.00    -0.080 Cl
BRANCH  22  26
ATOM     26  O   UNL     1     -18.859  -4.994   9.092  1.00  0.00    -0.506 OA
ATOM     27  H   UNL     1     -18.826  -4.205   9.665  1.00  0.00     0.293 HD
ENDBRANCH  22  26
ENDBRANCH  18  19
ENDBRANCH  17  18
BRANCH  17  28
ATOM     28  O   UNL     1     -12.607  -9.506   9.472  1.00  0.00    -0.383 OA
ATOM     29  H   UNL     1     -11.682  -9.176   9.404  1.00  0.00     0.211 HD
ENDBRANCH  17  28
ENDBRANCH  14  17
ENDBRANCH  12  13
BRANCH  12  30
ATOM     30  C   UNL     1     -13.370  -4.638   6.180  1.00  0.00     0.018 C 
ATOM     31  C   UNL     1     -12.692  -3.318   5.779  1.00  0.00     0.010 C 
BRANCH  30  32
ATOM     32  C   UNL     1     -14.544  -4.360   7.150  1.00  0.00     0.002 C 
ATOM     33  C   UNL     1     -15.933  -4.432   6.529  1.00  0.00     0.004 C 
ENDBRANCH  30  32
ENDBRANCH  12  30
ENDBRANCH  10  12
ENDBRANCH   1  10
BRANCH   5  34
ATOM     34  C   UNL     1      -9.047  -8.407   6.308  1.00  0.00     0.242 C 
ATOM     35  O   UNL     1      -9.948  -8.677   7.101  1.00  0.00    -0.273 OA
ATOM     36  N   UNL     1      -7.846  -9.080   6.295  1.00  0.00    -0.354 N 
ATOM     37  H   UNL     1      -7.094  -8.734   5.699  1.00  0.00     0.163 HD
BRANCH  36  38
ATOM     38  C   UNL     1      -7.647 -10.319   7.019  1.00  0.00     0.116 C 
BRANCH  38  39
ATOM     39  C   UNL     1      -6.546 -10.140   8.061  1.00  0.00     0.023 C 
BRANCH  39  40
ATOM     40  C   UNL     1      -6.488  -8.718   8.609  1.00  0.00     0.026 C 
BRANCH  40  41
ATOM     41  C   UNL     1      -6.936  -8.682  10.070  1.00  0.00     0.146 C 
BRANCH  41  42
ATOM     42  N   UNL     1      -8.391  -8.657  10.138  1.00  0.00    -0.254 NA
ATOM     43  C   UNL     1      -8.969  -8.369  11.243  1.00  0.00     0.185 C 
ATOM     44  N   UNL     1      -8.439  -8.060  12.442  1.00  0.00    -0.370 N 
ATOM     45  N   UNL     1     -10.311  -8.356  11.286  1.00  0.00    -0.370 N 
ATOM     46  H   UNL     1      -9.001  -8.097  13.275  1.00  0.00     0.159 HD
ATOM     47  H   UNL     1      -7.435  -8.011  12.584  1.00  0.00     0.159 HD
ATOM     48  H   UNL     1     -10.789  -8.569  10.422  1.00  0.00     0.159 HD
ATOM     49  H   UNL     1     -10.827  -7.918  12.028  1.00  0.00     0.159 HD
ENDBRANCH  41  42
ENDBRANCH  40  41
ENDBRANCH  39  40
ENDBRANCH  38  39
ENDBRANCH  36  38
ENDBRANCH   5  34
BRANCH   8  50
ATOM     50  O   UNL     1      -7.573  -4.966   9.229  1.00  0.00    -0.245 OA
BRANCH  50  51
ATOM     51  S   UNL     1      -6.542  -4.545  10.414  1.00  0.00     0.397 S 
ATOM     52  O   UNL     1      -6.918  -3.232  10.888  1.00  0.00    -0.169 OA
ATOM     53  O   UNL     1      -5.185  -4.846  10.007  1.00  0.00    -0.169 OA
BRANCH  51  54
ATOM     54  O   UNL     1      -6.945  -5.567  11.588  1.00  0.00    -0.264 OA
ATOM     55  H   UNL     1      -6.513  -6.425  11.398  1.00  0.00     0.236 HD
ENDBRANCH  51  54
ENDBRANCH  50  51
ENDBRANCH   8  50
TORSDOF 19
ENDMDL
MODEL 14
REMARK VINA RESULT:    -6.752      8.560     12.694
REMARK INTER + INTRA:         -16.876
REMARK INTER:                 -12.691
REMARK INTRA:                  -4.186
REMARK UNBOUND:                -3.218
REMARK SMILES CC[C@@H](C)[C@@H](NC(=O)[C@@H](O)Cc1ccc(O)c(Cl)c1)C(=O)N1[C@H](C(=O)NCCCCN=C(N)N)C[C@H]2CC[C@H](OS(=O)(=O)O)C[C@@H]21
REMARK SMILES IDX 22 1 36 2 46 3 35 4 23 5 45 6 37 7 39 8 38 9 20 10 21 11
REMARK SMILES IDX 5 12 6 13 7 14 8 15 9 17 11 18 12 19 17 20 19 21 15 22 14 23
REMARK SMILES IDX 13 24 18 25 16 26 10 28 3 30 4 31 2 32 1 33 24 34 25 35
REMARK SMILES IDX 26 36 27 38 28 39 29 40 30 41 31 42 32 43 33 44 34 45 40 50
REMARK SMILES IDX 41 51 42 52 43 53 44 54
REMARK H PARENT 6 16 16 27 10 29 26 37 33 46 33 47 34 48 34 49 44 55
ROOT
ATOM      1  N   UNL     1       0.873   2.869 -12.620  1.00  0.00    -0.326 N 
ATOM      2  C   UNL     1      -0.813   3.916 -11.355  1.00  0.00     0.014 C 
ATOM      3  C   UNL     1       0.701   3.885 -11.578  1.00  0.00     0.091 C 
ATOM      4  C   UNL     1      -1.213   2.464 -11.566  1.00  0.00     0.041 C 
ATOM      5  C   UNL     1      -0.401   2.139 -12.834  1.00  0.00     0.175 C 
ATOM      6  C   UNL     1       1.176   5.307 -11.868  1.00  0.00     0.059 C 
ATOM      7  C   UNL     1      -1.155   4.598 -10.045  1.00  0.00     0.008 C 
ATOM      8  C   UNL     1       0.350   6.397 -11.150  1.00  0.00     0.143 C 
ATOM      9  C   UNL     1      -0.302   5.870  -9.855  1.00  0.00     0.034 C 
ENDROOT
BRANCH   1  10
ATOM     10  C   UNL     1       2.030   2.395 -13.216  1.00  0.00     0.246 C 
ATOM     11  O   UNL     1       2.068   2.278 -14.445  1.00  0.00    -0.272 OA
BRANCH  10  12
ATOM     12  C   UNL     1       3.266   2.061 -12.332  1.00  0.00     0.174 C 
BRANCH  12  13
ATOM     13  N   UNL     1       2.831   1.679 -10.989  1.00  0.00    -0.342 N 
ATOM     14  C   UNL     1       3.093   0.469 -10.388  1.00  0.00     0.249 C 
ATOM     15  O   UNL     1       3.752  -0.423 -10.909  1.00  0.00    -0.272 OA
ATOM     16  H   UNL     1       2.147   2.251 -10.500  1.00  0.00     0.164 HD
BRANCH  14  17
ATOM     17  C   UNL     1       2.483   0.362  -8.974  1.00  0.00     0.207 C 
BRANCH  17  18
ATOM     18  C   UNL     1       1.589   1.571  -8.683  1.00  0.00     0.077 C 
BRANCH  18  19
ATOM     19  C   UNL     1       0.148   1.166  -8.468  1.00  0.00    -0.043 A 
ATOM     20  C   UNL     1      -1.677  -0.389  -8.837  1.00  0.00     0.083 A 
ATOM     21  C   UNL     1      -0.334  -0.042  -8.996  1.00  0.00     0.028 A 
ATOM     22  C   UNL     1      -2.543   0.465  -8.154  1.00  0.00     0.134 A 
ATOM     23  C   UNL     1      -2.078   1.663  -7.625  1.00  0.00     0.048 A 
ATOM     24  C   UNL     1      -0.736   2.015  -7.784  1.00  0.00     0.008 A 
ATOM     25  Cl  UNL     1      -2.251  -1.877  -9.494  1.00  0.00    -0.080 Cl
BRANCH  22  26
ATOM     26  O   UNL     1      -3.869   0.172  -7.983  1.00  0.00    -0.506 OA
ATOM     27  H   UNL     1      -4.017  -0.704  -8.386  1.00  0.00     0.293 HD
ENDBRANCH  22  26
ENDBRANCH  18  19
ENDBRANCH  17  18
BRANCH  17  28
ATOM     28  O   UNL     1       3.510   0.277  -7.973  1.00  0.00    -0.383 OA
ATOM     29  H   UNL     1       4.350   0.525  -8.423  1.00  0.00     0.211 HD
ENDBRANCH  17  28
ENDBRANCH  14  17
ENDBRANCH  12  13
BRANCH  12  30
ATOM     30  C   UNL     1       4.315   3.206 -12.312  1.00  0.00     0.018 C 
ATOM     31  C   UNL     1       5.137   3.216 -13.610  1.00  0.00     0.010 C 
BRANCH  30  32
ATOM     32  C   UNL     1       5.259   3.162 -11.085  1.00  0.00     0.002 C 
ATOM     33  C   UNL     1       6.747   3.183 -11.407  1.00  0.00     0.004 C 
ENDBRANCH  30  32
ENDBRANCH  12  30
ENDBRANCH  10  12
ENDBRANCH   1  10
BRANCH   5  34
ATOM     34  C   UNL     1      -1.116   2.644 -14.115  1.00  0.00     0.242 C 
ATOM     35  O   UNL     1      -0.747   3.649 -14.722  1.00  0.00    -0.273 OA
ATOM     36  N   UNL     1      -2.224   1.917 -14.493  1.00  0.00    -0.354 N 
ATOM     37  H   UNL     1      -2.550   1.167 -13.883  1.00  0.00     0.163 HD
BRANCH  36  38
ATOM     38  C   UNL     1      -2.878   2.113 -15.770  1.00  0.00     0.116 C 
BRANCH  38  39
ATOM     39  C   UNL     1      -4.389   1.971 -15.605  1.00  0.00     0.023 C 
BRANCH  39  40
ATOM     40  C   UNL     1      -4.893   2.587 -14.304  1.00  0.00     0.026 C 
BRANCH  40  41
ATOM     41  C   UNL     1      -5.699   1.568 -13.499  1.00  0.00     0.146 C 
BRANCH  41  42
ATOM     42  N   UNL     1      -5.022   0.278 -13.519  1.00  0.00    -0.254 NA
ATOM     43  C   UNL     1      -4.562  -0.213 -12.429  1.00  0.00     0.185 C 
ATOM     44  N   UNL     1      -4.594   0.279 -11.177  1.00  0.00    -0.370 N 
ATOM     45  N   UNL     1      -3.937  -1.401 -12.470  1.00  0.00    -0.370 N 
ATOM     46  H   UNL     1      -3.986  -0.090 -10.466  1.00  0.00     0.159 HD
ATOM     47  H   UNL     1      -5.041   1.165 -10.964  1.00  0.00     0.159 HD
ATOM     48  H   UNL     1      -3.878  -1.846 -13.376  1.00  0.00     0.159 HD
ATOM     49  H   UNL     1      -3.765  -1.953 -11.649  1.00  0.00     0.159 HD
ENDBRANCH  41  42
ENDBRANCH  40  41
ENDBRANCH  39  40
ENDBRANCH  38  39
ENDBRANCH  36  38
ENDBRANCH   5  34
BRANCH   8  50
ATOM     50  O   UNL     1      -0.680   6.879 -12.013  1.00  0.00    -0.245 OA
BRANCH  50  51
ATOM     51  S   UNL     1      -0.481   8.294 -12.789  1.00  0.00     0.397 S 
ATOM     52  O   UNL     1      -1.583   9.159 -12.430  1.00  0.00    -0.169 OA
ATOM     53  O   UNL     1      -0.130   8.046 -14.171  1.00  0.00    -0.169 OA
BRANCH  51  54
ATOM     54  O   UNL     1       0.811   8.903 -12.050  1.00  0.00    -0.264 OA
ATOM     55  H   UNL     1       1.170   9.617 -12.616  1.00  0.00     0.236 HD
ENDBRANCH  51  54
ENDBRANCH  50  51
ENDBRANCH   8  50
TORSDOF 19
ENDMDL
MODEL 15
REMARK VINA RESULT:    -6.732     12.731     16.776
REMARK INTER + INTRA:         -16.838
REMARK INTER:                 -12.840
REMARK INTRA:                  -3.998
REMARK UNBOUND:                -3.218
REMARK SMILES CC[C@@H](C)[C@@H](NC(=O)[C@@H](O)Cc1ccc(O)c(Cl)c1)C(=O)N1[C@H](C(=O)NCCCCN=C(N)N)C[C@H]2CC[C@H](OS(=O)(=O)O)C[C@@H]21
REMARK SMILES IDX 22 1 36 2 46 3 35 4 23 5 45 6 37 7 39 8 38 9 20 10 21 11
REMARK SMILES IDX 5 12 6 13 7 14 8 15 9 17 11 18 12 19 17 20 19 21 15 22 14 23
REMARK SMILES IDX 13 24 18 25 16 26 10 28 3 30 4 31 2 32 1 33 24 34 25 35
REMARK SMILES IDX 26 36 27 38 28 39 29 40 30 41 31 42 32 43 33 44 34 45 40 50
REMARK SMILES IDX 41 51 42 52 43 53 44 54
REMARK H PARENT 6 16 16 27 10 29 26 37 33 46 33 47 34 48 34 49 44 55
ROOT
ATOM      1  N   UNL     1     -13.863  -6.392   7.167  1.00  0.00    -0.326 N 
ATOM      2  C   UNL     1     -14.739  -5.945   9.305  1.00  0.00     0.014 C 
ATOM      3  C   UNL     1     -14.891  -6.871   8.095  1.00  0.00     0.091 C 
ATOM      4  C   UNL     1     -14.350  -4.621   8.667  1.00  0.00     0.041 C 
ATOM      5  C   UNL     1     -13.301  -5.106   7.650  1.00  0.00     0.175 C 
ATOM      6  C   UNL     1     -14.813  -8.317   8.580  1.00  0.00     0.059 C 
ATOM      7  C   UNL     1     -15.966  -6.010  10.195  1.00  0.00     0.008 C 
ATOM      8  C   UNL     1     -15.372  -8.526  10.004  1.00  0.00     0.143 C 
ATOM      9  C   UNL     1     -16.434  -7.470  10.370  1.00  0.00     0.034 C 
ENDROOT
BRANCH   1  10
ATOM     10  C   UNL     1     -13.540  -6.834   5.895  1.00  0.00     0.246 C 
ATOM     11  O   UNL     1     -13.903  -6.171   4.918  1.00  0.00    -0.272 OA
BRANCH  10  12
ATOM     12  C   UNL     1     -12.693  -8.129   5.725  1.00  0.00     0.174 C 
BRANCH  12  13
ATOM     13  N   UNL     1     -11.602  -8.143   6.699  1.00  0.00    -0.342 N 
ATOM     14  C   UNL     1     -11.365  -9.150   7.607  1.00  0.00     0.249 C 
ATOM     15  O   UNL     1     -12.035 -10.173   7.680  1.00  0.00    -0.272 OA
ATOM     16  H   UNL     1     -11.061  -7.297   6.862  1.00  0.00     0.164 HD
BRANCH  14  17
ATOM     17  C   UNL     1     -10.147  -8.864   8.511  1.00  0.00     0.207 C 
BRANCH  17  18
ATOM     18  C   UNL     1      -9.080  -9.947   8.331  1.00  0.00     0.077 C 
BRANCH  18  19
ATOM     19  C   UNL     1      -7.946  -9.478   7.448  1.00  0.00    -0.043 A 
ATOM     20  C   UNL     1      -6.965  -7.795   6.002  1.00  0.00     0.083 A 
ATOM     21  C   UNL     1      -7.989  -8.205   6.856  1.00  0.00     0.028 A 
ATOM     22  C   UNL     1      -5.895  -8.649   5.733  1.00  0.00     0.134 A 
ATOM     23  C   UNL     1      -5.840  -9.912   6.312  1.00  0.00     0.048 A 
ATOM     24  C   UNL     1      -6.864 -10.326   7.166  1.00  0.00     0.008 A 
ATOM     25  Cl  UNL     1      -7.036  -6.228   5.285  1.00  0.00    -0.080 Cl
BRANCH  22  26
ATOM     26  O   UNL     1      -4.873  -8.295   4.894  1.00  0.00    -0.506 OA
ATOM     27  H   UNL     1      -5.106  -7.424   4.522  1.00  0.00     0.293 HD
ENDBRANCH  22  26
ENDBRANCH  18  19
ENDBRANCH  17  18
BRANCH  17  28
ATOM     28  O   UNL     1     -10.534  -8.800   9.893  1.00  0.00    -0.383 OA
ATOM     29  H   UNL     1     -11.231  -8.107   9.949  1.00  0.00     0.211 HD
ENDBRANCH  17  28
ENDBRANCH  14  17
ENDBRANCH  12  13
BRANCH  12  30
ATOM     30  C   UNL     1     -12.191  -8.331   4.270  1.00  0.00     0.018 C 
ATOM     31  C   UNL     1     -12.281  -9.810   3.861  1.00  0.00     0.010 C 
BRANCH  30  32
ATOM     32  C   UNL     1     -10.758  -7.798   4.028  1.00  0.00     0.002 C 
ATOM     33  C   UNL     1     -10.099  -8.266   2.736  1.00  0.00     0.004 C 
ENDBRANCH  30  32
ENDBRANCH  12  30
ENDBRANCH  10  12
ENDBRANCH   1  10
BRANCH   5  34
ATOM     34  C   UNL     1     -11.917  -5.326   8.316  1.00  0.00     0.242 C 
ATOM     35  O   UNL     1     -11.768  -6.045   9.304  1.00  0.00    -0.273 OA
ATOM     36  N   UNL     1     -10.878  -4.617   7.755  1.00  0.00    -0.354 N 
ATOM     37  H   UNL     1     -11.085  -3.945   7.015  1.00  0.00     0.163 HD
BRANCH  36  38
ATOM     38  C   UNL     1      -9.495  -4.863   8.107  1.00  0.00     0.116 C 
BRANCH  38  39
ATOM     39  C   UNL     1      -8.602  -3.798   7.474  1.00  0.00     0.023 C 
BRANCH  39  40
ATOM     40  C   UNL     1      -7.229  -3.723   8.133  1.00  0.00     0.026 C 
BRANCH  40  41
ATOM     41  C   UNL     1      -7.234  -4.443   9.482  1.00  0.00     0.146 C 
BRANCH  41  42
ATOM     42  N   UNL     1      -7.070  -3.474  10.558  1.00  0.00    -0.254 NA
ATOM     43  C   UNL     1      -6.611  -3.857  11.690  1.00  0.00     0.185 C 
ATOM     44  N   UNL     1      -6.224  -5.079  12.098  1.00  0.00    -0.370 N 
ATOM     45  N   UNL     1      -6.471  -2.950  12.670  1.00  0.00    -0.370 N 
ATOM     46  H   UNL     1      -6.118  -5.283  13.077  1.00  0.00     0.159 HD
ATOM     47  H   UNL     1      -6.251  -5.882  11.477  1.00  0.00     0.159 HD
ATOM     48  H   UNL     1      -6.733  -2.000  12.442  1.00  0.00     0.159 HD
ATOM     49  H   UNL     1      -5.909  -3.113  13.487  1.00  0.00     0.159 HD
ENDBRANCH  41  42
ENDBRANCH  40  41
ENDBRANCH  39  40
ENDBRANCH  38  39
ENDBRANCH  36  38
ENDBRANCH   5  34
BRANCH   8  50
ATOM     50  O   UNL     1     -14.314  -8.456  10.961  1.00  0.00    -0.245 OA
BRANCH  50  51
ATOM     51  S   UNL     1     -13.808  -9.815  11.699  1.00  0.00     0.397 S 
ATOM     52  O   UNL     1     -14.925 -10.730  11.765  1.00  0.00    -0.169 OA
ATOM     53  O   UNL     1     -13.036  -9.470  12.875  1.00  0.00    -0.169 OA
BRANCH  51  54
ATOM     54  O   UNL     1     -12.800 -10.432  10.608  1.00  0.00    -0.264 OA
ATOM     55  H   UNL     1     -13.278 -10.483   9.755  1.00  0.00     0.236 HD
ENDBRANCH  51  54
ENDBRANCH  50  51
ENDBRANCH   8  50
TORSDOF 19
ENDMDL
MODEL 16
REMARK VINA RESULT:    -6.725     13.485     17.799
REMARK INTER + INTRA:         -16.823
REMARK INTER:                 -13.140
REMARK INTRA:                  -3.683
REMARK UNBOUND:                -3.218
REMARK SMILES CC[C@@H](C)[C@@H](NC(=O)[C@@H](O)Cc1ccc(O)c(Cl)c1)C(=O)N1[C@H](C(=O)NCCCCN=C(N)N)C[C@H]2CC[C@H](OS(=O)(=O)O)C[C@@H]21
REMARK SMILES IDX 22 1 36 2 46 3 35 4 23 5 45 6 37 7 39 8 38 9 20 10 21 11
REMARK SMILES IDX 5 12 6 13 7 14 8 15 9 17 11 18 12 19 17 20 19 21 15 22 14 23
REMARK SMILES IDX 13 24 18 25 16 26 10 28 3 30 4 31 2 32 1 33 24 34 25 35
REMARK SMILES IDX 26 36 27 38 28 39 29 40 30 41 31 42 32 43 33 44 34 45 40 50
REMARK SMILES IDX 41 51 42 52 43 53 44 54
REMARK H PARENT 6 16 16 27 10 29 26 37 33 46 33 47 34 48 34 49 44 55
ROOT
ATOM      1  N   UNL     1     -12.323  -8.112   8.082  1.00  0.00    -0.326 N 
ATOM      2  C   UNL     1     -12.317  -8.098   5.728  1.00  0.00     0.014 C 
ATOM      3  C   UNL     1     -12.827  -7.329   6.950  1.00  0.00     0.091 C 
ATOM      4  C   UNL     1     -12.379  -9.545   6.193  1.00  0.00     0.041 C 
ATOM      5  C   UNL     1     -11.776  -9.405   7.602  1.00  0.00     0.175 C 
ATOM      6  C   UNL     1     -12.386  -5.872   6.822  1.00  0.00     0.059 C 
ATOM      7  C   UNL     1     -13.067  -7.687   4.476  1.00  0.00     0.008 C 
ATOM      8  C   UNL     1     -12.298  -5.375   5.363  1.00  0.00     0.143 C 
ATOM      9  C   UNL     1     -13.245  -6.155   4.428  1.00  0.00     0.034 C 
ENDROOT
BRANCH   1  10
ATOM     10  C   UNL     1     -12.485  -7.911   9.442  1.00  0.00     0.246 C 
ATOM     11  O   UNL     1     -11.867  -6.993   9.992  1.00  0.00    -0.272 OA
BRANCH  10  12
ATOM     12  C   UNL     1     -13.470  -8.814  10.239  1.00  0.00     0.174 C 
BRANCH  12  13
ATOM     13  N   UNL     1     -14.592  -8.015  10.732  1.00  0.00    -0.342 N 
ATOM     14  C   UNL     1     -15.723  -7.709  10.008  1.00  0.00     0.249 C 
ATOM     15  O   UNL     1     -15.928  -8.102   8.866  1.00  0.00    -0.272 OA
ATOM     16  H   UNL     1     -14.496  -7.493  11.599  1.00  0.00     0.164 HD
BRANCH  14  17
ATOM     17  C   UNL     1     -16.718  -6.834  10.799  1.00  0.00     0.207 C 
BRANCH  17  18
ATOM     18  C   UNL     1     -16.300  -5.361  10.739  1.00  0.00     0.077 C 
BRANCH  18  19
ATOM     19  C   UNL     1     -16.698  -4.717   9.429  1.00  0.00    -0.043 A 
ATOM     20  C   UNL     1     -16.085  -3.657   7.335  1.00  0.00     0.083 A 
ATOM     21  C   UNL     1     -15.715  -4.295   8.520  1.00  0.00     0.028 A 
ATOM     22  C   UNL     1     -17.433  -3.435   7.053  1.00  0.00     0.134 A 
ATOM     23  C   UNL     1     -18.416  -3.848   7.944  1.00  0.00     0.048 A 
ATOM     24  C   UNL     1     -18.050  -4.485   9.132  1.00  0.00     0.008 A 
ATOM     25  Cl  UNL     1     -14.863  -3.146   6.231  1.00  0.00    -0.080 Cl
BRANCH  22  26
ATOM     26  O   UNL     1     -17.843  -2.804   5.909  1.00  0.00    -0.506 OA
ATOM     27  H   UNL     1     -17.542  -1.879   5.977  1.00  0.00     0.293 HD
ENDBRANCH  22  26
ENDBRANCH  18  19
ENDBRANCH  17  18
BRANCH  17  28
ATOM     28  O   UNL     1     -16.796  -7.251  12.171  1.00  0.00    -0.383 OA
ATOM     29  H   UNL     1     -17.556  -7.875  12.223  1.00  0.00     0.211 HD
ENDBRANCH  17  28
ENDBRANCH  14  17
ENDBRANCH  12  13
BRANCH  12  30
ATOM     30  C   UNL     1     -12.770  -9.613  11.371  1.00  0.00     0.018 C 
ATOM     31  C   UNL     1     -11.916 -10.750  10.789  1.00  0.00     0.010 C 
BRANCH  30  32
ATOM     32  C   UNL     1     -13.748 -10.173  12.433  1.00  0.00     0.002 C 
ATOM     33  C   UNL     1     -14.121 -11.640  12.266  1.00  0.00     0.004 C 
ENDBRANCH  30  32
ENDBRANCH  12  30
ENDBRANCH  10  12
ENDBRANCH   1  10
BRANCH   5  34
ATOM     34  C   UNL     1     -10.225  -9.364   7.559  1.00  0.00     0.242 C 
ATOM     35  O   UNL     1      -9.585  -9.697   6.561  1.00  0.00    -0.273 OA
ATOM     36  N   UNL     1      -9.616  -8.980   8.733  1.00  0.00    -0.354 N 
ATOM     37  H   UNL     1     -10.194  -8.832   9.561  1.00  0.00     0.163 HD
BRANCH  36  38
ATOM     38  C   UNL     1      -8.201  -8.680   8.808  1.00  0.00     0.116 C 
BRANCH  38  39
ATOM     39  C   UNL     1      -7.993  -7.326   9.481  1.00  0.00     0.023 C 
BRANCH  39  40
ATOM     40  C   UNL     1      -6.756  -6.601   8.962  1.00  0.00     0.026 C 
BRANCH  40  41
ATOM     41  C   UNL     1      -6.798  -5.120   9.337  1.00  0.00     0.146 C 
BRANCH  41  42
ATOM     42  N   UNL     1      -8.065  -4.540   8.912  1.00  0.00    -0.254 NA
ATOM     43  C   UNL     1      -8.122  -3.875   7.820  1.00  0.00     0.185 C 
ATOM     44  N   UNL     1      -7.157  -3.593   6.926  1.00  0.00    -0.370 N 
ATOM     45  N   UNL     1      -9.299  -3.345   7.448  1.00  0.00    -0.370 N 
ATOM     46  H   UNL     1      -7.284  -2.861   6.248  1.00  0.00     0.159 HD
ATOM     47  H   UNL     1      -6.206  -3.929   7.045  1.00  0.00     0.159 HD
ATOM     48  H   UNL     1     -10.083  -3.518   8.063  1.00  0.00     0.159 HD
ATOM     49  H   UNL     1      -9.480  -3.023   6.514  1.00  0.00     0.159 HD
ENDBRANCH  41  42
ENDBRANCH  40  41
ENDBRANCH  39  40
ENDBRANCH  38  39
ENDBRANCH  36  38
ENDBRANCH   5  34
BRANCH   8  50
ATOM     50  O   UNL     1     -10.963  -5.516   4.877  1.00  0.00    -0.245 OA
BRANCH  50  51
ATOM     51  S   UNL     1     -10.409  -4.489   3.744  1.00  0.00     0.397 S 
ATOM     52  O   UNL     1     -11.377  -3.426   3.593  1.00  0.00    -0.169 OA
ATOM     53  O   UNL     1      -9.921  -5.239   2.605  1.00  0.00    -0.169 OA
BRANCH  51  54
ATOM     54  O   UNL     1      -9.143  -3.827   4.481  1.00  0.00    -0.264 OA
ATOM     55  H   UNL     1      -8.803  -4.476   5.131  1.00  0.00     0.236 HD
ENDBRANCH  51  54
ENDBRANCH  50  51
ENDBRANCH   8  50
TORSDOF 19
ENDMDL
MODEL 17
REMARK VINA RESULT:    -6.682      3.562      7.025
REMARK INTER + INTRA:         -16.736
REMARK INTER:                 -13.186
REMARK INTRA:                  -3.550
REMARK UNBOUND:                -3.218
REMARK SMILES CC[C@@H](C)[C@@H](NC(=O)[C@@H](O)Cc1ccc(O)c(Cl)c1)C(=O)N1[C@H](C(=O)NCCCCN=C(N)N)C[C@H]2CC[C@H](OS(=O)(=O)O)C[C@@H]21
REMARK SMILES IDX 22 1 36 2 46 3 35 4 23 5 45 6 37 7 39 8 38 9 20 10 21 11
REMARK SMILES IDX 5 12 6 13 7 14 8 15 9 17 11 18 12 19 17 20 19 21 15 22 14 23
REMARK SMILES IDX 13 24 18 25 16 26 10 28 3 30 4 31 2 32 1 33 24 34 25 35
REMARK SMILES IDX 26 36 27 38 28 39 29 40 30 41 31 42 32 43 33 44 34 45 40 50
REMARK SMILES IDX 41 51 42 52 43 53 44 54
REMARK H PARENT 6 16 16 27 10 29 26 37 33 46 33 47 34 48 34 49 44 55
ROOT
ATOM      1  N   UNL     1      -8.559  -2.374  -8.274  1.00  0.00    -0.326 N 
ATOM      2  C   UNL     1      -7.432  -1.351 -10.070  1.00  0.00     0.014 C 
ATOM      3  C   UNL     1      -7.489  -1.408  -8.541  1.00  0.00     0.091 C 
ATOM      4  C   UNL     1      -8.889  -1.531 -10.466  1.00  0.00     0.041 C 
ATOM      5  C   UNL     1      -9.286  -2.686  -9.529  1.00  0.00     0.175 C 
ATOM      6  C   UNL     1      -6.087  -1.716  -8.016  1.00  0.00     0.059 C 
ATOM      7  C   UNL     1      -6.680  -0.121 -10.539  1.00  0.00     0.008 C 
ATOM      8  C   UNL     1      -4.955  -1.147  -8.898  1.00  0.00     0.143 C 
ATOM      9  C   UNL     1      -5.408   0.095  -9.692  1.00  0.00     0.034 C 
ENDROOT
BRANCH   1  10
ATOM     10  C   UNL     1      -9.073  -2.817  -7.067  1.00  0.00     0.246 C 
ATOM     11  O   UNL     1     -10.194  -3.338  -7.047  1.00  0.00    -0.272 OA
BRANCH  10  12
ATOM     12  C   UNL     1      -8.217  -2.689  -5.774  1.00  0.00     0.174 C 
BRANCH  12  13
ATOM     13  N   UNL     1      -8.086  -3.996  -5.131  1.00  0.00    -0.342 N 
ATOM     14  C   UNL     1      -6.966  -4.796  -5.186  1.00  0.00     0.249 C 
ATOM     15  O   UNL     1      -5.933  -4.483  -5.765  1.00  0.00    -0.272 OA
ATOM     16  H   UNL     1      -8.910  -4.454  -4.750  1.00  0.00     0.164 HD
BRANCH  14  17
ATOM     17  C   UNL     1      -7.145  -6.124  -4.421  1.00  0.00     0.207 C 
BRANCH  17  18
ATOM     18  C   UNL     1      -6.257  -6.146  -3.172  1.00  0.00     0.077 C 
BRANCH  18  19
ATOM     19  C   UNL     1      -6.985  -5.617  -1.956  1.00  0.00    -0.043 A 
ATOM     20  C   UNL     1      -8.107  -3.803  -0.801  1.00  0.00     0.083 A 
ATOM     21  C   UNL     1      -7.480  -4.304  -1.943  1.00  0.00     0.028 A 
ATOM     22  C   UNL     1      -8.242  -4.607   0.331  1.00  0.00     0.134 A 
ATOM     23  C   UNL     1      -7.757  -5.910   0.331  1.00  0.00     0.048 A 
ATOM     24  C   UNL     1      -7.127  -6.413  -0.809  1.00  0.00     0.008 A 
ATOM     25  Cl  UNL     1      -8.708  -2.187  -0.803  1.00  0.00    -0.080 Cl
BRANCH  22  26
ATOM     26  O   UNL     1      -8.840  -4.157   1.477  1.00  0.00    -0.506 OA
ATOM     27  H   UNL     1      -9.084  -3.226   1.318  1.00  0.00     0.293 HD
ENDBRANCH  22  26
ENDBRANCH  18  19
ENDBRANCH  17  18
BRANCH  17  28
ATOM     28  O   UNL     1      -6.822  -7.249  -5.254  1.00  0.00    -0.383 OA
ATOM     29  H   UNL     1      -7.073  -6.990  -6.170  1.00  0.00     0.211 HD
ENDBRANCH  17  28
ENDBRANCH  14  17
ENDBRANCH  12  13
BRANCH  12  30
ATOM     30  C   UNL     1      -8.753  -1.603  -4.804  1.00  0.00     0.018 C 
ATOM     31  C   UNL     1     -10.097  -2.031  -4.194  1.00  0.00     0.010 C 
BRANCH  30  32
ATOM     32  C   UNL     1      -8.885  -0.202  -5.450  1.00  0.00     0.002 C 
ATOM     33  C   UNL     1      -9.621   0.835  -4.613  1.00  0.00     0.004 C 
ENDBRANCH  30  32
ENDBRANCH  12  30
ENDBRANCH  10  12
ENDBRANCH   1  10
BRANCH   5  34
ATOM     34  C   UNL     1      -8.841  -4.061 -10.095  1.00  0.00     0.242 C 
ATOM     35  O   UNL     1      -8.251  -4.171 -11.169  1.00  0.00    -0.273 OA
ATOM     36  N   UNL     1      -9.202  -5.152  -9.335  1.00  0.00    -0.354 N 
ATOM     37  H   UNL     1      -9.794  -5.006  -8.516  1.00  0.00     0.163 HD
BRANCH  36  38
ATOM     38  C   UNL     1      -8.688  -6.480  -9.597  1.00  0.00     0.116 C 
BRANCH  38  39
ATOM     39  C   UNL     1      -7.419  -6.715  -8.782  1.00  0.00     0.023 C 
BRANCH  39  40
ATOM     40  C   UNL     1      -6.423  -7.619  -9.502  1.00  0.00     0.026 C 
BRANCH  40  41
ATOM     41  C   UNL     1      -5.356  -8.129  -8.534  1.00  0.00     0.146 C 
BRANCH  41  42
ATOM     42  N   UNL     1      -4.969  -7.061  -7.621  1.00  0.00    -0.254 NA
ATOM     43  C   UNL     1      -3.782  -6.583  -7.672  1.00  0.00     0.185 C 
ATOM     44  N   UNL     1      -2.752  -6.909  -8.474  1.00  0.00    -0.370 N 
ATOM     45  N   UNL     1      -3.444  -5.603  -6.819  1.00  0.00    -0.370 N 
ATOM     46  H   UNL     1      -1.814  -6.627  -8.244  1.00  0.00     0.159 HD
ATOM     47  H   UNL     1      -2.839  -7.624  -9.189  1.00  0.00     0.159 HD
ATOM     48  H   UNL     1      -4.167  -5.291  -6.184  1.00  0.00     0.159 HD
ATOM     49  H   UNL     1      -2.634  -5.023  -6.949  1.00  0.00     0.159 HD
ENDBRANCH  41  42
ENDBRANCH  40  41
ENDBRANCH  39  40
ENDBRANCH  38  39
ENDBRANCH  36  38
ENDBRANCH   5  34
BRANCH   8  50
ATOM     50  O   UNL     1      -4.508  -2.139  -9.823  1.00  0.00    -0.245 OA
BRANCH  50  51
ATOM     51  S   UNL     1      -2.915  -2.422  -9.989  1.00  0.00     0.397 S 
ATOM     52  O   UNL     1      -2.209  -1.548  -9.080  1.00  0.00    -0.169 OA
ATOM     53  O   UNL     1      -2.578  -2.489 -11.396  1.00  0.00    -0.169 OA
BRANCH  51  54
ATOM     54  O   UNL     1      -2.771  -3.901  -9.374  1.00  0.00    -0.264 OA
ATOM     55  H   UNL     1      -3.107  -3.876  -8.455  1.00  0.00     0.236 HD
ENDBRANCH  51  54
ENDBRANCH  50  51
ENDBRANCH   8  50
TORSDOF 19
ENDMDL
MODEL 18
REMARK VINA RESULT:    -6.661     11.517     15.062
REMARK INTER + INTRA:         -16.693
REMARK INTER:                 -12.971
REMARK INTRA:                  -3.722
REMARK UNBOUND:                -3.218
REMARK SMILES CC[C@@H](C)[C@@H](NC(=O)[C@@H](O)Cc1ccc(O)c(Cl)c1)C(=O)N1[C@H](C(=O)NCCCCN=C(N)N)C[C@H]2CC[C@H](OS(=O)(=O)O)C[C@@H]21
REMARK SMILES IDX 22 1 36 2 46 3 35 4 23 5 45 6 37 7 39 8 38 9 20 10 21 11
REMARK SMILES IDX 5 12 6 13 7 14 8 15 9 17 11 18 12 19 17 20 19 21 15 22 14 23
REMARK SMILES IDX 13 24 18 25 16 26 10 28 3 30 4 31 2 32 1 33 24 34 25 35
REMARK SMILES IDX 26 36 27 38 28 39 29 40 30 41 31 42 32 43 33 44 34 45 40 50
REMARK SMILES IDX 41 51 42 52 43 53 44 54
REMARK H PARENT 6 16 16 27 10 29 26 37 33 46 33 47 34 48 34 49 44 55
ROOT
ATOM      1  N   UNL     1     -11.193  -6.176   7.190  1.00  0.00    -0.326 N 
ATOM      2  C   UNL     1     -12.559  -8.069   6.883  1.00  0.00     0.014 C 
ATOM      3  C   UNL     1     -11.140  -7.639   7.266  1.00  0.00     0.091 C 
ATOM      4  C   UNL     1     -12.959  -7.024   5.852  1.00  0.00     0.041 C 
ATOM      5  C   UNL     1     -12.462  -5.746   6.552  1.00  0.00     0.175 C 
ATOM      6  C   UNL     1     -10.785  -8.283   8.605  1.00  0.00     0.059 C 
ATOM      7  C   UNL     1     -12.599  -9.537   6.508  1.00  0.00     0.008 C 
ATOM      8  C   UNL     1     -11.446  -9.660   8.827  1.00  0.00     0.143 C 
ATOM      9  C   UNL     1     -11.759 -10.374   7.496  1.00  0.00     0.034 C 
ENDROOT
BRANCH   1  10
ATOM     10  C   UNL     1     -10.198  -5.239   7.412  1.00  0.00     0.246 C 
ATOM     11  O   UNL     1     -10.160  -4.649   8.497  1.00  0.00    -0.272 OA
BRANCH  10  12
ATOM     12  C   UNL     1      -9.128  -4.981   6.312  1.00  0.00     0.174 C 
BRANCH  12  13
ATOM     13  N   UNL     1      -9.133  -6.078   5.345  1.00  0.00    -0.342 N 
ATOM     14  C   UNL     1      -9.688  -6.020   4.087  1.00  0.00     0.249 C 
ATOM     15  O   UNL     1     -10.223  -5.020   3.623  1.00  0.00    -0.272 OA
ATOM     16  H   UNL     1      -8.867  -7.013   5.643  1.00  0.00     0.164 HD
BRANCH  14  17
ATOM     17  C   UNL     1      -9.547  -7.347   3.311  1.00  0.00     0.207 C 
BRANCH  17  18
ATOM     18  C   UNL     1     -10.619  -7.447   2.221  1.00  0.00     0.077 C 
BRANCH  18  19
ATOM     19  C   UNL     1     -10.014  -7.725   0.863  1.00  0.00    -0.043 A 
ATOM     20  C   UNL     1     -10.016  -7.415  -1.543  1.00  0.00     0.083 A 
ATOM     21  C   UNL     1     -10.544  -7.118  -0.286  1.00  0.00     0.028 A 
ATOM     22  C   UNL     1      -8.960  -8.319  -1.660  1.00  0.00     0.134 A 
ATOM     23  C   UNL     1      -8.426  -8.928  -0.531  1.00  0.00     0.048 A 
ATOM     24  C   UNL     1      -8.953  -8.634   0.729  1.00  0.00     0.008 A 
ATOM     25  Cl  UNL     1     -10.681  -6.658  -2.943  1.00  0.00    -0.080 Cl
BRANCH  22  26
ATOM     26  O   UNL     1      -8.416  -8.649  -2.872  1.00  0.00    -0.506 OA
ATOM     27  H   UNL     1      -7.611  -9.167  -2.686  1.00  0.00     0.293 HD
ENDBRANCH  22  26
ENDBRANCH  18  19
ENDBRANCH  17  18
BRANCH  17  28
ATOM     28  O   UNL     1      -9.657  -8.476   4.193  1.00  0.00    -0.383 OA
ATOM     29  H   UNL     1      -9.444  -8.139   5.093  1.00  0.00     0.211 HD
ENDBRANCH  17  28
ENDBRANCH  14  17
ENDBRANCH  12  13
BRANCH  12  30
ATOM     30  C   UNL     1      -7.716  -4.715   6.900  1.00  0.00     0.018 C 
ATOM     31  C   UNL     1      -7.326  -3.237   6.736  1.00  0.00     0.010 C 
BRANCH  30  32
ATOM     32  C   UNL     1      -6.614  -5.625   6.305  1.00  0.00     0.002 C 
ATOM     33  C   UNL     1      -5.741  -6.343   7.327  1.00  0.00     0.004 C 
ENDBRANCH  30  32
ENDBRANCH  12  30
ENDBRANCH  10  12
ENDBRANCH   1  10
BRANCH   5  34
ATOM     34  C   UNL     1     -13.473  -5.249   7.620  1.00  0.00     0.242 C 
ATOM     35  O   UNL     1     -13.309  -5.444   8.824  1.00  0.00    -0.273 OA
ATOM     36  N   UNL     1     -14.592  -4.621   7.119  1.00  0.00    -0.354 N 
ATOM     37  H   UNL     1     -14.730  -4.596   6.108  1.00  0.00     0.163 HD
BRANCH  36  38
ATOM     38  C   UNL     1     -15.525  -3.910   7.968  1.00  0.00     0.116 C 
BRANCH  38  39
ATOM     39  C   UNL     1     -16.778  -4.755   8.184  1.00  0.00     0.023 C 
BRANCH  39  40
ATOM     40  C   UNL     1     -17.333  -4.623   9.598  1.00  0.00     0.026 C 
BRANCH  40  41
ATOM     41  C   UNL     1     -16.331  -5.148  10.625  1.00  0.00     0.146 C 
BRANCH  41  42
ATOM     42  N   UNL     1     -16.786  -6.430  11.147  1.00  0.00    -0.254 NA
ATOM     43  C   UNL     1     -16.228  -7.511  10.748  1.00  0.00     0.185 C 
ATOM     44  N   UNL     1     -15.224  -7.693   9.870  1.00  0.00    -0.370 N 
ATOM     45  N   UNL     1     -16.666  -8.682  11.238  1.00  0.00    -0.370 N 
ATOM     46  H   UNL     1     -15.053  -8.599   9.468  1.00  0.00     0.159 HD
ATOM     47  H   UNL     1     -14.767  -6.910   9.414  1.00  0.00     0.159 HD
ATOM     48  H   UNL     1     -17.416  -8.634  11.913  1.00  0.00     0.159 HD
ATOM     49  H   UNL     1     -16.139  -9.534  11.162  1.00  0.00     0.159 HD
ENDBRANCH  41  42
ENDBRANCH  40  41
ENDBRANCH  39  40
ENDBRANCH  38  39
ENDBRANCH  36  38
ENDBRANCH   5  34
BRANCH   8  50
ATOM     50  O   UNL     1     -12.664  -9.507   9.557  1.00  0.00    -0.245 OA
BRANCH  50  51
ATOM     51  S   UNL     1     -12.727  -9.960  11.118  1.00  0.00     0.397 S 
ATOM     52  O   UNL     1     -14.106 -10.245  11.445  1.00  0.00    -0.169 OA
ATOM     53  O   UNL     1     -11.927  -9.056  11.918  1.00  0.00    -0.169 OA
BRANCH  51  54
ATOM     54  O   UNL     1     -11.981 -11.384  11.084  1.00  0.00    -0.264 OA
ATOM     55  H   UNL     1     -11.992 -11.705  10.160  1.00  0.00     0.236 HD
ENDBRANCH  51  54
ENDBRANCH  50  51
ENDBRANCH   8  50
TORSDOF 19
ENDMDL
MODEL 19
REMARK VINA RESULT:    -6.650      4.787      8.587
REMARK INTER + INTRA:         -16.670
REMARK INTER:                 -14.245
REMARK INTRA:                  -2.425
REMARK UNBOUND:                -3.218
REMARK SMILES CC[C@@H](C)[C@@H](NC(=O)[C@@H](O)Cc1ccc(O)c(Cl)c1)C(=O)N1[C@H](C(=O)NCCCCN=C(N)N)C[C@H]2CC[C@H](OS(=O)(=O)O)C[C@@H]21
REMARK SMILES IDX 22 1 36 2 46 3 35 4 23 5 45 6 37 7 39 8 38 9 20 10 21 11
REMARK SMILES IDX 5 12 6 13 7 14 8 15 9 17 11 18 12 19 17 20 19 21 15 22 14 23
REMARK SMILES IDX 13 24 18 25 16 26 10 28 3 30 4 31 2 32 1 33 24 34 25 35
REMARK SMILES IDX 26 36 27 38 28 39 29 40 30 41 31 42 32 43 33 44 34 45 40 50
REMARK SMILES IDX 41 51 42 52 43 53 44 54
REMARK H PARENT 6 16 16 27 10 29 26 37 33 46 33 47 34 48 34 49 44 55
ROOT
ATOM      1  N   UNL     1      -9.570  -2.492  -4.454  1.00  0.00    -0.326 N 
ATOM      2  C   UNL     1      -9.152  -0.322  -3.644  1.00  0.00     0.014 C 
ATOM      3  C   UNL     1      -9.805  -1.656  -3.273  1.00  0.00     0.091 C 
ATOM      4  C   UNL     1      -9.409  -0.227  -5.140  1.00  0.00     0.041 C 
ATOM      5  C   UNL     1      -9.052  -1.662  -5.569  1.00  0.00     0.175 C 
ATOM      6  C   UNL     1      -9.235  -2.118  -1.933  1.00  0.00     0.059 C 
ATOM      7  C   UNL     1      -9.636   0.790  -2.735  1.00  0.00     0.008 C 
ATOM      8  C   UNL     1      -8.854  -0.958  -0.988  1.00  0.00     0.143 C 
ATOM      9  C   UNL     1      -9.681   0.313  -1.268  1.00  0.00     0.034 C 
ENDROOT
BRANCH   1  10
ATOM     10  C   UNL     1      -9.952  -3.799  -4.706  1.00  0.00     0.246 C 
ATOM     11  O   UNL     1     -10.883  -4.013  -5.490  1.00  0.00    -0.272 OA
BRANCH  10  12
ATOM     12  C   UNL     1      -9.175  -4.968  -4.034  1.00  0.00     0.174 C 
BRANCH  12  13
ATOM     13  N   UNL     1      -9.804  -5.317  -2.760  1.00  0.00    -0.342 N 
ATOM     14  C   UNL     1     -10.834  -6.217  -2.607  1.00  0.00     0.249 C 
ATOM     15  O   UNL     1     -11.326  -6.854  -3.531  1.00  0.00    -0.272 OA
ATOM     16  H   UNL     1      -9.609  -4.757  -1.933  1.00  0.00     0.164 HD
BRANCH  14  17
ATOM     17  C   UNL     1     -11.292  -6.354  -1.140  1.00  0.00     0.207 C 
BRANCH  17  18
ATOM     18  C   UNL     1     -10.092  -6.254  -0.192  1.00  0.00     0.077 C 
BRANCH  18  19
ATOM     19  C   UNL     1      -9.467  -7.606   0.069  1.00  0.00    -0.043 A 
ATOM     20  C   UNL     1      -8.970  -9.436   1.581  1.00  0.00     0.083 A 
ATOM     21  C   UNL     1      -9.590  -8.211   1.329  1.00  0.00     0.028 A 
ATOM     22  C   UNL     1      -8.226 -10.061   0.580  1.00  0.00     0.134 A 
ATOM     23  C   UNL     1      -8.097  -9.473  -0.672  1.00  0.00     0.048 A 
ATOM     24  C   UNL     1      -8.714  -8.246  -0.927  1.00  0.00     0.008 A 
ATOM     25  Cl  UNL     1      -9.131 -10.164   3.136  1.00  0.00    -0.080 Cl
BRANCH  22  26
ATOM     26  O   UNL     1      -7.592 -11.257   0.784  1.00  0.00    -0.506 OA
ATOM     27  H   UNL     1      -7.476 -11.352   1.748  1.00  0.00     0.293 HD
ENDBRANCH  22  26
ENDBRANCH  18  19
ENDBRANCH  17  18
BRANCH  17  28
ATOM     28  O   UNL     1     -11.967  -7.604  -0.923  1.00  0.00    -0.383 OA
ATOM     29  H   UNL     1     -12.259  -7.597   0.016  1.00  0.00     0.211 HD
ENDBRANCH  17  28
ENDBRANCH  14  17
ENDBRANCH  12  13
BRANCH  12  30
ATOM     30  C   UNL     1      -7.658  -4.673  -3.885  1.00  0.00     0.018 C 
ATOM     31  C   UNL     1      -6.853  -5.388  -4.981  1.00  0.00     0.010 C 
BRANCH  30  32
ATOM     32  C   UNL     1      -7.090  -5.029  -2.489  1.00  0.00     0.002 C 
ATOM     33  C   UNL     1      -6.069  -6.159  -2.471  1.00  0.00     0.004 C 
ENDBRANCH  30  32
ENDBRANCH  12  30
ENDBRANCH  10  12
ENDBRANCH   1  10
BRANCH   5  34
ATOM     34  C   UNL     1      -7.519  -1.848  -5.726  1.00  0.00     0.242 C 
ATOM     35  O   UNL     1      -6.729  -1.602  -4.814  1.00  0.00    -0.273 OA
ATOM     36  N   UNL     1      -7.103  -2.254  -6.974  1.00  0.00    -0.354 N 
ATOM     37  H   UNL     1      -7.793  -2.326  -7.723  1.00  0.00     0.163 HD
BRANCH  36  38
ATOM     38  C   UNL     1      -5.744  -2.682  -7.236  1.00  0.00     0.116 C 
BRANCH  38  39
ATOM     39  C   UNL     1      -5.703  -3.536  -8.500  1.00  0.00     0.023 C 
BRANCH  39  40
ATOM     40  C   UNL     1      -6.792  -3.153  -9.497  1.00  0.00     0.026 C 
BRANCH  40  41
ATOM     41  C   UNL     1      -7.046  -4.291 -10.485  1.00  0.00     0.146 C 
BRANCH  41  42
ATOM     42  N   UNL     1      -7.938  -5.275  -9.885  1.00  0.00    -0.254 NA
ATOM     43  C   UNL     1      -9.107  -5.452 -10.375  1.00  0.00     0.185 C 
ATOM     44  N   UNL     1      -9.707  -4.854 -11.420  1.00  0.00    -0.370 N 
ATOM     45  N   UNL     1      -9.916  -6.360  -9.803  1.00  0.00    -0.370 N 
ATOM     46  H   UNL     1     -10.704  -4.912 -11.541  1.00  0.00     0.159 HD
ATOM     47  H   UNL     1      -9.232  -4.149 -11.975  1.00  0.00     0.159 HD
ATOM     48  H   UNL     1      -9.536  -6.864  -9.013  1.00  0.00     0.159 HD
ATOM     49  H   UNL     1     -10.734  -6.723 -10.259  1.00  0.00     0.159 HD
ENDBRANCH  41  42
ENDBRANCH  40  41
ENDBRANCH  39  40
ENDBRANCH  38  39
ENDBRANCH  36  38
ENDBRANCH   5  34
BRANCH   8  50
ATOM     50  O   UNL     1      -7.470  -0.641  -1.135  1.00  0.00    -0.245 OA
BRANCH  50  51
ATOM     51  S   UNL     1      -6.823   0.559  -0.247  1.00  0.00     0.397 S 
ATOM     52  O   UNL     1      -7.537   0.621   1.008  1.00  0.00    -0.169 OA
ATOM     53  O   UNL     1      -6.640   1.733  -1.076  1.00  0.00    -0.169 OA
BRANCH  51  54
ATOM     54  O   UNL     1      -5.369  -0.030   0.105  1.00  0.00    -0.264 OA
ATOM     55  H   UNL     1      -5.287  -0.903  -0.330  1.00  0.00     0.236 HD
ENDBRANCH  51  54
ENDBRANCH  50  51
ENDBRANCH   8  50
TORSDOF 19
ENDMDL
MODEL 20
REMARK VINA RESULT:    -6.645      3.745      7.533
REMARK INTER + INTRA:         -16.660
REMARK INTER:                 -12.477
REMARK INTRA:                  -4.183
REMARK UNBOUND:                -3.218
REMARK SMILES CC[C@@H](C)[C@@H](NC(=O)[C@@H](O)Cc1ccc(O)c(Cl)c1)C(=O)N1[C@H](C(=O)NCCCCN=C(N)N)C[C@H]2CC[C@H](OS(=O)(=O)O)C[C@@H]21
REMARK SMILES IDX 22 1 36 2 46 3 35 4 23 5 45 6 37 7 39 8 38 9 20 10 21 11
REMARK SMILES IDX 5 12 6 13 7 14 8 15 9 17 11 18 12 19 17 20 19 21 15 22 14 23
REMARK SMILES IDX 13 24 18 25 16 26 10 28 3 30 4 31 2 32 1 33 24 34 25 35
REMARK SMILES IDX 26 36 27 38 28 39 29 40 30 41 31 42 32 43 33 44 34 45 40 50
REMARK SMILES IDX 41 51 42 52 43 53 44 54
REMARK H PARENT 6 16 16 27 10 29 26 37 33 46 33 47 34 48 34 49 44 55
ROOT
ATOM      1  N   UNL     1      -4.298  -2.198  -8.003  1.00  0.00    -0.326 N 
ATOM      2  C   UNL     1      -3.410  -4.157  -8.960  1.00  0.00     0.014 C 
ATOM      3  C   UNL     1      -3.927  -3.569  -7.643  1.00  0.00     0.091 C 
ATOM      4  C   UNL     1      -2.738  -2.962  -9.619  1.00  0.00     0.041 C 
ATOM      5  C   UNL     1      -3.801  -1.878  -9.364  1.00  0.00     0.175 C 
ATOM      6  C   UNL     1      -5.012  -4.494  -7.095  1.00  0.00     0.059 C 
ATOM      7  C   UNL     1      -2.606  -5.418  -8.712  1.00  0.00     0.008 C 
ATOM      8  C   UNL     1      -4.796  -5.982  -7.444  1.00  0.00     0.143 C 
ATOM      9  C   UNL     1      -3.306  -6.314  -7.668  1.00  0.00     0.034 C 
ENDROOT
BRANCH   1  10
ATOM     10  C   UNL     1      -4.810  -1.181  -7.215  1.00  0.00     0.246 C 
ATOM     11  O   UNL     1      -5.968  -1.272  -6.794  1.00  0.00    -0.272 OA
BRANCH  10  12
ATOM     12  C   UNL     1      -3.906   0.029  -6.842  1.00  0.00     0.174 C 
BRANCH  12  13
ATOM     13  N   UNL     1      -4.197   1.160  -7.723  1.00  0.00    -0.342 N 
ATOM     14  C   UNL     1      -4.752   2.353  -7.320  1.00  0.00     0.249 C 
ATOM     15  O   UNL     1      -5.041   2.613  -6.158  1.00  0.00    -0.272 OA
ATOM     16  H   UNL     1      -4.157   1.036  -8.732  1.00  0.00     0.164 HD
BRANCH  14  17
ATOM     17  C   UNL     1      -4.953   3.342  -8.488  1.00  0.00     0.207 C 
BRANCH  17  18
ATOM     18  C   UNL     1      -3.775   3.264  -9.464  1.00  0.00     0.077 C 
BRANCH  18  19
ATOM     19  C   UNL     1      -4.098   2.409 -10.669  1.00  0.00    -0.043 A 
ATOM     20  C   UNL     1      -5.724   1.461 -12.199  1.00  0.00     0.083 A 
ATOM     21  C   UNL     1      -5.423   2.290 -11.118  1.00  0.00     0.028 A 
ATOM     22  C   UNL     1      -4.709   0.747 -12.836  1.00  0.00     0.134 A 
ATOM     23  C   UNL     1      -3.393   0.856 -12.402  1.00  0.00     0.048 A 
ATOM     24  C   UNL     1      -3.088   1.683 -11.319  1.00  0.00     0.008 A 
ATOM     25  Cl  UNL     1      -7.358   1.328 -12.736  1.00  0.00    -0.080 Cl
BRANCH  22  26
ATOM     26  O   UNL     1      -4.957  -0.086 -13.893  1.00  0.00    -0.506 OA
ATOM     27  H   UNL     1      -4.963   0.472 -14.694  1.00  0.00     0.293 HD
ENDBRANCH  22  26
ENDBRANCH  18  19
ENDBRANCH  17  18
BRANCH  17  28
ATOM     28  O   UNL     1      -5.087   4.689  -8.009  1.00  0.00    -0.383 OA
ATOM     29  H   UNL     1      -4.935   5.272  -8.787  1.00  0.00     0.211 HD
ENDBRANCH  17  28
ENDBRANCH  14  17
ENDBRANCH  12  13
BRANCH  12  30
ATOM     30  C   UNL     1      -2.396  -0.333  -6.823  1.00  0.00     0.018 C 
ATOM     31  C   UNL     1      -1.941  -0.704  -5.403  1.00  0.00     0.010 C 
BRANCH  30  32
ATOM     32  C   UNL     1      -1.484   0.776  -7.401  1.00  0.00     0.002 C 
ATOM     33  C   UNL     1      -0.654   0.371  -8.612  1.00  0.00     0.004 C 
ENDBRANCH  30  32
ENDBRANCH  12  30
ENDBRANCH  10  12
ENDBRANCH   1  10
BRANCH   5  34
ATOM     34  C   UNL     1      -4.953  -1.950 -10.402  1.00  0.00     0.242 C 
ATOM     35  O   UNL     1      -4.762  -2.268 -11.575  1.00  0.00    -0.273 OA
ATOM     36  N   UNL     1      -6.192  -1.582  -9.928  1.00  0.00    -0.354 N 
ATOM     37  H   UNL     1      -6.266  -1.213  -8.979  1.00  0.00     0.163 HD
BRANCH  36  38
ATOM     38  C   UNL     1      -7.406  -1.794 -10.690  1.00  0.00     0.116 C 
BRANCH  38  39
ATOM     39  C   UNL     1      -7.848  -3.250 -10.564  1.00  0.00     0.023 C 
BRANCH  39  40
ATOM     40  C   UNL     1      -9.210  -3.389  -9.891  1.00  0.00     0.026 C 
BRANCH  40  41
ATOM     41  C   UNL     1      -9.330  -2.429  -8.708  1.00  0.00     0.146 C 
BRANCH  41  42
ATOM     42  N   UNL     1     -10.166  -3.024  -7.674  1.00  0.00    -0.254 NA
ATOM     43  C   UNL     1      -9.649  -3.339  -6.546  1.00  0.00     0.185 C 
ATOM     44  N   UNL     1      -8.383  -3.212  -6.108  1.00  0.00    -0.370 N 
ATOM     45  N   UNL     1     -10.436  -3.891  -5.607  1.00  0.00    -0.370 N 
ATOM     46  H   UNL     1      -8.066  -3.721  -5.300  1.00  0.00     0.159 HD
ATOM     47  H   UNL     1      -7.658  -2.800  -6.687  1.00  0.00     0.159 HD
ATOM     48  H   UNL     1     -11.409  -4.014  -5.853  1.00  0.00     0.159 HD
ATOM     49  H   UNL     1     -10.172  -3.944  -4.639  1.00  0.00     0.159 HD
ENDBRANCH  41  42
ENDBRANCH  40  41
ENDBRANCH  39  40
ENDBRANCH  38  39
ENDBRANCH  36  38
ENDBRANCH   5  34
BRANCH   8  50
ATOM     50  O   UNL     1      -5.518  -6.319  -8.629  1.00  0.00    -0.245 OA
BRANCH  50  51
ATOM     51  S   UNL     1      -7.025  -6.918  -8.507  1.00  0.00     0.397 S 
ATOM     52  O   UNL     1      -7.829  -5.961  -7.781  1.00  0.00    -0.169 OA
ATOM     53  O   UNL     1      -6.964  -8.311  -8.115  1.00  0.00    -0.169 OA
BRANCH  51  54
ATOM     54  O   UNL     1      -7.536  -6.854 -10.030  1.00  0.00    -0.264 OA
ATOM     55  H   UNL     1      -6.758  -6.679 -10.598  1.00  0.00     0.236 HD
ENDBRANCH  51  54
ENDBRANCH  50  51
ENDBRANCH   8  50
TORSDOF 19
ENDMDL
MODEL 21
REMARK VINA RESULT:    -6.624      5.153      9.480
REMARK INTER + INTRA:         -16.619
REMARK INTER:                 -13.047
REMARK INTRA:                  -3.573
REMARK UNBOUND:                -3.218
REMARK SMILES CC[C@@H](C)[C@@H](NC(=O)[C@@H](O)Cc1ccc(O)c(Cl)c1)C(=O)N1[C@H](C(=O)NCCCCN=C(N)N)C[C@H]2CC[C@H](OS(=O)(=O)O)C[C@@H]21
REMARK SMILES IDX 22 1 36 2 46 3 35 4 23 5 45 6 37 7 39 8 38 9 20 10 21 11
REMARK SMILES IDX 5 12 6 13 7 14 8 15 9 17 11 18 12 19 17 20 19 21 15 22 14 23
REMARK SMILES IDX 13 24 18 25 16 26 10 28 3 30 4 31 2 32 1 33 24 34 25 35
REMARK SMILES IDX 26 36 27 38 28 39 29 40 30 41 31 42 32 43 33 44 34 45 40 50
REMARK SMILES IDX 41 51 42 52 43 53 44 54
REMARK H PARENT 6 16 16 27 10 29 26 37 33 46 33 47 34 48 34 49 44 55
ROOT
ATOM      1  N   UNL     1      -2.820  -0.880  -9.426  1.00  0.00    -0.326 N 
ATOM      2  C   UNL     1      -3.463  -3.144  -9.401  1.00  0.00     0.014 C 
ATOM      3  C   UNL     1      -2.943  -2.015  -8.507  1.00  0.00     0.091 C 
ATOM      4  C   UNL     1      -2.780  -2.861 -10.730  1.00  0.00     0.041 C 
ATOM      5  C   UNL     1      -2.993  -1.339 -10.827  1.00  0.00     0.175 C 
ATOM      6  C   UNL     1      -3.879  -1.878  -7.308  1.00  0.00     0.059 C 
ATOM      7  C   UNL     1      -3.269  -4.494  -8.738  1.00  0.00     0.008 C 
ATOM      8  C   UNL     1      -4.522  -3.211  -6.867  1.00  0.00     0.143 C 
ATOM      9  C   UNL     1      -3.653  -4.427  -7.245  1.00  0.00     0.034 C 
ENDROOT
BRANCH   1  10
ATOM     10  C   UNL     1      -2.379   0.411  -9.189  1.00  0.00     0.246 C 
ATOM     11  O   UNL     1      -3.162   1.353  -9.348  1.00  0.00    -0.272 OA
BRANCH  10  12
ATOM     12  C   UNL     1      -0.924   0.644  -8.686  1.00  0.00     0.174 C 
BRANCH  12  13
ATOM     13  N   UNL     1      -0.781   2.012  -8.190  1.00  0.00    -0.342 N 
ATOM     14  C   UNL     1      -1.225   2.460  -6.966  1.00  0.00     0.249 C 
ATOM     15  O   UNL     1      -1.772   1.745  -6.136  1.00  0.00    -0.272 OA
ATOM     16  H   UNL     1      -0.490   2.750  -8.826  1.00  0.00     0.164 HD
BRANCH  14  17
ATOM     17  C   UNL     1      -0.941   3.960  -6.742  1.00  0.00     0.207 C 
BRANCH  17  18
ATOM     18  C   UNL     1       0.565   4.235  -6.802  1.00  0.00     0.077 C 
BRANCH  18  19
ATOM     19  C   UNL     1       1.050   4.398  -8.225  1.00  0.00    -0.043 A 
ATOM     20  C   UNL     1       2.741   4.033  -9.926  1.00  0.00     0.083 A 
ATOM     21  C   UNL     1       2.273   3.838  -8.626  1.00  0.00     0.028 A 
ATOM     22  C   UNL     1       1.994   4.787 -10.831  1.00  0.00     0.134 A 
ATOM     23  C   UNL     1       0.780   5.347 -10.448  1.00  0.00     0.048 A 
ATOM     24  C   UNL     1       0.310   5.155  -9.147  1.00  0.00     0.008 A 
ATOM     25  Cl  UNL     1       4.247   3.338 -10.398  1.00  0.00    -0.080 Cl
BRANCH  22  26
ATOM     26  O   UNL     1       2.416   5.014 -12.113  1.00  0.00    -0.506 OA
ATOM     27  H   UNL     1       2.127   5.915 -12.348  1.00  0.00     0.293 HD
ENDBRANCH  22  26
ENDBRANCH  18  19
ENDBRANCH  17  18
BRANCH  17  28
ATOM     28  O   UNL     1      -1.456   4.400  -5.475  1.00  0.00    -0.383 OA
ATOM     29  H   UNL     1      -2.387   4.673  -5.639  1.00  0.00     0.211 HD
ENDBRANCH  17  28
ENDBRANCH  14  17
ENDBRANCH  12  13
BRANCH  12  30
ATOM     30  C   UNL     1       0.144   0.286  -9.754  1.00  0.00     0.018 C 
ATOM     31  C   UNL     1       1.544   0.220  -9.125  1.00  0.00     0.010 C 
BRANCH  30  32
ATOM     32  C   UNL     1       0.151   1.243 -10.971  1.00  0.00     0.002 C 
ATOM     33  C   UNL     1       1.384   1.154 -11.861  1.00  0.00     0.004 C 
ENDBRANCH  30  32
ENDBRANCH  12  30
ENDBRANCH  10  12
ENDBRANCH   1  10
BRANCH   5  34
ATOM     34  C   UNL     1      -4.412  -0.991 -11.349  1.00  0.00     0.242 C 
ATOM     35  O   UNL     1      -4.775  -1.258 -12.494  1.00  0.00    -0.273 OA
ATOM     36  N   UNL     1      -5.215  -0.316 -10.458  1.00  0.00    -0.354 N 
ATOM     37  H   UNL     1      -4.817  -0.017  -9.566  1.00  0.00     0.163 HD
BRANCH  36  38
ATOM     38  C   UNL     1      -6.628  -0.104 -10.696  1.00  0.00     0.116 C 
BRANCH  38  39
ATOM     39  C   UNL     1      -7.443  -0.726  -9.564  1.00  0.00     0.023 C 
BRANCH  39  40
ATOM     40  C   UNL     1      -8.418  -1.787 -10.062  1.00  0.00     0.026 C 
BRANCH  40  41
ATOM     41  C   UNL     1      -7.667  -3.017 -10.571  1.00  0.00     0.146 C 
BRANCH  41  42
ATOM     42  N   UNL     1      -8.185  -4.214  -9.920  1.00  0.00    -0.254 NA
ATOM     43  C   UNL     1      -9.073  -4.921 -10.510  1.00  0.00     0.185 C 
ATOM     44  N   UNL     1      -9.660  -4.751 -11.709  1.00  0.00    -0.370 N 
ATOM     45  N   UNL     1      -9.541  -6.018  -9.891  1.00  0.00    -0.370 N 
ATOM     46  H   UNL     1     -10.509  -5.239 -11.939  1.00  0.00     0.159 HD
ATOM     47  H   UNL     1      -9.413  -3.976 -12.317  1.00  0.00     0.159 HD
ATOM     48  H   UNL     1      -9.144  -6.224  -8.984  1.00  0.00     0.159 HD
ATOM     49  H   UNL     1     -10.047  -6.740 -10.372  1.00  0.00     0.159 HD
ENDBRANCH  41  42
ENDBRANCH  40  41
ENDBRANCH  39  40
ENDBRANCH  38  39
ENDBRANCH  36  38
ENDBRANCH   5  34
BRANCH   8  50
ATOM     50  O   UNL     1      -5.804  -3.362  -7.478  1.00  0.00    -0.245 OA
BRANCH  50  51
ATOM     51  S   UNL     1      -7.075  -3.826  -6.575  1.00  0.00     0.397 S 
ATOM     52  O   UNL     1      -8.129  -2.853  -6.753  1.00  0.00    -0.169 OA
ATOM     53  O   UNL     1      -6.617  -4.219  -5.258  1.00  0.00    -0.169 OA
BRANCH  51  54
ATOM     54  O   UNL     1      -7.566  -5.150  -7.343  1.00  0.00    -0.264 OA
ATOM     55  H   UNL     1      -8.521  -5.047  -7.534  1.00  0.00     0.236 HD
ENDBRANCH  51  54
ENDBRANCH  50  51
ENDBRANCH   8  50
TORSDOF 19
ENDMDL
MODEL 22
REMARK VINA RESULT:    -6.624      8.318     12.494
REMARK INTER + INTRA:         -16.618
REMARK INTER:                 -12.768
REMARK INTRA:                  -3.850
REMARK UNBOUND:                -3.218
REMARK SMILES CC[C@@H](C)[C@@H](NC(=O)[C@@H](O)Cc1ccc(O)c(Cl)c1)C(=O)N1[C@H](C(=O)NCCCCN=C(N)N)C[C@H]2CC[C@H](OS(=O)(=O)O)C[C@@H]21
REMARK SMILES IDX 22 1 36 2 46 3 35 4 23 5 45 6 37 7 39 8 38 9 20 10 21 11
REMARK SMILES IDX 5 12 6 13 7 14 8 15 9 17 11 18 12 19 17 20 19 21 15 22 14 23
REMARK SMILES IDX 13 24 18 25 16 26 10 28 3 30 4 31 2 32 1 33 24 34 25 35
REMARK SMILES IDX 26 36 27 38 28 39 29 40 30 41 31 42 32 43 33 44 34 45 40 50
REMARK SMILES IDX 41 51 42 52 43 53 44 54
REMARK H PARENT 6 16 16 27 10 29 26 37 33 46 33 47 34 48 34 49 44 55
ROOT
ATOM      1  N   UNL     1     -11.932  -7.976   4.244  1.00  0.00    -0.326 N 
ATOM      2  C   UNL     1     -12.769  -7.008   6.220  1.00  0.00     0.014 C 
ATOM      3  C   UNL     1     -12.808  -8.286   5.377  1.00  0.00     0.091 C 
ATOM      4  C   UNL     1     -12.661  -5.916   5.167  1.00  0.00     0.041 C 
ATOM      5  C   UNL     1     -11.593  -6.531   4.245  1.00  0.00     0.175 C 
ATOM      6  C   UNL     1     -12.442  -9.468   6.274  1.00  0.00     0.059 C 
ATOM      7  C   UNL     1     -13.917  -6.976   7.209  1.00  0.00     0.008 C 
ATOM      8  C   UNL     1     -12.882  -9.292   7.743  1.00  0.00     0.143 C 
ATOM      9  C   UNL     1     -14.101  -8.357   7.875  1.00  0.00     0.034 C 
ENDROOT
BRANCH   1  10
ATOM     10  C   UNL     1     -11.596  -8.747   3.144  1.00  0.00     0.246 C 
ATOM     11  O   UNL     1     -12.269  -9.750   2.885  1.00  0.00    -0.272 OA
BRANCH  10  12
ATOM     12  C   UNL     1     -10.409  -8.312   2.236  1.00  0.00     0.174 C 
BRANCH  12  13
ATOM     13  N   UNL     1     -10.919  -7.723   0.998  1.00  0.00    -0.342 N 
ATOM     14  C   UNL     1     -10.747  -6.411   0.617  1.00  0.00     0.249 C 
ATOM     15  O   UNL     1     -10.117  -5.589   1.270  1.00  0.00    -0.272 OA
ATOM     16  H   UNL     1     -11.590  -8.239   0.434  1.00  0.00     0.164 HD
BRANCH  14  17
ATOM     17  C   UNL     1     -11.418  -6.091  -0.735  1.00  0.00     0.207 C 
BRANCH  17  18
ATOM     18  C   UNL     1     -10.938  -7.065  -1.816  1.00  0.00     0.077 C 
BRANCH  18  19
ATOM     19  C   UNL     1      -9.602  -6.653  -2.391  1.00  0.00    -0.043 A 
ATOM     20  C   UNL     1      -8.302  -5.305  -3.933  1.00  0.00     0.083 A 
ATOM     21  C   UNL     1      -9.531  -5.649  -3.369  1.00  0.00     0.028 A 
ATOM     22  C   UNL     1      -7.139  -5.961  -3.526  1.00  0.00     0.134 A 
ATOM     23  C   UNL     1      -7.195  -6.957  -2.558  1.00  0.00     0.048 A 
ATOM     24  C   UNL     1      -8.424  -7.304  -1.993  1.00  0.00     0.008 A 
ATOM     25  Cl  UNL     1      -8.235  -4.069  -5.134  1.00  0.00    -0.080 Cl
BRANCH  22  26
ATOM     26  O   UNL     1      -5.913  -5.666  -4.058  1.00  0.00    -0.506 OA
ATOM     27  H   UNL     1      -6.077  -5.208  -4.903  1.00  0.00     0.293 HD
ENDBRANCH  22  26
ENDBRANCH  18  19
ENDBRANCH  17  18
BRANCH  17  28
ATOM     28  O   UNL     1     -11.134  -4.744  -1.148  1.00  0.00    -0.383 OA
ATOM     29  H   UNL     1     -10.994  -4.782  -2.121  1.00  0.00     0.211 HD
ENDBRANCH  17  28
ENDBRANCH  14  17
ENDBRANCH  12  13
BRANCH  12  30
ATOM     30  C   UNL     1      -9.401  -9.463   1.974  1.00  0.00     0.018 C 
ATOM     31  C   UNL     1      -8.789  -9.963   3.291  1.00  0.00     0.010 C 
BRANCH  30  32
ATOM     32  C   UNL     1      -8.280  -9.091   0.973  1.00  0.00     0.002 C 
ATOM     33  C   UNL     1      -7.554 -10.272   0.341  1.00  0.00     0.004 C 
ENDBRANCH  30  32
ENDBRANCH  12  30
ENDBRANCH  10  12
ENDBRANCH   1  10
BRANCH   5  34
ATOM     34  C   UNL     1     -10.160  -6.302   4.797  1.00  0.00     0.242 C 
ATOM     35  O   UNL     1      -9.752  -6.856   5.818  1.00  0.00    -0.273 OA
ATOM     36  N   UNL     1      -9.399  -5.396   4.093  1.00  0.00    -0.354 N 
ATOM     37  H   UNL     1      -9.834  -4.880   3.327  1.00  0.00     0.163 HD
BRANCH  36  38
ATOM     38  C   UNL     1      -7.982  -5.223   4.335  1.00  0.00     0.116 C 
BRANCH  38  39
ATOM     39  C   UNL     1      -7.186  -6.192   3.464  1.00  0.00     0.023 C 
BRANCH  39  40
ATOM     40  C   UNL     1      -6.308  -5.473   2.446  1.00  0.00     0.026 C 
BRANCH  40  41
ATOM     41  C   UNL     1      -6.800  -5.738   1.023  1.00  0.00     0.146 C 
BRANCH  41  42
ATOM     42  N   UNL     1      -6.308  -4.697   0.130  1.00  0.00    -0.254 NA
ATOM     43  C   UNL     1      -7.135  -3.876  -0.401  1.00  0.00     0.185 C 
ATOM     44  N   UNL     1      -8.472  -3.791  -0.275  1.00  0.00    -0.370 N 
ATOM     45  N   UNL     1      -6.662  -2.926  -1.225  1.00  0.00    -0.370 N 
ATOM     46  H   UNL     1      -9.016  -3.260  -0.933  1.00  0.00     0.159 HD
ATOM     47  H   UNL     1      -8.992  -4.426   0.323  1.00  0.00     0.159 HD
ATOM     48  H   UNL     1      -5.661  -2.914  -1.368  1.00  0.00     0.159 HD
ATOM     49  H   UNL     1      -7.196  -2.117  -1.485  1.00  0.00     0.159 HD
ENDBRANCH  41  42
ENDBRANCH  40  41
ENDBRANCH  39  40
ENDBRANCH  38  39
ENDBRANCH  36  38
ENDBRANCH   5  34
BRANCH   8  50
ATOM     50  O   UNL     1     -11.810  -8.752   8.515  1.00  0.00    -0.245 OA
BRANCH  50  51
ATOM     51  S   UNL     1     -11.782  -8.984  10.125  1.00  0.00     0.397 S 
ATOM     52  O   UNL     1     -12.376 -10.273  10.400  1.00  0.00    -0.169 OA
ATOM     53  O   UNL     1     -12.230  -7.782  10.797  1.00  0.00    -0.169 OA
BRANCH  51  54
ATOM     54  O   UNL     1     -10.209  -9.155  10.412  1.00  0.00    -0.264 OA
ATOM     55  H   UNL     1     -10.110  -9.549  11.303  1.00  0.00     0.236 HD
ENDBRANCH  51  54
ENDBRANCH  50  51
ENDBRANCH   8  50
TORSDOF 19
ENDMDL
MODEL 23
REMARK VINA RESULT:    -6.614     12.290     17.130
REMARK INTER + INTRA:         -16.599
REMARK INTER:                 -13.819
REMARK INTRA:                  -2.780
REMARK UNBOUND:                -3.218
REMARK SMILES CC[C@@H](C)[C@@H](NC(=O)[C@@H](O)Cc1ccc(O)c(Cl)c1)C(=O)N1[C@H](C(=O)NCCCCN=C(N)N)C[C@H]2CC[C@H](OS(=O)(=O)O)C[C@@H]21
REMARK SMILES IDX 22 1 36 2 46 3 35 4 23 5 45 6 37 7 39 8 38 9 20 10 21 11
REMARK SMILES IDX 5 12 6 13 7 14 8 15 9 17 11 18 12 19 17 20 19 21 15 22 14 23
REMARK SMILES IDX 13 24 18 25 16 26 10 28 3 30 4 31 2 32 1 33 24 34 25 35
REMARK SMILES IDX 26 36 27 38 28 39 29 40 30 41 31 42 32 43 33 44 34 45 40 50
REMARK SMILES IDX 41 51 42 52 43 53 44 54
REMARK H PARENT 6 16 16 27 10 29 26 37 33 46 33 47 34 48 34 49 44 55
ROOT
ATOM      1  N   UNL     1     -12.592  -6.850   7.234  1.00  0.00    -0.326 N 
ATOM      2  C   UNL     1     -13.102  -6.149   5.045  1.00  0.00     0.014 C 
ATOM      3  C   UNL     1     -13.312  -5.791   6.520  1.00  0.00     0.091 C 
ATOM      4  C   UNL     1     -13.100  -7.670   5.067  1.00  0.00     0.041 C 
ATOM      5  C   UNL     1     -12.198  -7.923   6.289  1.00  0.00     0.175 C 
ATOM      6  C   UNL     1     -12.870  -4.344   6.733  1.00  0.00     0.059 C 
ATOM      7  C   UNL     1     -14.097  -5.419   4.164  1.00  0.00     0.008 C 
ATOM      8  C   UNL     1     -13.091  -3.439   5.501  1.00  0.00     0.143 C 
ATOM      9  C   UNL     1     -14.240  -3.948   4.607  1.00  0.00     0.034 C 
ENDROOT
BRANCH   1  10
ATOM     10  C   UNL     1     -12.447  -7.061   8.595  1.00  0.00     0.246 C 
ATOM     11  O   UNL     1     -12.033  -6.140   9.306  1.00  0.00    -0.272 OA
BRANCH  10  12
ATOM     12  C   UNL     1     -12.847  -8.436   9.204  1.00  0.00     0.174 C 
BRANCH  12  13
ATOM     13  N   UNL     1     -14.070  -8.296   9.993  1.00  0.00    -0.342 N 
ATOM     14  C   UNL     1     -15.339  -8.189   9.471  1.00  0.00     0.249 C 
ATOM     15  O   UNL     1     -15.590  -8.229   8.273  1.00  0.00    -0.272 OA
ATOM     16  H   UNL     1     -14.007  -8.091  10.987  1.00  0.00     0.164 HD
BRANCH  14  17
ATOM     17  C   UNL     1     -16.420  -8.034  10.562  1.00  0.00     0.207 C 
BRANCH  17  18
ATOM     18  C   UNL     1     -16.413  -6.610  11.126  1.00  0.00     0.077 C 
BRANCH  18  19
ATOM     19  C   UNL     1     -17.134  -5.641  10.216  1.00  0.00    -0.043 A 
ATOM     20  C   UNL     1     -17.354  -3.424   9.257  1.00  0.00     0.083 A 
ATOM     21  C   UNL     1     -16.659  -4.330  10.059  1.00  0.00     0.028 A 
ATOM     22  C   UNL     1     -18.526  -3.820   8.611  1.00  0.00     0.134 A 
ATOM     23  C   UNL     1     -19.007  -5.116   8.757  1.00  0.00     0.048 A 
ATOM     24  C   UNL     1     -18.314  -6.024   9.560  1.00  0.00     0.008 A 
ATOM     25  Cl  UNL     1     -16.756  -1.817   9.077  1.00  0.00    -0.080 Cl
BRANCH  22  26
ATOM     26  O   UNL     1     -19.247  -2.964   7.823  1.00  0.00    -0.506 OA
ATOM     27  H   UNL     1     -19.131  -2.072   8.199  1.00  0.00     0.293 HD
ENDBRANCH  22  26
ENDBRANCH  18  19
ENDBRANCH  17  18
BRANCH  17  28
ATOM     28  O   UNL     1     -16.214  -8.971  11.631  1.00  0.00    -0.383 OA
ATOM     29  H   UNL     1     -15.247  -8.972  11.810  1.00  0.00     0.211 HD
ENDBRANCH  17  28
ENDBRANCH  14  17
ENDBRANCH  12  13
BRANCH  12  30
ATOM     30  C   UNL     1     -11.694  -9.094  10.010  1.00  0.00     0.018 C 
ATOM     31  C   UNL     1     -11.837  -8.796  11.510  1.00  0.00     0.010 C 
BRANCH  30  32
ATOM     32  C   UNL     1     -10.283  -8.688   9.519  1.00  0.00     0.002 C 
ATOM     33  C   UNL     1      -9.311  -8.263  10.612  1.00  0.00     0.004 C 
ENDBRANCH  30  32
ENDBRANCH  12  30
ENDBRANCH  10  12
ENDBRANCH   1  10
BRANCH   5  34
ATOM     34  C   UNL     1     -10.694  -7.810   5.923  1.00  0.00     0.242 C 
ATOM     35  O   UNL     1      -9.994  -6.872   6.303  1.00  0.00    -0.273 OA
ATOM     36  N   UNL     1     -10.215  -8.805   5.100  1.00  0.00    -0.354 N 
ATOM     37  H   UNL     1     -10.872  -9.488   4.721  1.00  0.00     0.163 HD
BRANCH  36  38
ATOM     38  C   UNL     1      -8.802  -8.976   4.837  1.00  0.00     0.116 C 
BRANCH  38  39
ATOM     39  C   UNL     1      -8.607  -9.762   3.542  1.00  0.00     0.023 C 
BRANCH  39  40
ATOM     40  C   UNL     1      -9.705  -9.482   2.521  1.00  0.00     0.026 C 
BRANCH  40  41
ATOM     41  C   UNL     1      -9.312  -8.320   1.608  1.00  0.00     0.146 C 
BRANCH  41  42
ATOM     42  N   UNL     1     -10.507  -7.735   1.014  1.00  0.00    -0.254 NA
ATOM     43  C   UNL     1     -10.640  -7.720  -0.259  1.00  0.00     0.185 C 
ATOM     44  N   UNL     1      -9.818  -8.181  -1.220  1.00  0.00    -0.370 N 
ATOM     45  N   UNL     1     -11.747  -7.172  -0.786  1.00  0.00    -0.370 N 
ATOM     46  H   UNL     1      -9.930  -7.886  -2.175  1.00  0.00     0.159 HD
ATOM     47  H   UNL     1      -8.940  -8.638  -0.996  1.00  0.00     0.159 HD
ATOM     48  H   UNL     1     -12.424  -6.808  -0.129  1.00  0.00     0.159 HD
ATOM     49  H   UNL     1     -12.033  -7.331  -1.736  1.00  0.00     0.159 HD
ENDBRANCH  41  42
ENDBRANCH  40  41
ENDBRANCH  39  40
ENDBRANCH  38  39
ENDBRANCH  36  38
ENDBRANCH   5  34
BRANCH   8  50
ATOM     50  O   UNL     1     -11.899  -3.379   4.717  1.00  0.00    -0.245 OA
BRANCH  50  51
ATOM     51  S   UNL     1     -10.930  -2.077   4.828  1.00  0.00     0.397 S 
ATOM     52  O   UNL     1     -11.731  -0.962   5.280  1.00  0.00    -0.169 OA
ATOM     53  O   UNL     1     -10.101  -1.987   3.645  1.00  0.00    -0.169 OA
BRANCH  51  54
ATOM     54  O   UNL     1      -9.984  -2.467   6.068  1.00  0.00    -0.264 OA
ATOM     55  H   UNL     1      -9.058  -2.460   5.751  1.00  0.00     0.236 HD
ENDBRANCH  51  54
ENDBRANCH  50  51
ENDBRANCH   8  50
TORSDOF 19
ENDMDL
MODEL 24
REMARK VINA RESULT:    -6.593     11.599     16.219
REMARK INTER + INTRA:         -16.557
REMARK INTER:                 -11.573
REMARK INTRA:                  -4.984
REMARK UNBOUND:                -3.218
REMARK SMILES CC[C@@H](C)[C@@H](NC(=O)[C@@H](O)Cc1ccc(O)c(Cl)c1)C(=O)N1[C@H](C(=O)NCCCCN=C(N)N)C[C@H]2CC[C@H](OS(=O)(=O)O)C[C@@H]21
REMARK SMILES IDX 22 1 36 2 46 3 35 4 23 5 45 6 37 7 39 8 38 9 20 10 21 11
REMARK SMILES IDX 5 12 6 13 7 14 8 15 9 17 11 18 12 19 17 20 19 21 15 22 14 23
REMARK SMILES IDX 13 24 18 25 16 26 10 28 3 30 4 31 2 32 1 33 24 34 25 35
REMARK SMILES IDX 26 36 27 38 28 39 29 40 30 41 31 42 32 43 33 44 34 45 40 50
REMARK SMILES IDX 41 51 42 52 43 53 44 54
REMARK H PARENT 6 16 16 27 10 29 26 37 33 46 33 47 34 48 34 49 44 55
ROOT
ATOM      1  N   UNL     1     -14.066  -5.284   6.296  1.00  0.00    -0.326 N 
ATOM      2  C   UNL     1     -11.810  -5.949   6.193  1.00  0.00     0.014 C 
ATOM      3  C   UNL     1     -13.243  -6.489   6.160  1.00  0.00     0.091 C 
ATOM      4  C   UNL     1     -11.915  -4.780   7.161  1.00  0.00     0.041 C 
ATOM      5  C   UNL     1     -13.213  -4.124   6.655  1.00  0.00     0.175 C 
ATOM      6  C   UNL     1     -13.409  -7.341   4.903  1.00  0.00     0.059 C 
ATOM      7  C   UNL     1     -10.818  -7.061   6.475  1.00  0.00     0.008 C 
ATOM      8  C   UNL     1     -12.117  -8.066   4.469  1.00  0.00     0.143 C 
ATOM      9  C   UNL     1     -11.169  -8.322   5.657  1.00  0.00     0.034 C 
ENDROOT
BRANCH   1  10
ATOM     10  C   UNL     1     -15.443  -5.151   6.350  1.00  0.00     0.246 C 
ATOM     11  O   UNL     1     -16.076  -5.018   5.297  1.00  0.00    -0.272 OA
BRANCH  10  12
ATOM     12  C   UNL     1     -16.167  -5.216   7.726  1.00  0.00     0.174 C 
BRANCH  12  13
ATOM     13  N   UNL     1     -15.648  -6.336   8.510  1.00  0.00    -0.342 N 
ATOM     14  C   UNL     1     -15.246  -6.262   9.825  1.00  0.00     0.249 C 
ATOM     15  O   UNL     1     -15.306  -5.242  10.500  1.00  0.00    -0.272 OA
ATOM     16  H   UNL     1     -15.396  -7.204   8.043  1.00  0.00     0.164 HD
BRANCH  14  17
ATOM     17  C   UNL     1     -14.730  -7.612  10.367  1.00  0.00     0.207 C 
BRANCH  17  18
ATOM     18  C   UNL     1     -14.153  -8.461   9.230  1.00  0.00     0.077 C 
BRANCH  18  19
ATOM     19  C   UNL     1     -12.665  -8.678   9.390  1.00  0.00    -0.043 A 
ATOM     20  C   UNL     1     -10.677 -10.004   8.974  1.00  0.00     0.083 A 
ATOM     21  C   UNL     1     -12.041  -9.779   8.783  1.00  0.00     0.028 A 
ATOM     22  C   UNL     1      -9.931  -9.136   9.771  1.00  0.00     0.134 A 
ATOM     23  C   UNL     1     -10.536  -8.042  10.378  1.00  0.00     0.048 A 
ATOM     24  C   UNL     1     -11.901  -7.815  10.191  1.00  0.00     0.008 A 
ATOM     25  Cl  UNL     1      -9.928 -11.362   8.220  1.00  0.00    -0.080 Cl
BRANCH  22  26
ATOM     26  O   UNL     1      -8.594  -9.322   9.996  1.00  0.00    -0.506 OA
ATOM     27  H   UNL     1      -8.123  -8.893   9.257  1.00  0.00     0.293 HD
ENDBRANCH  22  26
ENDBRANCH  18  19
ENDBRANCH  17  18
BRANCH  17  28
ATOM     28  O   UNL     1     -15.780  -8.342  11.021  1.00  0.00    -0.383 OA
ATOM     29  H   UNL     1     -15.615  -9.292  10.823  1.00  0.00     0.211 HD
ENDBRANCH  17  28
ENDBRANCH  14  17
ENDBRANCH  12  13
BRANCH  12  30
ATOM     30  C   UNL     1     -17.713  -5.254   7.590  1.00  0.00     0.018 C 
ATOM     31  C   UNL     1     -18.370  -4.237   8.537  1.00  0.00     0.010 C 
BRANCH  30  32
ATOM     32  C   UNL     1     -18.322  -6.659   7.813  1.00  0.00     0.002 C 
ATOM     33  C   UNL     1     -19.234  -6.789   9.026  1.00  0.00     0.004 C 
ENDBRANCH  30  32
ENDBRANCH  12  30
ENDBRANCH  10  12
ENDBRANCH   1  10
BRANCH   5  34
ATOM     34  C   UNL     1     -12.956  -3.226   5.416  1.00  0.00     0.242 C 
ATOM     35  O   UNL     1     -12.094  -2.347   5.409  1.00  0.00    -0.273 OA
ATOM     36  N   UNL     1     -13.795  -3.448   4.347  1.00  0.00    -0.354 N 
ATOM     37  H   UNL     1     -14.567  -4.107   4.457  1.00  0.00     0.163 HD
BRANCH  36  38
ATOM     38  C   UNL     1     -13.562  -2.858   3.046  1.00  0.00     0.116 C 
BRANCH  38  39
ATOM     39  C   UNL     1     -13.269  -3.954   2.024  1.00  0.00     0.023 C 
BRANCH  39  40
ATOM     40  C   UNL     1     -11.998  -3.683   1.227  1.00  0.00     0.026 C 
BRANCH  40  41
ATOM     41  C   UNL     1     -10.902  -3.115   2.129  1.00  0.00     0.146 C 
BRANCH  41  42
ATOM     42  N   UNL     1      -9.607  -3.643   1.722  1.00  0.00    -0.254 NA
ATOM     43  C   UNL     1      -8.994  -4.471   2.481  1.00  0.00     0.185 C 
ATOM     44  N   UNL     1      -9.354  -4.982   3.673  1.00  0.00    -0.370 N 
ATOM     45  N   UNL     1      -7.798  -4.943   2.091  1.00  0.00    -0.370 N 
ATOM     46  H   UNL     1      -8.675  -5.426   4.267  1.00  0.00     0.159 HD
ATOM     47  H   UNL     1     -10.238  -4.742   4.111  1.00  0.00     0.159 HD
ATOM     48  H   UNL     1      -7.457  -4.614   1.198  1.00  0.00     0.159 HD
ATOM     49  H   UNL     1      -7.374  -5.756   2.500  1.00  0.00     0.159 HD
ENDBRANCH  41  42
ENDBRANCH  40  41
ENDBRANCH  39  40
ENDBRANCH  38  39
ENDBRANCH  36  38
ENDBRANCH   5  34
BRANCH   8  50
ATOM     50  O   UNL     1     -11.422  -7.288   3.494  1.00  0.00    -0.245 OA
BRANCH  50  51
ATOM     51  S   UNL     1     -10.673  -8.032   2.257  1.00  0.00     0.397 S 
ATOM     52  O   UNL     1     -11.245  -9.352   2.118  1.00  0.00    -0.169 OA
ATOM     53  O   UNL     1      -9.242  -7.832   2.364  1.00  0.00    -0.169 OA
BRANCH  51  54
ATOM     54  O   UNL     1     -11.198  -7.191   0.991  1.00  0.00    -0.264 OA
ATOM     55  H   UNL     1     -11.401  -7.826   0.275  1.00  0.00     0.236 HD
ENDBRANCH  51  54
ENDBRANCH  50  51
ENDBRANCH   8  50
TORSDOF 19
ENDMDL
MODEL 25
REMARK VINA RESULT:    -6.585      8.115     11.565
REMARK INTER + INTRA:         -16.539
REMARK INTER:                 -11.287
REMARK INTRA:                  -5.252
REMARK UNBOUND:                -3.218
REMARK SMILES CC[C@@H](C)[C@@H](NC(=O)[C@@H](O)Cc1ccc(O)c(Cl)c1)C(=O)N1[C@H](C(=O)NCCCCN=C(N)N)C[C@H]2CC[C@H](OS(=O)(=O)O)C[C@@H]21
REMARK SMILES IDX 22 1 36 2 46 3 35 4 23 5 45 6 37 7 39 8 38 9 20 10 21 11
REMARK SMILES IDX 5 12 6 13 7 14 8 15 9 17 11 18 12 19 17 20 19 21 15 22 14 23
REMARK SMILES IDX 13 24 18 25 16 26 10 28 3 30 4 31 2 32 1 33 24 34 25 35
REMARK SMILES IDX 26 36 27 38 28 39 29 40 30 41 31 42 32 43 33 44 34 45 40 50
REMARK SMILES IDX 41 51 42 52 43 53 44 54
REMARK H PARENT 6 16 16 27 10 29 26 37 33 46 33 47 34 48 34 49 44 55
ROOT
ATOM      1  N   UNL     1     -11.735   1.716  -0.195  1.00  0.00    -0.326 N 
ATOM      2  C   UNL     1     -11.531   0.326  -2.084  1.00  0.00     0.014 C 
ATOM      3  C   UNL     1     -10.972   1.598  -1.441  1.00  0.00     0.091 C 
ATOM      4  C   UNL     1     -12.997   0.362  -1.679  1.00  0.00     0.041 C 
ATOM      5  C   UNL     1     -12.860   0.748  -0.195  1.00  0.00     0.175 C 
ATOM      6  C   UNL     1      -9.453   1.467  -1.351  1.00  0.00     0.059 C 
ATOM      7  C   UNL     1     -11.167   0.256  -3.554  1.00  0.00     0.008 C 
ATOM      8  C   UNL     1      -8.832   0.636  -2.494  1.00  0.00     0.143 C 
ATOM      9  C   UNL     1      -9.696   0.670  -3.771  1.00  0.00     0.034 C 
ENDROOT
BRANCH   1  10
ATOM     10  C   UNL     1     -11.678   2.685   0.792  1.00  0.00     0.246 C 
ATOM     11  O   UNL     1     -12.710   3.293   1.098  1.00  0.00    -0.272 OA
BRANCH  10  12
ATOM     12  C   UNL     1     -10.332   2.957   1.524  1.00  0.00     0.174 C 
BRANCH  12  13
ATOM     13  N   UNL     1     -10.188   2.046   2.659  1.00  0.00    -0.342 N 
ATOM     14  C   UNL     1      -9.185   1.113   2.802  1.00  0.00     0.249 C 
ATOM     15  O   UNL     1      -8.275   0.962   1.996  1.00  0.00    -0.272 OA
ATOM     16  H   UNL     1     -10.950   1.947   3.325  1.00  0.00     0.164 HD
BRANCH  14  17
ATOM     17  C   UNL     1      -9.318   0.290   4.101  1.00  0.00     0.207 C 
BRANCH  17  18
ATOM     18  C   UNL     1     -10.786   0.200   4.530  1.00  0.00     0.077 C 
BRANCH  18  19
ATOM     19  C   UNL     1     -11.209  -1.229   4.786  1.00  0.00    -0.043 A 
ATOM     20  C   UNL     1     -12.879  -2.828   5.521  1.00  0.00     0.083 A 
ATOM     21  C   UNL     1     -12.507  -1.513   5.239  1.00  0.00     0.028 A 
ATOM     22  C   UNL     1     -11.959  -3.864   5.356  1.00  0.00     0.134 A 
ATOM     23  C   UNL     1     -10.671  -3.597   4.909  1.00  0.00     0.048 A 
ATOM     24  C   UNL     1     -10.295  -2.282   4.627  1.00  0.00     0.008 A 
ATOM     25  Cl  UNL     1     -14.478  -3.157   6.077  1.00  0.00    -0.080 Cl
BRANCH  22  26
ATOM     26  O   UNL     1     -12.275  -5.168   5.631  1.00  0.00    -0.506 OA
ATOM     27  H   UNL     1     -11.475  -5.575   6.012  1.00  0.00     0.293 HD
ENDBRANCH  22  26
ENDBRANCH  18  19
ENDBRANCH  17  18
BRANCH  17  28
ATOM     28  O   UNL     1      -8.546   0.873   5.163  1.00  0.00    -0.383 OA
ATOM     29  H   UNL     1      -7.950   1.531   4.738  1.00  0.00     0.211 HD
ENDBRANCH  17  28
ENDBRANCH  14  17
ENDBRANCH  12  13
BRANCH  12  30
ATOM     30  C   UNL     1     -10.161   4.444   1.933  1.00  0.00     0.018 C 
ATOM     31  C   UNL     1      -8.958   5.074   1.215  1.00  0.00     0.010 C 
BRANCH  30  32
ATOM     32  C   UNL     1     -10.040   4.659   3.462  1.00  0.00     0.002 C 
ATOM     33  C   UNL     1     -11.333   5.040   4.171  1.00  0.00     0.004 C 
ENDBRANCH  30  32
ENDBRANCH  12  30
ENDBRANCH  10  12
ENDBRANCH   1  10
BRANCH   5  34
ATOM     34  C   UNL     1     -12.526  -0.483   0.688  1.00  0.00     0.242 C 
ATOM     35  O   UNL     1     -11.400  -0.680   1.144  1.00  0.00    -0.273 OA
ATOM     36  N   UNL     1     -13.566  -1.366   0.880  1.00  0.00    -0.354 N 
ATOM     37  H   UNL     1     -14.441  -1.210   0.378  1.00  0.00     0.163 HD
BRANCH  36  38
ATOM     38  C   UNL     1     -13.496  -2.445   1.843  1.00  0.00     0.116 C 
BRANCH  38  39
ATOM     39  C   UNL     1     -13.374  -3.782   1.115  1.00  0.00     0.023 C 
BRANCH  39  40
ATOM     40  C   UNL     1     -12.294  -4.676   1.715  1.00  0.00     0.026 C 
BRANCH  40  41
ATOM     41  C   UNL     1     -11.372  -5.218   0.624  1.00  0.00     0.146 C 
BRANCH  41  42
ATOM     42  N   UNL     1     -10.054  -4.608   0.744  1.00  0.00    -0.254 NA
ATOM     43  C   UNL     1      -9.750  -3.606   0.007  1.00  0.00     0.185 C 
ATOM     44  N   UNL     1     -10.478  -2.966  -0.925  1.00  0.00    -0.370 N 
ATOM     45  N   UNL     1      -8.529  -3.061   0.131  1.00  0.00    -0.370 N 
ATOM     46  H   UNL     1     -10.036  -2.359  -1.594  1.00  0.00     0.159 HD
ATOM     47  H   UNL     1     -11.433  -3.240  -1.138  1.00  0.00     0.159 HD
ATOM     48  H   UNL     1      -7.919  -3.479   0.820  1.00  0.00     0.159 HD
ATOM     49  H   UNL     1      -8.301  -2.150  -0.226  1.00  0.00     0.159 HD
ENDBRANCH  41  42
ENDBRANCH  40  41
ENDBRANCH  39  40
ENDBRANCH  38  39
ENDBRANCH  36  38
ENDBRANCH   5  34
BRANCH   8  50
ATOM     50  O   UNL     1      -8.680  -0.724  -2.086  1.00  0.00    -0.245 OA
BRANCH  50  51
ATOM     51  S   UNL     1      -7.385  -1.573  -2.585  1.00  0.00     0.397 S 
ATOM     52  O   UNL     1      -6.685  -0.780  -3.570  1.00  0.00    -0.169 OA
ATOM     53  O   UNL     1      -7.774  -2.943  -2.848  1.00  0.00    -0.169 OA
BRANCH  51  54
ATOM     54  O   UNL     1      -6.454  -1.564  -1.274  1.00  0.00    -0.264 OA
ATOM     55  H   UNL     1      -5.774  -2.260  -1.386  1.00  0.00     0.236 HD
ENDBRANCH  51  54
ENDBRANCH  50  51
ENDBRANCH   8  50
TORSDOF 19
ENDMDL
MODEL 26
REMARK VINA RESULT:    -6.576     13.224     17.943
REMARK INTER + INTRA:         -16.522
REMARK INTER:                 -12.097
REMARK INTRA:                  -4.426
REMARK UNBOUND:                -3.218
REMARK SMILES CC[C@@H](C)[C@@H](NC(=O)[C@@H](O)Cc1ccc(O)c(Cl)c1)C(=O)N1[C@H](C(=O)NCCCCN=C(N)N)C[C@H]2CC[C@H](OS(=O)(=O)O)C[C@@H]21
REMARK SMILES IDX 22 1 36 2 46 3 35 4 23 5 45 6 37 7 39 8 38 9 20 10 21 11
REMARK SMILES IDX 5 12 6 13 7 14 8 15 9 17 11 18 12 19 17 20 19 21 15 22 14 23
REMARK SMILES IDX 13 24 18 25 16 26 10 28 3 30 4 31 2 32 1 33 24 34 25 35
REMARK SMILES IDX 26 36 27 38 28 39 29 40 30 41 31 42 32 43 33 44 34 45 40 50
REMARK SMILES IDX 41 51 42 52 43 53 44 54
REMARK H PARENT 6 16 16 27 10 29 26 37 33 46 33 47 34 48 34 49 44 55
ROOT
ATOM      1  N   UNL     1     -12.490  -7.648   8.326  1.00  0.00    -0.326 N 
ATOM      2  C   UNL     1     -12.430  -7.048   6.050  1.00  0.00     0.014 C 
ATOM      3  C   UNL     1     -12.833  -6.535   7.436  1.00  0.00     0.091 C 
ATOM      4  C   UNL     1     -12.740  -8.534   6.139  1.00  0.00     0.041 C 
ATOM      5  C   UNL     1     -12.153  -8.852   7.527  1.00  0.00     0.175 C 
ATOM      6  C   UNL     1     -12.155  -5.186   7.668  1.00  0.00     0.059 C 
ATOM      7  C   UNL     1     -13.073  -6.218   4.957  1.00  0.00     0.008 C 
ATOM      8  C   UNL     1     -11.954  -4.361   6.378  1.00  0.00     0.143 C 
ATOM      9  C   UNL     1     -12.995  -4.715   5.296  1.00  0.00     0.034 C 
ENDROOT
BRANCH   1  10
ATOM     10  C   UNL     1     -12.646  -7.769   9.696  1.00  0.00     0.246 C 
ATOM     11  O   UNL     1     -11.971  -7.055  10.444  1.00  0.00    -0.272 OA
BRANCH  10  12
ATOM     12  C   UNL     1     -13.697  -8.768  10.262  1.00  0.00     0.174 C 
BRANCH  12  13
ATOM     13  N   UNL     1     -14.910  -8.050  10.650  1.00  0.00    -0.342 N 
ATOM     14  C   UNL     1     -15.959  -7.758   9.808  1.00  0.00     0.249 C 
ATOM     15  O   UNL     1     -16.005  -8.097   8.632  1.00  0.00    -0.272 OA
ATOM     16  H   UNL     1     -14.947  -7.572  11.547  1.00  0.00     0.164 HD
BRANCH  14  17
ATOM     17  C   UNL     1     -17.087  -6.973  10.512  1.00  0.00     0.207 C 
BRANCH  17  18
ATOM     18  C   UNL     1     -16.605  -5.569  10.893  1.00  0.00     0.077 C 
BRANCH  18  19
ATOM     19  C   UNL     1     -16.654  -4.620   9.716  1.00  0.00    -0.043 A 
ATOM     20  C   UNL     1     -17.893  -3.093   8.296  1.00  0.00     0.083 A 
ATOM     21  C   UNL     1     -17.837  -3.930   9.411  1.00  0.00     0.028 A 
ATOM     22  C   UNL     1     -16.771  -2.941   7.481  1.00  0.00     0.134 A 
ATOM     23  C   UNL     1     -15.593  -3.618   7.771  1.00  0.00     0.048 A 
ATOM     24  C   UNL     1     -15.534  -4.458   8.885  1.00  0.00     0.008 A 
ATOM     25  Cl  UNL     1     -19.356  -2.254   7.938  1.00  0.00    -0.080 Cl
BRANCH  22  26
ATOM     26  O   UNL     1     -16.781  -2.140   6.371  1.00  0.00    -0.506 OA
ATOM     27  H   UNL     1     -16.731  -1.220   6.690  1.00  0.00     0.293 HD
ENDBRANCH  22  26
ENDBRANCH  18  19
ENDBRANCH  17  18
BRANCH  17  28
ATOM     28  O   UNL     1     -17.537  -7.659  11.691  1.00  0.00    -0.383 OA
ATOM     29  H   UNL     1     -18.189  -7.061  12.121  1.00  0.00     0.211 HD
ENDBRANCH  17  28
ENDBRANCH  14  17
ENDBRANCH  12  13
BRANCH  12  30
ATOM     30  C   UNL     1     -13.133  -9.643  11.414  1.00  0.00     0.018 C 
ATOM     31  C   UNL     1     -11.977 -10.524  10.914  1.00  0.00     0.010 C 
BRANCH  30  32
ATOM     32  C   UNL     1     -14.203 -10.517  12.112  1.00  0.00     0.002 C 
ATOM     33  C   UNL     1     -13.798 -11.962  12.369  1.00  0.00     0.004 C 
ENDBRANCH  30  32
ENDBRANCH  12  30
ENDBRANCH  10  12
ENDBRANCH   1  10
BRANCH   5  34
ATOM     34  C   UNL     1     -10.616  -9.058   7.464  1.00  0.00     0.242 C 
ATOM     35  O   UNL     1      -9.833  -8.379   8.128  1.00  0.00    -0.273 OA
ATOM     36  N   UNL     1     -10.190 -10.017   6.572  1.00  0.00    -0.354 N 
ATOM     37  H   UNL     1     -10.877 -10.462   5.963  1.00  0.00     0.163 HD
BRANCH  36  38
ATOM     38  C   UNL     1      -8.821 -10.488   6.539  1.00  0.00     0.116 C 
BRANCH  38  39
ATOM     39  C   UNL     1      -8.196 -10.173   5.182  1.00  0.00     0.023 C 
BRANCH  39  40
ATOM     40  C   UNL     1      -6.798  -9.579   5.308  1.00  0.00     0.026 C 
BRANCH  40  41
ATOM     41  C   UNL     1      -6.742  -8.184   4.684  1.00  0.00     0.146 C 
BRANCH  41  42
ATOM     42  N   UNL     1      -6.276  -7.220   5.672  1.00  0.00    -0.254 NA
ATOM     43  C   UNL     1      -7.126  -6.517   6.320  1.00  0.00     0.185 C 
ATOM     44  N   UNL     1      -8.469  -6.503   6.253  1.00  0.00    -0.370 N 
ATOM     45  N   UNL     1      -6.675  -5.631   7.224  1.00  0.00    -0.370 N 
ATOM     46  H   UNL     1      -8.995  -5.736   6.637  1.00  0.00     0.159 HD
ATOM     47  H   UNL     1      -8.978  -7.123   5.629  1.00  0.00     0.159 HD
ATOM     48  H   UNL     1      -5.672  -5.583   7.343  1.00  0.00     0.159 HD
ATOM     49  H   UNL     1      -7.265  -5.223   7.927  1.00  0.00     0.159 HD
ENDBRANCH  41  42
ENDBRANCH  40  41
ENDBRANCH  39  40
ENDBRANCH  38  39
ENDBRANCH  36  38
ENDBRANCH   5  34
BRANCH   8  50
ATOM     50  O   UNL     1     -10.649  -4.595   5.845  1.00  0.00    -0.245 OA
BRANCH  50  51
ATOM     51  S   UNL     1      -9.491  -3.468   6.035  1.00  0.00     0.397 S 
ATOM     52  O   UNL     1      -8.608  -3.539   4.893  1.00  0.00    -0.169 OA
ATOM     53  O   UNL     1      -8.985  -3.515   7.391  1.00  0.00    -0.169 OA
BRANCH  51  54
ATOM     54  O   UNL     1     -10.321  -2.102   5.863  1.00  0.00    -0.264 OA
ATOM     55  H   UNL     1     -10.534  -1.767   6.758  1.00  0.00     0.236 HD
ENDBRANCH  51  54
ENDBRANCH  50  51
ENDBRANCH   8  50
TORSDOF 19
ENDMDL
MODEL 27
REMARK VINA RESULT:    -6.553      3.703      7.985
REMARK INTER + INTRA:         -16.475
REMARK INTER:                 -12.848
REMARK INTRA:                  -3.627
REMARK UNBOUND:                -3.218
REMARK SMILES CC[C@@H](C)[C@@H](NC(=O)[C@@H](O)Cc1ccc(O)c(Cl)c1)C(=O)N1[C@H](C(=O)NCCCCN=C(N)N)C[C@H]2CC[C@H](OS(=O)(=O)O)C[C@@H]21
REMARK SMILES IDX 22 1 36 2 46 3 35 4 23 5 45 6 37 7 39 8 38 9 20 10 21 11
REMARK SMILES IDX 5 12 6 13 7 14 8 15 9 17 11 18 12 19 17 20 19 21 15 22 14 23
REMARK SMILES IDX 13 24 18 25 16 26 10 28 3 30 4 31 2 32 1 33 24 34 25 35
REMARK SMILES IDX 26 36 27 38 28 39 29 40 30 41 31 42 32 43 33 44 34 45 40 50
REMARK SMILES IDX 41 51 42 52 43 53 44 54
REMARK H PARENT 6 16 16 27 10 29 26 37 33 46 33 47 34 48 34 49 44 55
ROOT
ATOM      1  N   UNL     1      -8.607  -2.466  -4.986  1.00  0.00    -0.326 N 
ATOM      2  C   UNL     1      -8.713  -0.175  -4.453  1.00  0.00     0.014 C 
ATOM      3  C   UNL     1      -9.197  -1.555  -4.000  1.00  0.00     0.091 C 
ATOM      4  C   UNL     1      -8.693  -0.308  -5.968  1.00  0.00     0.041 C 
ATOM      5  C   UNL     1      -8.030  -1.690  -6.111  1.00  0.00     0.175 C 
ATOM      6  C   UNL     1      -8.824  -1.739  -2.530  1.00  0.00     0.059 C 
ATOM      7  C   UNL     1      -9.538   0.925  -3.815  1.00  0.00     0.008 C 
ATOM      8  C   UNL     1      -8.826  -0.425  -1.719  1.00  0.00     0.143 C 
ATOM      9  C   UNL     1      -9.782   0.625  -2.321  1.00  0.00     0.034 C 
ENDROOT
BRANCH   1  10
ATOM     10  C   UNL     1      -8.713  -3.841  -5.098  1.00  0.00     0.246 C 
ATOM     11  O   UNL     1      -9.729  -4.326  -5.608  1.00  0.00    -0.272 OA
BRANCH  10  12
ATOM     12  C   UNL     1      -7.538  -4.743  -4.622  1.00  0.00     0.174 C 
BRANCH  12  13
ATOM     13  N   UNL     1      -7.228  -5.741  -5.645  1.00  0.00    -0.342 N 
ATOM     14  C   UNL     1      -6.065  -5.784  -6.380  1.00  0.00     0.249 C 
ATOM     15  O   UNL     1      -5.138  -4.997  -6.237  1.00  0.00    -0.272 OA
ATOM     16  H   UNL     1      -7.961  -6.360  -5.982  1.00  0.00     0.164 HD
BRANCH  14  17
ATOM     17  C   UNL     1      -6.045  -6.948  -7.394  1.00  0.00     0.207 C 
BRANCH  17  18
ATOM     18  C   UNL     1      -7.221  -6.830  -8.369  1.00  0.00     0.077 C 
BRANCH  18  19
ATOM     19  C   UNL     1      -7.318  -5.444  -8.967  1.00  0.00    -0.043 A 
ATOM     20  C   UNL     1      -8.589  -3.422  -9.393  1.00  0.00     0.083 A 
ATOM     21  C   UNL     1      -8.484  -4.680  -8.798  1.00  0.00     0.028 A 
ATOM     22  C   UNL     1      -7.536  -2.921 -10.158  1.00  0.00     0.134 A 
ATOM     23  C   UNL     1      -6.376  -3.667 -10.334  1.00  0.00     0.048 A 
ATOM     24  C   UNL     1      -6.268  -4.927  -9.741  1.00  0.00     0.008 A 
ATOM     25  Cl  UNL     1     -10.029  -2.499  -9.174  1.00  0.00    -0.080 Cl
BRANCH  22  26
ATOM     26  O   UNL     1      -7.598  -1.698 -10.769  1.00  0.00    -0.506 OA
ATOM     27  H   UNL     1      -8.415  -1.691 -11.300  1.00  0.00     0.293 HD
ENDBRANCH  22  26
ENDBRANCH  18  19
ENDBRANCH  17  18
BRANCH  17  28
ATOM     28  O   UNL     1      -6.106  -8.218  -6.726  1.00  0.00    -0.383 OA
ATOM     29  H   UNL     1      -5.391  -8.203  -6.049  1.00  0.00     0.211 HD
ENDBRANCH  17  28
ENDBRANCH  14  17
ENDBRANCH  12  13
BRANCH  12  30
ATOM     30  C   UNL     1      -7.797  -5.381  -3.230  1.00  0.00     0.018 C 
ATOM     31  C   UNL     1      -6.513  -5.392  -2.387  1.00  0.00     0.010 C 
BRANCH  30  32
ATOM     32  C   UNL     1      -8.399  -6.806  -3.303  1.00  0.00     0.002 C 
ATOM     33  C   UNL     1      -7.516  -7.914  -2.744  1.00  0.00     0.004 C 
ENDBRANCH  30  32
ENDBRANCH  12  30
ENDBRANCH  10  12
ENDBRANCH   1  10
BRANCH   5  34
ATOM     34  C   UNL     1      -6.486  -1.600  -5.982  1.00  0.00     0.242 C 
ATOM     35  O   UNL     1      -5.936  -1.098  -5.002  1.00  0.00    -0.273 OA
ATOM     36  N   UNL     1      -5.779  -2.071  -7.066  1.00  0.00    -0.354 N 
ATOM     37  H   UNL     1      -6.292  -2.364  -7.898  1.00  0.00     0.163 HD
BRANCH  36  38
ATOM     38  C   UNL     1      -4.344  -2.262  -7.029  1.00  0.00     0.116 C 
BRANCH  38  39
ATOM     39  C   UNL     1      -3.689  -1.496  -8.176  1.00  0.00     0.023 C 
BRANCH  39  40
ATOM     40  C   UNL     1      -4.241  -0.082  -8.321  1.00  0.00     0.026 C 
BRANCH  40  41
ATOM     41  C   UNL     1      -4.462   0.265  -9.793  1.00  0.00     0.146 C 
BRANCH  41  42
ATOM     42  N   UNL     1      -3.808  -0.727 -10.637  1.00  0.00    -0.254 NA
ATOM     43  C   UNL     1      -4.279  -0.978 -11.800  1.00  0.00     0.185 C 
ATOM     44  N   UNL     1      -5.345  -0.455 -12.434  1.00  0.00    -0.370 N 
ATOM     45  N   UNL     1      -3.665  -1.899 -12.561  1.00  0.00    -0.370 N 
ATOM     46  H   UNL     1      -5.741  -0.914 -13.236  1.00  0.00     0.159 HD
ATOM     47  H   UNL     1      -5.917   0.267 -12.008  1.00  0.00     0.159 HD
ATOM     48  H   UNL     1      -2.846  -2.336 -12.160  1.00  0.00     0.159 HD
ATOM     49  H   UNL     1      -3.821  -1.980 -13.550  1.00  0.00     0.159 HD
ENDBRANCH  41  42
ENDBRANCH  40  41
ENDBRANCH  39  40
ENDBRANCH  38  39
ENDBRANCH  36  38
ENDBRANCH   5  34
BRANCH   8  50
ATOM     50  O   UNL     1      -7.511   0.129  -1.681  1.00  0.00    -0.245 OA
BRANCH  50  51
ATOM     51  S   UNL     1      -6.935   0.733  -0.284  1.00  0.00     0.397 S 
ATOM     52  O   UNL     1      -5.642   0.134  -0.038  1.00  0.00    -0.169 OA
ATOM     53  O   UNL     1      -7.980   0.722   0.718  1.00  0.00    -0.169 OA
BRANCH  51  54
ATOM     54  O   UNL     1      -6.640   2.264  -0.677  1.00  0.00    -0.264 OA
ATOM     55  H   UNL     1      -7.500   2.701  -0.840  1.00  0.00     0.236 HD
ENDBRANCH  51  54
ENDBRANCH  50  51
ENDBRANCH   8  50
TORSDOF 19
ENDMDL
MODEL 28
REMARK VINA RESULT:    -6.542     12.999     17.034
REMARK INTER + INTRA:         -16.453
REMARK INTER:                 -12.947
REMARK INTRA:                  -3.506
REMARK UNBOUND:                -3.218
REMARK SMILES CC[C@@H](C)[C@@H](NC(=O)[C@@H](O)Cc1ccc(O)c(Cl)c1)C(=O)N1[C@H](C(=O)NCCCCN=C(N)N)C[C@H]2CC[C@H](OS(=O)(=O)O)C[C@@H]21
REMARK SMILES IDX 22 1 36 2 46 3 35 4 23 5 45 6 37 7 39 8 38 9 20 10 21 11
REMARK SMILES IDX 5 12 6 13 7 14 8 15 9 17 11 18 12 19 17 20 19 21 15 22 14 23
REMARK SMILES IDX 13 24 18 25 16 26 10 28 3 30 4 31 2 32 1 33 24 34 25 35
REMARK SMILES IDX 26 36 27 38 28 39 29 40 30 41 31 42 32 43 33 44 34 45 40 50
REMARK SMILES IDX 41 51 42 52 43 53 44 54
REMARK H PARENT 6 16 16 27 10 29 26 37 33 46 33 47 34 48 34 49 44 55
ROOT
ATOM      1  N   UNL     1     -11.428  -5.967   7.151  1.00  0.00    -0.326 N 
ATOM      2  C   UNL     1     -12.700  -7.930   6.889  1.00  0.00     0.014 C 
ATOM      3  C   UNL     1     -11.296  -7.425   7.231  1.00  0.00     0.091 C 
ATOM      4  C   UNL     1     -13.181  -6.914   5.864  1.00  0.00     0.041 C 
ATOM      5  C   UNL     1     -12.734  -5.607   6.546  1.00  0.00     0.175 C 
ATOM      6  C   UNL     1     -10.872  -8.042   8.563  1.00  0.00     0.059 C 
ATOM      7  C   UNL     1     -12.673  -9.400   6.521  1.00  0.00     0.008 C 
ATOM      8  C   UNL     1     -11.455  -9.450   8.809  1.00  0.00     0.143 C 
ATOM      9  C   UNL     1     -11.765 -10.187   7.490  1.00  0.00     0.034 C 
ENDROOT
BRANCH   1  10
ATOM     10  C   UNL     1     -10.478  -4.978   7.343  1.00  0.00     0.246 C 
ATOM     11  O   UNL     1     -10.113  -4.710   8.492  1.00  0.00    -0.272 OA
BRANCH  10  12
ATOM     12  C   UNL     1      -9.860  -4.258   6.109  1.00  0.00     0.174 C 
BRANCH  12  13
ATOM     13  N   UNL     1     -10.783  -3.237   5.614  1.00  0.00    -0.342 N 
ATOM     14  C   UNL     1     -10.414  -1.987   5.170  1.00  0.00     0.249 C 
ATOM     15  O   UNL     1      -9.254  -1.599   5.113  1.00  0.00    -0.272 OA
ATOM     16  H   UNL     1     -11.784  -3.356   5.746  1.00  0.00     0.164 HD
BRANCH  14  17
ATOM     17  C   UNL     1     -11.620  -1.132   4.728  1.00  0.00     0.207 C 
BRANCH  17  18
ATOM     18  C   UNL     1     -11.153   0.062   3.890  1.00  0.00     0.077 C 
BRANCH  18  19
ATOM     19  C   UNL     1     -11.297   1.367   4.641  1.00  0.00    -0.043 A 
ATOM     20  C   UNL     1     -12.503   3.428   5.062  1.00  0.00     0.083 A 
ATOM     21  C   UNL     1     -12.399   2.203   4.404  1.00  0.00     0.028 A 
ATOM     22  C   UNL     1     -11.510   3.827   5.957  1.00  0.00     0.134 A 
ATOM     23  C   UNL     1     -10.413   3.009   6.202  1.00  0.00     0.048 A 
ATOM     24  C   UNL     1     -10.305   1.782   5.543  1.00  0.00     0.008 A 
ATOM     25  Cl  UNL     1     -13.865   4.442   4.757  1.00  0.00    -0.080 Cl
BRANCH  22  26
ATOM     26  O   UNL     1     -11.564   5.025   6.618  1.00  0.00    -0.506 OA
ATOM     27  H   UNL     1     -11.802   4.824   7.542  1.00  0.00     0.293 HD
ENDBRANCH  22  26
ENDBRANCH  18  19
ENDBRANCH  17  18
BRANCH  17  28
ATOM     28  O   UNL     1     -12.361  -0.656   5.864  1.00  0.00    -0.383 OA
ATOM     29  H   UNL     1     -12.246   0.321   5.873  1.00  0.00     0.211 HD
ENDBRANCH  17  28
ENDBRANCH  14  17
ENDBRANCH  12  13
BRANCH  12  30
ATOM     30  C   UNL     1      -9.419  -5.247   4.996  1.00  0.00     0.018 C 
ATOM     31  C   UNL     1      -7.962  -4.987   4.581  1.00  0.00     0.010 C 
BRANCH  30  32
ATOM     32  C   UNL     1     -10.338  -5.231   3.750  1.00  0.00     0.002 C 
ATOM     33  C   UNL     1     -10.693  -6.601   3.186  1.00  0.00     0.004 C 
ENDBRANCH  30  32
ENDBRANCH  12  30
ENDBRANCH  10  12
ENDBRANCH   1  10
BRANCH   5  34
ATOM     34  C   UNL     1     -13.741  -5.157   7.637  1.00  0.00     0.242 C 
ATOM     35  O   UNL     1     -13.554  -5.375   8.834  1.00  0.00    -0.273 OA
ATOM     36  N   UNL     1     -14.881  -4.546   7.166  1.00  0.00    -0.354 N 
ATOM     37  H   UNL     1     -15.034  -4.502   6.158  1.00  0.00     0.163 HD
BRANCH  36  38
ATOM     38  C   UNL     1     -15.818  -3.876   8.043  1.00  0.00     0.116 C 
BRANCH  38  39
ATOM     39  C   UNL     1     -17.091  -4.708   8.176  1.00  0.00     0.023 C 
BRANCH  39  40
ATOM     40  C   UNL     1     -17.591  -4.784   9.614  1.00  0.00     0.026 C 
BRANCH  40  41
ATOM     41  C   UNL     1     -16.472  -5.231  10.554  1.00  0.00     0.146 C 
BRANCH  41  42
ATOM     42  N   UNL     1     -16.804  -6.525  11.135  1.00  0.00    -0.254 NA
ATOM     43  C   UNL     1     -16.207  -7.578  10.719  1.00  0.00     0.185 C 
ATOM     44  N   UNL     1     -15.257  -7.719   9.776  1.00  0.00    -0.370 N 
ATOM     45  N   UNL     1     -16.530  -8.762  11.264  1.00  0.00    -0.370 N 
ATOM     46  H   UNL     1     -15.055  -8.622   9.383  1.00  0.00     0.159 HD
ATOM     47  H   UNL     1     -14.885  -6.920   9.271  1.00  0.00     0.159 HD
ATOM     48  H   UNL     1     -17.233  -8.744  11.991  1.00  0.00     0.159 HD
ATOM     49  H   UNL     1     -15.956  -9.580  11.169  1.00  0.00     0.159 HD
ENDBRANCH  41  42
ENDBRANCH  40  41
ENDBRANCH  39  40
ENDBRANCH  38  39
ENDBRANCH  36  38
ENDBRANCH   5  34
BRANCH   8  50
ATOM     50  O   UNL     1     -12.659  -9.357   9.570  1.00  0.00    -0.245 OA
BRANCH  50  51
ATOM     51  S   UNL     1     -12.690  -9.922  11.095  1.00  0.00     0.397 S 
ATOM     52  O   UNL     1     -14.058 -10.262  11.417  1.00  0.00    -0.169 OA
ATOM     53  O   UNL     1     -11.901  -9.059  11.949  1.00  0.00    -0.169 OA
BRANCH  51  54
ATOM     54  O   UNL     1     -11.913 -11.322  10.951  1.00  0.00    -0.264 OA
ATOM     55  H   UNL     1     -10.953 -11.136  11.000  1.00  0.00     0.236 HD
ENDBRANCH  51  54
ENDBRANCH  50  51
ENDBRANCH   8  50
TORSDOF 19
ENDMDL
MODEL 29
REMARK VINA RESULT:    -6.541     10.506     15.077
REMARK INTER + INTRA:         -16.451
REMARK INTER:                 -12.234
REMARK INTRA:                  -4.217
REMARK UNBOUND:                -3.218
REMARK SMILES CC[C@@H](C)[C@@H](NC(=O)[C@@H](O)Cc1ccc(O)c(Cl)c1)C(=O)N1[C@H](C(=O)NCCCCN=C(N)N)C[C@H]2CC[C@H](OS(=O)(=O)O)C[C@@H]21
REMARK SMILES IDX 22 1 36 2 46 3 35 4 23 5 45 6 37 7 39 8 38 9 20 10 21 11
REMARK SMILES IDX 5 12 6 13 7 14 8 15 9 17 11 18 12 19 17 20 19 21 15 22 14 23
REMARK SMILES IDX 13 24 18 25 16 26 10 28 3 30 4 31 2 32 1 33 24 34 25 35
REMARK SMILES IDX 26 36 27 38 28 39 29 40 30 41 31 42 32 43 33 44 34 45 40 50
REMARK SMILES IDX 41 51 42 52 43 53 44 54
REMARK H PARENT 6 16 16 27 10 29 26 37 33 46 33 47 34 48 34 49 44 55
ROOT
ATOM      1  N   UNL     1      -9.366  -6.539   4.559  1.00  0.00    -0.326 N 
ATOM      2  C   UNL     1      -7.908  -6.023   2.784  1.00  0.00     0.014 C 
ATOM      3  C   UNL     1      -8.758  -7.152   3.374  1.00  0.00     0.091 C 
ATOM      4  C   UNL     1      -7.426  -5.284   4.023  1.00  0.00     0.041 C 
ATOM      5  C   UNL     1      -8.735  -5.224   4.831  1.00  0.00     0.175 C 
ATOM      6  C   UNL     1      -9.681  -7.685   2.280  1.00  0.00     0.059 C 
ATOM      7  C   UNL     1      -6.891  -6.568   1.800  1.00  0.00     0.008 C 
ATOM      8  C   UNL     1      -9.076  -7.601   0.862  1.00  0.00     0.143 C 
ATOM      9  C   UNL     1      -7.534  -7.633   0.887  1.00  0.00     0.034 C 
ENDROOT
BRANCH   1  10
ATOM     10  C   UNL     1     -10.221  -7.086   5.501  1.00  0.00     0.246 C 
ATOM     11  O   UNL     1      -9.776  -7.903   6.314  1.00  0.00    -0.272 OA
BRANCH  10  12
ATOM     12  C   UNL     1     -11.708  -6.629   5.545  1.00  0.00     0.174 C 
BRANCH  12  13
ATOM     13  N   UNL     1     -12.262  -6.862   6.878  1.00  0.00    -0.342 N 
ATOM     14  C   UNL     1     -12.136  -6.005   7.948  1.00  0.00     0.249 C 
ATOM     15  O   UNL     1     -11.562  -4.925   7.892  1.00  0.00    -0.272 OA
ATOM     16  H   UNL     1     -12.627  -7.781   7.118  1.00  0.00     0.164 HD
BRANCH  14  17
ATOM     17  C   UNL     1     -12.817  -6.542   9.225  1.00  0.00     0.207 C 
BRANCH  17  18
ATOM     18  C   UNL     1     -13.996  -5.647   9.620  1.00  0.00     0.077 C 
BRANCH  18  19
ATOM     19  C   UNL     1     -15.238  -6.456   9.921  1.00  0.00    -0.043 A 
ATOM     20  C   UNL     1     -17.644  -6.740   9.795  1.00  0.00     0.083 A 
ATOM     21  C   UNL     1     -16.494  -6.017   9.473  1.00  0.00     0.028 A 
ATOM     22  C   UNL     1     -17.547  -7.899  10.565  1.00  0.00     0.134 A 
ATOM     23  C   UNL     1     -16.310  -8.345  11.015  1.00  0.00     0.048 A 
ATOM     24  C   UNL     1     -15.157  -7.623  10.696  1.00  0.00     0.008 A 
ATOM     25  Cl  UNL     1     -19.178  -6.185   9.236  1.00  0.00    -0.080 Cl
BRANCH  22  26
ATOM     26  O   UNL     1     -18.648  -8.635  10.915  1.00  0.00    -0.506 OA
ATOM     27  H   UNL     1     -18.352  -9.560  10.995  1.00  0.00     0.293 HD
ENDBRANCH  22  26
ENDBRANCH  18  19
ENDBRANCH  17  18
BRANCH  17  28
ATOM     28  O   UNL     1     -11.885  -6.612  10.317  1.00  0.00    -0.383 OA
ATOM     29  H   UNL     1     -11.602  -7.553  10.373  1.00  0.00     0.211 HD
ENDBRANCH  17  28
ENDBRANCH  14  17
ENDBRANCH  12  13
BRANCH  12  30
ATOM     30  C   UNL     1     -12.567  -7.274   4.425  1.00  0.00     0.018 C 
ATOM     31  C   UNL     1     -13.800  -6.410   4.116  1.00  0.00     0.010 C 
BRANCH  30  32
ATOM     32  C   UNL     1     -13.000  -8.728   4.733  1.00  0.00     0.002 C 
ATOM     33  C   UNL     1     -12.221  -9.810   3.997  1.00  0.00     0.004 C 
ENDBRANCH  30  32
ENDBRANCH  12  30
ENDBRANCH  10  12
ENDBRANCH   1  10
BRANCH   5  34
ATOM     34  C   UNL     1      -9.650  -4.065   4.354  1.00  0.00     0.242 C 
ATOM     35  O   UNL     1      -9.781  -3.778   3.164  1.00  0.00    -0.273 OA
ATOM     36  N   UNL     1     -10.260  -3.348   5.359  1.00  0.00    -0.354 N 
ATOM     37  H   UNL     1     -10.018  -3.557   6.328  1.00  0.00     0.163 HD
BRANCH  36  38
ATOM     38  C   UNL     1     -11.305  -2.381   5.094  1.00  0.00     0.116 C 
BRANCH  38  39
ATOM     39  C   UNL     1     -12.661  -3.083   5.050  1.00  0.00     0.023 C 
BRANCH  39  40
ATOM     40  C   UNL     1     -13.683  -2.324   4.211  1.00  0.00     0.026 C 
BRANCH  40  41
ATOM     41  C   UNL     1     -13.181  -2.144   2.778  1.00  0.00     0.146 C 
BRANCH  41  42
ATOM     42  N   UNL     1     -13.693  -3.219   1.938  1.00  0.00    -0.254 NA
ATOM     43  C   UNL     1     -12.929  -3.756   1.062  1.00  0.00     0.185 C 
ATOM     44  N   UNL     1     -11.647  -3.491   0.753  1.00  0.00    -0.370 N 
ATOM     45  N   UNL     1     -13.421  -4.743   0.295  1.00  0.00    -0.370 N 
ATOM     46  H   UNL     1     -11.250  -3.816  -0.113  1.00  0.00     0.159 HD
ATOM     47  H   UNL     1     -11.115  -2.781   1.246  1.00  0.00     0.159 HD
ATOM     48  H   UNL     1     -14.380  -5.011   0.470  1.00  0.00     0.159 HD
ATOM     49  H   UNL     1     -12.836  -5.364  -0.235  1.00  0.00     0.159 HD
ENDBRANCH  41  42
ENDBRANCH  40  41
ENDBRANCH  39  40
ENDBRANCH  38  39
ENDBRANCH  36  38
ENDBRANCH   5  34
BRANCH   8  50
ATOM     50  O   UNL     1      -9.494  -6.396   0.220  1.00  0.00    -0.245 OA
BRANCH  50  51
ATOM     51  S   UNL     1     -10.378  -6.477  -1.142  1.00  0.00     0.397 S 
ATOM     52  O   UNL     1      -9.690  -7.346  -2.071  1.00  0.00    -0.169 OA
ATOM     53  O   UNL     1     -10.809  -5.148  -1.522  1.00  0.00    -0.169 OA
BRANCH  51  54
ATOM     54  O   UNL     1     -11.673  -7.297  -0.654  1.00  0.00    -0.264 OA
ATOM     55  H   UNL     1     -11.653  -8.173  -1.090  1.00  0.00     0.236 HD
ENDBRANCH  51  54
ENDBRANCH  50  51
ENDBRANCH   8  50
TORSDOF 19
ENDMDL
MODEL 30
REMARK VINA RESULT:    -6.536     10.303     14.768
REMARK INTER + INTRA:         -16.440
REMARK INTER:                 -12.589
REMARK INTRA:                  -3.852
REMARK UNBOUND:                -3.218
REMARK SMILES CC[C@@H](C)[C@@H](NC(=O)[C@@H](O)Cc1ccc(O)c(Cl)c1)C(=O)N1[C@H](C(=O)NCCCCN=C(N)N)C[C@H]2CC[C@H](OS(=O)(=O)O)C[C@@H]21
REMARK SMILES IDX 22 1 36 2 46 3 35 4 23 5 45 6 37 7 39 8 38 9 20 10 21 11
REMARK SMILES IDX 5 12 6 13 7 14 8 15 9 17 11 18 12 19 17 20 19 21 15 22 14 23
REMARK SMILES IDX 13 24 18 25 16 26 10 28 3 30 4 31 2 32 1 33 24 34 25 35
REMARK SMILES IDX 26 36 27 38 28 39 29 40 30 41 31 42 32 43 33 44 34 45 40 50
REMARK SMILES IDX 41 51 42 52 43 53 44 54
REMARK H PARENT 6 16 16 27 10 29 26 37 33 46 33 47 34 48 34 49 44 55
ROOT
ATOM      1  N   UNL     1     -10.673  -7.023   4.999  1.00  0.00    -0.326 N 
ATOM      2  C   UNL     1     -12.998  -6.714   4.805  1.00  0.00     0.014 C 
ATOM      3  C   UNL     1     -11.699  -5.992   5.173  1.00  0.00     0.091 C 
ATOM      4  C   UNL     1     -12.750  -8.128   5.308  1.00  0.00     0.041 C 
ATOM      5  C   UNL     1     -11.312  -8.348   4.802  1.00  0.00     0.175 C 
ATOM      6  C   UNL     1     -11.598  -4.721   4.331  1.00  0.00     0.059 C 
ATOM      7  C   UNL     1     -14.206  -5.948   5.308  1.00  0.00     0.008 C 
ATOM      8  C   UNL     1     -12.966  -4.089   3.993  1.00  0.00     0.143 C 
ATOM      9  C   UNL     1     -14.040  -4.436   5.043  1.00  0.00     0.034 C 
ENDROOT
BRANCH   1  10
ATOM     10  C   UNL     1      -9.305  -6.958   5.205  1.00  0.00     0.246 C 
ATOM     11  O   UNL     1      -8.545  -7.111   4.243  1.00  0.00    -0.272 OA
BRANCH  10  12
ATOM     12  C   UNL     1      -8.757  -6.653   6.629  1.00  0.00     0.174 C 
BRANCH  12  13
ATOM     13  N   UNL     1      -9.837  -6.751   7.611  1.00  0.00    -0.342 N 
ATOM     14  C   UNL     1     -10.042  -7.817   8.457  1.00  0.00     0.249 C 
ATOM     15  O   UNL     1      -9.316  -8.802   8.500  1.00  0.00    -0.272 OA
ATOM     16  H   UNL     1     -10.605  -6.084   7.582  1.00  0.00     0.164 HD
BRANCH  14  17
ATOM     17  C   UNL     1     -11.277  -7.630   9.364  1.00  0.00     0.207 C 
BRANCH  17  18
ATOM     18  C   UNL     1     -12.000  -6.323   9.020  1.00  0.00     0.077 C 
BRANCH  18  19
ATOM     19  C   UNL     1     -13.495  -6.522   8.906  1.00  0.00    -0.043 A 
ATOM     20  C   UNL     1     -15.752  -5.657   9.105  1.00  0.00     0.083 A 
ATOM     21  C   UNL     1     -14.372  -5.457   9.163  1.00  0.00     0.028 A 
ATOM     22  C   UNL     1     -16.263  -6.917   8.792  1.00  0.00     0.134 A 
ATOM     23  C   UNL     1     -15.405  -7.980   8.536  1.00  0.00     0.048 A 
ATOM     24  C   UNL     1     -14.024  -7.784   8.595  1.00  0.00     0.008 A 
ATOM     25  Cl  UNL     1     -16.814  -4.336   9.424  1.00  0.00    -0.080 Cl
BRANCH  22  26
ATOM     26  O   UNL     1     -17.608  -7.163   8.734  1.00  0.00    -0.506 OA
ATOM     27  H   UNL     1     -17.711  -8.120   8.574  1.00  0.00     0.293 HD
ENDBRANCH  22  26
ENDBRANCH  18  19
ENDBRANCH  17  18
BRANCH  17  28
ATOM     28  O   UNL     1     -10.903  -7.617  10.751  1.00  0.00    -0.383 OA
ATOM     29  H   UNL     1     -11.708  -7.345  11.247  1.00  0.00     0.211 HD
ENDBRANCH  17  28
ENDBRANCH  14  17
ENDBRANCH  12  13
BRANCH  12  30
ATOM     30  C   UNL     1      -8.009  -5.295   6.705  1.00  0.00     0.018 C 
ATOM     31  C   UNL     1      -6.511  -5.510   6.971  1.00  0.00     0.010 C 
BRANCH  30  32
ATOM     32  C   UNL     1      -8.600  -4.317   7.751  1.00  0.00     0.002 C 
ATOM     33  C   UNL     1      -7.604  -3.769   8.765  1.00  0.00     0.004 C 
ENDBRANCH  30  32
ENDBRANCH  12  30
ENDBRANCH  10  12
ENDBRANCH   1  10
BRANCH   5  34
ATOM     34  C   UNL     1     -11.289  -8.752   3.303  1.00  0.00     0.242 C 
ATOM     35  O   UNL     1     -11.867  -9.754   2.883  1.00  0.00    -0.273 OA
ATOM     36  N   UNL     1     -10.531  -7.940   2.490  1.00  0.00    -0.354 N 
ATOM     37  H   UNL     1      -9.978  -7.195   2.916  1.00  0.00     0.163 HD
BRANCH  36  38
ATOM     38  C   UNL     1     -10.570  -8.040   1.045  1.00  0.00     0.116 C 
BRANCH  38  39
ATOM     39  C   UNL     1      -9.861  -6.839   0.423  1.00  0.00     0.023 C 
BRANCH  39  40
ATOM     40  C   UNL     1     -10.058  -6.764  -1.087  1.00  0.00     0.026 C 
BRANCH  40  41
ATOM     41  C   UNL     1      -9.769  -5.354  -1.602  1.00  0.00     0.146 C 
BRANCH  41  42
ATOM     42  N   UNL     1      -8.355  -5.048  -1.431  1.00  0.00    -0.254 NA
ATOM     43  C   UNL     1      -8.004  -4.090  -0.658  1.00  0.00     0.185 C 
ATOM     44  N   UNL     1      -8.756  -3.254   0.081  1.00  0.00    -0.370 N 
ATOM     45  N   UNL     1      -6.695  -3.821  -0.517  1.00  0.00    -0.370 N 
ATOM     46  H   UNL     1      -8.368  -2.400   0.445  1.00  0.00     0.159 HD
ATOM     47  H   UNL     1      -9.769  -3.326   0.102  1.00  0.00     0.159 HD
ATOM     48  H   UNL     1      -6.058  -4.411  -1.033  1.00  0.00     0.159 HD
ATOM     49  H   UNL     1      -6.333  -3.260   0.234  1.00  0.00     0.159 HD
ENDBRANCH  41  42
ENDBRANCH  40  41
ENDBRANCH  39  40
ENDBRANCH  38  39
ENDBRANCH  36  38
ENDBRANCH   5  34
BRANCH   8  50
ATOM     50  O   UNL     1     -13.415  -4.547   2.717  1.00  0.00    -0.245 OA
BRANCH  50  51
ATOM     51  S   UNL     1     -13.111  -3.655   1.391  1.00  0.00     0.397 S 
ATOM     52  O   UNL     1     -11.679  -3.620   1.196  1.00  0.00    -0.169 OA
ATOM     53  O   UNL     1     -13.902  -2.443   1.428  1.00  0.00    -0.169 OA
BRANCH  51  54
ATOM     54  O   UNL     1     -13.690  -4.590   0.218  1.00  0.00    -0.264 OA
ATOM     55  H   UNL     1     -12.945  -5.113  -0.142  1.00  0.00     0.236 HD
ENDBRANCH  51  54
ENDBRANCH  50  51
ENDBRANCH   8  50
TORSDOF 19
ENDMDL
MODEL 31
REMARK VINA RESULT:    -6.507      9.760     12.986
REMARK INTER + INTRA:         -16.383
REMARK INTER:                 -11.391
REMARK INTRA:                  -4.992
REMARK UNBOUND:                -3.218
REMARK SMILES CC[C@@H](C)[C@@H](NC(=O)[C@@H](O)Cc1ccc(O)c(Cl)c1)C(=O)N1[C@H](C(=O)NCCCCN=C(N)N)C[C@H]2CC[C@H](OS(=O)(=O)O)C[C@@H]21
REMARK SMILES IDX 22 1 36 2 46 3 35 4 23 5 45 6 37 7 39 8 38 9 20 10 21 11
REMARK SMILES IDX 5 12 6 13 7 14 8 15 9 17 11 18 12 19 17 20 19 21 15 22 14 23
REMARK SMILES IDX 13 24 18 25 16 26 10 28 3 30 4 31 2 32 1 33 24 34 25 35
REMARK SMILES IDX 26 36 27 38 28 39 29 40 30 41 31 42 32 43 33 44 34 45 40 50
REMARK SMILES IDX 41 51 42 52 43 53 44 54
REMARK H PARENT 6 16 16 27 10 29 26 37 33 46 33 47 34 48 34 49 44 55
ROOT
ATOM      1  N   UNL     1     -11.310  -3.381   4.137  1.00  0.00    -0.326 N 
ATOM      2  C   UNL     1     -12.848  -3.450   2.356  1.00  0.00     0.014 C 
ATOM      3  C   UNL     1     -11.404  -3.080   2.706  1.00  0.00     0.091 C 
ATOM      4  C   UNL     1     -13.605  -3.077   3.621  1.00  0.00     0.041 C 
ATOM      5  C   UNL     1     -12.660  -3.660   4.687  1.00  0.00     0.175 C 
ATOM      6  C   UNL     1     -10.470  -3.817   1.747  1.00  0.00     0.059 C 
ATOM      7  C   UNL     1     -13.261  -2.835   1.033  1.00  0.00     0.008 C 
ATOM      8  C   UNL     1     -11.073  -4.043   0.344  1.00  0.00     0.143 C 
ATOM      9  C   UNL     1     -12.133  -2.980  -0.010  1.00  0.00     0.034 C 
ENDROOT
BRANCH   1  10
ATOM     10  C   UNL     1     -10.245  -3.230   5.008  1.00  0.00     0.246 C 
ATOM     11  O   UNL     1      -9.955  -2.099   5.413  1.00  0.00    -0.272 OA
BRANCH  10  12
ATOM     12  C   UNL     1      -9.464  -4.486   5.491  1.00  0.00     0.174 C 
BRANCH  12  13
ATOM     13  N   UNL     1      -9.620  -5.573   4.525  1.00  0.00    -0.342 N 
ATOM     14  C   UNL     1      -8.584  -6.230   3.900  1.00  0.00     0.249 C 
ATOM     15  O   UNL     1      -7.401  -5.993   4.110  1.00  0.00    -0.272 OA
ATOM     16  H   UNL     1     -10.538  -5.773   4.136  1.00  0.00     0.164 HD
BRANCH  14  17
ATOM     17  C   UNL     1      -9.073  -7.317   2.920  1.00  0.00     0.207 C 
BRANCH  17  18
ATOM     18  C   UNL     1      -8.653  -8.707   3.408  1.00  0.00     0.077 C 
BRANCH  18  19
ATOM     19  C   UNL     1      -9.537  -9.199   4.532  1.00  0.00    -0.043 A 
ATOM     20  C   UNL     1      -9.788 -10.252   6.703  1.00  0.00     0.083 A 
ATOM     21  C   UNL     1      -8.969  -9.754   5.689  1.00  0.00     0.028 A 
ATOM     22  C   UNL     1     -11.176 -10.201   6.568  1.00  0.00     0.134 A 
ATOM     23  C   UNL     1     -11.752  -9.653   5.428  1.00  0.00     0.048 A 
ATOM     24  C   UNL     1     -10.934  -9.156   4.410  1.00  0.00     0.008 A 
ATOM     25  Cl  UNL     1      -9.071 -10.931   8.117  1.00  0.00    -0.080 Cl
BRANCH  22  26
ATOM     26  O   UNL     1     -12.020 -10.686   7.530  1.00  0.00    -0.506 OA
ATOM     27  H   UNL     1     -12.289  -9.924   8.077  1.00  0.00     0.293 HD
ENDBRANCH  22  26
ENDBRANCH  18  19
ENDBRANCH  17  18
BRANCH  17  28
ATOM     28  O   UNL     1      -8.550  -7.098   1.600  1.00  0.00    -0.383 OA
ATOM     29  H   UNL     1      -8.383  -7.991   1.222  1.00  0.00     0.211 HD
ENDBRANCH  17  28
ENDBRANCH  14  17
ENDBRANCH  12  13
BRANCH  12  30
ATOM     30  C   UNL     1      -9.851  -4.915   6.932  1.00  0.00     0.018 C 
ATOM     31  C   UNL     1      -8.983  -4.186   7.970  1.00  0.00     0.010 C 
BRANCH  30  32
ATOM     32  C   UNL     1      -9.785  -6.445   7.164  1.00  0.00     0.002 C 
ATOM     33  C   UNL     1      -8.565  -6.935   7.933  1.00  0.00     0.004 C 
ENDBRANCH  30  32
ENDBRANCH  12  30
ENDBRANCH  10  12
ENDBRANCH   1  10
BRANCH   5  34
ATOM     34  C   UNL     1     -12.875  -5.186   4.869  1.00  0.00     0.242 C 
ATOM     35  O   UNL     1     -12.447  -6.012   4.063  1.00  0.00    -0.273 OA
ATOM     36  N   UNL     1     -13.625  -5.545   5.967  1.00  0.00    -0.354 N 
ATOM     37  H   UNL     1     -14.053  -4.810   6.531  1.00  0.00     0.163 HD
BRANCH  36  38
ATOM     38  C   UNL     1     -13.742  -6.920   6.407  1.00  0.00     0.116 C 
BRANCH  38  39
ATOM     39  C   UNL     1     -14.009  -6.962   7.910  1.00  0.00     0.023 C 
BRANCH  39  40
ATOM     40  C   UNL     1     -12.944  -6.221   8.712  1.00  0.00     0.026 C 
BRANCH  40  41
ATOM     41  C   UNL     1     -12.663  -6.938  10.032  1.00  0.00     0.146 C 
BRANCH  41  42
ATOM     42  N   UNL     1     -12.492  -8.365   9.791  1.00  0.00    -0.254 NA
ATOM     43  C   UNL     1     -11.915  -9.091  10.673  1.00  0.00     0.185 C 
ATOM     44  N   UNL     1     -11.402  -8.754  11.871  1.00  0.00    -0.370 N 
ATOM     45  N   UNL     1     -11.762 -10.403  10.430  1.00  0.00    -0.370 N 
ATOM     46  H   UNL     1     -10.766  -9.371  12.348  1.00  0.00     0.159 HD
ATOM     47  H   UNL     1     -11.444  -7.802  12.220  1.00  0.00     0.159 HD
ATOM     48  H   UNL     1     -12.130 -10.742   9.551  1.00  0.00     0.159 HD
ATOM     49  H   UNL     1     -11.544 -11.068  11.151  1.00  0.00     0.159 HD
ENDBRANCH  41  42
ENDBRANCH  40  41
ENDBRANCH  39  40
ENDBRANCH  38  39
ENDBRANCH  36  38
ENDBRANCH   5  34
BRANCH   8  50
ATOM     50  O   UNL     1     -11.684  -5.332   0.275  1.00  0.00    -0.245 OA
BRANCH  50  51
ATOM     51  S   UNL     1     -11.282  -6.348  -0.930  1.00  0.00     0.397 S 
ATOM     52  O   UNL     1     -10.728  -7.545  -0.339  1.00  0.00    -0.169 OA
ATOM     53  O   UNL     1     -10.581  -5.619  -1.967  1.00  0.00    -0.169 OA
BRANCH  51  54
ATOM     54  O   UNL     1     -12.722  -6.770  -1.508  1.00  0.00    -0.264 OA
ATOM     55  H   UNL     1     -12.698  -6.658  -2.480  1.00  0.00     0.236 HD
ENDBRANCH  51  54
ENDBRANCH  50  51
ENDBRANCH   8  50
TORSDOF 19
ENDMDL
MODEL 32
REMARK VINA RESULT:    -6.494      3.300      7.569
REMARK INTER + INTRA:         -16.356
REMARK INTER:                 -13.190
REMARK INTRA:                  -3.166
REMARK UNBOUND:                -3.218
REMARK SMILES CC[C@@H](C)[C@@H](NC(=O)[C@@H](O)Cc1ccc(O)c(Cl)c1)C(=O)N1[C@H](C(=O)NCCCCN=C(N)N)C[C@H]2CC[C@H](OS(=O)(=O)O)C[C@@H]21
REMARK SMILES IDX 22 1 36 2 46 3 35 4 23 5 45 6 37 7 39 8 38 9 20 10 21 11
REMARK SMILES IDX 5 12 6 13 7 14 8 15 9 17 11 18 12 19 17 20 19 21 15 22 14 23
REMARK SMILES IDX 13 24 18 25 16 26 10 28 3 30 4 31 2 32 1 33 24 34 25 35
REMARK SMILES IDX 26 36 27 38 28 39 29 40 30 41 31 42 32 43 33 44 34 45 40 50
REMARK SMILES IDX 41 51 42 52 43 53 44 54
REMARK H PARENT 6 16 16 27 10 29 26 37 33 46 33 47 34 48 34 49 44 55
ROOT
ATOM      1  N   UNL     1      -9.652  -3.577  -3.812  1.00  0.00    -0.326 N 
ATOM      2  C   UNL     1      -9.573  -1.233  -3.611  1.00  0.00     0.014 C 
ATOM      3  C   UNL     1      -9.943  -2.510  -2.851  1.00  0.00     0.091 C 
ATOM      4  C   UNL     1      -9.957  -1.572  -5.043  1.00  0.00     0.041 C 
ATOM      5  C   UNL     1      -9.379  -2.996  -5.150  1.00  0.00     0.175 C 
ATOM      6  C   UNL     1      -9.198  -2.512  -1.518  1.00  0.00     0.059 C 
ATOM      7  C   UNL     1     -10.180  -0.012  -2.948  1.00  0.00     0.008 C 
ATOM      8  C   UNL     1      -8.962  -1.102  -0.935  1.00  0.00     0.143 C 
ATOM      9  C   UNL     1     -10.025  -0.092  -1.414  1.00  0.00     0.034 C 
ENDROOT
BRANCH   1  10
ATOM     10  C   UNL     1      -9.808  -4.948  -3.691  1.00  0.00     0.246 C 
ATOM     11  O   UNL     1     -10.743  -5.501  -4.280  1.00  0.00    -0.272 OA
BRANCH  10  12
ATOM     12  C   UNL     1      -8.781  -5.766  -2.856  1.00  0.00     0.174 C 
BRANCH  12  13
ATOM     13  N   UNL     1      -7.649  -6.154  -3.697  1.00  0.00    -0.342 N 
ATOM     14  C   UNL     1      -6.325  -5.935  -3.390  1.00  0.00     0.249 C 
ATOM     15  O   UNL     1      -5.943  -5.410  -2.352  1.00  0.00    -0.272 OA
ATOM     16  H   UNL     1      -7.814  -6.456  -4.654  1.00  0.00     0.164 HD
BRANCH  14  17
ATOM     17  C   UNL     1      -5.367  -6.445  -4.488  1.00  0.00     0.207 C 
BRANCH  17  18
ATOM     18  C   UNL     1      -5.767  -7.854  -4.936  1.00  0.00     0.077 C 
BRANCH  18  19
ATOM     19  C   UNL     1      -5.732  -7.997  -6.441  1.00  0.00    -0.043 A 
ATOM     20  C   UNL     1      -4.997  -9.184  -8.424  1.00  0.00     0.083 A 
ATOM     21  C   UNL     1      -5.069  -9.082  -7.034  1.00  0.00     0.028 A 
ATOM     22  C   UNL     1      -5.582  -8.206  -9.228  1.00  0.00     0.134 A 
ATOM     23  C   UNL     1      -6.242  -7.125  -8.653  1.00  0.00     0.048 A 
ATOM     24  C   UNL     1      -6.315  -7.019  -7.262  1.00  0.00     0.008 A 
ATOM     25  Cl  UNL     1      -4.177 -10.525  -9.135  1.00  0.00    -0.080 Cl
BRANCH  22  26
ATOM     26  O   UNL     1      -5.528  -8.257 -10.594  1.00  0.00    -0.506 OA
ATOM     27  H   UNL     1      -6.448  -8.329 -10.909  1.00  0.00     0.293 HD
ENDBRANCH  22  26
ENDBRANCH  18  19
ENDBRANCH  17  18
BRANCH  17  28
ATOM     28  O   UNL     1      -4.008  -6.460  -4.023  1.00  0.00    -0.383 OA
ATOM     29  H   UNL     1      -4.053  -6.640  -3.057  1.00  0.00     0.211 HD
ENDBRANCH  17  28
ENDBRANCH  14  17
ENDBRANCH  12  13
BRANCH  12  30
ATOM     30  C   UNL     1      -9.426  -6.980  -2.134  1.00  0.00     0.018 C 
ATOM     31  C   UNL     1      -9.564  -6.710  -0.627  1.00  0.00     0.010 C 
BRANCH  30  32
ATOM     32  C   UNL     1      -8.676  -8.313  -2.369  1.00  0.00     0.002 C 
ATOM     33  C   UNL     1      -7.726  -8.731  -1.255  1.00  0.00     0.004 C 
ENDBRANCH  30  32
ENDBRANCH  12  30
ENDBRANCH  10  12
ENDBRANCH   1  10
BRANCH   5  34
ATOM     34  C   UNL     1      -7.855  -2.974  -5.440  1.00  0.00     0.242 C 
ATOM     35  O   UNL     1      -7.024  -2.690  -4.577  1.00  0.00    -0.273 OA
ATOM     36  N   UNL     1      -7.503  -3.242  -6.744  1.00  0.00    -0.354 N 
ATOM     37  H   UNL     1      -8.242  -3.352  -7.440  1.00  0.00     0.163 HD
BRANCH  36  38
ATOM     38  C   UNL     1      -6.130  -3.475  -7.143  1.00  0.00     0.116 C 
BRANCH  38  39
ATOM     39  C   UNL     1      -5.670  -2.368  -8.087  1.00  0.00     0.023 C 
BRANCH  39  40
ATOM     40  C   UNL     1      -4.210  -1.985  -7.869  1.00  0.00     0.026 C 
BRANCH  40  41
ATOM     41  C   UNL     1      -4.047  -1.184  -6.577  1.00  0.00     0.146 C 
BRANCH  41  42
ATOM     42  N   UNL     1      -4.884   0.008  -6.628  1.00  0.00    -0.254 NA
ATOM     43  C   UNL     1      -4.362   1.135  -6.938  1.00  0.00     0.185 C 
ATOM     44  N   UNL     1      -3.090   1.443  -7.250  1.00  0.00    -0.370 N 
ATOM     45  N   UNL     1      -5.150   2.222  -6.975  1.00  0.00    -0.370 N 
ATOM     46  H   UNL     1      -2.775   2.398  -7.232  1.00  0.00     0.159 HD
ATOM     47  H   UNL     1      -2.363   0.735  -7.283  1.00  0.00     0.159 HD
ATOM     48  H   UNL     1      -6.127   2.076  -6.761  1.00  0.00     0.159 HD
ATOM     49  H   UNL     1      -4.878   3.076  -7.430  1.00  0.00     0.159 HD
ENDBRANCH  41  42
ENDBRANCH  40  41
ENDBRANCH  39  40
ENDBRANCH  38  39
ENDBRANCH  36  38
ENDBRANCH   5  34
BRANCH   8  50
ATOM     50  O   UNL     1      -7.674  -0.621  -1.320  1.00  0.00    -0.245 OA
BRANCH  50  51
ATOM     51  S   UNL     1      -6.938   0.514  -0.418  1.00  0.00     0.397 S 
ATOM     52  O   UNL     1      -7.613   0.576   0.859  1.00  0.00    -0.169 OA
ATOM     53  O   UNL     1      -6.714   1.701  -1.218  1.00  0.00    -0.169 OA
BRANCH  51  54
ATOM     54  O   UNL     1      -5.509  -0.163  -0.126  1.00  0.00    -0.264 OA
ATOM     55  H   UNL     1      -5.667  -0.989   0.375  1.00  0.00     0.236 HD
ENDBRANCH  51  54
ENDBRANCH  50  51
ENDBRANCH   8  50
TORSDOF 19
ENDMDL
MODEL 33
REMARK VINA RESULT:    -6.465     13.529     16.528
REMARK INTER + INTRA:         -16.296
REMARK INTER:                 -10.965
REMARK INTRA:                  -5.331
REMARK UNBOUND:                -3.218
REMARK SMILES CC[C@@H](C)[C@@H](NC(=O)[C@@H](O)Cc1ccc(O)c(Cl)c1)C(=O)N1[C@H](C(=O)NCCCCN=C(N)N)C[C@H]2CC[C@H](OS(=O)(=O)O)C[C@@H]21
REMARK SMILES IDX 22 1 36 2 46 3 35 4 23 5 45 6 37 7 39 8 38 9 20 10 21 11
REMARK SMILES IDX 5 12 6 13 7 14 8 15 9 17 11 18 12 19 17 20 19 21 15 22 14 23
REMARK SMILES IDX 13 24 18 25 16 26 10 28 3 30 4 31 2 32 1 33 24 34 25 35
REMARK SMILES IDX 26 36 27 38 28 39 29 40 30 41 31 42 32 43 33 44 34 45 40 50
REMARK SMILES IDX 41 51 42 52 43 53 44 54
REMARK H PARENT 6 16 16 27 10 29 26 37 33 46 33 47 34 48 34 49 44 55
ROOT
ATOM      1  N   UNL     1     -11.939  -7.692   7.565  1.00  0.00    -0.326 N 
ATOM      2  C   UNL     1     -11.336  -5.417   7.556  1.00  0.00     0.014 C 
ATOM      3  C   UNL     1     -11.597  -6.612   6.635  1.00  0.00     0.091 C 
ATOM      4  C   UNL     1     -10.709  -6.067   8.780  1.00  0.00     0.041 C 
ATOM      5  C   UNL     1     -11.650  -7.273   8.959  1.00  0.00     0.175 C 
ATOM      6  C   UNL     1     -12.633  -6.200   5.591  1.00  0.00     0.059 C 
ATOM      7  C   UNL     1     -10.579  -4.325   6.825  1.00  0.00     0.008 C 
ATOM      8  C   UNL     1     -12.565  -4.707   5.204  1.00  0.00     0.143 C 
ATOM      9  C   UNL     1     -11.154  -4.119   5.408  1.00  0.00     0.034 C 
ENDROOT
BRANCH   1  10
ATOM     10  C   UNL     1     -12.255  -9.016   7.311  1.00  0.00     0.246 C 
ATOM     11  O   UNL     1     -13.433  -9.380   7.396  1.00  0.00    -0.272 OA
BRANCH  10  12
ATOM     12  C   UNL     1     -11.131 -10.004   6.883  1.00  0.00     0.174 C 
BRANCH  12  13
ATOM     13  N   UNL     1      -9.906  -9.719   7.628  1.00  0.00    -0.342 N 
ATOM     14  C   UNL     1      -9.621 -10.188   8.891  1.00  0.00     0.249 C 
ATOM     15  O   UNL     1     -10.362 -10.928   9.526  1.00  0.00    -0.272 OA
ATOM     16  H   UNL     1      -9.271  -8.996   7.297  1.00  0.00     0.164 HD
BRANCH  14  17
ATOM     17  C   UNL     1      -8.255  -9.697   9.415  1.00  0.00     0.207 C 
BRANCH  17  18
ATOM     18  C   UNL     1      -7.402  -9.156   8.263  1.00  0.00     0.077 C 
BRANCH  18  19
ATOM     19  C   UNL     1      -7.273  -7.650   8.319  1.00  0.00    -0.043 A 
ATOM     20  C   UNL     1      -7.090  -5.512   7.187  1.00  0.00     0.083 A 
ATOM     21  C   UNL     1      -7.259  -6.896   7.135  1.00  0.00     0.028 A 
ATOM     22  C   UNL     1      -6.932  -4.874   8.418  1.00  0.00     0.134 A 
ATOM     23  C   UNL     1      -6.943  -5.608   9.598  1.00  0.00     0.048 A 
ATOM     24  C   UNL     1      -7.111  -6.994   9.549  1.00  0.00     0.008 A 
ATOM     25  Cl  UNL     1      -7.076  -4.603   5.722  1.00  0.00    -0.080 Cl
BRANCH  22  26
ATOM     26  O   UNL     1      -6.752  -3.521   8.519  1.00  0.00    -0.506 OA
ATOM     27  H   UNL     1      -6.228  -3.367   9.326  1.00  0.00     0.293 HD
ENDBRANCH  22  26
ENDBRANCH  18  19
ENDBRANCH  17  18
BRANCH  17  28
ATOM     28  O   UNL     1      -7.544 -10.755  10.078  1.00  0.00    -0.383 OA
ATOM     29  H   UNL     1      -8.154 -11.528  10.087  1.00  0.00     0.211 HD
ENDBRANCH  17  28
ENDBRANCH  14  17
ENDBRANCH  12  13
BRANCH  12  30
ATOM     30  C   UNL     1     -10.901 -10.022   5.348  1.00  0.00     0.018 C 
ATOM     31  C   UNL     1      -9.719  -9.118   4.962  1.00  0.00     0.010 C 
BRANCH  30  32
ATOM     32  C   UNL     1     -12.155  -9.637   4.526  1.00  0.00     0.002 C 
ATOM     33  C   UNL     1     -11.876  -9.003   3.170  1.00  0.00     0.004 C 
ENDBRANCH  30  32
ENDBRANCH  12  30
ENDBRANCH  10  12
ENDBRANCH   1  10
BRANCH   5  34
ATOM     34  C   UNL     1     -12.957  -6.874   9.696  1.00  0.00     0.242 C 
ATOM     35  O   UNL     1     -13.169  -5.725  10.083  1.00  0.00    -0.273 OA
ATOM     36  N   UNL     1     -13.835  -7.908   9.931  1.00  0.00    -0.354 N 
ATOM     37  H   UNL     1     -13.550  -8.859   9.693  1.00  0.00     0.163 HD
BRANCH  36  38
ATOM     38  C   UNL     1     -15.184  -7.683  10.408  1.00  0.00     0.116 C 
BRANCH  38  39
ATOM     39  C   UNL     1     -16.140  -7.569   9.224  1.00  0.00     0.023 C 
BRANCH  39  40
ATOM     40  C   UNL     1     -17.188  -6.479   9.424  1.00  0.00     0.026 C 
BRANCH  40  41
ATOM     41  C   UNL     1     -16.660  -5.382  10.348  1.00  0.00     0.146 C 
BRANCH  41  42
ATOM     42  N   UNL     1     -16.941  -4.074   9.770  1.00  0.00    -0.254 NA
ATOM     43  C   UNL     1     -16.107  -3.551   8.953  1.00  0.00     0.185 C 
ATOM     44  N   UNL     1     -14.932  -4.021   8.495  1.00  0.00    -0.370 N 
ATOM     45  N   UNL     1     -16.382  -2.342   8.435  1.00  0.00    -0.370 N 
ATOM     46  H   UNL     1     -14.270  -3.406   8.054  1.00  0.00     0.159 HD
ATOM     47  H   UNL     1     -14.577  -4.930   8.775  1.00  0.00     0.159 HD
ATOM     48  H   UNL     1     -17.255  -1.920   8.722  1.00  0.00     0.159 HD
ATOM     49  H   UNL     1     -15.913  -1.978   7.625  1.00  0.00     0.159 HD
ENDBRANCH  41  42
ENDBRANCH  40  41
ENDBRANCH  39  40
ENDBRANCH  38  39
ENDBRANCH  36  38
ENDBRANCH   5  34
BRANCH   8  50
ATOM     50  O   UNL     1     -13.488  -3.953   5.990  1.00  0.00    -0.245 OA
BRANCH  50  51
ATOM     51  S   UNL     1     -14.678  -3.123   5.255  1.00  0.00     0.397 S 
ATOM     52  O   UNL     1     -15.926  -3.804   5.518  1.00  0.00    -0.169 OA
ATOM     53  O   UNL     1     -14.271  -2.777   3.909  1.00  0.00    -0.169 OA
BRANCH  51  54
ATOM     54  O   UNL     1     -14.727  -1.769   6.122  1.00  0.00    -0.264 OA
ATOM     55  H   UNL     1     -15.654  -1.630   6.405  1.00  0.00     0.236 HD
ENDBRANCH  51  54
ENDBRANCH  50  51
ENDBRANCH   8  50
TORSDOF 19
ENDMDL
MODEL 34
REMARK VINA RESULT:    -6.464      4.802      8.777
REMARK INTER + INTRA:         -16.295
REMARK INTER:                 -12.809
REMARK INTRA:                  -3.486
REMARK UNBOUND:                -3.218
REMARK SMILES CC[C@@H](C)[C@@H](NC(=O)[C@@H](O)Cc1ccc(O)c(Cl)c1)C(=O)N1[C@H](C(=O)NCCCCN=C(N)N)C[C@H]2CC[C@H](OS(=O)(=O)O)C[C@@H]21
REMARK SMILES IDX 22 1 36 2 46 3 35 4 23 5 45 6 37 7 39 8 38 9 20 10 21 11
REMARK SMILES IDX 5 12 6 13 7 14 8 15 9 17 11 18 12 19 17 20 19 21 15 22 14 23
REMARK SMILES IDX 13 24 18 25 16 26 10 28 3 30 4 31 2 32 1 33 24 34 25 35
REMARK SMILES IDX 26 36 27 38 28 39 29 40 30 41 31 42 32 43 33 44 34 45 40 50
REMARK SMILES IDX 41 51 42 52 43 53 44 54
REMARK H PARENT 6 16 16 27 10 29 26 37 33 46 33 47 34 48 34 49 44 55
ROOT
ATOM      1  N   UNL     1      -8.893  -8.045  -0.992  1.00  0.00    -0.326 N 
ATOM      2  C   UNL     1      -9.311  -7.963   1.323  1.00  0.00     0.014 C 
ATOM      3  C   UNL     1      -8.505  -8.709   0.256  1.00  0.00     0.091 C 
ATOM      4  C   UNL     1     -10.606  -7.634   0.596  1.00  0.00     0.041 C 
ATOM      5  C   UNL     1     -10.045  -7.143  -0.751  1.00  0.00     0.175 C 
ATOM      6  C   UNL     1      -7.032  -8.688   0.661  1.00  0.00     0.059 C 
ATOM      7  C   UNL     1      -9.364  -8.754   2.615  1.00  0.00     0.008 C 
ATOM      8  C   UNL     1      -6.808  -8.693   2.188  1.00  0.00     0.143 C 
ATOM      9  C   UNL     1      -7.979  -9.351   2.944  1.00  0.00     0.034 C 
ENDROOT
BRANCH   1  10
ATOM     10  C   UNL     1      -8.499  -8.304  -2.294  1.00  0.00     0.246 C 
ATOM     11  O   UNL     1      -9.097  -9.169  -2.943  1.00  0.00    -0.272 OA
BRANCH  10  12
ATOM     12  C   UNL     1      -7.344  -7.473  -2.926  1.00  0.00     0.174 C 
BRANCH  12  13
ATOM     13  N   UNL     1      -7.888  -6.513  -3.886  1.00  0.00    -0.342 N 
ATOM     14  C   UNL     1      -7.652  -5.157  -3.868  1.00  0.00     0.249 C 
ATOM     15  O   UNL     1      -6.929  -4.601  -3.050  1.00  0.00    -0.272 OA
ATOM     16  H   UNL     1      -8.626  -6.802  -4.524  1.00  0.00     0.164 HD
BRANCH  14  17
ATOM     17  C   UNL     1      -8.382  -4.410  -5.004  1.00  0.00     0.207 C 
BRANCH  17  18
ATOM     18  C   UNL     1      -7.391  -3.996  -6.097  1.00  0.00     0.077 C 
BRANCH  18  19
ATOM     19  C   UNL     1      -7.770  -4.567  -7.445  1.00  0.00    -0.043 A 
ATOM     20  C   UNL     1      -8.950  -4.368  -9.555  1.00  0.00     0.083 A 
ATOM     21  C   UNL     1      -8.560  -3.820  -8.333  1.00  0.00     0.028 A 
ATOM     22  C   UNL     1      -8.555  -5.662  -9.897  1.00  0.00     0.134 A 
ATOM     23  C   UNL     1      -7.773  -6.413  -9.028  1.00  0.00     0.048 A 
ATOM     24  C   UNL     1      -7.383  -5.867  -7.802  1.00  0.00     0.008 A 
ATOM     25  Cl  UNL     1      -9.921  -3.436 -10.632  1.00  0.00    -0.080 Cl
BRANCH  22  26
ATOM     26  O   UNL     1      -8.921  -6.246 -11.080  1.00  0.00    -0.506 OA
ATOM     27  H   UNL     1      -9.896  -6.233 -11.109  1.00  0.00     0.293 HD
ENDBRANCH  22  26
ENDBRANCH  18  19
ENDBRANCH  17  18
BRANCH  17  28
ATOM     28  O   UNL     1      -9.057  -3.243  -4.507  1.00  0.00    -0.383 OA
ATOM     29  H   UNL     1      -8.781  -3.149  -3.567  1.00  0.00     0.211 HD
ENDBRANCH  17  28
ENDBRANCH  14  17
ENDBRANCH  12  13
BRANCH  12  30
ATOM     30  C   UNL     1      -6.232  -8.363  -3.543  1.00  0.00     0.018 C 
ATOM     31  C   UNL     1      -5.730  -9.396  -2.522  1.00  0.00     0.010 C 
BRANCH  30  32
ATOM     32  C   UNL     1      -5.040  -7.559  -4.118  1.00  0.00     0.002 C 
ATOM     33  C   UNL     1      -4.967  -7.501  -5.638  1.00  0.00     0.004 C 
ENDBRANCH  30  32
ENDBRANCH  12  30
ENDBRANCH  10  12
ENDBRANCH   1  10
BRANCH   5  34
ATOM     34  C   UNL     1      -9.579  -5.664  -0.671  1.00  0.00     0.242 C 
ATOM     35  O   UNL     1      -8.417  -5.354  -0.408  1.00  0.00    -0.273 OA
ATOM     36  N   UNL     1     -10.569  -4.727  -0.863  1.00  0.00    -0.354 N 
ATOM     37  H   UNL     1     -11.535  -5.044  -0.958  1.00  0.00     0.163 HD
BRANCH  36  38
ATOM     38  C   UNL     1     -10.278  -3.319  -1.036  1.00  0.00     0.116 C 
BRANCH  38  39
ATOM     39  C   UNL     1     -10.226  -2.629   0.325  1.00  0.00     0.023 C 
BRANCH  39  40
ATOM     40  C   UNL     1     -10.277  -1.110   0.211  1.00  0.00     0.026 C 
BRANCH  40  41
ATOM     41  C   UNL     1      -9.495  -0.631  -1.012  1.00  0.00     0.146 C 
BRANCH  41  42
ATOM     42  N   UNL     1      -8.080  -0.526  -0.682  1.00  0.00    -0.254 NA
ATOM     43  C   UNL     1      -7.206  -1.027  -1.473  1.00  0.00     0.185 C 
ATOM     44  N   UNL     1      -7.367  -1.678  -2.639  1.00  0.00    -0.370 N 
ATOM     45  N   UNL     1      -5.907  -0.923  -1.149  1.00  0.00    -0.370 N 
ATOM     46  H   UNL     1      -6.619  -2.226  -3.028  1.00  0.00     0.159 HD
ATOM     47  H   UNL     1      -8.287  -1.833  -3.041  1.00  0.00     0.159 HD
ATOM     48  H   UNL     1      -5.697  -0.437  -0.287  1.00  0.00     0.159 HD
ATOM     49  H   UNL     1      -5.167  -1.071  -1.812  1.00  0.00     0.159 HD
ENDBRANCH  41  42
ENDBRANCH  40  41
ENDBRANCH  39  40
ENDBRANCH  38  39
ENDBRANCH  36  38
ENDBRANCH   5  34
BRANCH   8  50
ATOM     50  O   UNL     1      -6.654  -7.356   2.665  1.00  0.00    -0.245 OA
BRANCH  50  51
ATOM     51  S   UNL     1      -6.161  -7.100   4.193  1.00  0.00     0.397 S 
ATOM     52  O   UNL     1      -5.214  -8.137   4.536  1.00  0.00    -0.169 OA
ATOM     53  O   UNL     1      -7.305  -6.808   5.032  1.00  0.00    -0.169 OA
BRANCH  51  54
ATOM     54  O   UNL     1      -5.298  -5.751   4.046  1.00  0.00    -0.264 OA
ATOM     55  H   UNL     1      -4.370  -6.008   3.868  1.00  0.00     0.236 HD
ENDBRANCH  51  54
ENDBRANCH  50  51
ENDBRANCH   8  50
TORSDOF 19
ENDMDL
MODEL 35
REMARK VINA RESULT:    -6.455     10.541     14.569
REMARK INTER + INTRA:         -16.276
REMARK INTER:                 -12.995
REMARK INTRA:                  -3.280
REMARK UNBOUND:                -3.218
REMARK SMILES CC[C@@H](C)[C@@H](NC(=O)[C@@H](O)Cc1ccc(O)c(Cl)c1)C(=O)N1[C@H](C(=O)NCCCCN=C(N)N)C[C@H]2CC[C@H](OS(=O)(=O)O)C[C@@H]21
REMARK SMILES IDX 22 1 36 2 46 3 35 4 23 5 45 6 37 7 39 8 38 9 20 10 21 11
REMARK SMILES IDX 5 12 6 13 7 14 8 15 9 17 11 18 12 19 17 20 19 21 15 22 14 23
REMARK SMILES IDX 13 24 18 25 16 26 10 28 3 30 4 31 2 32 1 33 24 34 25 35
REMARK SMILES IDX 26 36 27 38 28 39 29 40 30 41 31 42 32 43 33 44 34 45 40 50
REMARK SMILES IDX 41 51 42 52 43 53 44 54
REMARK H PARENT 6 16 16 27 10 29 26 37 33 46 33 47 34 48 34 49 44 55
ROOT
ATOM      1  N   UNL     1     -13.241  -6.465   6.777  1.00  0.00    -0.326 N 
ATOM      2  C   UNL     1     -14.240  -5.975   8.852  1.00  0.00     0.014 C 
ATOM      3  C   UNL     1     -14.229  -7.003   7.717  1.00  0.00     0.091 C 
ATOM      4  C   UNL     1     -14.006  -4.664   8.118  1.00  0.00     0.041 C 
ATOM      5  C   UNL     1     -12.870  -5.082   7.167  1.00  0.00     0.175 C 
ATOM      6  C   UNL     1     -13.977  -8.384   8.319  1.00  0.00     0.059 C 
ATOM      7  C   UNL     1     -15.476  -6.134   9.715  1.00  0.00     0.008 C 
ATOM      8  C   UNL     1     -14.551  -8.556   9.743  1.00  0.00     0.143 C 
ATOM      9  C   UNL     1     -15.754  -7.625   9.998  1.00  0.00     0.034 C 
ENDROOT
BRANCH   1  10
ATOM     10  C   UNL     1     -12.821  -6.957   5.553  1.00  0.00     0.246 C 
ATOM     11  O   UNL     1     -13.650  -7.106   4.648  1.00  0.00    -0.272 OA
BRANCH  10  12
ATOM     12  C   UNL     1     -11.313  -7.269   5.328  1.00  0.00     0.174 C 
BRANCH  12  13
ATOM     13  N   UNL     1     -10.925  -6.902   3.967  1.00  0.00    -0.342 N 
ATOM     14  C   UNL     1     -10.667  -5.620   3.537  1.00  0.00     0.249 C 
ATOM     15  O   UNL     1     -10.708  -4.635   4.264  1.00  0.00    -0.272 OA
ATOM     16  H   UNL     1     -11.003  -7.587   3.219  1.00  0.00     0.164 HD
BRANCH  14  17
ATOM     17  C   UNL     1     -10.299  -5.557   2.039  1.00  0.00     0.207 C 
BRANCH  17  18
ATOM     18  C   UNL     1     -10.409  -6.945   1.401  1.00  0.00     0.077 C 
BRANCH  18  19
ATOM     19  C   UNL     1      -9.943  -6.942  -0.037  1.00  0.00    -0.043 A 
ATOM     20  C   UNL     1      -8.391  -7.687  -1.746  1.00  0.00     0.083 A 
ATOM     21  C   UNL     1      -8.849  -7.730  -0.429  1.00  0.00     0.028 A 
ATOM     22  C   UNL     1      -9.018  -6.857  -2.677  1.00  0.00     0.134 A 
ATOM     23  C   UNL     1     -10.101  -6.072  -2.302  1.00  0.00     0.048 A 
ATOM     24  C   UNL     1     -10.562  -6.112  -0.984  1.00  0.00     0.008 A 
ATOM     25  Cl  UNL     1      -7.046  -8.662  -2.209  1.00  0.00    -0.080 Cl
BRANCH  22  26
ATOM     26  O   UNL     1      -8.597  -6.773  -3.977  1.00  0.00    -0.506 OA
ATOM     27  H   UNL     1      -8.751  -5.854  -4.262  1.00  0.00     0.293 HD
ENDBRANCH  22  26
ENDBRANCH  18  19
ENDBRANCH  17  18
BRANCH  17  28
ATOM     28  O   UNL     1      -8.967  -5.051   1.855  1.00  0.00    -0.383 OA
ATOM     29  H   UNL     1      -8.410  -5.830   1.625  1.00  0.00     0.211 HD
ENDBRANCH  17  28
ENDBRANCH  14  17
ENDBRANCH  12  13
BRANCH  12  30
ATOM     30  C   UNL     1     -10.947  -8.737   5.673  1.00  0.00     0.018 C 
ATOM     31  C   UNL     1     -12.097  -9.688   5.306  1.00  0.00     0.010 C 
BRANCH  30  32
ATOM     32  C   UNL     1     -10.537  -8.944   7.152  1.00  0.00     0.002 C 
ATOM     33  C   UNL     1      -9.537 -10.067   7.399  1.00  0.00     0.004 C 
ENDBRANCH  30  32
ENDBRANCH  12  30
ENDBRANCH  10  12
ENDBRANCH   1  10
BRANCH   5  34
ATOM     34  C   UNL     1     -11.491  -5.063   7.879  1.00  0.00     0.242 C 
ATOM     35  O   UNL     1     -11.270  -5.711   8.902  1.00  0.00    -0.273 OA
ATOM     36  N   UNL     1     -10.552  -4.228   7.316  1.00  0.00    -0.354 N 
ATOM     37  H   UNL     1     -10.832  -3.626   6.541  1.00  0.00     0.163 HD
BRANCH  36  38
ATOM     38  C   UNL     1      -9.161  -4.248   7.716  1.00  0.00     0.116 C 
BRANCH  38  39
ATOM     39  C   UNL     1      -8.390  -5.251   6.861  1.00  0.00     0.023 C 
BRANCH  39  40
ATOM     40  C   UNL     1      -7.526  -4.573   5.803  1.00  0.00     0.026 C 
BRANCH  40  41
ATOM     41  C   UNL     1      -6.278  -5.404   5.507  1.00  0.00     0.146 C 
BRANCH  41  42
ATOM     42  N   UNL     1      -6.616  -6.495   4.602  1.00  0.00    -0.254 NA
ATOM     43  C   UNL     1      -6.453  -6.344   3.341  1.00  0.00     0.185 C 
ATOM     44  N   UNL     1      -5.991  -5.287   2.648  1.00  0.00    -0.370 N 
ATOM     45  N   UNL     1      -6.775  -7.359   2.523  1.00  0.00    -0.370 N 
ATOM     46  H   UNL     1      -6.145  -5.216   1.657  1.00  0.00     0.159 HD
ATOM     47  H   UNL     1      -5.689  -4.436   3.113  1.00  0.00     0.159 HD
ATOM     48  H   UNL     1      -7.123  -8.199   2.965  1.00  0.00     0.159 HD
ATOM     49  H   UNL     1      -6.460  -7.410   1.570  1.00  0.00     0.159 HD
ENDBRANCH  41  42
ENDBRANCH  40  41
ENDBRANCH  39  40
ENDBRANCH  38  39
ENDBRANCH  36  38
ENDBRANCH   5  34
BRANCH   8  50
ATOM     50  O   UNL     1     -13.544  -8.272  10.714  1.00  0.00    -0.245 OA
BRANCH  50  51
ATOM     51  S   UNL     1     -12.959  -9.475  11.639  1.00  0.00     0.397 S 
ATOM     52  O   UNL     1     -12.532 -10.544  10.764  1.00  0.00    -0.169 OA
ATOM     53  O   UNL     1     -13.857  -9.715  12.750  1.00  0.00    -0.169 OA
BRANCH  51  54
ATOM     54  O   UNL     1     -11.610  -8.823  12.224  1.00  0.00    -0.264 OA
ATOM     55  H   UNL     1     -11.749  -7.856  12.287  1.00  0.00     0.236 HD
ENDBRANCH  51  54
ENDBRANCH  50  51
ENDBRANCH   8  50
TORSDOF 19
ENDMDL
MODEL 36
REMARK VINA RESULT:    -6.423     11.212     15.089
REMARK INTER + INTRA:         -16.213
REMARK INTER:                 -11.700
REMARK INTRA:                  -4.513
REMARK UNBOUND:                -3.218
REMARK SMILES CC[C@@H](C)[C@@H](NC(=O)[C@@H](O)Cc1ccc(O)c(Cl)c1)C(=O)N1[C@H](C(=O)NCCCCN=C(N)N)C[C@H]2CC[C@H](OS(=O)(=O)O)C[C@@H]21
REMARK SMILES IDX 22 1 36 2 46 3 35 4 23 5 45 6 37 7 39 8 38 9 20 10 21 11
REMARK SMILES IDX 5 12 6 13 7 14 8 15 9 17 11 18 12 19 17 20 19 21 15 22 14 23
REMARK SMILES IDX 13 24 18 25 16 26 10 28 3 30 4 31 2 32 1 33 24 34 25 35
REMARK SMILES IDX 26 36 27 38 28 39 29 40 30 41 31 42 32 43 33 44 34 45 40 50
REMARK SMILES IDX 41 51 42 52 43 53 44 54
REMARK H PARENT 6 16 16 27 10 29 26 37 33 46 33 47 34 48 34 49 44 55
ROOT
ATOM      1  N   UNL     1     -10.773  -6.094   3.023  1.00  0.00    -0.326 N 
ATOM      2  C   UNL     1     -11.234  -4.138   4.249  1.00  0.00     0.014 C 
ATOM      3  C   UNL     1     -11.889  -5.213   3.378  1.00  0.00     0.091 C 
ATOM      4  C   UNL     1      -9.859  -3.987   3.617  1.00  0.00     0.041 C 
ATOM      5  C   UNL     1      -9.487  -5.468   3.417  1.00  0.00     0.175 C 
ATOM      6  C   UNL     1     -13.065  -5.810   4.149  1.00  0.00     0.059 C 
ATOM      7  C   UNL     1     -12.131  -2.923   4.377  1.00  0.00     0.008 C 
ATOM      8  C   UNL     1     -13.762  -4.806   5.094  1.00  0.00     0.143 C 
ATOM      9  C   UNL     1     -13.594  -3.349   4.616  1.00  0.00     0.034 C 
ENDROOT
BRANCH   1  10
ATOM     10  C   UNL     1     -10.756  -7.231   2.233  1.00  0.00     0.246 C 
ATOM     11  O   UNL     1     -10.936  -7.120   1.015  1.00  0.00    -0.272 OA
BRANCH  10  12
ATOM     12  C   UNL     1     -10.467  -8.614   2.885  1.00  0.00     0.174 C 
BRANCH  12  13
ATOM     13  N   UNL     1     -11.169  -8.718   4.164  1.00  0.00    -0.342 N 
ATOM     14  C   UNL     1     -12.260  -9.524   4.404  1.00  0.00     0.249 C 
ATOM     15  O   UNL     1     -12.751 -10.273   3.568  1.00  0.00    -0.272 OA
ATOM     16  H   UNL     1     -10.975  -8.045   4.901  1.00  0.00     0.164 HD
BRANCH  14  17
ATOM     17  C   UNL     1     -12.786  -9.399   5.849  1.00  0.00     0.207 C 
BRANCH  17  18
ATOM     18  C   UNL     1     -12.219  -8.143   6.519  1.00  0.00     0.077 C 
BRANCH  18  19
ATOM     19  C   UNL     1     -12.020  -8.339   8.005  1.00  0.00    -0.043 A 
ATOM     20  C   UNL     1     -12.937  -8.747  10.213  1.00  0.00     0.083 A 
ATOM     21  C   UNL     1     -13.117  -8.615   8.836  1.00  0.00     0.028 A 
ATOM     22  C   UNL     1     -11.664  -8.603  10.768  1.00  0.00     0.134 A 
ATOM     23  C   UNL     1     -10.570  -8.330   9.956  1.00  0.00     0.048 A 
ATOM     24  C   UNL     1     -10.747  -8.196   8.577  1.00  0.00     0.008 A 
ATOM     25  Cl  UNL     1     -14.297  -9.085  11.218  1.00  0.00    -0.080 Cl
BRANCH  22  26
ATOM     26  O   UNL     1     -11.440  -8.714  12.114  1.00  0.00    -0.506 OA
ATOM     27  H   UNL     1     -10.582  -8.286  12.291  1.00  0.00     0.293 HD
ENDBRANCH  22  26
ENDBRANCH  18  19
ENDBRANCH  17  18
BRANCH  17  28
ATOM     28  O   UNL     1     -12.437 -10.554   6.629  1.00  0.00    -0.383 OA
ATOM     29  H   UNL     1     -11.559 -10.356   7.029  1.00  0.00     0.211 HD
ENDBRANCH  17  28
ENDBRANCH  14  17
ENDBRANCH  12  13
BRANCH  12  30
ATOM     30  C   UNL     1      -8.949  -8.911   3.016  1.00  0.00     0.018 C 
ATOM     31  C   UNL     1      -8.381  -9.449   1.693  1.00  0.00     0.010 C 
BRANCH  30  32
ATOM     32  C   UNL     1      -8.603  -9.877   4.176  1.00  0.00     0.002 C 
ATOM     33  C   UNL     1      -7.120 -10.177   4.351  1.00  0.00     0.004 C 
ENDBRANCH  30  32
ENDBRANCH  12  30
ENDBRANCH  10  12
ENDBRANCH   1  10
BRANCH   5  34
ATOM     34  C   UNL     1      -8.944  -6.103   4.725  1.00  0.00     0.242 C 
ATOM     35  O   UNL     1      -9.688  -6.550   5.598  1.00  0.00    -0.273 OA
ATOM     36  N   UNL     1      -7.574  -6.082   4.862  1.00  0.00    -0.354 N 
ATOM     37  H   UNL     1      -7.018  -5.590   4.161  1.00  0.00     0.163 HD
BRANCH  36  38
ATOM     38  C   UNL     1      -6.890  -6.816   5.906  1.00  0.00     0.116 C 
BRANCH  38  39
ATOM     39  C   UNL     1      -5.904  -5.897   6.625  1.00  0.00     0.023 C 
BRANCH  39  40
ATOM     40  C   UNL     1      -6.176  -5.807   8.122  1.00  0.00     0.026 C 
BRANCH  40  41
ATOM     41  C   UNL     1      -7.004  -4.565   8.449  1.00  0.00     0.146 C 
BRANCH  41  42
ATOM     42  N   UNL     1      -8.416  -4.916   8.511  1.00  0.00    -0.254 NA
ATOM     43  C   UNL     1      -9.269  -4.228   7.849  1.00  0.00     0.185 C 
ATOM     44  N   UNL     1      -9.087  -3.163   7.048  1.00  0.00    -0.370 N 
ATOM     45  N   UNL     1     -10.567  -4.566   7.923  1.00  0.00    -0.370 N 
ATOM     46  H   UNL     1      -9.862  -2.576   6.790  1.00  0.00     0.159 HD
ATOM     47  H   UNL     1      -8.163  -2.782   6.869  1.00  0.00     0.159 HD
ATOM     48  H   UNL     1     -10.791  -5.365   8.500  1.00  0.00     0.159 HD
ATOM     49  H   UNL     1     -11.252  -4.239   7.265  1.00  0.00     0.159 HD
ENDBRANCH  41  42
ENDBRANCH  40  41
ENDBRANCH  39  40
ENDBRANCH  38  39
ENDBRANCH  36  38
ENDBRANCH   5  34
BRANCH   8  50
ATOM     50  O   UNL     1     -13.221  -4.916   6.411  1.00  0.00    -0.245 OA
BRANCH  50  51
ATOM     51  S   UNL     1     -14.225  -5.095   7.678  1.00  0.00     0.397 S 
ATOM     52  O   UNL     1     -13.418  -5.225   8.871  1.00  0.00    -0.169 OA
ATOM     53  O   UNL     1     -15.255  -6.058   7.350  1.00  0.00    -0.169 OA
BRANCH  51  54
ATOM     54  O   UNL     1     -14.912  -3.645   7.769  1.00  0.00    -0.264 OA
ATOM     55  H   UNL     1     -15.577  -3.674   8.488  1.00  0.00     0.236 HD
ENDBRANCH  51  54
ENDBRANCH  50  51
ENDBRANCH   8  50
TORSDOF 19
ENDMDL
MODEL 37
REMARK VINA RESULT:    -6.412      8.623     13.658
REMARK INTER + INTRA:         -16.190
REMARK INTER:                 -13.340
REMARK INTRA:                  -2.850
REMARK UNBOUND:                -3.218
REMARK SMILES CC[C@@H](C)[C@@H](NC(=O)[C@@H](O)Cc1ccc(O)c(Cl)c1)C(=O)N1[C@H](C(=O)NCCCCN=C(N)N)C[C@H]2CC[C@H](OS(=O)(=O)O)C[C@@H]21
REMARK SMILES IDX 22 1 36 2 46 3 35 4 23 5 45 6 37 7 39 8 38 9 20 10 21 11
REMARK SMILES IDX 5 12 6 13 7 14 8 15 9 17 11 18 12 19 17 20 19 21 15 22 14 23
REMARK SMILES IDX 13 24 18 25 16 26 10 28 3 30 4 31 2 32 1 33 24 34 25 35
REMARK SMILES IDX 26 36 27 38 28 39 29 40 30 41 31 42 32 43 33 44 34 45 40 50
REMARK SMILES IDX 41 51 42 52 43 53 44 54
REMARK H PARENT 6 16 16 27 10 29 26 37 33 46 33 47 34 48 34 49 44 55
ROOT
ATOM      1  N   UNL     1       0.227   3.714  -9.905  1.00  0.00    -0.326 N 
ATOM      2  C   UNL     1       2.489   4.322 -10.139  1.00  0.00     0.014 C 
ATOM      3  C   UNL     1       1.562   3.114  -9.980  1.00  0.00     0.091 C 
ATOM      4  C   UNL     1       1.797   5.387  -9.302  1.00  0.00     0.041 C 
ATOM      5  C   UNL     1       0.340   5.186  -9.757  1.00  0.00     0.175 C 
ATOM      6  C   UNL     1       1.852   2.131 -11.114  1.00  0.00     0.059 C 
ATOM      7  C   UNL     1       3.925   3.949  -9.826  1.00  0.00     0.008 C 
ATOM      8  C   UNL     1       3.324   2.137 -11.580  1.00  0.00     0.143 C 
ATOM      9  C   UNL     1       4.284   2.589 -10.462  1.00  0.00     0.034 C 
ENDROOT
BRANCH   1  10
ATOM     10  C   UNL     1      -1.009   3.112  -9.741  1.00  0.00     0.246 C 
ATOM     11  O   UNL     1      -1.999   3.820  -9.527  1.00  0.00    -0.272 OA
BRANCH  10  12
ATOM     12  C   UNL     1      -1.132   1.566  -9.871  1.00  0.00     0.174 C 
BRANCH  12  13
ATOM     13  N   UNL     1      -2.381   1.221 -10.550  1.00  0.00    -0.342 N 
ATOM     14  C   UNL     1      -2.481   0.399 -11.650  1.00  0.00     0.249 C 
ATOM     15  O   UNL     1      -1.526  -0.162 -12.171  1.00  0.00    -0.272 OA
ATOM     16  H   UNL     1      -3.232   1.732 -10.329  1.00  0.00     0.164 HD
BRANCH  14  17
ATOM     17  C   UNL     1      -3.934   0.243 -12.146  1.00  0.00     0.207 C 
BRANCH  17  18
ATOM     18  C   UNL     1      -4.407  -1.204 -11.973  1.00  0.00     0.077 C 
BRANCH  18  19
ATOM     19  C   UNL     1      -4.568  -1.572 -10.515  1.00  0.00    -0.043 A 
ATOM     20  C   UNL     1      -3.995  -2.982  -8.626  1.00  0.00     0.083 A 
ATOM     21  C   UNL     1      -3.808  -2.612  -9.959  1.00  0.00     0.028 A 
ATOM     22  C   UNL     1      -4.940  -2.318  -7.843  1.00  0.00     0.134 A 
ATOM     23  C   UNL     1      -5.699  -1.285  -8.381  1.00  0.00     0.048 A 
ATOM     24  C   UNL     1      -5.516  -0.914  -9.715  1.00  0.00     0.008 A 
ATOM     25  Cl  UNL     1      -3.051  -4.263  -7.961  1.00  0.00    -0.080 Cl
BRANCH  22  26
ATOM     26  O   UNL     1      -5.165  -2.652  -6.535  1.00  0.00    -0.506 OA
ATOM     27  H   UNL     1      -6.091  -2.414  -6.341  1.00  0.00     0.293 HD
ENDBRANCH  22  26
ENDBRANCH  18  19
ENDBRANCH  17  18
BRANCH  17  28
ATOM     28  O   UNL     1      -4.053   0.621 -13.527  1.00  0.00    -0.383 OA
ATOM     29  H   UNL     1      -4.410  -0.167 -13.995  1.00  0.00     0.211 HD
ENDBRANCH  17  28
ENDBRANCH  14  17
ENDBRANCH  12  13
BRANCH  12  30
ATOM     30  C   UNL     1      -0.975   0.835  -8.510  1.00  0.00     0.018 C 
ATOM     31  C   UNL     1       0.028  -0.324  -8.625  1.00  0.00     0.010 C 
BRANCH  30  32
ATOM     32  C   UNL     1      -2.313   0.324  -7.922  1.00  0.00     0.002 C 
ATOM     33  C   UNL     1      -3.057   1.317  -7.038  1.00  0.00     0.004 C 
ENDBRANCH  30  32
ENDBRANCH  12  30
ENDBRANCH  10  12
ENDBRANCH   1  10
BRANCH   5  34
ATOM     34  C   UNL     1       0.059   5.898 -11.107  1.00  0.00     0.242 C 
ATOM     35  O   UNL     1      -0.010   5.285 -12.172  1.00  0.00    -0.273 OA
ATOM     36  N   UNL     1      -0.055   7.268 -11.035  1.00  0.00    -0.354 N 
ATOM     37  H   UNL     1       0.131   7.730 -10.143  1.00  0.00     0.163 HD
BRANCH  36  38
ATOM     38  C   UNL     1      -0.526   8.065 -12.148  1.00  0.00     0.116 C 
BRANCH  38  39
ATOM     39  C   UNL     1       0.556   9.055 -12.572  1.00  0.00     0.023 C 
BRANCH  39  40
ATOM     40  C   UNL     1      -0.024  10.358 -13.110  1.00  0.00     0.026 C 
BRANCH  40  41
ATOM     41  C   UNL     1      -1.446  10.574 -12.591  1.00  0.00     0.146 C 
BRANCH  41  42
ATOM     42  N   UNL     1      -1.712  12.001 -12.462  1.00  0.00    -0.254 NA
ATOM     43  C   UNL     1      -2.544  12.412 -11.580  1.00  0.00     0.185 C 
ATOM     44  N   UNL     1      -3.269  11.718 -10.684  1.00  0.00    -0.370 N 
ATOM     45  N   UNL     1      -2.779  13.731 -11.480  1.00  0.00    -0.370 N 
ATOM     46  H   UNL     1      -4.056  12.142 -10.223  1.00  0.00     0.159 HD
ATOM     47  H   UNL     1      -3.203  10.708 -10.612  1.00  0.00     0.159 HD
ATOM     48  H   UNL     1      -2.265  14.327 -12.114  1.00  0.00     0.159 HD
ATOM     49  H   UNL     1      -3.220  14.145 -10.679  1.00  0.00     0.159 HD
ENDBRANCH  41  42
ENDBRANCH  40  41
ENDBRANCH  39  40
ENDBRANCH  38  39
ENDBRANCH  36  38
ENDBRANCH   5  34
BRANCH   8  50
ATOM     50  O   UNL     1       3.481   3.015 -12.695  1.00  0.00    -0.245 OA
BRANCH  50  51
ATOM     51  S   UNL     1       4.153   2.458 -14.068  1.00  0.00     0.397 S 
ATOM     52  O   UNL     1       5.585   2.629 -13.966  1.00  0.00    -0.169 OA
ATOM     53  O   UNL     1       3.408   2.951 -15.208  1.00  0.00    -0.169 OA
BRANCH  51  54
ATOM     54  O   UNL     1       3.892   0.876 -13.951  1.00  0.00    -0.264 OA
ATOM     55  H   UNL     1       4.736   0.452 -13.692  1.00  0.00     0.236 HD
ENDBRANCH  51  54
ENDBRANCH  50  51
ENDBRANCH   8  50
TORSDOF 19
ENDMDL
MODEL 38
REMARK VINA RESULT:    -6.396     10.926     15.778
REMARK INTER + INTRA:         -16.157
REMARK INTER:                 -13.477
REMARK INTRA:                  -2.680
REMARK UNBOUND:                -3.218
REMARK SMILES CC[C@@H](C)[C@@H](NC(=O)[C@@H](O)Cc1ccc(O)c(Cl)c1)C(=O)N1[C@H](C(=O)NCCCCN=C(N)N)C[C@H]2CC[C@H](OS(=O)(=O)O)C[C@@H]21
REMARK SMILES IDX 22 1 36 2 46 3 35 4 23 5 45 6 37 7 39 8 38 9 20 10 21 11
REMARK SMILES IDX 5 12 6 13 7 14 8 15 9 17 11 18 12 19 17 20 19 21 15 22 14 23
REMARK SMILES IDX 13 24 18 25 16 26 10 28 3 30 4 31 2 32 1 33 24 34 25 35
REMARK SMILES IDX 26 36 27 38 28 39 29 40 30 41 31 42 32 43 33 44 34 45 40 50
REMARK SMILES IDX 41 51 42 52 43 53 44 54
REMARK H PARENT 6 16 16 27 10 29 26 37 33 46 33 47 34 48 34 49 44 55
ROOT
ATOM      1  N   UNL     1     -11.804  -7.822   5.053  1.00  0.00    -0.326 N 
ATOM      2  C   UNL     1     -12.027  -5.609   5.825  1.00  0.00     0.014 C 
ATOM      3  C   UNL     1     -11.767  -7.043   6.294  1.00  0.00     0.091 C 
ATOM      4  C   UNL     1     -12.994  -5.806   4.667  1.00  0.00     0.041 C 
ATOM      5  C   UNL     1     -12.313  -6.981   3.941  1.00  0.00     0.175 C 
ATOM      6  C   UNL     1     -10.481  -7.055   7.118  1.00  0.00     0.059 C 
ATOM      7  C   UNL     1     -12.430  -4.723   6.987  1.00  0.00     0.008 C 
ATOM      8  C   UNL     1     -10.230  -5.747   7.898  1.00  0.00     0.143 C 
ATOM      9  C   UNL     1     -11.542  -5.002   8.218  1.00  0.00     0.034 C 
ENDROOT
BRANCH   1  10
ATOM     10  C   UNL     1     -11.653  -9.183   4.854  1.00  0.00     0.246 C 
ATOM     11  O   UNL     1     -12.549  -9.810   4.279  1.00  0.00    -0.272 OA
BRANCH  10  12
ATOM     12  C   UNL     1     -10.345  -9.886   5.320  1.00  0.00     0.174 C 
BRANCH  12  13
ATOM     13  N   UNL     1     -10.334 -10.006   6.777  1.00  0.00    -0.342 N 
ATOM     14  C   UNL     1     -11.067 -10.921   7.499  1.00  0.00     0.249 C 
ATOM     15  O   UNL     1     -11.797 -11.764   6.992  1.00  0.00    -0.272 OA
ATOM     16  H   UNL     1      -9.901  -9.278   7.340  1.00  0.00     0.164 HD
BRANCH  14  17
ATOM     17  C   UNL     1     -10.855 -10.785   9.022  1.00  0.00     0.207 C 
BRANCH  17  18
ATOM     18  C   UNL     1     -11.143  -9.351   9.477  1.00  0.00     0.077 C 
BRANCH  18  19
ATOM     19  C   UNL     1     -12.537  -9.212  10.047  1.00  0.00    -0.043 A 
ATOM     20  C   UNL     1     -14.791  -8.328   9.898  1.00  0.00     0.083 A 
ATOM     21  C   UNL     1     -13.520  -8.496   9.346  1.00  0.00     0.028 A 
ATOM     22  C   UNL     1     -15.087  -8.870  11.149  1.00  0.00     0.134 A 
ATOM     23  C   UNL     1     -14.123  -9.581  11.853  1.00  0.00     0.048 A 
ATOM     24  C   UNL     1     -12.849  -9.750  11.305  1.00  0.00     0.008 A 
ATOM     25  Cl  UNL     1     -15.986  -7.445   9.022  1.00  0.00    -0.080 Cl
BRANCH  22  26
ATOM     26  O   UNL     1     -16.315  -8.722  11.734  1.00  0.00    -0.506 OA
ATOM     27  H   UNL     1     -16.409  -7.776  11.953  1.00  0.00     0.293 HD
ENDBRANCH  22  26
ENDBRANCH  18  19
ENDBRANCH  17  18
BRANCH  17  28
ATOM     28  O   UNL     1      -9.513 -11.141   9.391  1.00  0.00    -0.383 OA
ATOM     29  H   UNL     1      -8.927 -10.479   8.959  1.00  0.00     0.211 HD
ENDBRANCH  17  28
ENDBRANCH  14  17
ENDBRANCH  12  13
BRANCH  12  30
ATOM     30  C   UNL     1      -9.066  -9.195   4.773  1.00  0.00     0.018 C 
ATOM     31  C   UNL     1      -8.898  -9.466   3.270  1.00  0.00     0.010 C 
BRANCH  30  32
ATOM     32  C   UNL     1      -7.775  -9.587   5.532  1.00  0.00     0.002 C 
ATOM     33  C   UNL     1      -7.076  -8.447   6.262  1.00  0.00     0.004 C 
ENDBRANCH  30  32
ENDBRANCH  12  30
ENDBRANCH  10  12
ENDBRANCH   1  10
BRANCH   5  34
ATOM     34  C   UNL     1     -11.147  -6.498   3.038  1.00  0.00     0.242 C 
ATOM     35  O   UNL     1     -10.040  -6.209   3.492  1.00  0.00    -0.273 OA
ATOM     36  N   UNL     1     -11.457  -6.364   1.703  1.00  0.00    -0.354 N 
ATOM     37  H   UNL     1     -12.424  -6.503   1.407  1.00  0.00     0.163 HD
BRANCH  36  38
ATOM     38  C   UNL     1     -10.444  -6.135   0.694  1.00  0.00     0.116 C 
BRANCH  38  39
ATOM     39  C   UNL     1      -9.715  -7.441   0.385  1.00  0.00     0.023 C 
BRANCH  39  40
ATOM     40  C   UNL     1      -8.942  -7.380  -0.928  1.00  0.00     0.026 C 
BRANCH  40  41
ATOM     41  C   UNL     1      -7.472  -7.046  -0.676  1.00  0.00     0.146 C 
BRANCH  41  42
ATOM     42  N   UNL     1      -7.178  -5.709  -1.174  1.00  0.00    -0.254 NA
ATOM     43  C   UNL     1      -6.848  -4.785  -0.351  1.00  0.00     0.185 C 
ATOM     44  N   UNL     1      -6.711  -4.827   0.987  1.00  0.00    -0.370 N 
ATOM     45  N   UNL     1      -6.586  -3.558  -0.829  1.00  0.00    -0.370 N 
ATOM     46  H   UNL     1      -6.688  -3.979   1.527  1.00  0.00     0.159 HD
ATOM     47  H   UNL     1      -6.859  -5.684   1.511  1.00  0.00     0.159 HD
ATOM     48  H   UNL     1      -6.657  -3.442  -1.831  1.00  0.00     0.159 HD
ATOM     49  H   UNL     1      -6.100  -2.859  -0.296  1.00  0.00     0.159 HD
ENDBRANCH  41  42
ENDBRANCH  40  41
ENDBRANCH  39  40
ENDBRANCH  38  39
ENDBRANCH  36  38
ENDBRANCH   5  34
BRANCH   8  50
ATOM     50  O   UNL     1      -9.389  -4.877   7.140  1.00  0.00    -0.245 OA
BRANCH  50  51
ATOM     51  S   UNL     1      -8.026  -4.293   7.810  1.00  0.00     0.397 S 
ATOM     52  O   UNL     1      -6.964  -5.240   7.559  1.00  0.00    -0.169 OA
ATOM     53  O   UNL     1      -8.311  -3.806   9.143  1.00  0.00    -0.169 OA
BRANCH  51  54
ATOM     54  O   UNL     1      -7.711  -3.023   6.875  1.00  0.00    -0.264 OA
ATOM     55  H   UNL     1      -7.741  -2.223   7.438  1.00  0.00     0.236 HD
ENDBRANCH  51  54
ENDBRANCH  50  51
ENDBRANCH   8  50
TORSDOF 19
ENDMDL
MODEL 39
REMARK VINA RESULT:    -6.393     12.929     16.517
REMARK INTER + INTRA:         -16.151
REMARK INTER:                 -11.630
REMARK INTRA:                  -4.521
REMARK UNBOUND:                -3.218
REMARK SMILES CC[C@@H](C)[C@@H](NC(=O)[C@@H](O)Cc1ccc(O)c(Cl)c1)C(=O)N1[C@H](C(=O)NCCCCN=C(N)N)C[C@H]2CC[C@H](OS(=O)(=O)O)C[C@@H]21
REMARK SMILES IDX 22 1 36 2 46 3 35 4 23 5 45 6 37 7 39 8 38 9 20 10 21 11
REMARK SMILES IDX 5 12 6 13 7 14 8 15 9 17 11 18 12 19 17 20 19 21 15 22 14 23
REMARK SMILES IDX 13 24 18 25 16 26 10 28 3 30 4 31 2 32 1 33 24 34 25 35
REMARK SMILES IDX 26 36 27 38 28 39 29 40 30 41 31 42 32 43 33 44 34 45 40 50
REMARK SMILES IDX 41 51 42 52 43 53 44 54
REMARK H PARENT 6 16 16 27 10 29 26 37 33 46 33 47 34 48 34 49 44 55
ROOT
ATOM      1  N   UNL     1     -10.604  -6.860   5.070  1.00  0.00    -0.326 N 
ATOM      2  C   UNL     1     -10.243  -8.870   6.240  1.00  0.00     0.014 C 
ATOM      3  C   UNL     1      -9.528  -7.789   5.426  1.00  0.00     0.091 C 
ATOM      4  C   UNL     1     -11.603  -8.954   5.565  1.00  0.00     0.041 C 
ATOM      5  C   UNL     1     -11.921  -7.456   5.406  1.00  0.00     0.175 C 
ATOM      6  C   UNL     1      -8.356  -7.259   6.250  1.00  0.00     0.059 C 
ATOM      7  C   UNL     1      -9.390 -10.119   6.351  1.00  0.00     0.008 C 
ATOM      8  C   UNL     1      -7.721  -8.316   7.178  1.00  0.00     0.143 C 
ATOM      9  C   UNL     1      -7.921  -9.749   6.646  1.00  0.00     0.034 C 
ENDROOT
BRANCH   1  10
ATOM     10  C   UNL     1     -10.562  -5.697   4.320  1.00  0.00     0.246 C 
ATOM     11  O   UNL     1     -10.477  -5.778   3.090  1.00  0.00    -0.272 OA
BRANCH  10  12
ATOM     12  C   UNL     1     -10.664  -4.319   5.035  1.00  0.00     0.174 C 
BRANCH  12  13
ATOM     13  N   UNL     1      -9.982  -4.375   6.327  1.00  0.00    -0.342 N 
ATOM     14  C   UNL     1      -8.912  -3.589   6.691  1.00  0.00     0.249 C 
ATOM     15  O   UNL     1      -8.425  -2.725   5.973  1.00  0.00    -0.272 OA
ATOM     16  H   UNL     1     -10.172  -5.145   6.963  1.00  0.00     0.164 HD
BRANCH  14  17
ATOM     17  C   UNL     1      -8.402  -3.899   8.115  1.00  0.00     0.207 C 
BRANCH  17  18
ATOM     18  C   UNL     1      -6.874  -3.999   8.127  1.00  0.00     0.077 C 
BRANCH  18  19
ATOM     19  C   UNL     1      -6.321  -3.996   9.534  1.00  0.00    -0.043 A 
ATOM     20  C   UNL     1      -4.740  -4.830  11.174  1.00  0.00     0.083 A 
ATOM     21  C   UNL     1      -5.217  -4.797   9.863  1.00  0.00     0.028 A 
ATOM     22  C   UNL     1      -5.363  -4.066  12.162  1.00  0.00     0.134 A 
ATOM     23  C   UNL     1      -6.457  -3.268  11.851  1.00  0.00     0.048 A 
ATOM     24  C   UNL     1      -6.938  -3.235  10.540  1.00  0.00     0.008 A 
ATOM     25  Cl  UNL     1      -3.382  -5.820  11.559  1.00  0.00    -0.080 Cl
BRANCH  22  26
ATOM     26  O   UNL     1      -4.938  -4.074  13.464  1.00  0.00    -0.506 OA
ATOM     27  H   UNL     1      -4.091  -4.557  13.479  1.00  0.00     0.293 HD
ENDBRANCH  22  26
ENDBRANCH  18  19
ENDBRANCH  17  18
BRANCH  17  28
ATOM     28  O   UNL     1      -8.964  -5.125   8.610  1.00  0.00    -0.383 OA
ATOM     29  H   UNL     1      -9.685  -4.864   9.228  1.00  0.00     0.211 HD
ENDBRANCH  17  28
ENDBRANCH  14  17
ENDBRANCH  12  13
BRANCH  12  30
ATOM     30  C   UNL     1     -12.127  -3.814   5.159  1.00  0.00     0.018 C 
ATOM     31  C   UNL     1     -12.961  -4.253   3.945  1.00  0.00     0.010 C 
BRANCH  30  32
ATOM     32  C   UNL     1     -12.242  -2.283   5.357  1.00  0.00     0.002 C 
ATOM     33  C   UNL     1     -13.580  -1.673   4.959  1.00  0.00     0.004 C 
ENDBRANCH  30  32
ENDBRANCH  12  30
ENDBRANCH  10  12
ENDBRANCH   1  10
BRANCH   5  34
ATOM     34  C   UNL     1     -12.481  -6.847   6.720  1.00  0.00     0.242 C 
ATOM     35  O   UNL     1     -11.748  -6.407   7.606  1.00  0.00    -0.273 OA
ATOM     36  N   UNL     1     -13.852  -6.886   6.846  1.00  0.00    -0.354 N 
ATOM     37  H   UNL     1     -14.397  -7.372   6.132  1.00  0.00     0.163 HD
BRANCH  36  38
ATOM     38  C   UNL     1     -14.552  -6.176   7.896  1.00  0.00     0.116 C 
BRANCH  38  39
ATOM     39  C   UNL     1     -15.432  -7.147   8.680  1.00  0.00     0.023 C 
BRANCH  39  40
ATOM     40  C   UNL     1     -14.935  -7.361  10.106  1.00  0.00     0.026 C 
BRANCH  40  41
ATOM     41  C   UNL     1     -14.427  -8.791  10.294  1.00  0.00     0.146 C 
BRANCH  41  42
ATOM     42  N   UNL     1     -13.158  -8.957   9.599  1.00  0.00    -0.254 NA
ATOM     43  C   UNL     1     -12.061  -8.755  10.226  1.00  0.00     0.185 C 
ATOM     44  N   UNL     1     -11.849  -8.392  11.504  1.00  0.00    -0.370 N 
ATOM     45  N   UNL     1     -10.901  -8.910   9.566  1.00  0.00    -0.370 N 
ATOM     46  H   UNL     1     -10.955  -8.033  11.794  1.00  0.00     0.159 HD
ATOM     47  H   UNL     1     -12.618  -8.245  12.151  1.00  0.00     0.159 HD
ATOM     48  H   UNL     1     -10.971  -9.193   8.598  1.00  0.00     0.159 HD
ATOM     49  H   UNL     1     -10.017  -9.004  10.034  1.00  0.00     0.159 HD
ENDBRANCH  41  42
ENDBRANCH  40  41
ENDBRANCH  39  40
ENDBRANCH  38  39
ENDBRANCH  36  38
ENDBRANCH   5  34
BRANCH   8  50
ATOM     50  O   UNL     1      -8.295  -8.232   8.483  1.00  0.00    -0.245 OA
BRANCH  50  51
ATOM     51  S   UNL     1      -7.324  -8.148   9.785  1.00  0.00     0.397 S 
ATOM     52  O   UNL     1      -7.719  -6.996  10.563  1.00  0.00    -0.169 OA
ATOM     53  O   UNL     1      -5.949  -8.356   9.379  1.00  0.00    -0.169 OA
BRANCH  51  54
ATOM     54  O   UNL     1      -7.789  -9.431  10.634  1.00  0.00    -0.264 OA
ATOM     55  H   UNL     1      -7.776  -9.183  11.581  1.00  0.00     0.236 HD
ENDBRANCH  51  54
ENDBRANCH  50  51
ENDBRANCH   8  50
TORSDOF 19
ENDMDL
MODEL 40
REMARK VINA RESULT:    -6.382     12.512     17.065
REMARK INTER + INTRA:         -16.129
REMARK INTER:                 -11.371
REMARK INTRA:                  -4.758
REMARK UNBOUND:                -3.218
REMARK SMILES CC[C@@H](C)[C@@H](NC(=O)[C@@H](O)Cc1ccc(O)c(Cl)c1)C(=O)N1[C@H](C(=O)NCCCCN=C(N)N)C[C@H]2CC[C@H](OS(=O)(=O)O)C[C@@H]21
REMARK SMILES IDX 22 1 36 2 46 3 35 4 23 5 45 6 37 7 39 8 38 9 20 10 21 11
REMARK SMILES IDX 5 12 6 13 7 14 8 15 9 17 11 18 12 19 17 20 19 21 15 22 14 23
REMARK SMILES IDX 13 24 18 25 16 26 10 28 3 30 4 31 2 32 1 33 24 34 25 35
REMARK SMILES IDX 26 36 27 38 28 39 29 40 30 41 31 42 32 43 33 44 34 45 40 50
REMARK SMILES IDX 41 51 42 52 43 53 44 54
REMARK H PARENT 6 16 16 27 10 29 26 37 33 46 33 47 34 48 34 49 44 55
ROOT
ATOM      1  N   UNL     1     -10.310  -5.656   5.909  1.00  0.00    -0.326 N 
ATOM      2  C   UNL     1      -8.218  -4.575   5.909  1.00  0.00     0.014 C 
ATOM      3  C   UNL     1      -9.414  -4.916   6.803  1.00  0.00     0.091 C 
ATOM      4  C   UNL     1      -8.868  -4.350   4.553  1.00  0.00     0.041 C 
ATOM      5  C   UNL     1      -9.831  -5.550   4.509  1.00  0.00     0.175 C 
ATOM      6  C   UNL     1      -8.896  -5.620   8.056  1.00  0.00     0.059 C 
ATOM      7  C   UNL     1      -7.379  -3.473   6.524  1.00  0.00     0.008 C 
ATOM      8  C   UNL     1      -7.492  -5.153   8.495  1.00  0.00     0.143 C 
ATOM      9  C   UNL     1      -7.191  -3.711   8.037  1.00  0.00     0.034 C 
ENDROOT
BRANCH   1  10
ATOM     10  C   UNL     1     -11.558  -6.203   6.156  1.00  0.00     0.246 C 
ATOM     11  O   UNL     1     -11.975  -7.106   5.423  1.00  0.00    -0.272 OA
BRANCH  10  12
ATOM     12  C   UNL     1     -12.388  -5.700   7.373  1.00  0.00     0.174 C 
BRANCH  12  13
ATOM     13  N   UNL     1     -13.098  -6.820   7.989  1.00  0.00    -0.342 N 
ATOM     14  C   UNL     1     -13.038  -7.157   9.323  1.00  0.00     0.249 C 
ATOM     15  O   UNL     1     -12.396  -6.531  10.156  1.00  0.00    -0.272 OA
ATOM     16  H   UNL     1     -13.543  -7.520   7.400  1.00  0.00     0.164 HD
BRANCH  14  17
ATOM     17  C   UNL     1     -13.887  -8.402   9.661  1.00  0.00     0.207 C 
BRANCH  17  18
ATOM     18  C   UNL     1     -15.082  -8.013  10.537  1.00  0.00     0.077 C 
BRANCH  18  19
ATOM     19  C   UNL     1     -16.042  -7.102   9.806  1.00  0.00    -0.043 A 
ATOM     20  C   UNL     1     -17.011  -4.904   9.469  1.00  0.00     0.083 A 
ATOM     21  C   UNL     1     -16.090  -5.732  10.110  1.00  0.00     0.028 A 
ATOM     22  C   UNL     1     -17.888  -5.436   8.523  1.00  0.00     0.134 A 
ATOM     23  C   UNL     1     -17.851  -6.790   8.211  1.00  0.00     0.048 A 
ATOM     24  C   UNL     1     -16.931  -7.622   8.853  1.00  0.00     0.008 A 
ATOM     25  Cl  UNL     1     -17.056  -3.224   9.857  1.00  0.00    -0.080 Cl
BRANCH  22  26
ATOM     26  O   UNL     1     -18.816  -4.665   7.875  1.00  0.00    -0.506 OA
ATOM     27  H   UNL     1     -18.341  -3.886   7.530  1.00  0.00     0.293 HD
ENDBRANCH  22  26
ENDBRANCH  18  19
ENDBRANCH  17  18
BRANCH  17  28
ATOM     28  O   UNL     1     -13.101  -9.394  10.340  1.00  0.00    -0.383 OA
ATOM     29  H   UNL     1     -13.415 -10.265  10.007  1.00  0.00     0.211 HD
ENDBRANCH  17  28
ENDBRANCH  14  17
ENDBRANCH  12  13
BRANCH  12  30
ATOM     30  C   UNL     1     -13.335  -4.526   7.009  1.00  0.00     0.018 C 
ATOM     31  C   UNL     1     -14.716  -5.049   6.584  1.00  0.00     0.010 C 
BRANCH  30  32
ATOM     32  C   UNL     1     -12.766  -3.582   5.922  1.00  0.00     0.002 C 
ATOM     33  C   UNL     1     -13.573  -3.512   4.633  1.00  0.00     0.004 C 
ENDBRANCH  30  32
ENDBRANCH  12  30
ENDBRANCH  10  12
ENDBRANCH   1  10
BRANCH   5  34
ATOM     34  C   UNL     1      -9.105  -6.851   4.075  1.00  0.00     0.242 C 
ATOM     35  O   UNL     1      -8.570  -6.970   2.973  1.00  0.00    -0.273 OA
ATOM     36  N   UNL     1      -9.150  -7.880   4.989  1.00  0.00    -0.354 N 
ATOM     37  H   UNL     1      -9.711  -7.762   5.834  1.00  0.00     0.163 HD
BRANCH  36  38
ATOM     38  C   UNL     1      -8.351  -9.078   4.844  1.00  0.00     0.116 C 
BRANCH  38  39
ATOM     39  C   UNL     1      -8.561  -9.991   6.050  1.00  0.00     0.023 C 
BRANCH  39  40
ATOM     40  C   UNL     1      -9.450  -9.355   7.114  1.00  0.00     0.026 C 
BRANCH  40  41
ATOM     41  C   UNL     1      -9.466 -10.204   8.385  1.00  0.00     0.146 C 
BRANCH  41  42
ATOM     42  N   UNL     1     -10.234  -9.525   9.421  1.00  0.00    -0.254 NA
ATOM     43  C   UNL     1      -9.623  -8.943  10.383  1.00  0.00     0.185 C 
ATOM     44  N   UNL     1      -8.305  -8.834  10.631  1.00  0.00    -0.370 N 
ATOM     45  N   UNL     1     -10.349  -8.327  11.330  1.00  0.00    -0.370 N 
ATOM     46  H   UNL     1      -7.975  -8.565  11.542  1.00  0.00     0.159 HD
ATOM     47  H   UNL     1      -7.610  -9.232  10.006  1.00  0.00     0.159 HD
ATOM     48  H   UNL     1     -11.353  -8.354  11.214  1.00  0.00     0.159 HD
ATOM     49  H   UNL     1      -9.955  -7.660  11.970  1.00  0.00     0.159 HD
ENDBRANCH  41  42
ENDBRANCH  40  41
ENDBRANCH  39  40
ENDBRANCH  38  39
ENDBRANCH  36  38
ENDBRANCH   5  34
BRANCH   8  50
ATOM     50  O   UNL     1      -6.495  -6.019   7.952  1.00  0.00    -0.245 OA
BRANCH  50  51
ATOM     51  S   UNL     1      -5.818  -7.157   8.897  1.00  0.00     0.397 S 
ATOM     52  O   UNL     1      -6.218  -8.451   8.392  1.00  0.00    -0.169 OA
ATOM     53  O   UNL     1      -5.991  -6.798  10.290  1.00  0.00    -0.169 OA
BRANCH  51  54
ATOM     54  O   UNL     1      -4.258  -7.009   8.537  1.00  0.00    -0.264 OA
ATOM     55  H   UNL     1      -4.041  -7.689   7.867  1.00  0.00     0.236 HD
ENDBRANCH  51  54
ENDBRANCH  50  51
ENDBRANCH   8  50
TORSDOF 19
ENDMDL
MODEL 41
REMARK VINA RESULT:    -6.375     11.119     15.378
REMARK INTER + INTRA:         -16.115
REMARK INTER:                 -10.615
REMARK INTRA:                  -5.499
REMARK UNBOUND:                -3.218
REMARK SMILES CC[C@@H](C)[C@@H](NC(=O)[C@@H](O)Cc1ccc(O)c(Cl)c1)C(=O)N1[C@H](C(=O)NCCCCN=C(N)N)C[C@H]2CC[C@H](OS(=O)(=O)O)C[C@@H]21
REMARK SMILES IDX 22 1 36 2 46 3 35 4 23 5 45 6 37 7 39 8 38 9 20 10 21 11
REMARK SMILES IDX 5 12 6 13 7 14 8 15 9 17 11 18 12 19 17 20 19 21 15 22 14 23
REMARK SMILES IDX 13 24 18 25 16 26 10 28 3 30 4 31 2 32 1 33 24 34 25 35
REMARK SMILES IDX 26 36 27 38 28 39 29 40 30 41 31 42 32 43 33 44 34 45 40 50
REMARK SMILES IDX 41 51 42 52 43 53 44 54
REMARK H PARENT 6 16 16 27 10 29 26 37 33 46 33 47 34 48 34 49 44 55
ROOT
ATOM      1  N   UNL     1     -10.957   3.770   0.774  1.00  0.00    -0.326 N 
ATOM      2  C   UNL     1      -9.566   2.794   2.403  1.00  0.00     0.014 C 
ATOM      3  C   UNL     1     -10.635   2.465   1.358  1.00  0.00     0.091 C 
ATOM      4  C   UNL     1     -10.003   4.160   2.911  1.00  0.00     0.041 C 
ATOM      5  C   UNL     1     -10.336   4.853   1.577  1.00  0.00     0.175 C 
ATOM      6  C   UNL     1     -10.091   1.374   0.437  1.00  0.00     0.059 C 
ATOM      7  C   UNL     1      -9.400   1.653   3.387  1.00  0.00     0.008 C 
ATOM      8  C   UNL     1      -9.123   0.396   1.137  1.00  0.00     0.143 C 
ATOM      9  C   UNL     1      -9.394   0.297   2.652  1.00  0.00     0.034 C 
ENDROOT
BRANCH   1  10
ATOM     10  C   UNL     1     -11.873   4.101  -0.210  1.00  0.00     0.246 C 
ATOM     11  O   UNL     1     -11.467   4.341  -1.353  1.00  0.00    -0.272 OA
BRANCH  10  12
ATOM     12  C   UNL     1     -13.391   4.122   0.130  1.00  0.00     0.174 C 
BRANCH  12  13
ATOM     13  N   UNL     1     -13.599   4.724   1.446  1.00  0.00    -0.342 N 
ATOM     14  C   UNL     1     -13.921   6.044   1.670  1.00  0.00     0.249 C 
ATOM     15  O   UNL     1     -14.098   6.863   0.777  1.00  0.00    -0.272 OA
ATOM     16  H   UNL     1     -13.334   4.210   2.283  1.00  0.00     0.164 HD
BRANCH  14  17
ATOM     17  C   UNL     1     -14.056   6.378   3.171  1.00  0.00     0.207 C 
BRANCH  17  18
ATOM     18  C   UNL     1     -14.472   5.134   3.961  1.00  0.00     0.077 C 
BRANCH  18  19
ATOM     19  C   UNL     1     -13.332   4.589   4.792  1.00  0.00    -0.043 A 
ATOM     20  C   UNL     1     -12.139   2.705   5.747  1.00  0.00     0.083 A 
ATOM     21  C   UNL     1     -13.162   3.203   4.939  1.00  0.00     0.028 A 
ATOM     22  C   UNL     1     -11.283   3.584   6.412  1.00  0.00     0.134 A 
ATOM     23  C   UNL     1     -11.440   4.958   6.275  1.00  0.00     0.048 A 
ATOM     24  C   UNL     1     -12.464   5.460   5.469  1.00  0.00     0.008 A 
ATOM     25  Cl  UNL     1     -11.946   0.999   5.915  1.00  0.00    -0.080 Cl
BRANCH  22  26
ATOM     26  O   UNL     1     -10.272   3.142   7.222  1.00  0.00    -0.506 OA
ATOM     27  H   UNL     1      -9.452   3.560   6.901  1.00  0.00     0.293 HD
ENDBRANCH  22  26
ENDBRANCH  18  19
ENDBRANCH  17  18
BRANCH  17  28
ATOM     28  O   UNL     1     -15.020   7.422   3.383  1.00  0.00    -0.383 OA
ATOM     29  H   UNL     1     -14.508   8.262   3.416  1.00  0.00     0.211 HD
ENDBRANCH  17  28
ENDBRANCH  14  17
ENDBRANCH  12  13
BRANCH  12  30
ATOM     30  C   UNL     1     -14.053   2.723   0.007  1.00  0.00     0.018 C 
ATOM     31  C   UNL     1     -14.638   2.517  -1.399  1.00  0.00     0.010 C 
BRANCH  30  32
ATOM     32  C   UNL     1     -15.136   2.452   1.079  1.00  0.00     0.002 C 
ATOM     33  C   UNL     1     -15.712   1.042   1.081  1.00  0.00     0.004 C 
ENDBRANCH  30  32
ENDBRANCH  12  30
ENDBRANCH  10  12
ENDBRANCH   1  10
BRANCH   5  34
ATOM     34  C   UNL     1      -9.059   5.392   0.878  1.00  0.00     0.242 C 
ATOM     35  O   UNL     1      -8.310   6.208   1.414  1.00  0.00    -0.273 OA
ATOM     36  N   UNL     1      -8.855   4.933  -0.404  1.00  0.00    -0.354 N 
ATOM     37  H   UNL     1      -9.573   4.352  -0.838  1.00  0.00     0.163 HD
BRANCH  36  38
ATOM     38  C   UNL     1      -7.616   5.160  -1.118  1.00  0.00     0.116 C 
BRANCH  38  39
ATOM     39  C   UNL     1      -7.778   6.336  -2.078  1.00  0.00     0.023 C 
BRANCH  39  40
ATOM     40  C   UNL     1      -8.973   6.167  -3.010  1.00  0.00     0.026 C 
BRANCH  40  41
ATOM     41  C   UNL     1      -9.887   7.391  -2.947  1.00  0.00     0.146 C 
BRANCH  41  42
ATOM     42  N   UNL     1     -10.054   7.810  -1.562  1.00  0.00    -0.254 NA
ATOM     43  C   UNL     1     -11.212   7.758  -1.019  1.00  0.00     0.185 C 
ATOM     44  N   UNL     1     -12.390   7.357  -1.531  1.00  0.00    -0.370 N 
ATOM     45  N   UNL     1     -11.345   8.154   0.258  1.00  0.00    -0.370 N 
ATOM     46  H   UNL     1     -13.255   7.598  -1.077  1.00  0.00     0.159 HD
ATOM     47  H   UNL     1     -12.468   7.013  -2.483  1.00  0.00     0.159 HD
ATOM     48  H   UNL     1     -10.502   8.464   0.721  1.00  0.00     0.159 HD
ATOM     49  H   UNL     1     -12.148   7.925   0.817  1.00  0.00     0.159 HD
ENDBRANCH  41  42
ENDBRANCH  40  41
ENDBRANCH  39  40
ENDBRANCH  38  39
ENDBRANCH  36  38
ENDBRANCH   5  34
BRANCH   8  50
ATOM     50  O   UNL     1      -7.773   0.822   0.945  1.00  0.00    -0.245 OA
BRANCH  50  51
ATOM     51  S   UNL     1      -6.993   0.424  -0.425  1.00  0.00     0.397 S 
ATOM     52  O   UNL     1      -6.805   1.631  -1.199  1.00  0.00    -0.169 OA
ATOM     53  O   UNL     1      -7.594  -0.761  -1.000  1.00  0.00    -0.169 OA
BRANCH  51  54
ATOM     54  O   UNL     1      -5.535   0.024   0.123  1.00  0.00    -0.264 OA
ATOM     55  H   UNL     1      -4.950  -0.104  -0.651  1.00  0.00     0.236 HD
ENDBRANCH  51  54
ENDBRANCH  50  51
ENDBRANCH   8  50
TORSDOF 19
ENDMDL
MODEL 42
REMARK VINA RESULT:    -6.355     10.891     15.587
REMARK INTER + INTRA:         -16.074
REMARK INTER:                 -11.127
REMARK INTRA:                  -4.947
REMARK UNBOUND:                -3.218
REMARK SMILES CC[C@@H](C)[C@@H](NC(=O)[C@@H](O)Cc1ccc(O)c(Cl)c1)C(=O)N1[C@H](C(=O)NCCCCN=C(N)N)C[C@H]2CC[C@H](OS(=O)(=O)O)C[C@@H]21
REMARK SMILES IDX 22 1 36 2 46 3 35 4 23 5 45 6 37 7 39 8 38 9 20 10 21 11
REMARK SMILES IDX 5 12 6 13 7 14 8 15 9 17 11 18 12 19 17 20 19 21 15 22 14 23
REMARK SMILES IDX 13 24 18 25 16 26 10 28 3 30 4 31 2 32 1 33 24 34 25 35
REMARK SMILES IDX 26 36 27 38 28 39 29 40 30 41 31 42 32 43 33 44 34 45 40 50
REMARK SMILES IDX 41 51 42 52 43 53 44 54
REMARK H PARENT 6 16 16 27 10 29 26 37 33 46 33 47 34 48 34 49 44 55
ROOT
ATOM      1  N   UNL     1     -10.601  -7.961   6.020  1.00  0.00    -0.326 N 
ATOM      2  C   UNL     1     -12.840  -7.390   5.571  1.00  0.00     0.014 C 
ATOM      3  C   UNL     1     -11.527  -6.830   6.127  1.00  0.00     0.091 C 
ATOM      4  C   UNL     1     -12.803  -8.841   6.022  1.00  0.00     0.041 C 
ATOM      5  C   UNL     1     -11.346  -9.197   5.678  1.00  0.00     0.175 C 
ATOM      6  C   UNL     1     -11.192  -5.545   5.373  1.00  0.00     0.059 C 
ATOM      7  C   UNL     1     -14.013  -6.516   5.969  1.00  0.00     0.008 C 
ATOM      8  C   UNL     1     -12.435  -4.753   4.911  1.00  0.00     0.143 C 
ATOM      9  C   UNL     1     -13.660  -5.023   5.807  1.00  0.00     0.034 C 
ENDROOT
BRANCH   1  10
ATOM     10  C   UNL     1      -9.269  -8.055   6.388  1.00  0.00     0.246 C 
ATOM     11  O   UNL     1      -8.402  -7.623   5.622  1.00  0.00    -0.272 OA
BRANCH  10  12
ATOM     12  C   UNL     1      -8.898  -8.661   7.773  1.00  0.00     0.174 C 
BRANCH  12  13
ATOM     13  N   UNL     1      -9.936  -8.341   8.752  1.00  0.00    -0.342 N 
ATOM     14  C   UNL     1     -10.682  -9.269   9.444  1.00  0.00     0.249 C 
ATOM     15  O   UNL     1     -10.536 -10.480   9.334  1.00  0.00    -0.272 OA
ATOM     16  H   UNL     1     -10.275  -7.386   8.833  1.00  0.00     0.164 HD
BRANCH  14  17
ATOM     17  C   UNL     1     -11.710  -8.617  10.393  1.00  0.00     0.207 C 
BRANCH  17  18
ATOM     18  C   UNL     1     -12.002  -7.177   9.959  1.00  0.00     0.077 C 
BRANCH  18  19
ATOM     19  C   UNL     1     -13.456  -6.986   9.589  1.00  0.00    -0.043 A 
ATOM     20  C   UNL     1     -15.363  -5.527   9.243  1.00  0.00     0.083 A 
ATOM     21  C   UNL     1     -14.009  -5.697   9.536  1.00  0.00     0.028 A 
ATOM     22  C   UNL     1     -16.171  -6.639   9.004  1.00  0.00     0.134 A 
ATOM     23  C   UNL     1     -15.636  -7.921   9.053  1.00  0.00     0.048 A 
ATOM     24  C   UNL     1     -14.282  -8.095   9.348  1.00  0.00     0.008 A 
ATOM     25  Cl  UNL     1     -16.025  -3.935   9.182  1.00  0.00    -0.080 Cl
BRANCH  22  26
ATOM     26  O   UNL     1     -17.505  -6.523   8.723  1.00  0.00    -0.506 OA
ATOM     27  H   UNL     1     -17.695  -5.569   8.652  1.00  0.00     0.293 HD
ENDBRANCH  22  26
ENDBRANCH  18  19
ENDBRANCH  17  18
BRANCH  17  28
ATOM     28  O   UNL     1     -11.237  -8.619  11.749  1.00  0.00    -0.383 OA
ATOM     29  H   UNL     1     -11.769  -9.300  12.222  1.00  0.00     0.211 HD
ENDBRANCH  17  28
ENDBRANCH  14  17
ENDBRANCH  12  13
BRANCH  12  30
ATOM     30  C   UNL     1      -7.482  -8.240   8.251  1.00  0.00     0.018 C 
ATOM     31  C   UNL     1      -6.733  -9.435   8.862  1.00  0.00     0.010 C 
BRANCH  30  32
ATOM     32  C   UNL     1      -7.489  -7.053   9.245  1.00  0.00     0.002 C 
ATOM     33  C   UNL     1      -7.403  -5.671   8.610  1.00  0.00     0.004 C 
ENDBRANCH  30  32
ENDBRANCH  12  30
ENDBRANCH  10  12
ENDBRANCH   1  10
BRANCH   5  34
ATOM     34  C   UNL     1     -11.181  -9.540   4.173  1.00  0.00     0.242 C 
ATOM     35  O   UNL     1     -12.141  -9.798   3.448  1.00  0.00    -0.273 OA
ATOM     36  N   UNL     1      -9.881  -9.587   3.722  1.00  0.00    -0.354 N 
ATOM     37  H   UNL     1      -9.122  -9.482   4.397  1.00  0.00     0.163 HD
BRANCH  36  38
ATOM     38  C   UNL     1      -9.553  -9.677   2.314  1.00  0.00     0.116 C 
BRANCH  38  39
ATOM     39  C   UNL     1      -8.119  -9.207   2.084  1.00  0.00     0.023 C 
BRANCH  39  40
ATOM     40  C   UNL     1      -7.925  -8.578   0.709  1.00  0.00     0.026 C 
BRANCH  40  41
ATOM     41  C   UNL     1      -7.957  -7.053   0.801  1.00  0.00     0.146 C 
BRANCH  41  42
ATOM     42  N   UNL     1      -6.793  -6.580   1.540  1.00  0.00    -0.254 NA
ATOM     43  C   UNL     1      -6.956  -5.905   2.615  1.00  0.00     0.185 C 
ATOM     44  N   UNL     1      -8.089  -5.526   3.235  1.00  0.00    -0.370 N 
ATOM     45  N   UNL     1      -5.871  -5.475   3.279  1.00  0.00    -0.370 N 
ATOM     46  H   UNL     1      -8.075  -4.799   3.929  1.00  0.00     0.159 HD
ATOM     47  H   UNL     1      -9.004  -5.779   2.875  1.00  0.00     0.159 HD
ATOM     48  H   UNL     1      -4.975  -5.726   2.883  1.00  0.00     0.159 HD
ATOM     49  H   UNL     1      -5.906  -5.156   4.231  1.00  0.00     0.159 HD
ENDBRANCH  41  42
ENDBRANCH  40  41
ENDBRANCH  39  40
ENDBRANCH  38  39
ENDBRANCH  36  38
ENDBRANCH   5  34
BRANCH   8  50
ATOM     50  O   UNL     1     -12.769  -5.106   3.568  1.00  0.00    -0.245 OA
BRANCH  50  51
ATOM     51  S   UNL     1     -11.609  -5.113   2.427  1.00  0.00     0.397 S 
ATOM     52  O   UNL     1     -11.035  -6.439   2.383  1.00  0.00    -0.169 OA
ATOM     53  O   UNL     1     -10.784  -3.932   2.566  1.00  0.00    -0.169 OA
BRANCH  51  54
ATOM     54  O   UNL     1     -12.467  -4.962   1.076  1.00  0.00    -0.264 OA
ATOM     55  H   UNL     1     -11.876  -5.167   0.323  1.00  0.00     0.236 HD
ENDBRANCH  51  54
ENDBRANCH  50  51
ENDBRANCH   8  50
TORSDOF 19
ENDMDL
MODEL 43
REMARK VINA RESULT:    -6.335     12.052     16.042
REMARK INTER + INTRA:         -16.033
REMARK INTER:                 -11.609
REMARK INTRA:                  -4.424
REMARK UNBOUND:                -3.218
REMARK SMILES CC[C@@H](C)[C@@H](NC(=O)[C@@H](O)Cc1ccc(O)c(Cl)c1)C(=O)N1[C@H](C(=O)NCCCCN=C(N)N)C[C@H]2CC[C@H](OS(=O)(=O)O)C[C@@H]21
REMARK SMILES IDX 22 1 36 2 46 3 35 4 23 5 45 6 37 7 39 8 38 9 20 10 21 11
REMARK SMILES IDX 5 12 6 13 7 14 8 15 9 17 11 18 12 19 17 20 19 21 15 22 14 23
REMARK SMILES IDX 13 24 18 25 16 26 10 28 3 30 4 31 2 32 1 33 24 34 25 35
REMARK SMILES IDX 26 36 27 38 28 39 29 40 30 41 31 42 32 43 33 44 34 45 40 50
REMARK SMILES IDX 41 51 42 52 43 53 44 54
REMARK H PARENT 6 16 16 27 10 29 26 37 33 46 33 47 34 48 34 49 44 55
ROOT
ATOM      1  N   UNL     1     -14.221  -5.305   6.234  1.00  0.00    -0.326 N 
ATOM      2  C   UNL     1     -11.923  -5.625   5.835  1.00  0.00     0.014 C 
ATOM      3  C   UNL     1     -13.268  -6.355   5.862  1.00  0.00     0.091 C 
ATOM      4  C   UNL     1     -12.071  -4.608   6.956  1.00  0.00     0.041 C 
ATOM      5  C   UNL     1     -13.491  -4.087   6.665  1.00  0.00     0.175 C 
ATOM      6  C   UNL     1     -13.459  -7.065   4.523  1.00  0.00     0.059 C 
ATOM      7  C   UNL     1     -10.771  -6.610   5.873  1.00  0.00     0.008 C 
ATOM      8  C   UNL     1     -12.139  -7.541   3.878  1.00  0.00     0.143 C 
ATOM      9  C   UNL     1     -11.042  -7.801   4.930  1.00  0.00     0.034 C 
ENDROOT
BRANCH   1  10
ATOM     10  C   UNL     1     -15.589  -5.377   6.431  1.00  0.00     0.246 C 
ATOM     11  O   UNL     1     -16.345  -5.191   5.471  1.00  0.00    -0.272 OA
BRANCH  10  12
ATOM     12  C   UNL     1     -16.143  -5.730   7.842  1.00  0.00     0.174 C 
BRANCH  12  13
ATOM     13  N   UNL     1     -15.310  -6.760   8.461  1.00  0.00    -0.342 N 
ATOM     14  C   UNL     1     -14.413  -6.542   9.482  1.00  0.00     0.249 C 
ATOM     15  O   UNL     1     -14.232  -5.452  10.010  1.00  0.00    -0.272 OA
ATOM     16  H   UNL     1     -15.236  -7.676   8.027  1.00  0.00     0.164 HD
BRANCH  14  17
ATOM     17  C   UNL     1     -13.671  -7.827   9.908  1.00  0.00     0.207 C 
BRANCH  17  18
ATOM     18  C   UNL     1     -13.395  -8.715   8.690  1.00  0.00     0.077 C 
BRANCH  18  19
ATOM     19  C   UNL     1     -11.922  -9.019   8.538  1.00  0.00    -0.043 A 
ATOM     20  C   UNL     1      -9.603  -8.459   8.979  1.00  0.00     0.083 A 
ATOM     21  C   UNL     1     -10.963  -8.205   9.162  1.00  0.00     0.028 A 
ATOM     22  C   UNL     1      -9.193  -9.522   8.175  1.00  0.00     0.134 A 
ATOM     23  C   UNL     1     -10.132 -10.336   7.552  1.00  0.00     0.048 A 
ATOM     24  C   UNL     1     -11.494 -10.084   7.731  1.00  0.00     0.008 A 
ATOM     25  Cl  UNL     1      -8.440  -7.448   9.753  1.00  0.00    -0.080 Cl
BRANCH  22  26
ATOM     26  O   UNL     1      -7.871  -9.804   7.958  1.00  0.00    -0.506 OA
ATOM     27  H   UNL     1      -7.359  -9.097   8.393  1.00  0.00     0.293 HD
ENDBRANCH  22  26
ENDBRANCH  18  19
ENDBRANCH  17  18
BRANCH  17  28
ATOM     28  O   UNL     1     -14.433  -8.568  10.875  1.00  0.00    -0.383 OA
ATOM     29  H   UNL     1     -15.206  -8.935  10.389  1.00  0.00     0.211 HD
ENDBRANCH  17  28
ENDBRANCH  14  17
ENDBRANCH  12  13
BRANCH  12  30
ATOM     30  C   UNL     1     -17.646  -6.120   7.816  1.00  0.00     0.018 C 
ATOM     31  C   UNL     1     -18.494  -5.076   8.559  1.00  0.00     0.010 C 
BRANCH  30  32
ATOM     32  C   UNL     1     -17.930  -7.534   8.377  1.00  0.00     0.002 C 
ATOM     33  C   UNL     1     -19.356  -8.036   8.186  1.00  0.00     0.004 C 
ENDBRANCH  30  32
ENDBRANCH  12  30
ENDBRANCH  10  12
ENDBRANCH   1  10
BRANCH   5  34
ATOM     34  C   UNL     1     -13.488  -3.019   5.539  1.00  0.00     0.242 C 
ATOM     35  O   UNL     1     -14.165  -3.138   4.518  1.00  0.00    -0.273 OA
ATOM     36  N   UNL     1     -12.635  -1.957   5.740  1.00  0.00    -0.354 N 
ATOM     37  H   UNL     1     -12.011  -1.975   6.548  1.00  0.00     0.163 HD
BRANCH  36  38
ATOM     38  C   UNL     1     -12.662  -0.774   4.906  1.00  0.00     0.116 C 
BRANCH  38  39
ATOM     39  C   UNL     1     -11.794  -0.991   3.669  1.00  0.00     0.023 C 
BRANCH  39  40
ATOM     40  C   UNL     1     -10.305  -0.866   3.973  1.00  0.00     0.026 C 
BRANCH  40  41
ATOM     41  C   UNL     1      -9.696  -2.235   4.278  1.00  0.00     0.146 C 
BRANCH  41  42
ATOM     42  N   UNL     1      -9.553  -2.401   5.718  1.00  0.00    -0.254 NA
ATOM     43  C   UNL     1      -8.803  -3.331   6.177  1.00  0.00     0.185 C 
ATOM     44  N   UNL     1      -8.067  -4.250   5.525  1.00  0.00    -0.370 N 
ATOM     45  N   UNL     1      -8.687  -3.471   7.508  1.00  0.00    -0.370 N 
ATOM     46  H   UNL     1      -7.724  -5.066   6.003  1.00  0.00     0.159 HD
ATOM     47  H   UNL     1      -8.028  -4.280   4.510  1.00  0.00     0.159 HD
ATOM     48  H   UNL     1      -9.204  -2.811   8.074  1.00  0.00     0.159 HD
ATOM     49  H   UNL     1      -7.953  -4.004   7.937  1.00  0.00     0.159 HD
ENDBRANCH  41  42
ENDBRANCH  40  41
ENDBRANCH  39  40
ENDBRANCH  38  39
ENDBRANCH  36  38
ENDBRANCH   5  34
BRANCH   8  50
ATOM     50  O   UNL     1     -11.662  -6.560   2.957  1.00  0.00    -0.245 OA
BRANCH  50  51
ATOM     51  S   UNL     1     -10.672  -7.010   1.747  1.00  0.00     0.397 S 
ATOM     52  O   UNL     1     -10.788  -8.442   1.584  1.00  0.00    -0.169 OA
ATOM     53  O   UNL     1      -9.385  -6.365   1.907  1.00  0.00    -0.169 OA
BRANCH  51  54
ATOM     54  O   UNL     1     -11.395  -6.363   0.465  1.00  0.00    -0.264 OA
ATOM     55  H   UNL     1     -12.225  -5.943   0.770  1.00  0.00     0.236 HD
ENDBRANCH  51  54
ENDBRANCH  50  51
ENDBRANCH   8  50
TORSDOF 19
ENDMDL
MODEL 44
REMARK VINA RESULT:    -6.312      8.663     12.346
REMARK INTER + INTRA:         -15.988
REMARK INTER:                 -12.635
REMARK INTRA:                  -3.353
REMARK UNBOUND:                -3.218
REMARK SMILES CC[C@@H](C)[C@@H](NC(=O)[C@@H](O)Cc1ccc(O)c(Cl)c1)C(=O)N1[C@H](C(=O)NCCCCN=C(N)N)C[C@H]2CC[C@H](OS(=O)(=O)O)C[C@@H]21
REMARK SMILES IDX 22 1 36 2 46 3 35 4 23 5 45 6 37 7 39 8 38 9 20 10 21 11
REMARK SMILES IDX 5 12 6 13 7 14 8 15 9 17 11 18 12 19 17 20 19 21 15 22 14 23
REMARK SMILES IDX 13 24 18 25 16 26 10 28 3 30 4 31 2 32 1 33 24 34 25 35
REMARK SMILES IDX 26 36 27 38 28 39 29 40 30 41 31 42 32 43 33 44 34 45 40 50
REMARK SMILES IDX 41 51 42 52 43 53 44 54
REMARK H PARENT 6 16 16 27 10 29 26 37 33 46 33 47 34 48 34 49 44 55
ROOT
ATOM      1  N   UNL     1     -10.495  -0.785   0.509  1.00  0.00    -0.326 N 
ATOM      2  C   UNL     1     -11.100  -0.907  -1.762  1.00  0.00     0.014 C 
ATOM      3  C   UNL     1      -9.891  -0.873  -0.823  1.00  0.00     0.091 C 
ATOM      4  C   UNL     1     -12.100  -0.006  -1.054  1.00  0.00     0.041 C 
ATOM      5  C   UNL     1     -11.949  -0.515   0.391  1.00  0.00     0.175 C 
ATOM      6  C   UNL     1      -9.001  -2.074  -1.138  1.00  0.00     0.059 C 
ATOM      7  C   UNL     1     -10.690  -0.588  -3.187  1.00  0.00     0.008 C 
ATOM      8  C   UNL     1      -9.032  -2.499  -2.622  1.00  0.00     0.143 C 
ATOM      9  C   UNL     1      -9.384  -1.322  -3.554  1.00  0.00     0.034 C 
ENDROOT
BRANCH   1  10
ATOM     10  C   UNL     1      -9.892  -0.704   1.753  1.00  0.00     0.246 C 
ATOM     11  O   UNL     1      -9.785  -1.727   2.437  1.00  0.00    -0.272 OA
BRANCH  10  12
ATOM     12  C   UNL     1      -9.327   0.661   2.244  1.00  0.00     0.174 C 
BRANCH  12  13
ATOM     13  N   UNL     1     -10.150   1.177   3.337  1.00  0.00    -0.342 N 
ATOM     14  C   UNL     1      -9.795   1.165   4.667  1.00  0.00     0.249 C 
ATOM     15  O   UNL     1      -8.725   0.740   5.084  1.00  0.00    -0.272 OA
ATOM     16  H   UNL     1     -11.123   1.417   3.164  1.00  0.00     0.164 HD
BRANCH  14  17
ATOM     17  C   UNL     1     -10.885   1.767   5.579  1.00  0.00     0.207 C 
BRANCH  17  18
ATOM     18  C   UNL     1     -10.403   3.086   6.191  1.00  0.00     0.077 C 
BRANCH  18  19
ATOM     19  C   UNL     1     -11.186   4.269   5.666  1.00  0.00    -0.043 A 
ATOM     20  C   UNL     1     -12.012   5.583   3.803  1.00  0.00     0.083 A 
ATOM     21  C   UNL     1     -11.331   4.465   4.284  1.00  0.00     0.028 A 
ATOM     22  C   UNL     1     -12.550   6.511   4.696  1.00  0.00     0.134 A 
ATOM     23  C   UNL     1     -12.414   6.329   6.067  1.00  0.00     0.048 A 
ATOM     24  C   UNL     1     -11.731   5.212   6.552  1.00  0.00     0.008 A 
ATOM     25  Cl  UNL     1     -12.180   5.807   2.101  1.00  0.00    -0.080 Cl
BRANCH  22  26
ATOM     26  O   UNL     1     -13.217   7.628   4.271  1.00  0.00    -0.506 OA
ATOM     27  H   UNL     1     -13.855   7.857   4.971  1.00  0.00     0.293 HD
ENDBRANCH  22  26
ENDBRANCH  18  19
ENDBRANCH  17  18
BRANCH  17  28
ATOM     28  O   UNL     1     -11.240   0.856   6.632  1.00  0.00    -0.383 OA
ATOM     29  H   UNL     1     -10.594   0.115   6.579  1.00  0.00     0.211 HD
ENDBRANCH  17  28
ENDBRANCH  14  17
ENDBRANCH  12  13
BRANCH  12  30
ATOM     30  C   UNL     1      -9.157   1.688   1.093  1.00  0.00     0.018 C 
ATOM     31  C   UNL     1      -7.770   1.557   0.443  1.00  0.00     0.010 C 
BRANCH  30  32
ATOM     32  C   UNL     1      -9.404   3.154   1.527  1.00  0.00     0.002 C 
ATOM     33  C   UNL     1      -9.198   4.199   0.438  1.00  0.00     0.004 C 
ENDBRANCH  30  32
ENDBRANCH  12  30
ENDBRANCH  10  12
ENDBRANCH   1  10
BRANCH   5  34
ATOM     34  C   UNL     1     -12.771  -1.810   0.631  1.00  0.00     0.242 C 
ATOM     35  O   UNL     1     -13.971  -1.885   0.369  1.00  0.00    -0.273 OA
ATOM     36  N   UNL     1     -12.073  -2.848   1.206  1.00  0.00    -0.354 N 
ATOM     37  H   UNL     1     -11.112  -2.685   1.511  1.00  0.00     0.163 HD
BRANCH  36  38
ATOM     38  C   UNL     1     -12.617  -4.186   1.301  1.00  0.00     0.116 C 
BRANCH  38  39
ATOM     39  C   UNL     1     -12.092  -5.043   0.152  1.00  0.00     0.023 C 
BRANCH  39  40
ATOM     40  C   UNL     1     -10.604  -5.349   0.286  1.00  0.00     0.026 C 
BRANCH  40  41
ATOM     41  C   UNL     1     -10.372  -6.853   0.436  1.00  0.00     0.146 C 
BRANCH  41  42
ATOM     42  N   UNL     1     -10.334  -7.478  -0.880  1.00  0.00    -0.254 NA
ATOM     43  C   UNL     1      -9.372  -8.269  -1.177  1.00  0.00     0.185 C 
ATOM     44  N   UNL     1      -8.312  -8.657  -0.444  1.00  0.00    -0.370 N 
ATOM     45  N   UNL     1      -9.352  -8.832  -2.396  1.00  0.00    -0.370 N 
ATOM     46  H   UNL     1      -7.513  -9.082  -0.882  1.00  0.00     0.159 HD
ATOM     47  H   UNL     1      -8.178  -8.336   0.510  1.00  0.00     0.159 HD
ATOM     48  H   UNL     1     -10.121  -8.599  -3.010  1.00  0.00     0.159 HD
ATOM     49  H   UNL     1      -8.781  -9.628  -2.619  1.00  0.00     0.159 HD
ENDBRANCH  41  42
ENDBRANCH  40  41
ENDBRANCH  39  40
ENDBRANCH  38  39
ENDBRANCH  36  38
ENDBRANCH   5  34
BRANCH   8  50
ATOM     50  O   UNL     1      -9.997  -3.534  -2.816  1.00  0.00    -0.245 OA
BRANCH  50  51
ATOM     51  S   UNL     1      -9.735  -4.674  -3.946  1.00  0.00     0.397 S 
ATOM     52  O   UNL     1      -8.349  -5.076  -3.863  1.00  0.00    -0.169 OA
ATOM     53  O   UNL     1     -10.333  -4.262  -5.199  1.00  0.00    -0.169 OA
BRANCH  51  54
ATOM     54  O   UNL     1     -10.585  -5.914  -3.375  1.00  0.00    -0.264 OA
ATOM     55  H   UNL     1     -10.984  -6.379  -4.139  1.00  0.00     0.236 HD
ENDBRANCH  51  54
ENDBRANCH  50  51
ENDBRANCH   8  50
TORSDOF 19
ENDMDL
MODEL 45
REMARK VINA RESULT:    -6.291      7.995     11.925
REMARK INTER + INTRA:         -15.944
REMARK INTER:                 -11.837
REMARK INTRA:                  -4.107
REMARK UNBOUND:                -3.218
REMARK SMILES CC[C@@H](C)[C@@H](NC(=O)[C@@H](O)Cc1ccc(O)c(Cl)c1)C(=O)N1[C@H](C(=O)NCCCCN=C(N)N)C[C@H]2CC[C@H](OS(=O)(=O)O)C[C@@H]21
REMARK SMILES IDX 22 1 36 2 46 3 35 4 23 5 45 6 37 7 39 8 38 9 20 10 21 11
REMARK SMILES IDX 5 12 6 13 7 14 8 15 9 17 11 18 12 19 17 20 19 21 15 22 14 23
REMARK SMILES IDX 13 24 18 25 16 26 10 28 3 30 4 31 2 32 1 33 24 34 25 35
REMARK SMILES IDX 26 36 27 38 28 39 29 40 30 41 31 42 32 43 33 44 34 45 40 50
REMARK SMILES IDX 41 51 42 52 43 53 44 54
REMARK H PARENT 6 16 16 27 10 29 26 37 33 46 33 47 34 48 34 49 44 55
ROOT
ATOM      1  N   UNL     1     -13.497  -3.757   3.057  1.00  0.00    -0.326 N 
ATOM      2  C   UNL     1     -13.542  -1.447   2.603  1.00  0.00     0.014 C 
ATOM      3  C   UNL     1     -13.810  -2.479   3.703  1.00  0.00     0.091 C 
ATOM      4  C   UNL     1     -13.962  -2.185   1.342  1.00  0.00     0.041 C 
ATOM      5  C   UNL     1     -13.311  -3.557   1.599  1.00  0.00     0.175 C 
ATOM      6  C   UNL     1     -13.014  -2.080   4.944  1.00  0.00     0.059 C 
ATOM      7  C   UNL     1     -14.189  -0.118   2.937  1.00  0.00     0.008 C 
ATOM      8  C   UNL     1     -12.834  -0.555   5.104  1.00  0.00     0.143 C 
ATOM      9  C   UNL     1     -13.970   0.237   4.423  1.00  0.00     0.034 C 
ENDROOT
BRANCH   1  10
ATOM     10  C   UNL     1     -13.571  -5.046   3.557  1.00  0.00     0.246 C 
ATOM     11  O   UNL     1     -14.656  -5.637   3.536  1.00  0.00    -0.272 OA
BRANCH  10  12
ATOM     12  C   UNL     1     -12.284  -5.735   4.094  1.00  0.00     0.174 C 
BRANCH  12  13
ATOM     13  N   UNL     1     -11.921  -6.857   3.228  1.00  0.00    -0.342 N 
ATOM     14  C   UNL     1     -10.633  -7.229   2.915  1.00  0.00     0.249 C 
ATOM     15  O   UNL     1      -9.636  -6.672   3.357  1.00  0.00    -0.272 OA
ATOM     16  H   UNL     1     -12.637  -7.312   2.667  1.00  0.00     0.164 HD
BRANCH  14  17
ATOM     17  C   UNL     1     -10.578  -8.443   1.963  1.00  0.00     0.207 C 
BRANCH  17  18
ATOM     18  C   UNL     1     -10.468  -7.976   0.508  1.00  0.00     0.077 C 
BRANCH  18  19
ATOM     19  C   UNL     1      -9.227  -8.521  -0.164  1.00  0.00    -0.043 A 
ATOM     20  C   UNL     1      -7.000  -9.470  -0.015  1.00  0.00     0.083 A 
ATOM     21  C   UNL     1      -8.163  -9.014   0.607  1.00  0.00     0.028 A 
ATOM     22  C   UNL     1      -6.891  -9.435  -1.405  1.00  0.00     0.134 A 
ATOM     23  C   UNL     1      -7.937  -8.949  -2.181  1.00  0.00     0.048 A 
ATOM     24  C   UNL     1      -9.102  -8.490  -1.562  1.00  0.00     0.008 A 
ATOM     25  Cl  UNL     1      -5.703 -10.072   0.950  1.00  0.00    -0.080 Cl
BRANCH  22  26
ATOM     26  O   UNL     1      -5.767  -9.861  -2.059  1.00  0.00    -0.506 OA
ATOM     27  H   UNL     1      -5.061  -9.926  -1.389  1.00  0.00     0.293 HD
ENDBRANCH  22  26
ENDBRANCH  18  19
ENDBRANCH  17  18
BRANCH  17  28
ATOM     28  O   UNL     1     -11.744  -9.269   2.111  1.00  0.00    -0.383 OA
ATOM     29  H   UNL     1     -11.726  -9.902   1.357  1.00  0.00     0.211 HD
ENDBRANCH  17  28
ENDBRANCH  14  17
ENDBRANCH  12  13
BRANCH  12  30
ATOM     30  C   UNL     1     -12.403  -6.153   5.584  1.00  0.00     0.018 C 
ATOM     31  C   UNL     1     -12.910  -7.598   5.708  1.00  0.00     0.010 C 
BRANCH  30  32
ATOM     32  C   UNL     1     -13.291  -5.203   6.426  1.00  0.00     0.002 C 
ATOM     33  C   UNL     1     -13.004  -5.199   7.922  1.00  0.00     0.004 C 
ENDBRANCH  30  32
ENDBRANCH  12  30
ENDBRANCH  10  12
ENDBRANCH   1  10
BRANCH   5  34
ATOM     34  C   UNL     1     -11.802  -3.551   1.233  1.00  0.00     0.242 C 
ATOM     35  O   UNL     1     -10.925  -3.815   2.055  1.00  0.00    -0.273 OA
ATOM     36  N   UNL     1     -11.515  -3.177  -0.061  1.00  0.00    -0.354 N 
ATOM     37  H   UNL     1     -12.276  -2.854  -0.660  1.00  0.00     0.163 HD
BRANCH  36  38
ATOM     38  C   UNL     1     -10.192  -3.323  -0.632  1.00  0.00     0.116 C 
BRANCH  38  39
ATOM     39  C   UNL     1     -10.036  -4.720  -1.229  1.00  0.00     0.023 C 
BRANCH  39  40
ATOM     40  C   UNL     1      -8.631  -4.971  -1.764  1.00  0.00     0.026 C 
BRANCH  40  41
ATOM     41  C   UNL     1      -7.584  -4.299  -0.875  1.00  0.00     0.146 C 
BRANCH  41  42
ATOM     42  N   UNL     1      -6.940  -5.298  -0.032  1.00  0.00    -0.254 NA
ATOM     43  C   UNL     1      -7.237  -5.363   1.211  1.00  0.00     0.185 C 
ATOM     44  N   UNL     1      -8.099  -4.625   1.935  1.00  0.00    -0.370 N 
ATOM     45  N   UNL     1      -6.629  -6.287   1.973  1.00  0.00    -0.370 N 
ATOM     46  H   UNL     1      -8.053  -4.622   2.940  1.00  0.00     0.159 HD
ATOM     47  H   UNL     1      -8.655  -3.888   1.513  1.00  0.00     0.159 HD
ATOM     48  H   UNL     1      -5.969  -6.892   1.503  1.00  0.00     0.159 HD
ATOM     49  H   UNL     1      -6.971  -6.557   2.878  1.00  0.00     0.159 HD
ENDBRANCH  41  42
ENDBRANCH  40  41
ENDBRANCH  39  40
ENDBRANCH  38  39
ENDBRANCH  36  38
ENDBRANCH   5  34
BRANCH   8  50
ATOM     50  O   UNL     1     -11.591  -0.145   4.534  1.00  0.00    -0.245 OA
BRANCH  50  51
ATOM     51  S   UNL     1     -10.718   1.019   5.262  1.00  0.00     0.397 S 
ATOM     52  O   UNL     1     -11.229   2.299   4.827  1.00  0.00    -0.169 OA
ATOM     53  O   UNL     1      -9.310   0.694   5.177  1.00  0.00    -0.169 OA
BRANCH  51  54
ATOM     54  O   UNL     1     -11.171   0.865   6.798  1.00  0.00    -0.264 OA
ATOM     55  H   UNL     1     -10.463   1.245   7.357  1.00  0.00     0.236 HD
ENDBRANCH  51  54
ENDBRANCH  50  51
ENDBRANCH   8  50
TORSDOF 19
ENDMDL
MODEL 46
REMARK VINA RESULT:    -6.286     11.703     15.366
REMARK INTER + INTRA:         -15.935
REMARK INTER:                 -11.490
REMARK INTRA:                  -4.445
REMARK UNBOUND:                -3.218
REMARK SMILES CC[C@@H](C)[C@@H](NC(=O)[C@@H](O)Cc1ccc(O)c(Cl)c1)C(=O)N1[C@H](C(=O)NCCCCN=C(N)N)C[C@H]2CC[C@H](OS(=O)(=O)O)C[C@@H]21
REMARK SMILES IDX 22 1 36 2 46 3 35 4 23 5 45 6 37 7 39 8 38 9 20 10 21 11
REMARK SMILES IDX 5 12 6 13 7 14 8 15 9 17 11 18 12 19 17 20 19 21 15 22 14 23
REMARK SMILES IDX 13 24 18 25 16 26 10 28 3 30 4 31 2 32 1 33 24 34 25 35
REMARK SMILES IDX 26 36 27 38 28 39 29 40 30 41 31 42 32 43 33 44 34 45 40 50
REMARK SMILES IDX 41 51 42 52 43 53 44 54
REMARK H PARENT 6 16 16 27 10 29 26 37 33 46 33 47 34 48 34 49 44 55
ROOT
ATOM      1  N   UNL     1     -11.815  -6.174   6.664  1.00  0.00    -0.326 N 
ATOM      2  C   UNL     1     -12.769  -8.323   6.558  1.00  0.00     0.014 C 
ATOM      3  C   UNL     1     -11.471  -7.581   6.887  1.00  0.00     0.091 C 
ATOM      4  C   UNL     1     -13.355  -7.489   5.429  1.00  0.00     0.041 C 
ATOM      5  C   UNL     1     -13.135  -6.074   5.994  1.00  0.00     0.175 C 
ATOM      6  C   UNL     1     -11.013  -8.003   8.282  1.00  0.00     0.059 C 
ATOM      7  C   UNL     1     -12.507  -9.799   6.333  1.00  0.00     0.008 C 
ATOM      8  C   UNL     1     -11.388  -9.456   8.646  1.00  0.00     0.143 C 
ATOM      9  C   UNL     1     -11.532 -10.347   7.396  1.00  0.00     0.034 C 
ENDROOT
BRANCH   1  10
ATOM     10  C   UNL     1     -11.032  -5.038   6.785  1.00  0.00     0.246 C 
ATOM     11  O   UNL     1     -10.652  -4.686   7.907  1.00  0.00    -0.272 OA
BRANCH  10  12
ATOM     12  C   UNL     1     -10.611  -4.257   5.506  1.00  0.00     0.174 C 
BRANCH  12  13
ATOM     13  N   UNL     1     -10.213  -5.195   4.457  1.00  0.00    -0.342 N 
ATOM     14  C   UNL     1     -10.869  -5.365   3.259  1.00  0.00     0.249 C 
ATOM     15  O   UNL     1     -11.855  -4.721   2.924  1.00  0.00    -0.272 OA
ATOM     16  H   UNL     1      -9.511  -5.904   4.655  1.00  0.00     0.164 HD
BRANCH  14  17
ATOM     17  C   UNL     1     -10.214  -6.443   2.369  1.00  0.00     0.207 C 
BRANCH  17  18
ATOM     18  C   UNL     1     -10.807  -7.822   2.675  1.00  0.00     0.077 C 
BRANCH  18  19
ATOM     19  C   UNL     1      -9.739  -8.819   3.068  1.00  0.00    -0.043 A 
ATOM     20  C   UNL     1      -8.366  -9.867   4.770  1.00  0.00     0.083 A 
ATOM     21  C   UNL     1      -9.386  -8.983   4.416  1.00  0.00     0.028 A 
ATOM     22  C   UNL     1      -7.693 -10.589   3.783  1.00  0.00     0.134 A 
ATOM     23  C   UNL     1      -8.034 -10.435   2.444  1.00  0.00     0.048 A 
ATOM     24  C   UNL     1      -9.053  -9.550   2.086  1.00  0.00     0.008 A 
ATOM     25  Cl  UNL     1      -7.945 -10.056   6.432  1.00  0.00    -0.080 Cl
BRANCH  22  26
ATOM     26  O   UNL     1      -6.680 -11.459   4.080  1.00  0.00    -0.506 OA
ATOM     27  H   UNL     1      -6.972 -11.976   4.853  1.00  0.00     0.293 HD
ENDBRANCH  22  26
ENDBRANCH  18  19
ENDBRANCH  17  18
BRANCH  17  28
ATOM     28  O   UNL     1      -8.792  -6.482   2.565  1.00  0.00    -0.383 OA
ATOM     29  H   UNL     1      -8.598  -7.352   2.982  1.00  0.00     0.211 HD
ENDBRANCH  17  28
ENDBRANCH  14  17
ENDBRANCH  12  13
BRANCH  12  30
ATOM     30  C   UNL     1      -9.523  -3.187   5.788  1.00  0.00     0.018 C 
ATOM     31  C   UNL     1      -9.683  -1.983   4.846  1.00  0.00     0.010 C 
BRANCH  30  32
ATOM     32  C   UNL     1      -8.077  -3.735   5.710  1.00  0.00     0.002 C 
ATOM     33  C   UNL     1      -7.222  -3.496   6.947  1.00  0.00     0.004 C 
ENDBRANCH  30  32
ENDBRANCH  12  30
ENDBRANCH  10  12
ENDBRANCH   1  10
BRANCH   5  34
ATOM     34  C   UNL     1     -14.241  -5.685   7.011  1.00  0.00     0.242 C 
ATOM     35  O   UNL     1     -14.057  -5.719   8.227  1.00  0.00    -0.273 OA
ATOM     36  N   UNL     1     -15.456  -5.353   6.456  1.00  0.00    -0.354 N 
ATOM     37  H   UNL     1     -15.582  -5.459   5.448  1.00  0.00     0.163 HD
BRANCH  36  38
ATOM     38  C   UNL     1     -16.526  -4.762   7.233  1.00  0.00     0.116 C 
BRANCH  38  39
ATOM     39  C   UNL     1     -17.823  -5.534   7.001  1.00  0.00     0.023 C 
BRANCH  39  40
ATOM     40  C   UNL     1     -18.406  -6.096   8.293  1.00  0.00     0.026 C 
BRANCH  40  41
ATOM     41  C   UNL     1     -18.061  -7.577   8.445  1.00  0.00     0.146 C 
BRANCH  41  42
ATOM     42  N   UNL     1     -17.799  -7.881   9.846  1.00  0.00    -0.254 NA
ATOM     43  C   UNL     1     -16.596  -8.073  10.239  1.00  0.00     0.185 C 
ATOM     44  N   UNL     1     -15.444  -8.043   9.544  1.00  0.00    -0.370 N 
ATOM     45  N   UNL     1     -16.377  -8.356  11.533  1.00  0.00    -0.370 N 
ATOM     46  H   UNL     1     -14.606  -8.450   9.923  1.00  0.00     0.159 HD
ATOM     47  H   UNL     1     -15.426  -7.830   8.551  1.00  0.00     0.159 HD
ATOM     48  H   UNL     1     -17.193  -8.389  12.129  1.00  0.00     0.159 HD
ATOM     49  H   UNL     1     -15.470  -8.285  11.959  1.00  0.00     0.159 HD
ENDBRANCH  41  42
ENDBRANCH  40  41
ENDBRANCH  39  40
ENDBRANCH  38  39
ENDBRANCH  36  38
ENDBRANCH   5  34
BRANCH   8  50
ATOM     50  O   UNL     1     -12.623  -9.478   9.364  1.00  0.00    -0.245 OA
BRANCH  50  51
ATOM     51  S   UNL     1     -12.629  -9.892  10.937  1.00  0.00     0.397 S 
ATOM     52  O   UNL     1     -13.999 -10.144  11.326  1.00  0.00    -0.169 OA
ATOM     53  O   UNL     1     -11.783  -8.983  11.682  1.00  0.00    -0.169 OA
BRANCH  51  54
ATOM     54  O   UNL     1     -11.910 -11.330  10.909  1.00  0.00    -0.264 OA
ATOM     55  H   UNL     1     -11.032 -11.216  10.493  1.00  0.00     0.236 HD
ENDBRANCH  51  54
ENDBRANCH  50  51
ENDBRANCH   8  50
TORSDOF 19
ENDMDL
MODEL 47
REMARK VINA RESULT:    -6.285      3.678      7.239
REMARK INTER + INTRA:         -15.933
REMARK INTER:                 -13.423
REMARK INTRA:                  -2.510
REMARK UNBOUND:                -3.218
REMARK SMILES CC[C@@H](C)[C@@H](NC(=O)[C@@H](O)Cc1ccc(O)c(Cl)c1)C(=O)N1[C@H](C(=O)NCCCCN=C(N)N)C[C@H]2CC[C@H](OS(=O)(=O)O)C[C@@H]21
REMARK SMILES IDX 22 1 36 2 46 3 35 4 23 5 45 6 37 7 39 8 38 9 20 10 21 11
REMARK SMILES IDX 5 12 6 13 7 14 8 15 9 17 11 18 12 19 17 20 19 21 15 22 14 23
REMARK SMILES IDX 13 24 18 25 16 26 10 28 3 30 4 31 2 32 1 33 24 34 25 35
REMARK SMILES IDX 26 36 27 38 28 39 29 40 30 41 31 42 32 43 33 44 34 45 40 50
REMARK SMILES IDX 41 51 42 52 43 53 44 54
REMARK H PARENT 6 16 16 27 10 29 26 37 33 46 33 47 34 48 34 49 44 55
ROOT
ATOM      1  N   UNL     1      -8.638  -2.256  -8.087  1.00  0.00    -0.326 N 
ATOM      2  C   UNL     1      -7.107  -1.270  -9.580  1.00  0.00     0.014 C 
ATOM      3  C   UNL     1      -7.453  -1.393  -8.093  1.00  0.00     0.091 C 
ATOM      4  C   UNL     1      -8.476  -1.281 -10.244  1.00  0.00     0.041 C 
ATOM      5  C   UNL     1      -9.145  -2.433  -9.470  1.00  0.00     0.175 C 
ATOM      6  C   UNL     1      -6.208  -1.867  -7.346  1.00  0.00     0.059 C 
ATOM      7  C   UNL     1      -6.172  -0.103  -9.825  1.00  0.00     0.008 C 
ATOM      8  C   UNL     1      -4.884  -1.376  -7.970  1.00  0.00     0.143 C 
ATOM      9  C   UNL     1      -5.065  -0.058  -8.750  1.00  0.00     0.034 C 
ENDROOT
BRANCH   1  10
ATOM     10  C   UNL     1      -9.406  -2.701  -7.025  1.00  0.00     0.246 C 
ATOM     11  O   UNL     1     -10.504  -3.219  -7.253  1.00  0.00    -0.272 OA
BRANCH  10  12
ATOM     12  C   UNL     1      -8.855  -2.578  -5.575  1.00  0.00     0.174 C 
BRANCH  12  13
ATOM     13  N   UNL     1      -9.352  -3.684  -4.757  1.00  0.00    -0.342 N 
ATOM     14  C   UNL     1      -8.593  -4.415  -3.870  1.00  0.00     0.249 C 
ATOM     15  O   UNL     1      -7.409  -4.198  -3.646  1.00  0.00    -0.272 OA
ATOM     16  H   UNL     1     -10.269  -4.079  -4.948  1.00  0.00     0.164 HD
BRANCH  14  17
ATOM     17  C   UNL     1      -9.402  -5.528  -3.170  1.00  0.00     0.207 C 
BRANCH  17  18
ATOM     18  C   UNL     1      -8.586  -6.823  -3.106  1.00  0.00     0.077 C 
BRANCH  18  19
ATOM     19  C   UNL     1      -8.303  -7.238  -1.679  1.00  0.00    -0.043 A 
ATOM     20  C   UNL     1      -7.319  -6.776   0.489  1.00  0.00     0.083 A 
ATOM     21  C   UNL     1      -7.622  -6.371  -0.811  1.00  0.00     0.028 A 
ATOM     22  C   UNL     1      -7.692  -8.047   0.929  1.00  0.00     0.134 A 
ATOM     23  C   UNL     1      -8.367  -8.916   0.080  1.00  0.00     0.048 A 
ATOM     24  C   UNL     1      -8.670  -8.513  -1.223  1.00  0.00     0.008 A 
ATOM     25  Cl  UNL     1      -6.481  -5.697   1.541  1.00  0.00    -0.080 Cl
BRANCH  22  26
ATOM     26  O   UNL     1      -7.408  -8.493   2.192  1.00  0.00    -0.506 OA
ATOM     27  H   UNL     1      -6.918  -9.330   2.089  1.00  0.00     0.293 HD
ENDBRANCH  22  26
ENDBRANCH  18  19
ENDBRANCH  17  18
BRANCH  17  28
ATOM     28  O   UNL     1     -10.639  -5.778  -3.857  1.00  0.00    -0.383 OA
ATOM     29  H   UNL     1     -10.394  -6.025  -4.777  1.00  0.00     0.211 HD
ENDBRANCH  17  28
ENDBRANCH  14  17
ENDBRANCH  12  13
BRANCH  12  30
ATOM     30  C   UNL     1      -9.145  -1.193  -4.937  1.00  0.00     0.018 C 
ATOM     31  C   UNL     1      -7.929  -0.691  -4.143  1.00  0.00     0.010 C 
BRANCH  30  32
ATOM     32  C   UNL     1     -10.410  -1.173  -4.044  1.00  0.00     0.002 C 
ATOM     33  C   UNL     1     -10.162  -0.869  -2.572  1.00  0.00     0.004 C 
ENDBRANCH  30  32
ENDBRANCH  12  30
ENDBRANCH  10  12
ENDBRANCH   1  10
BRANCH   5  34
ATOM     34  C   UNL     1      -8.731  -3.818 -10.035  1.00  0.00     0.242 C 
ATOM     35  O   UNL     1      -8.058  -3.936 -11.059  1.00  0.00    -0.273 OA
ATOM     36  N   UNL     1      -9.215  -4.903  -9.340  1.00  0.00    -0.354 N 
ATOM     37  H   UNL     1      -9.866  -4.742  -8.570  1.00  0.00     0.163 HD
BRANCH  36  38
ATOM     38  C   UNL     1      -8.756  -6.252  -9.595  1.00  0.00     0.116 C 
BRANCH  38  39
ATOM     39  C   UNL     1      -7.302  -6.398  -9.153  1.00  0.00     0.023 C 
BRANCH  39  40
ATOM     40  C   UNL     1      -6.958  -7.825  -8.741  1.00  0.00     0.026 C 
BRANCH  40  41
ATOM     41  C   UNL     1      -5.725  -8.324  -9.495  1.00  0.00     0.146 C 
BRANCH  41  42
ATOM     42  N   UNL     1      -4.570  -7.509  -9.145  1.00  0.00    -0.254 NA
ATOM     43  C   UNL     1      -3.526  -8.066  -8.656  1.00  0.00     0.185 C 
ATOM     44  N   UNL     1      -3.282  -9.362  -8.387  1.00  0.00    -0.370 N 
ATOM     45  N   UNL     1      -2.473  -7.296  -8.335  1.00  0.00    -0.370 N 
ATOM     46  H   UNL     1      -2.523  -9.626  -7.783  1.00  0.00     0.159 HD
ATOM     47  H   UNL     1      -3.968 -10.084  -8.582  1.00  0.00     0.159 HD
ATOM     48  H   UNL     1      -2.571  -6.306  -8.515  1.00  0.00     0.159 HD
ATOM     49  H   UNL     1      -1.555  -7.669  -8.177  1.00  0.00     0.159 HD
ENDBRANCH  41  42
ENDBRANCH  40  41
ENDBRANCH  39  40
ENDBRANCH  38  39
ENDBRANCH  36  38
ENDBRANCH   5  34
BRANCH   8  50
ATOM     50  O   UNL     1      -4.366  -2.363  -8.861  1.00  0.00    -0.245 OA
BRANCH  50  51
ATOM     51  S   UNL     1      -2.900  -3.010  -8.580  1.00  0.00     0.397 S 
ATOM     52  O   UNL     1      -1.903  -2.019  -8.919  1.00  0.00    -0.169 OA
ATOM     53  O   UNL     1      -2.850  -4.353  -9.118  1.00  0.00    -0.169 OA
BRANCH  51  54
ATOM     54  O   UNL     1      -2.883  -3.118  -6.976  1.00  0.00    -0.264 OA
ATOM     55  H   UNL     1      -1.988  -3.406  -6.705  1.00  0.00     0.236 HD
ENDBRANCH  51  54
ENDBRANCH  50  51
ENDBRANCH   8  50
TORSDOF 19
ENDMDL
MODEL 48
REMARK VINA RESULT:    -6.285     10.913     15.295
REMARK INTER + INTRA:         -15.932
REMARK INTER:                 -10.014
REMARK INTRA:                  -5.918
REMARK UNBOUND:                -3.218
REMARK SMILES CC[C@@H](C)[C@@H](NC(=O)[C@@H](O)Cc1ccc(O)c(Cl)c1)C(=O)N1[C@H](C(=O)NCCCCN=C(N)N)C[C@H]2CC[C@H](OS(=O)(=O)O)C[C@@H]21
REMARK SMILES IDX 22 1 36 2 46 3 35 4 23 5 45 6 37 7 39 8 38 9 20 10 21 11
REMARK SMILES IDX 5 12 6 13 7 14 8 15 9 17 11 18 12 19 17 20 19 21 15 22 14 23
REMARK SMILES IDX 13 24 18 25 16 26 10 28 3 30 4 31 2 32 1 33 24 34 25 35
REMARK SMILES IDX 26 36 27 38 28 39 29 40 30 41 31 42 32 43 33 44 34 45 40 50
REMARK SMILES IDX 41 51 42 52 43 53 44 54
REMARK H PARENT 6 16 16 27 10 29 26 37 33 46 33 47 34 48 34 49 44 55
ROOT
ATOM      1  N   UNL     1      -7.854  -9.319   8.333  1.00  0.00    -0.326 N 
ATOM      2  C   UNL     1     -10.124  -9.946   8.326  1.00  0.00     0.014 C 
ATOM      3  C   UNL     1      -9.020  -9.373   9.219  1.00  0.00     0.091 C 
ATOM      4  C   UNL     1      -9.362 -10.914   7.433  1.00  0.00     0.041 C 
ATOM      5  C   UNL     1      -8.140 -10.049   7.073  1.00  0.00     0.175 C 
ATOM      6  C   UNL     1      -9.525  -8.068   9.833  1.00  0.00     0.059 C 
ATOM      7  C   UNL     1     -11.284 -10.457   9.157  1.00  0.00     0.008 C 
ATOM      8  C   UNL     1     -11.048  -8.047  10.083  1.00  0.00     0.143 C 
ATOM      9  C   UNL     1     -11.621  -9.464  10.289  1.00  0.00     0.034 C 
ENDROOT
BRANCH   1  10
ATOM     10  C   UNL     1      -6.560  -8.904   8.593  1.00  0.00     0.246 C 
ATOM     11  O   UNL     1      -5.679  -9.753   8.762  1.00  0.00    -0.272 OA
BRANCH  10  12
ATOM     12  C   UNL     1      -6.233  -7.382   8.624  1.00  0.00     0.174 C 
BRANCH  12  13
ATOM     13  N   UNL     1      -7.346  -6.622   8.055  1.00  0.00    -0.342 N 
ATOM     14  C   UNL     1      -7.815  -5.423   8.543  1.00  0.00     0.249 C 
ATOM     15  O   UNL     1      -7.327  -4.840   9.503  1.00  0.00    -0.272 OA
ATOM     16  H   UNL     1      -7.946  -7.054   7.356  1.00  0.00     0.164 HD
BRANCH  14  17
ATOM     17  C   UNL     1      -9.012  -4.879   7.735  1.00  0.00     0.207 C 
BRANCH  17  18
ATOM     18  C   UNL     1      -8.536  -3.868   6.687  1.00  0.00     0.077 C 
BRANCH  18  19
ATOM     19  C   UNL     1      -8.701  -4.397   5.280  1.00  0.00    -0.043 A 
ATOM     20  C   UNL     1      -7.733  -5.291   3.243  1.00  0.00     0.083 A 
ATOM     21  C   UNL     1      -7.585  -4.850   4.558  1.00  0.00     0.028 A 
ATOM     22  C   UNL     1      -8.992  -5.283   2.641  1.00  0.00     0.134 A 
ATOM     23  C   UNL     1     -10.106  -4.838   3.345  1.00  0.00     0.048 A 
ATOM     24  C   UNL     1      -9.960  -4.393   4.661  1.00  0.00     0.008 A 
ATOM     25  Cl  UNL     1      -6.351  -5.843   2.372  1.00  0.00    -0.080 Cl
BRANCH  22  26
ATOM     26  O   UNL     1      -9.185  -5.697   1.351  1.00  0.00    -0.506 OA
ATOM     27  H   UNL     1     -10.134  -5.903   1.262  1.00  0.00     0.293 HD
ENDBRANCH  22  26
ENDBRANCH  18  19
ENDBRANCH  17  18
BRANCH  17  28
ATOM     28  O   UNL     1      -9.976  -4.253   8.597  1.00  0.00    -0.383 OA
ATOM     29  H   UNL     1      -9.674  -4.431   9.517  1.00  0.00     0.211 HD
ENDBRANCH  17  28
ENDBRANCH  14  17
ENDBRANCH  12  13
BRANCH  12  30
ATOM     30  C   UNL     1      -4.878  -7.046   7.945  1.00  0.00     0.018 C 
ATOM     31  C   UNL     1      -4.074  -6.050   8.796  1.00  0.00     0.010 C 
BRANCH  30  32
ATOM     32  C   UNL     1      -5.022  -6.514   6.498  1.00  0.00     0.002 C 
ATOM     33  C   UNL     1      -4.305  -7.330   5.431  1.00  0.00     0.004 C 
ENDBRANCH  30  32
ENDBRANCH  12  30
ENDBRANCH  10  12
ENDBRANCH   1  10
BRANCH   5  34
ATOM     34  C   UNL     1      -8.460  -9.058   5.922  1.00  0.00     0.242 C 
ATOM     35  O   UNL     1      -8.904  -7.929   6.131  1.00  0.00    -0.273 OA
ATOM     36  N   UNL     1      -8.264  -9.552   4.652  1.00  0.00    -0.354 N 
ATOM     37  H   UNL     1      -8.009 -10.535   4.541  1.00  0.00     0.163 HD
BRANCH  36  38
ATOM     38  C   UNL     1      -8.304  -8.705   3.478  1.00  0.00     0.116 C 
BRANCH  38  39
ATOM     39  C   UNL     1      -9.338  -9.239   2.490  1.00  0.00     0.023 C 
BRANCH  39  40
ATOM     40  C   UNL     1     -10.581  -9.784   3.184  1.00  0.00     0.026 C 
BRANCH  40  41
ATOM     41  C   UNL     1     -11.590  -8.666   3.447  1.00  0.00     0.146 C 
BRANCH  41  42
ATOM     42  N   UNL     1     -12.448  -9.031   4.566  1.00  0.00    -0.254 NA
ATOM     43  C   UNL     1     -12.407  -8.344   5.646  1.00  0.00     0.185 C 
ATOM     44  N   UNL     1     -11.663  -7.268   5.959  1.00  0.00    -0.370 N 
ATOM     45  N   UNL     1     -13.204  -8.700   6.668  1.00  0.00    -0.370 N 
ATOM     46  H   UNL     1     -11.553  -6.981   6.917  1.00  0.00     0.159 HD
ATOM     47  H   UNL     1     -11.015  -6.857   5.295  1.00  0.00     0.159 HD
ATOM     48  H   UNL     1     -13.805  -9.498   6.511  1.00  0.00     0.159 HD
ATOM     49  H   UNL     1     -13.403  -8.089   7.439  1.00  0.00     0.159 HD
ENDBRANCH  41  42
ENDBRANCH  40  41
ENDBRANCH  39  40
ENDBRANCH  38  39
ENDBRANCH  36  38
ENDBRANCH   5  34
BRANCH   8  50
ATOM     50  O   UNL     1     -11.719  -7.444   8.976  1.00  0.00    -0.245 OA
BRANCH  50  51
ATOM     51  S   UNL     1     -12.906  -6.366   9.246  1.00  0.00     0.397 S 
ATOM     52  O   UNL     1     -12.615  -5.683  10.487  1.00  0.00    -0.169 OA
ATOM     53  O   UNL     1     -14.191  -6.987   9.004  1.00  0.00    -0.169 OA
BRANCH  51  54
ATOM     54  O   UNL     1     -12.651  -5.286   8.082  1.00  0.00    -0.264 OA
ATOM     55  H   UNL     1     -12.386  -5.774   7.275  1.00  0.00     0.236 HD
ENDBRANCH  51  54
ENDBRANCH  50  51
ENDBRANCH   8  50
TORSDOF 19
ENDMDL
MODEL 49
REMARK VINA RESULT:    -6.268      9.861     13.768
REMARK INTER + INTRA:         -15.898
REMARK INTER:                 -10.500
REMARK INTRA:                  -5.398
REMARK UNBOUND:                -3.218
REMARK SMILES CC[C@@H](C)[C@@H](NC(=O)[C@@H](O)Cc1ccc(O)c(Cl)c1)C(=O)N1[C@H](C(=O)NCCCCN=C(N)N)C[C@H]2CC[C@H](OS(=O)(=O)O)C[C@@H]21
REMARK SMILES IDX 22 1 36 2 46 3 35 4 23 5 45 6 37 7 39 8 38 9 20 10 21 11
REMARK SMILES IDX 5 12 6 13 7 14 8 15 9 17 11 18 12 19 17 20 19 21 15 22 14 23
REMARK SMILES IDX 13 24 18 25 16 26 10 28 3 30 4 31 2 32 1 33 24 34 25 35
REMARK SMILES IDX 26 36 27 38 28 39 29 40 30 41 31 42 32 43 33 44 34 45 40 50
REMARK SMILES IDX 41 51 42 52 43 53 44 54
REMARK H PARENT 6 16 16 27 10 29 26 37 33 46 33 47 34 48 34 49 44 55
ROOT
ATOM      1  N   UNL     1     -12.012  -4.072   5.154  1.00  0.00    -0.326 N 
ATOM      2  C   UNL     1     -10.104  -3.877   3.789  1.00  0.00     0.014 C 
ATOM      3  C   UNL     1     -11.305  -4.780   4.083  1.00  0.00     0.091 C 
ATOM      4  C   UNL     1      -9.764  -3.315   5.161  1.00  0.00     0.041 C 
ATOM      5  C   UNL     1     -11.174  -2.960   5.668  1.00  0.00     0.175 C 
ATOM      6  C   UNL     1     -12.047  -5.039   2.773  1.00  0.00     0.059 C 
ATOM      7  C   UNL     1      -9.041  -4.624   3.008  1.00  0.00     0.008 C 
ATOM      8  C   UNL     1     -11.127  -5.064   1.533  1.00  0.00     0.143 C 
ATOM      9  C   UNL     1      -9.684  -5.473   1.890  1.00  0.00     0.034 C 
ENDROOT
BRANCH   1  10
ATOM     10  C   UNL     1     -13.164  -4.421   5.839  1.00  0.00     0.246 C 
ATOM     11  O   UNL     1     -14.263  -4.178   5.329  1.00  0.00    -0.272 OA
BRANCH  10  12
ATOM     12  C   UNL     1     -13.051  -5.146   7.211  1.00  0.00     0.174 C 
BRANCH  12  13
ATOM     13  N   UNL     1     -12.052  -6.211   7.131  1.00  0.00    -0.342 N 
ATOM     14  C   UNL     1     -11.134  -6.509   8.113  1.00  0.00     0.249 C 
ATOM     15  O   UNL     1     -11.071  -5.925   9.188  1.00  0.00    -0.272 OA
ATOM     16  H   UNL     1     -11.881  -6.676   6.243  1.00  0.00     0.164 HD
BRANCH  14  17
ATOM     17  C   UNL     1     -10.203  -7.677   7.724  1.00  0.00     0.207 C 
BRANCH  17  18
ATOM     18  C   UNL     1     -10.117  -7.808   6.200  1.00  0.00     0.077 C 
BRANCH  18  19
ATOM     19  C   UNL     1      -8.803  -7.287   5.664  1.00  0.00    -0.043 A 
ATOM     20  C   UNL     1      -7.014  -7.379   4.029  1.00  0.00     0.083 A 
ATOM     21  C   UNL     1      -8.250  -7.828   4.493  1.00  0.00     0.028 A 
ATOM     22  C   UNL     1      -6.322  -6.390   4.729  1.00  0.00     0.134 A 
ATOM     23  C   UNL     1      -6.858  -5.845   5.891  1.00  0.00     0.048 A 
ATOM     24  C   UNL     1      -8.094  -6.294   6.359  1.00  0.00     0.008 A 
ATOM     25  Cl  UNL     1      -6.351  -8.057   2.588  1.00  0.00    -0.080 Cl
BRANCH  22  26
ATOM     26  O   UNL     1      -5.102  -5.925   4.319  1.00  0.00    -0.506 OA
ATOM     27  H   UNL     1      -4.429  -6.479   4.758  1.00  0.00     0.293 HD
ENDBRANCH  22  26
ENDBRANCH  18  19
ENDBRANCH  17  18
BRANCH  17  28
ATOM     28  O   UNL     1     -10.666  -8.917   8.284  1.00  0.00    -0.383 OA
ATOM     29  H   UNL     1     -10.906  -9.488   7.519  1.00  0.00     0.211 HD
ENDBRANCH  17  28
ENDBRANCH  14  17
ENDBRANCH  12  13
BRANCH  12  30
ATOM     30  C   UNL     1     -14.420  -5.656   7.735  1.00  0.00     0.018 C 
ATOM     31  C   UNL     1     -14.595  -5.321   9.224  1.00  0.00     0.010 C 
BRANCH  30  32
ATOM     32  C   UNL     1     -14.652  -7.169   7.499  1.00  0.00     0.002 C 
ATOM     33  C   UNL     1     -14.715  -8.022   8.759  1.00  0.00     0.004 C 
ENDBRANCH  30  32
ENDBRANCH  12  30
ENDBRANCH  10  12
ENDBRANCH   1  10
BRANCH   5  34
ATOM     34  C   UNL     1     -11.659  -1.599   5.102  1.00  0.00     0.242 C 
ATOM     35  O   UNL     1     -12.442  -1.522   4.155  1.00  0.00    -0.273 OA
ATOM     36  N   UNL     1     -11.111  -0.487   5.700  1.00  0.00    -0.354 N 
ATOM     37  H   UNL     1     -10.378  -0.616   6.399  1.00  0.00     0.163 HD
BRANCH  36  38
ATOM     38  C   UNL     1     -11.607   0.850   5.449  1.00  0.00     0.116 C 
BRANCH  38  39
ATOM     39  C   UNL     1     -10.449   1.768   5.063  1.00  0.00     0.023 C 
BRANCH  39  40
ATOM     40  C   UNL     1      -9.231   0.994   4.570  1.00  0.00     0.026 C 
BRANCH  40  41
ATOM     41  C   UNL     1      -9.061   1.158   3.059  1.00  0.00     0.146 C 
BRANCH  41  42
ATOM     42  N   UNL     1     -10.317   0.855   2.386  1.00  0.00    -0.254 NA
ATOM     43  C   UNL     1     -10.445  -0.247   1.749  1.00  0.00     0.185 C 
ATOM     44  N   UNL     1      -9.568  -1.253   1.575  1.00  0.00    -0.370 N 
ATOM     45  N   UNL     1     -11.610  -0.505   1.132  1.00  0.00    -0.370 N 
ATOM     46  H   UNL     1      -9.712  -1.940   0.854  1.00  0.00     0.159 HD
ATOM     47  H   UNL     1      -8.640  -1.228   1.986  1.00  0.00     0.159 HD
ATOM     48  H   UNL     1     -12.330   0.199   1.221  1.00  0.00     0.159 HD
ATOM     49  H   UNL     1     -11.870  -1.425   0.822  1.00  0.00     0.159 HD
ENDBRANCH  41  42
ENDBRANCH  40  41
ENDBRANCH  39  40
ENDBRANCH  38  39
ENDBRANCH  36  38
ENDBRANCH   5  34
BRANCH   8  50
ATOM     50  O   UNL     1     -11.095  -3.775   0.920  1.00  0.00    -0.245 OA
BRANCH  50  51
ATOM     51  S   UNL     1     -10.482  -3.614  -0.578  1.00  0.00     0.397 S 
ATOM     52  O   UNL     1     -10.933  -4.737  -1.369  1.00  0.00    -0.169 OA
ATOM     53  O   UNL     1      -9.081  -3.258  -0.494  1.00  0.00    -0.169 OA
BRANCH  51  54
ATOM     54  O   UNL     1     -11.285  -2.336  -1.133  1.00  0.00    -0.264 OA
ATOM     55  H   UNL     1     -11.417  -2.462  -2.095  1.00  0.00     0.236 HD
ENDBRANCH  51  54
ENDBRANCH  50  51
ENDBRANCH   8  50
TORSDOF 19
ENDMDL
MODEL 50
REMARK VINA RESULT:    -6.217     11.452     15.996
REMARK INTER + INTRA:         -15.795
REMARK INTER:                 -11.790
REMARK INTRA:                  -4.006
REMARK UNBOUND:                -3.218
REMARK SMILES CC[C@@H](C)[C@@H](NC(=O)[C@@H](O)Cc1ccc(O)c(Cl)c1)C(=O)N1[C@H](C(=O)NCCCCN=C(N)N)C[C@H]2CC[C@H](OS(=O)(=O)O)C[C@@H]21
REMARK SMILES IDX 22 1 36 2 46 3 35 4 23 5 45 6 37 7 39 8 38 9 20 10 21 11
REMARK SMILES IDX 5 12 6 13 7 14 8 15 9 17 11 18 12 19 17 20 19 21 15 22 14 23
REMARK SMILES IDX 13 24 18 25 16 26 10 28 3 30 4 31 2 32 1 33 24 34 25 35
REMARK SMILES IDX 26 36 27 38 28 39 29 40 30 41 31 42 32 43 33 44 34 45 40 50
REMARK SMILES IDX 41 51 42 52 43 53 44 54
REMARK H PARENT 6 16 16 27 10 29 26 37 33 46 33 47 34 48 34 49 44 55
ROOT
ATOM      1  N   UNL     1     -13.549  -6.890   8.054  1.00  0.00    -0.326 N 
ATOM      2  C   UNL     1     -12.695  -8.159   6.264  1.00  0.00     0.014 C 
ATOM      3  C   UNL     1     -13.131  -6.745   6.657  1.00  0.00     0.091 C 
ATOM      4  C   UNL     1     -13.659  -9.036   7.049  1.00  0.00     0.041 C 
ATOM      5  C   UNL     1     -13.622  -8.328   8.415  1.00  0.00     0.175 C 
ATOM      6  C   UNL     1     -11.988  -5.782   6.339  1.00  0.00     0.059 C 
ATOM      7  C   UNL     1     -12.617  -8.304   4.757  1.00  0.00     0.008 C 
ATOM      8  C   UNL     1     -11.141  -6.204   5.120  1.00  0.00     0.143 C 
ATOM      9  C   UNL     1     -11.945  -7.067   4.126  1.00  0.00     0.034 C 
ENDROOT
BRANCH   1  10
ATOM     10  C   UNL     1     -14.058  -5.948   8.931  1.00  0.00     0.246 C 
ATOM     11  O   UNL     1     -13.452  -5.717   9.983  1.00  0.00    -0.272 OA
BRANCH  10  12
ATOM     12  C   UNL     1     -15.353  -5.171   8.556  1.00  0.00     0.174 C 
BRANCH  12  13
ATOM     13  N   UNL     1     -15.030  -4.072   7.646  1.00  0.00    -0.342 N 
ATOM     14  C   UNL     1     -15.509  -3.943   6.362  1.00  0.00     0.249 C 
ATOM     15  O   UNL     1     -16.292  -4.730   5.844  1.00  0.00    -0.272 OA
ATOM     16  H   UNL     1     -14.275  -3.431   7.878  1.00  0.00     0.164 HD
BRANCH  14  17
ATOM     17  C   UNL     1     -14.970  -2.685   5.648  1.00  0.00     0.207 C 
BRANCH  17  18
ATOM     18  C   UNL     1     -13.455  -2.789   5.450  1.00  0.00     0.077 C 
BRANCH  18  19
ATOM     19  C   UNL     1     -13.094  -3.062   4.007  1.00  0.00    -0.043 A 
ATOM     20  C   UNL     1     -11.784  -2.543   2.033  1.00  0.00     0.083 A 
ATOM     21  C   UNL     1     -12.080  -2.323   3.379  1.00  0.00     0.028 A 
ATOM     22  C   UNL     1     -12.497  -3.498   1.308  1.00  0.00     0.134 A 
ATOM     23  C   UNL     1     -13.503  -4.238   1.918  1.00  0.00     0.048 A 
ATOM     24  C   UNL     1     -13.804  -4.018   3.265  1.00  0.00     0.008 A 
ATOM     25  Cl  UNL     1     -10.534  -1.624   1.278  1.00  0.00    -0.080 Cl
BRANCH  22  26
ATOM     26  O   UNL     1     -12.249  -3.742  -0.016  1.00  0.00    -0.506 OA
ATOM     27  H   UNL     1     -11.675  -3.019  -0.331  1.00  0.00     0.293 HD
ENDBRANCH  22  26
ENDBRANCH  18  19
ENDBRANCH  17  18
BRANCH  17  28
ATOM     28  O   UNL     1     -15.272  -1.496   6.397  1.00  0.00    -0.383 OA
ATOM     29  H   UNL     1     -15.639  -1.803   7.257  1.00  0.00     0.211 HD
ENDBRANCH  17  28
ENDBRANCH  14  17
ENDBRANCH  12  13
BRANCH  12  30
ATOM     30  C   UNL     1     -16.148  -4.693   9.801  1.00  0.00     0.018 C 
ATOM     31  C   UNL     1     -17.173  -5.754  10.234  1.00  0.00     0.010 C 
BRANCH  30  32
ATOM     32  C   UNL     1     -16.848  -3.326   9.605  1.00  0.00     0.002 C 
ATOM     33  C   UNL     1     -18.258  -3.392   9.033  1.00  0.00     0.004 C 
ENDBRANCH  30  32
ENDBRANCH  12  30
ENDBRANCH  10  12
ENDBRANCH   1  10
BRANCH   5  34
ATOM     34  C   UNL     1     -12.379  -8.750   9.244  1.00  0.00     0.242 C 
ATOM     35  O   UNL     1     -12.211  -9.905   9.635  1.00  0.00    -0.273 OA
ATOM     36  N   UNL     1     -11.509  -7.729   9.557  1.00  0.00    -0.354 N 
ATOM     37  H   UNL     1     -11.764  -6.773   9.308  1.00  0.00     0.163 HD
BRANCH  36  38
ATOM     38  C   UNL     1     -10.203  -7.976  10.132  1.00  0.00     0.116 C 
BRANCH  38  39
ATOM     39  C   UNL     1      -9.177  -8.181   9.020  1.00  0.00     0.023 C 
BRANCH  39  40
ATOM     40  C   UNL     1      -8.146  -7.059   8.964  1.00  0.00     0.026 C 
BRANCH  40  41
ATOM     41  C   UNL     1      -8.811  -5.730   8.607  1.00  0.00     0.146 C 
BRANCH  41  42
ATOM     42  N   UNL     1      -7.822  -4.819   8.046  1.00  0.00    -0.254 NA
ATOM     43  C   UNL     1      -8.208  -3.805   7.367  1.00  0.00     0.185 C 
ATOM     44  N   UNL     1      -9.451  -3.395   7.055  1.00  0.00    -0.370 N 
ATOM     45  N   UNL     1      -7.280  -2.980   6.854  1.00  0.00    -0.370 N 
ATOM     46  H   UNL     1      -9.601  -2.727   6.318  1.00  0.00     0.159 HD
ATOM     47  H   UNL     1     -10.274  -3.896   7.375  1.00  0.00     0.159 HD
ATOM     48  H   UNL     1      -6.316  -3.213   7.051  1.00  0.00     0.159 HD
ATOM     49  H   UNL     1      -7.497  -2.056   6.524  1.00  0.00     0.159 HD
ENDBRANCH  41  42
ENDBRANCH  40  41
ENDBRANCH  39  40
ENDBRANCH  38  39
ENDBRANCH  36  38
ENDBRANCH   5  34
BRANCH   8  50
ATOM     50  O   UNL     1     -10.002  -6.951   5.549  1.00  0.00    -0.245 OA
BRANCH  50  51
ATOM     51  S   UNL     1      -8.597  -6.808   4.742  1.00  0.00     0.397 S 
ATOM     52  O   UNL     1      -8.247  -5.406   4.701  1.00  0.00    -0.169 OA
ATOM     53  O   UNL     1      -8.642  -7.616   3.541  1.00  0.00    -0.169 OA
BRANCH  51  54
ATOM     54  O   UNL     1      -7.555  -7.490   5.759  1.00  0.00    -0.264 OA
ATOM     55  H   UNL     1      -7.568  -6.973   6.591  1.00  0.00     0.236 HD
ENDBRANCH  51  54
ENDBRANCH  50  51
ENDBRANCH   8  50
TORSDOF 19
ENDMDL
