MODEL 1
REMARK VINA RESULT:    -6.748      0.000      0.000
REMARK INTER + INTRA:         -22.181
REMARK INTER:                 -16.809
REMARK INTRA:                  -5.372
REMARK UNBOUND:                -5.372
REMARK SMILES CCCCCCC[C@H](N)[C@H](O)C(=O)N[C@H](C)C(=O)N(C)[C@H](CC(C)C)C(=O)N[C@@H](Cc1ccc(O)cc1)C(=O)N[C@@H](Cc1ccc(O)cc1)C(=O)O
REMARK SMILES IDX 18 1 17 2 15 3 16 4 14 5 12 6 13 7 10 9 11 10 8 12 9 13 7 16
REMARK SMILES IDX 6 17 5 18 4 19 3 20 2 21 1 22 19 23 20 24 21 25 22 26 23 27
REMARK SMILES IDX 24 28 25 29 26 30 27 31 28 32 29 34 30 35 31 36 32 37 37 38
REMARK SMILES IDX 33 39 36 40 34 41 35 42 38 44 39 45 40 46 41 48 42 49 43 50
REMARK SMILES IDX 44 51 49 52 45 53 48 54 46 55 47 56 50 58 51 59 52 60
REMARK H PARENT 14 8 11 11 9 14 9 15 28 33 35 43 40 47 47 57 52 61
ROOT
ATOM      1  O   UNL     1      11.277  -0.201   1.957  1.00  0.00    -0.272 OA
ATOM      2  C   UNL     1      12.175  -0.532   2.746  1.00  0.00     0.245 C 
ENDROOT
BRANCH   2   3
ATOM      3  C   UNL     1      12.317   0.247   4.077  1.00  0.00     0.168 C 
ATOM      4  C   UNL     1      13.641   1.001   4.126  1.00  0.00     0.041 C 
BRANCH   3   5
ATOM      5  N   UNL     1      11.190   1.107   4.404  1.00  0.00    -0.342 N 
ATOM      6  C   UNL     1      11.034   2.351   3.831  1.00  0.00     0.251 C 
ATOM      7  O   UNL     1      11.839   2.840   3.045  1.00  0.00    -0.272 OA
ATOM      8  H   UNL     1      10.475   0.824   5.070  1.00  0.00     0.164 HD
BRANCH   6   9
ATOM      9  C   UNL     1       9.704   3.020   4.214  1.00  0.00     0.219 C 
BRANCH   9  10
ATOM     10  O   UNL     1       9.855   4.408   4.532  1.00  0.00    -0.382 OA
ATOM     11  H   UNL     1      10.682   4.435   5.063  1.00  0.00     0.211 HD
ENDBRANCH   9  10
BRANCH   9  12
ATOM     12  C   UNL     1       8.592   2.816   3.152  1.00  0.00     0.089 C 
BRANCH  12  13
ATOM     13  N   UNL     1       9.007   1.723   2.244  1.00  0.00    -0.325 NA
ATOM     14  H   UNL     1       9.170   2.105   1.311  1.00  0.00     0.119 HD
ATOM     15  H   UNL     1       8.228   1.070   2.133  1.00  0.00     0.119 HD
ENDBRANCH  12  13
BRANCH  12  16
ATOM     16  C   UNL     1       7.172   2.540   3.702  1.00  0.00     0.022 C 
BRANCH  16  17
ATOM     17  C   UNL     1       6.148   1.831   2.805  1.00  0.00     0.002 C 
BRANCH  17  18
ATOM     18  C   UNL     1       5.305   0.768   3.504  1.00  0.00     0.000 C 
BRANCH  18  19
ATOM     19  C   UNL     1       4.778   1.194   4.881  1.00  0.00    -0.000 C 
BRANCH  19  20
ATOM     20  C   UNL     1       3.689   0.292   5.468  1.00  0.00    -0.000 C 
BRANCH  20  21
ATOM     21  C   UNL     1       3.463  -0.984   4.653  1.00  0.00    -0.003 C 
ATOM     22  C   UNL     1       3.409  -2.212   5.548  1.00  0.00     0.004 C 
ENDBRANCH  20  21
ENDBRANCH  19  20
ENDBRANCH  18  19
ENDBRANCH  17  18
ENDBRANCH  16  17
ENDBRANCH  12  16
ENDBRANCH   9  12
ENDBRANCH   6   9
ENDBRANCH   3   5
ENDBRANCH   2   3
BRANCH   2  23
ATOM     23  N   UNL     1      12.950  -1.657   2.484  1.00  0.00    -0.332 N 
ATOM     24  C   UNL     1      14.383  -1.631   2.231  1.00  0.00     0.147 C 
BRANCH  23  25
ATOM     25  C   UNL     1      12.355  -3.018   2.577  1.00  0.00     0.174 C 
BRANCH  25  26
ATOM     26  C   UNL     1      11.803  -3.527   1.224  1.00  0.00     0.038 C 
BRANCH  26  27
ATOM     27  C   UNL     1      11.084  -4.895   1.231  1.00  0.00    -0.015 C 
ATOM     28  C   UNL     1      10.413  -5.209  -0.105  1.00  0.00     0.007 C 
ATOM     29  C   UNL     1      11.982  -6.050   1.666  1.00  0.00     0.007 C 
ENDBRANCH  26  27
ENDBRANCH  25  26
BRANCH  25  30
ATOM     30  C   UNL     1      11.323  -3.070   3.727  1.00  0.00     0.243 C 
ATOM     31  O   UNL     1      11.542  -3.688   4.768  1.00  0.00    -0.273 OA
ATOM     32  N   UNL     1      10.153  -2.390   3.507  1.00  0.00    -0.342 N 
ATOM     33  H   UNL     1      10.105  -1.786   2.682  1.00  0.00     0.164 HD
BRANCH  32  34
ATOM     34  C   UNL     1       9.053  -2.352   4.474  1.00  0.00     0.175 C 
BRANCH  34  35
ATOM     35  C   UNL     1       8.339  -0.992   4.456  1.00  0.00     0.070 C 
BRANCH  35  36
ATOM     36  C   UNL     1       7.876  -0.556   5.827  1.00  0.00    -0.045 A 
ATOM     37  C   UNL     1       6.879  -1.282   6.495  1.00  0.00     0.007 A 
ATOM     38  C   UNL     1       8.414   0.584   6.439  1.00  0.00     0.007 A 
ATOM     39  C   UNL     1       6.435  -0.879   7.755  1.00  0.00     0.046 A 
ATOM     40  C   UNL     1       7.970   0.989   7.700  1.00  0.00     0.046 A 
ATOM     41  C   UNL     1       6.984   0.251   8.348  1.00  0.00     0.115 A 
BRANCH  41  42
ATOM     42  O   UNL     1       6.521   0.613   9.578  1.00  0.00    -0.508 OA
ATOM     43  H   UNL     1       6.376  -0.195  10.098  1.00  0.00     0.293 HD
ENDBRANCH  41  42
ENDBRANCH  35  36
ENDBRANCH  34  35
BRANCH  34  44
ATOM     44  C   UNL     1       8.089  -3.515   4.148  1.00  0.00     0.243 C 
ATOM     45  O   UNL     1       6.997  -3.379   3.604  1.00  0.00    -0.273 OA
ATOM     46  N   UNL     1       8.509  -4.731   4.644  1.00  0.00    -0.341 N 
ATOM     47  H   UNL     1       9.366  -4.773   5.190  1.00  0.00     0.164 HD
BRANCH  46  48
ATOM     48  C   UNL     1       7.729  -5.964   4.519  1.00  0.00     0.196 C 
BRANCH  48  49
ATOM     49  C   UNL     1       8.626  -7.160   4.160  1.00  0.00     0.072 C 
BRANCH  49  50
ATOM     50  C   UNL     1       8.429  -7.627   2.735  1.00  0.00    -0.045 A 
ATOM     51  C   UNL     1       9.061  -8.798   2.290  1.00  0.00     0.007 A 
ATOM     52  C   UNL     1       7.638  -6.897   1.840  1.00  0.00     0.007 A 
ATOM     53  C   UNL     1       8.898  -9.231   0.974  1.00  0.00     0.046 A 
ATOM     54  C   UNL     1       7.475  -7.330   0.522  1.00  0.00     0.046 A 
ATOM     55  C   UNL     1       8.106  -8.495   0.101  1.00  0.00     0.115 A 
BRANCH  55  56
ATOM     56  O   UNL     1       7.974  -8.952  -1.177  1.00  0.00    -0.508 OA
ATOM     57  H   UNL     1       8.804  -8.784  -1.650  1.00  0.00     0.293 HD
ENDBRANCH  55  56
ENDBRANCH  49  50
ENDBRANCH  48  49
BRANCH  48  58
ATOM     58  C   UNL     1       7.013  -6.240   5.849  1.00  0.00     0.326 C 
ATOM     59  O   UNL     1       5.874  -6.647   6.005  1.00  0.00    -0.250 OA
BRANCH  58  60
ATOM     60  O   UNL     1       7.785  -5.998   6.939  1.00  0.00    -0.480 OA
ATOM     61  H   UNL     1       7.241  -6.341   7.681  1.00  0.00     0.296 HD
ENDBRANCH  58  60
ENDBRANCH  48  58
ENDBRANCH  46  48
ENDBRANCH  34  44
ENDBRANCH  32  34
ENDBRANCH  25  30
ENDBRANCH  23  25
ENDBRANCH   2  23
TORSDOF 28
ENDMDL
MODEL 2
REMARK VINA RESULT:    -6.410     11.153     15.406
REMARK INTER + INTRA:         -21.337
REMARK INTER:                 -15.780
REMARK INTRA:                  -5.557
REMARK UNBOUND:                -5.372
REMARK SMILES CCCCCCC[C@H](N)[C@H](O)C(=O)N[C@H](C)C(=O)N(C)[C@H](CC(C)C)C(=O)N[C@@H](Cc1ccc(O)cc1)C(=O)N[C@@H](Cc1ccc(O)cc1)C(=O)O
REMARK SMILES IDX 18 1 17 2 15 3 16 4 14 5 12 6 13 7 10 9 11 10 8 12 9 13 7 16
REMARK SMILES IDX 6 17 5 18 4 19 3 20 2 21 1 22 19 23 20 24 21 25 22 26 23 27
REMARK SMILES IDX 24 28 25 29 26 30 27 31 28 32 29 34 30 35 31 36 32 37 37 38
REMARK SMILES IDX 33 39 36 40 34 41 35 42 38 44 39 45 40 46 41 48 42 49 43 50
REMARK SMILES IDX 44 51 49 52 45 53 48 54 46 55 47 56 50 58 51 59 52 60
REMARK H PARENT 14 8 11 11 9 14 9 15 28 33 35 43 40 47 47 57 52 61
ROOT
ATOM      1  O   UNL     1      -3.681  -7.868   2.107  1.00  0.00    -0.272 OA
ATOM      2  C   UNL     1      -3.352  -8.381   1.028  1.00  0.00     0.245 C 
ENDROOT
BRANCH   2   3
ATOM      3  C   UNL     1      -4.164  -9.593   0.505  1.00  0.00     0.168 C 
ATOM      4  C   UNL     1      -5.107 -10.118   1.582  1.00  0.00     0.041 C 
BRANCH   3   5
ATOM      5  N   UNL     1      -4.853  -9.368  -0.756  1.00  0.00    -0.342 N 
ATOM      6  C   UNL     1      -4.957 -10.355  -1.714  1.00  0.00     0.251 C 
ATOM      7  O   UNL     1      -4.449 -11.465  -1.599  1.00  0.00    -0.272 OA
ATOM      8  H   UNL     1      -5.284  -8.475  -0.980  1.00  0.00     0.164 HD
BRANCH   6   9
ATOM      9  C   UNL     1      -5.846  -9.942  -2.898  1.00  0.00     0.219 C 
BRANCH   9  10
ATOM     10  O   UNL     1      -7.135  -9.473  -2.484  1.00  0.00    -0.382 OA
ATOM     11  H   UNL     1      -7.582  -9.251  -3.330  1.00  0.00     0.211 HD
ENDBRANCH   9  10
BRANCH   9  12
ATOM     12  C   UNL     1      -5.165  -8.918  -3.844  1.00  0.00     0.089 C 
BRANCH  12  13
ATOM     13  N   UNL     1      -3.711  -9.200  -3.869  1.00  0.00    -0.325 NA
ATOM     14  H   UNL     1      -3.469  -9.639  -4.759  1.00  0.00     0.119 HD
ATOM     15  H   UNL     1      -3.498  -9.903  -3.157  1.00  0.00     0.119 HD
ENDBRANCH  12  13
BRANCH  12  16
ATOM     16  C   UNL     1      -5.719  -8.855  -5.287  1.00  0.00     0.022 C 
BRANCH  16  17
ATOM     17  C   UNL     1      -5.590  -7.547  -6.080  1.00  0.00     0.002 C 
BRANCH  17  18
ATOM     18  C   UNL     1      -4.832  -7.665  -7.400  1.00  0.00     0.000 C 
BRANCH  18  19
ATOM     19  C   UNL     1      -3.337  -7.336  -7.294  1.00  0.00    -0.000 C 
BRANCH  19  20
ATOM     20  C   UNL     1      -2.408  -8.550  -7.211  1.00  0.00    -0.000 C 
BRANCH  20  21
ATOM     21  C   UNL     1      -1.200  -8.319  -6.299  1.00  0.00    -0.003 C 
ATOM     22  C   UNL     1      -0.722  -6.877  -6.366  1.00  0.00     0.004 C 
ENDBRANCH  20  21
ENDBRANCH  19  20
ENDBRANCH  18  19
ENDBRANCH  17  18
ENDBRANCH  16  17
ENDBRANCH  12  16
ENDBRANCH   9  12
ENDBRANCH   6   9
ENDBRANCH   3   5
ENDBRANCH   2   3
BRANCH   2  23
ATOM     23  N   UNL     1      -2.355  -7.797   0.254  1.00  0.00    -0.332 N 
ATOM     24  C   UNL     1      -1.215  -8.511  -0.302  1.00  0.00     0.147 C 
BRANCH  23  25
ATOM     25  C   UNL     1      -2.470  -6.374  -0.169  1.00  0.00     0.174 C 
BRANCH  25  26
ATOM     26  C   UNL     1      -2.168  -6.167  -1.672  1.00  0.00     0.038 C 
BRANCH  26  27
ATOM     27  C   UNL     1      -3.272  -5.499  -2.522  1.00  0.00    -0.015 C 
ATOM     28  C   UNL     1      -3.061  -5.707  -4.021  1.00  0.00     0.007 C 
ATOM     29  C   UNL     1      -4.684  -5.913  -2.116  1.00  0.00     0.007 C 
ENDBRANCH  26  27
ENDBRANCH  25  26
BRANCH  25  30
ATOM     30  C   UNL     1      -1.630  -5.472   0.764  1.00  0.00     0.243 C 
ATOM     31  O   UNL     1      -0.622  -4.888   0.369  1.00  0.00    -0.273 OA
ATOM     32  N   UNL     1      -2.079  -5.372   2.056  1.00  0.00    -0.342 N 
ATOM     33  H   UNL     1      -2.997  -5.770   2.270  1.00  0.00     0.164 HD
BRANCH  32  34
ATOM     34  C   UNL     1      -1.395  -4.584   3.084  1.00  0.00     0.175 C 
BRANCH  34  35
ATOM     35  C   UNL     1      -2.230  -3.364   3.501  1.00  0.00     0.070 C 
BRANCH  35  36
ATOM     36  C   UNL     1      -3.714  -3.652   3.526  1.00  0.00    -0.045 A 
ATOM     37  C   UNL     1      -4.201  -4.762   4.233  1.00  0.00     0.007 A 
ATOM     38  C   UNL     1      -4.617  -2.836   2.832  1.00  0.00     0.007 A 
ATOM     39  C   UNL     1      -5.568  -5.044   4.251  1.00  0.00     0.046 A 
ATOM     40  C   UNL     1      -5.985  -3.118   2.848  1.00  0.00     0.046 A 
ATOM     41  C   UNL     1      -6.448  -4.220   3.559  1.00  0.00     0.115 A 
BRANCH  41  42
ATOM     42  O   UNL     1      -7.775  -4.532   3.600  1.00  0.00    -0.508 OA
ATOM     43  H   UNL     1      -7.998  -5.020   2.789  1.00  0.00     0.293 HD
ENDBRANCH  41  42
ENDBRANCH  35  36
ENDBRANCH  34  35
BRANCH  34  44
ATOM     44  C   UNL     1      -1.096  -5.515   4.281  1.00  0.00     0.243 C 
ATOM     45  O   UNL     1      -0.523  -5.163   5.308  1.00  0.00    -0.273 OA
ATOM     46  N   UNL     1      -1.417  -6.835   4.043  1.00  0.00    -0.341 N 
ATOM     47  H   UNL     1      -1.783  -7.098   3.131  1.00  0.00     0.164 HD
BRANCH  46  48
ATOM     48  C   UNL     1      -1.163  -7.912   5.002  1.00  0.00     0.196 C 
BRANCH  48  49
ATOM     49  C   UNL     1      -2.315  -8.930   5.019  1.00  0.00     0.072 C 
BRANCH  49  50
ATOM     50  C   UNL     1      -3.553  -8.396   5.703  1.00  0.00    -0.045 A 
ATOM     51  C   UNL     1      -3.429  -7.505   6.778  1.00  0.00     0.007 A 
ATOM     52  C   UNL     1      -4.832  -8.795   5.291  1.00  0.00     0.007 A 
ATOM     53  C   UNL     1      -4.564  -7.016   7.425  1.00  0.00     0.046 A 
ATOM     54  C   UNL     1      -5.968  -8.306   5.939  1.00  0.00     0.046 A 
ATOM     55  C   UNL     1      -5.825  -7.419   7.001  1.00  0.00     0.115 A 
BRANCH  55  56
ATOM     56  O   UNL     1      -6.908  -6.920   7.661  1.00  0.00    -0.508 OA
ATOM     57  H   UNL     1      -7.691  -7.043   7.100  1.00  0.00     0.293 HD
ENDBRANCH  55  56
ENDBRANCH  49  50
ENDBRANCH  48  49
BRANCH  48  58
ATOM     58  C   UNL     1       0.145  -8.620   4.623  1.00  0.00     0.326 C 
ATOM     59  O   UNL     1       0.279  -9.773   4.248  1.00  0.00    -0.250 OA
BRANCH  58  60
ATOM     60  O   UNL     1       1.240  -7.824   4.721  1.00  0.00    -0.480 OA
ATOM     61  H   UNL     1       1.312  -7.656   5.685  1.00  0.00     0.296 HD
ENDBRANCH  58  60
ENDBRANCH  48  58
ENDBRANCH  46  48
ENDBRANCH  34  44
ENDBRANCH  32  34
ENDBRANCH  25  30
ENDBRANCH  23  25
ENDBRANCH   2  23
TORSDOF 28
ENDMDL
MODEL 3
REMARK VINA RESULT:    -6.231     10.854     14.846
REMARK INTER + INTRA:         -20.891
REMARK INTER:                 -16.269
REMARK INTRA:                  -4.623
REMARK UNBOUND:                -5.372
REMARK SMILES CCCCCCC[C@H](N)[C@H](O)C(=O)N[C@H](C)C(=O)N(C)[C@H](CC(C)C)C(=O)N[C@@H](Cc1ccc(O)cc1)C(=O)N[C@@H](Cc1ccc(O)cc1)C(=O)O
REMARK SMILES IDX 18 1 17 2 15 3 16 4 14 5 12 6 13 7 10 9 11 10 8 12 9 13 7 16
REMARK SMILES IDX 6 17 5 18 4 19 3 20 2 21 1 22 19 23 20 24 21 25 22 26 23 27
REMARK SMILES IDX 24 28 25 29 26 30 27 31 28 32 29 34 30 35 31 36 32 37 37 38
REMARK SMILES IDX 33 39 36 40 34 41 35 42 38 44 39 45 40 46 41 48 42 49 43 50
REMARK SMILES IDX 44 51 49 52 45 53 48 54 46 55 47 56 50 58 51 59 52 60
REMARK H PARENT 14 8 11 11 9 14 9 15 28 33 35 43 40 47 47 57 52 61
ROOT
ATOM      1  O   UNL     1      -0.614  -9.845  -0.339  1.00  0.00    -0.272 OA
ATOM      2  C   UNL     1      -1.436  -8.934  -0.158  1.00  0.00     0.245 C 
ENDROOT
BRANCH   2   3
ATOM      3  C   UNL     1      -1.234  -7.595  -0.910  1.00  0.00     0.168 C 
ATOM      4  C   UNL     1       0.188  -7.078  -0.725  1.00  0.00     0.041 C 
BRANCH   3   5
ATOM      5  N   UNL     1      -1.626  -7.616  -2.311  1.00  0.00    -0.342 N 
ATOM      6  C   UNL     1      -2.776  -6.999  -2.755  1.00  0.00     0.251 C 
ATOM      7  O   UNL     1      -3.569  -6.430  -2.011  1.00  0.00    -0.272 OA
ATOM      8  H   UNL     1      -1.065  -8.087  -3.017  1.00  0.00     0.164 HD
BRANCH   6   9
ATOM      9  C   UNL     1      -2.913  -7.027  -4.286  1.00  0.00     0.219 C 
BRANCH   9  10
ATOM     10  O   UNL     1      -4.278  -7.076  -4.718  1.00  0.00    -0.382 OA
ATOM     11  H   UNL     1      -4.770  -6.656  -3.978  1.00  0.00     0.211 HD
ENDBRANCH   9  10
BRANCH   9  12
ATOM     12  C   UNL     1      -2.155  -5.869  -4.986  1.00  0.00     0.089 C 
BRANCH  12  13
ATOM     13  N   UNL     1      -1.343  -5.161  -3.970  1.00  0.00    -0.325 NA
ATOM     14  H   UNL     1      -0.393  -5.037  -4.326  1.00  0.00     0.119 HD
ATOM     15  H   UNL     1      -1.244  -5.761  -3.148  1.00  0.00     0.119 HD
ENDBRANCH  12  13
BRANCH  12  16
ATOM     16  C   UNL     1      -1.270  -6.268  -6.191  1.00  0.00     0.022 C 
BRANCH  16  17
ATOM     17  C   UNL     1      -1.658  -7.494  -7.029  1.00  0.00     0.002 C 
BRANCH  17  18
ATOM     18  C   UNL     1      -2.400  -7.180  -8.326  1.00  0.00     0.000 C 
BRANCH  18  19
ATOM     19  C   UNL     1      -2.989  -8.413  -9.023  1.00  0.00    -0.000 C 
BRANCH  19  20
ATOM     20  C   UNL     1      -4.150  -8.127  -9.979  1.00  0.00    -0.000 C 
BRANCH  20  21
ATOM     21  C   UNL     1      -4.089  -6.726 -10.594  1.00  0.00    -0.003 C 
ATOM     22  C   UNL     1      -3.291  -6.724 -11.889  1.00  0.00     0.004 C 
ENDBRANCH  20  21
ENDBRANCH  19  20
ENDBRANCH  18  19
ENDBRANCH  17  18
ENDBRANCH  16  17
ENDBRANCH  12  16
ENDBRANCH   9  12
ENDBRANCH   6   9
ENDBRANCH   3   5
ENDBRANCH   2   3
BRANCH   2  23
ATOM     23  N   UNL     1      -2.574  -9.166   0.607  1.00  0.00    -0.332 N 
ATOM     24  C   UNL     1      -3.886  -9.480   0.062  1.00  0.00     0.147 C 
BRANCH  23  25
ATOM     25  C   UNL     1      -2.480  -9.230   2.092  1.00  0.00     0.174 C 
BRANCH  25  26
ATOM     26  C   UNL     1      -3.810  -8.871   2.795  1.00  0.00     0.038 C 
BRANCH  26  27
ATOM     27  C   UNL     1      -4.491  -9.988   3.617  1.00  0.00    -0.015 C 
ATOM     28  C   UNL     1      -5.972 -10.144   3.277  1.00  0.00     0.007 C 
ATOM     29  C   UNL     1      -3.774 -11.333   3.525  1.00  0.00     0.007 C 
ENDBRANCH  26  27
ENDBRANCH  25  26
BRANCH  25  30
ATOM     30  C   UNL     1      -1.272  -8.401   2.585  1.00  0.00     0.243 C 
ATOM     31  O   UNL     1      -0.214  -8.931   2.922  1.00  0.00    -0.273 OA
ATOM     32  N   UNL     1      -1.461  -7.044   2.627  1.00  0.00    -0.342 N 
ATOM     33  H   UNL     1      -2.313  -6.671   2.199  1.00  0.00     0.164 HD
BRANCH  32  34
ATOM     34  C   UNL     1      -0.437  -6.105   3.094  1.00  0.00     0.175 C 
BRANCH  34  35
ATOM     35  C   UNL     1      -0.645  -4.707   2.492  1.00  0.00     0.070 C 
BRANCH  35  36
ATOM     36  C   UNL     1      -1.993  -4.117   2.836  1.00  0.00    -0.045 A 
ATOM     37  C   UNL     1      -2.137  -3.311   3.976  1.00  0.00     0.007 A 
ATOM     38  C   UNL     1      -3.117  -4.380   2.042  1.00  0.00     0.007 A 
ATOM     39  C   UNL     1      -3.380  -2.773   4.309  1.00  0.00     0.046 A 
ATOM     40  C   UNL     1      -4.363  -3.843   2.376  1.00  0.00     0.046 A 
ATOM     41  C   UNL     1      -4.482  -3.042   3.507  1.00  0.00     0.115 A 
BRANCH  41  42
ATOM     42  O   UNL     1      -5.679  -2.500   3.870  1.00  0.00    -0.508 OA
ATOM     43  H   UNL     1      -5.777  -2.593   4.832  1.00  0.00     0.293 HD
ENDBRANCH  41  42
ENDBRANCH  35  36
ENDBRANCH  34  35
BRANCH  34  44
ATOM     44  C   UNL     1      -0.478  -6.081   4.638  1.00  0.00     0.243 C 
ATOM     45  O   UNL     1       0.210  -5.344   5.339  1.00  0.00    -0.273 OA
ATOM     46  N   UNL     1      -1.274  -7.067   5.182  1.00  0.00    -0.341 N 
ATOM     47  H   UNL     1      -1.733  -7.729   4.562  1.00  0.00     0.164 HD
BRANCH  46  48
ATOM     48  C   UNL     1      -1.416  -7.284   6.623  1.00  0.00     0.196 C 
BRANCH  48  49
ATOM     49  C   UNL     1      -2.522  -6.395   7.217  1.00  0.00     0.072 C 
BRANCH  49  50
ATOM     50  C   UNL     1      -3.873  -6.648   6.589  1.00  0.00    -0.045 A 
ATOM     51  C   UNL     1      -4.859  -7.340   7.306  1.00  0.00     0.007 A 
ATOM     52  C   UNL     1      -4.153  -6.219   5.285  1.00  0.00     0.007 A 
ATOM     53  C   UNL     1      -6.105  -7.591   6.732  1.00  0.00     0.046 A 
ATOM     54  C   UNL     1      -5.400  -6.472   4.709  1.00  0.00     0.046 A 
ATOM     55  C   UNL     1      -6.367  -7.155   5.438  1.00  0.00     0.115 A 
BRANCH  55  56
ATOM     56  O   UNL     1      -7.596  -7.422   4.913  1.00  0.00    -0.508 OA
ATOM     57  H   UNL     1      -7.607  -8.346   4.615  1.00  0.00     0.293 HD
ENDBRANCH  55  56
ENDBRANCH  49  50
ENDBRANCH  48  49
BRANCH  48  58
ATOM     58  C   UNL     1      -1.753  -8.760   6.875  1.00  0.00     0.326 C 
ATOM     59  O   UNL     1      -2.035  -9.283   7.941  1.00  0.00    -0.250 OA
BRANCH  58  60
ATOM     60  O   UNL     1      -1.732  -9.519   5.750  1.00  0.00    -0.480 OA
ATOM     61  H   UNL     1      -2.419 -10.199   5.924  1.00  0.00     0.296 HD
ENDBRANCH  58  60
ENDBRANCH  48  58
ENDBRANCH  46  48
ENDBRANCH  34  44
ENDBRANCH  32  34
ENDBRANCH  25  30
ENDBRANCH  23  25
ENDBRANCH   2  23
TORSDOF 28
ENDMDL
MODEL 4
REMARK VINA RESULT:    -6.208     10.917     15.182
REMARK INTER + INTRA:         -20.835
REMARK INTER:                 -17.072
REMARK INTRA:                  -3.763
REMARK UNBOUND:                -5.372
REMARK SMILES CCCCCCC[C@H](N)[C@H](O)C(=O)N[C@H](C)C(=O)N(C)[C@H](CC(C)C)C(=O)N[C@@H](Cc1ccc(O)cc1)C(=O)N[C@@H](Cc1ccc(O)cc1)C(=O)O
REMARK SMILES IDX 18 1 17 2 15 3 16 4 14 5 12 6 13 7 10 9 11 10 8 12 9 13 7 16
REMARK SMILES IDX 6 17 5 18 4 19 3 20 2 21 1 22 19 23 20 24 21 25 22 26 23 27
REMARK SMILES IDX 24 28 25 29 26 30 27 31 28 32 29 34 30 35 31 36 32 37 37 38
REMARK SMILES IDX 33 39 36 40 34 41 35 42 38 44 39 45 40 46 41 48 42 49 43 50
REMARK SMILES IDX 44 51 49 52 45 53 48 54 46 55 47 56 50 58 51 59 52 60
REMARK H PARENT 14 8 11 11 9 14 9 15 28 33 35 43 40 47 47 57 52 61
ROOT
ATOM      1  O   UNL     1      -0.251  -6.028  -2.424  1.00  0.00    -0.272 OA
ATOM      2  C   UNL     1      -1.366  -6.568  -2.480  1.00  0.00     0.245 C 
ENDROOT
BRANCH   2   3
ATOM      3  C   UNL     1      -1.578  -7.728  -3.484  1.00  0.00     0.168 C 
ATOM      4  C   UNL     1      -2.410  -8.842  -2.858  1.00  0.00     0.041 C 
BRANCH   3   5
ATOM      5  N   UNL     1      -2.099  -7.326  -4.781  1.00  0.00    -0.342 N 
ATOM      6  C   UNL     1      -1.269  -7.088  -5.857  1.00  0.00     0.251 C 
ATOM      7  O   UNL     1      -0.046  -7.155  -5.796  1.00  0.00    -0.272 OA
ATOM      8  H   UNL     1      -3.095  -7.204  -4.945  1.00  0.00     0.164 HD
BRANCH   6   9
ATOM      9  C   UNL     1      -2.044  -6.817  -7.157  1.00  0.00     0.219 C 
BRANCH   9  10
ATOM     10  O   UNL     1      -1.341  -5.942  -8.047  1.00  0.00    -0.382 OA
ATOM     11  H   UNL     1      -2.058  -5.447  -8.499  1.00  0.00     0.211 HD
ENDBRANCH   9  10
BRANCH   9  12
ATOM     12  C   UNL     1      -2.480  -8.114  -7.888  1.00  0.00     0.089 C 
BRANCH  12  13
ATOM     13  N   UNL     1      -1.778  -9.259  -7.265  1.00  0.00    -0.325 NA
ATOM     14  H   UNL     1      -2.085  -9.355  -6.296  1.00  0.00     0.119 HD
ATOM     15  H   UNL     1      -0.779  -9.045  -7.209  1.00  0.00     0.119 HD
ENDBRANCH  12  13
BRANCH  12  16
ATOM     16  C   UNL     1      -4.002  -8.386  -7.936  1.00  0.00     0.022 C 
BRANCH  16  17
ATOM     17  C   UNL     1      -4.768  -8.585  -6.621  1.00  0.00     0.002 C 
BRANCH  17  18
ATOM     18  C   UNL     1      -6.158  -9.199  -6.771  1.00  0.00     0.000 C 
BRANCH  18  19
ATOM     19  C   UNL     1      -6.794  -9.637  -5.445  1.00  0.00    -0.000 C 
BRANCH  19  20
ATOM     20  C   UNL     1      -7.276 -11.090  -5.405  1.00  0.00    -0.000 C 
BRANCH  20  21
ATOM     21  C   UNL     1      -7.679 -11.550  -4.001  1.00  0.00    -0.003 C 
ATOM     22  C   UNL     1      -8.875 -10.767  -3.483  1.00  0.00     0.004 C 
ENDBRANCH  20  21
ENDBRANCH  19  20
ENDBRANCH  18  19
ENDBRANCH  17  18
ENDBRANCH  16  17
ENDBRANCH  12  16
ENDBRANCH   9  12
ENDBRANCH   6   9
ENDBRANCH   3   5
ENDBRANCH   2   3
BRANCH   2  23
ATOM     23  N   UNL     1      -2.357  -6.214  -1.571  1.00  0.00    -0.332 N 
ATOM     24  C   UNL     1      -3.698  -5.782  -1.937  1.00  0.00     0.147 C 
BRANCH  23  25
ATOM     25  C   UNL     1      -2.132  -6.384  -0.109  1.00  0.00     0.174 C 
BRANCH  25  26
ATOM     26  C   UNL     1      -3.144  -7.352   0.548  1.00  0.00     0.038 C 
BRANCH  26  27
ATOM     27  C   UNL     1      -2.603  -8.723   1.010  1.00  0.00    -0.015 C 
ATOM     28  C   UNL     1      -1.412  -8.592   1.959  1.00  0.00     0.007 C 
ATOM     29  C   UNL     1      -3.674  -9.627   1.614  1.00  0.00     0.007 C 
ENDBRANCH  26  27
ENDBRANCH  25  26
BRANCH  25  30
ATOM     30  C   UNL     1      -2.054  -5.003   0.582  1.00  0.00     0.243 C 
ATOM     31  O   UNL     1      -1.294  -4.120   0.186  1.00  0.00    -0.273 OA
ATOM     32  N   UNL     1      -2.880  -4.833   1.663  1.00  0.00    -0.342 N 
ATOM     33  H   UNL     1      -3.580  -5.557   1.842  1.00  0.00     0.164 HD
BRANCH  32  34
ATOM     34  C   UNL     1      -2.920  -3.601   2.455  1.00  0.00     0.175 C 
BRANCH  34  35
ATOM     35  C   UNL     1      -4.352  -3.055   2.567  1.00  0.00     0.070 C 
BRANCH  35  36
ATOM     36  C   UNL     1      -5.250  -3.937   3.406  1.00  0.00    -0.045 A 
ATOM     37  C   UNL     1      -6.415  -3.407   3.981  1.00  0.00     0.007 A 
ATOM     38  C   UNL     1      -4.924  -5.279   3.641  1.00  0.00     0.007 A 
ATOM     39  C   UNL     1      -7.242  -4.208   4.768  1.00  0.00     0.046 A 
ATOM     40  C   UNL     1      -5.751  -6.082   4.430  1.00  0.00     0.046 A 
ATOM     41  C   UNL     1      -6.904  -5.539   4.985  1.00  0.00     0.115 A 
BRANCH  41  42
ATOM     42  O   UNL     1      -7.738  -6.287   5.763  1.00  0.00    -0.508 OA
ATOM     43  H   UNL     1      -7.843  -5.837   6.617  1.00  0.00     0.293 HD
ENDBRANCH  41  42
ENDBRANCH  35  36
ENDBRANCH  34  35
BRANCH  34  44
ATOM     44  C   UNL     1      -2.307  -3.903   3.841  1.00  0.00     0.243 C 
ATOM     45  O   UNL     1      -2.319  -3.123   4.790  1.00  0.00    -0.273 OA
ATOM     46  N   UNL     1      -1.616  -5.095   3.888  1.00  0.00    -0.341 N 
ATOM     47  H   UNL     1      -1.535  -5.652   3.041  1.00  0.00     0.164 HD
BRANCH  46  48
ATOM     48  C   UNL     1      -0.894  -5.562   5.073  1.00  0.00     0.196 C 
BRANCH  48  49
ATOM     49  C   UNL     1      -1.051  -7.080   5.263  1.00  0.00     0.072 C 
BRANCH  49  50
ATOM     50  C   UNL     1      -2.385  -7.456   5.867  1.00  0.00    -0.045 A 
ATOM     51  C   UNL     1      -3.097  -8.552   5.361  1.00  0.00     0.007 A 
ATOM     52  C   UNL     1      -2.936  -6.710   6.918  1.00  0.00     0.007 A 
ATOM     53  C   UNL     1      -4.335  -8.901   5.902  1.00  0.00     0.046 A 
ATOM     54  C   UNL     1      -4.176  -7.058   7.459  1.00  0.00     0.046 A 
ATOM     55  C   UNL     1      -4.865  -8.152   6.946  1.00  0.00     0.115 A 
BRANCH  55  56
ATOM     56  O   UNL     1      -6.078  -8.524   7.445  1.00  0.00    -0.508 OA
ATOM     57  H   UNL     1      -6.373  -9.318   6.971  1.00  0.00     0.293 HD
ENDBRANCH  55  56
ENDBRANCH  49  50
ENDBRANCH  48  49
BRANCH  48  58
ATOM     58  C   UNL     1       0.593  -5.213   4.921  1.00  0.00     0.326 C 
ATOM     59  O   UNL     1       1.094  -4.100   4.904  1.00  0.00    -0.250 OA
BRANCH  58  60
ATOM     60  O   UNL     1       1.396  -6.301   4.811  1.00  0.00    -0.480 OA
ATOM     61  H   UNL     1       2.263  -5.918   4.555  1.00  0.00     0.296 HD
ENDBRANCH  58  60
ENDBRANCH  48  58
ENDBRANCH  46  48
ENDBRANCH  34  44
ENDBRANCH  32  34
ENDBRANCH  25  30
ENDBRANCH  23  25
ENDBRANCH   2  23
TORSDOF 28
ENDMDL
MODEL 5
REMARK VINA RESULT:    -6.171     10.945     14.877
REMARK INTER + INTRA:         -20.741
REMARK INTER:                 -16.722
REMARK INTRA:                  -4.019
REMARK UNBOUND:                -5.372
REMARK SMILES CCCCCCC[C@H](N)[C@H](O)C(=O)N[C@H](C)C(=O)N(C)[C@H](CC(C)C)C(=O)N[C@@H](Cc1ccc(O)cc1)C(=O)N[C@@H](Cc1ccc(O)cc1)C(=O)O
REMARK SMILES IDX 18 1 17 2 15 3 16 4 14 5 12 6 13 7 10 9 11 10 8 12 9 13 7 16
REMARK SMILES IDX 6 17 5 18 4 19 3 20 2 21 1 22 19 23 20 24 21 25 22 26 23 27
REMARK SMILES IDX 24 28 25 29 26 30 27 31 28 32 29 34 30 35 31 36 32 37 37 38
REMARK SMILES IDX 33 39 36 40 34 41 35 42 38 44 39 45 40 46 41 48 42 49 43 50
REMARK SMILES IDX 44 51 49 52 45 53 48 54 46 55 47 56 50 58 51 59 52 60
REMARK H PARENT 14 8 11 11 9 14 9 15 28 33 35 43 40 47 47 57 52 61
ROOT
ATOM      1  O   UNL     1      -0.067  -7.047  -2.417  1.00  0.00    -0.272 OA
ATOM      2  C   UNL     1      -1.154  -7.006  -1.822  1.00  0.00     0.245 C 
ENDROOT
BRANCH   2   3
ATOM      3  C   UNL     1      -2.355  -6.319  -2.518  1.00  0.00     0.168 C 
ATOM      4  C   UNL     1      -1.968  -5.835  -3.912  1.00  0.00     0.041 C 
BRANCH   3   5
ATOM      5  N   UNL     1      -3.581  -7.102  -2.537  1.00  0.00    -0.342 N 
ATOM      6  C   UNL     1      -4.821  -6.515  -2.404  1.00  0.00     0.251 C 
ATOM      7  O   UNL     1      -4.985  -5.314  -2.220  1.00  0.00    -0.272 OA
ATOM      8  H   UNL     1      -3.569  -8.113  -2.648  1.00  0.00     0.164 HD
BRANCH   6   9
ATOM      9  C   UNL     1      -5.975  -7.513  -2.596  1.00  0.00     0.219 C 
BRANCH   9  10
ATOM     10  O   UNL     1      -6.968  -7.040  -3.513  1.00  0.00    -0.382 OA
ATOM     11  H   UNL     1      -7.722  -7.655  -3.375  1.00  0.00     0.211 HD
ENDBRANCH   9  10
BRANCH   9  12
ATOM     12  C   UNL     1      -5.491  -8.933  -2.992  1.00  0.00     0.089 C 
BRANCH  12  13
ATOM     13  N   UNL     1      -5.528  -9.792  -1.786  1.00  0.00    -0.325 NA
ATOM     14  H   UNL     1      -4.992  -9.346  -1.039  1.00  0.00     0.119 HD
ATOM     15  H   UNL     1      -5.032 -10.664  -1.985  1.00  0.00     0.119 HD
ENDBRANCH  12  13
BRANCH  12  16
ATOM     16  C   UNL     1      -6.259  -9.612  -4.151  1.00  0.00     0.022 C 
BRANCH  16  17
ATOM     17  C   UNL     1      -5.680  -9.545  -5.571  1.00  0.00     0.002 C 
BRANCH  17  18
ATOM     18  C   UNL     1      -4.321  -8.857  -5.680  1.00  0.00     0.000 C 
BRANCH  18  19
ATOM     19  C   UNL     1      -4.383  -7.441  -6.266  1.00  0.00    -0.000 C 
BRANCH  19  20
ATOM     20  C   UNL     1      -4.197  -7.356  -7.784  1.00  0.00    -0.000 C 
BRANCH  20  21
ATOM     21  C   UNL     1      -2.749  -7.582  -8.225  1.00  0.00    -0.003 C 
ATOM     22  C   UNL     1      -1.798  -6.634  -7.510  1.00  0.00     0.004 C 
ENDBRANCH  20  21
ENDBRANCH  19  20
ENDBRANCH  18  19
ENDBRANCH  17  18
ENDBRANCH  16  17
ENDBRANCH  12  16
ENDBRANCH   9  12
ENDBRANCH   6   9
ENDBRANCH   3   5
ENDBRANCH   2   3
BRANCH   2  23
ATOM     23  N   UNL     1      -1.310  -7.674  -0.611  1.00  0.00    -0.332 N 
ATOM     24  C   UNL     1      -2.294  -8.717  -0.365  1.00  0.00     0.147 C 
BRANCH  23  25
ATOM     25  C   UNL     1      -0.356  -7.435   0.506  1.00  0.00     0.174 C 
BRANCH  25  26
ATOM     26  C   UNL     1       0.137  -8.743   1.167  1.00  0.00     0.038 C 
BRANCH  26  27
ATOM     27  C   UNL     1       1.017  -9.675   0.304  1.00  0.00    -0.015 C 
ATOM     28  C   UNL     1       2.493  -9.612   0.695  1.00  0.00     0.007 C 
ATOM     29  C   UNL     1       0.529 -11.122   0.281  1.00  0.00     0.007 C 
ENDBRANCH  26  27
ENDBRANCH  25  26
BRANCH  25  30
ATOM     30  C   UNL     1      -0.954  -6.420   1.508  1.00  0.00     0.243 C 
ATOM     31  O   UNL     1      -0.927  -5.208   1.298  1.00  0.00    -0.273 OA
ATOM     32  N   UNL     1      -1.506  -6.959   2.641  1.00  0.00    -0.342 N 
ATOM     33  H   UNL     1      -1.617  -7.975   2.676  1.00  0.00     0.164 HD
BRANCH  32  34
ATOM     34  C   UNL     1      -2.093  -6.147   3.711  1.00  0.00     0.175 C 
BRANCH  34  35
ATOM     35  C   UNL     1      -3.601  -6.411   3.848  1.00  0.00     0.070 C 
BRANCH  35  36
ATOM     36  C   UNL     1      -4.431  -5.160   3.669  1.00  0.00    -0.045 A 
ATOM     37  C   UNL     1      -3.872  -4.028   3.057  1.00  0.00     0.007 A 
ATOM     38  C   UNL     1      -5.754  -5.104   4.128  1.00  0.00     0.007 A 
ATOM     39  C   UNL     1      -4.627  -2.865   2.900  1.00  0.00     0.046 A 
ATOM     40  C   UNL     1      -6.510  -3.939   3.972  1.00  0.00     0.046 A 
ATOM     41  C   UNL     1      -5.938  -2.829   3.358  1.00  0.00     0.115 A 
BRANCH  41  42
ATOM     42  O   UNL     1      -6.640  -1.673   3.188  1.00  0.00    -0.508 OA
ATOM     43  H   UNL     1      -7.585  -1.894   3.141  1.00  0.00     0.293 HD
ENDBRANCH  41  42
ENDBRANCH  35  36
ENDBRANCH  34  35
BRANCH  34  44
ATOM     44  C   UNL     1      -1.332  -6.457   5.019  1.00  0.00     0.243 C 
ATOM     45  O   UNL     1      -0.409  -5.778   5.462  1.00  0.00    -0.273 OA
ATOM     46  N   UNL     1      -1.695  -7.656   5.595  1.00  0.00    -0.341 N 
ATOM     47  H   UNL     1      -2.383  -8.240   5.127  1.00  0.00     0.164 HD
BRANCH  46  48
ATOM     48  C   UNL     1      -1.064  -8.193   6.803  1.00  0.00     0.196 C 
BRANCH  48  49
ATOM     49  C   UNL     1      -2.091  -8.392   7.930  1.00  0.00     0.072 C 
BRANCH  49  50
ATOM     50  C   UNL     1      -3.516  -8.211   7.458  1.00  0.00    -0.045 A 
ATOM     51  C   UNL     1      -4.137  -9.221   6.709  1.00  0.00     0.007 A 
ATOM     52  C   UNL     1      -4.225  -7.036   7.739  1.00  0.00     0.007 A 
ATOM     53  C   UNL     1      -5.447  -9.060   6.256  1.00  0.00     0.046 A 
ATOM     54  C   UNL     1      -5.536  -6.875   7.284  1.00  0.00     0.046 A 
ATOM     55  C   UNL     1      -6.136  -7.890   6.547  1.00  0.00     0.115 A 
BRANCH  55  56
ATOM     56  O   UNL     1      -7.413  -7.771   6.085  1.00  0.00    -0.508 OA
ATOM     57  H   UNL     1      -7.746  -8.658   5.874  1.00  0.00     0.293 HD
ENDBRANCH  55  56
ENDBRANCH  49  50
ENDBRANCH  48  49
BRANCH  48  58
ATOM     58  C   UNL     1      -0.404  -9.537   6.465  1.00  0.00     0.326 C 
ATOM     59  O   UNL     1      -0.845 -10.653   6.686  1.00  0.00    -0.250 OA
BRANCH  58  60
ATOM     60  O   UNL     1       0.794  -9.410   5.841  1.00  0.00    -0.480 OA
ATOM     61  H   UNL     1       0.852  -8.447   5.656  1.00  0.00     0.296 HD
ENDBRANCH  58  60
ENDBRANCH  48  58
ENDBRANCH  46  48
ENDBRANCH  34  44
ENDBRANCH  32  34
ENDBRANCH  25  30
ENDBRANCH  23  25
ENDBRANCH   2  23
TORSDOF 28
ENDMDL
MODEL 6
REMARK VINA RESULT:    -6.141     10.850     14.654
REMARK INTER + INTRA:         -20.669
REMARK INTER:                 -16.451
REMARK INTRA:                  -4.218
REMARK UNBOUND:                -5.372
REMARK SMILES CCCCCCC[C@H](N)[C@H](O)C(=O)N[C@H](C)C(=O)N(C)[C@H](CC(C)C)C(=O)N[C@@H](Cc1ccc(O)cc1)C(=O)N[C@@H](Cc1ccc(O)cc1)C(=O)O
REMARK SMILES IDX 18 1 17 2 15 3 16 4 14 5 12 6 13 7 10 9 11 10 8 12 9 13 7 16
REMARK SMILES IDX 6 17 5 18 4 19 3 20 2 21 1 22 19 23 20 24 21 25 22 26 23 27
REMARK SMILES IDX 24 28 25 29 26 30 27 31 28 32 29 34 30 35 31 36 32 37 37 38
REMARK SMILES IDX 33 39 36 40 34 41 35 42 38 44 39 45 40 46 41 48 42 49 43 50
REMARK SMILES IDX 44 51 49 52 45 53 48 54 46 55 47 56 50 58 51 59 52 60
REMARK H PARENT 14 8 11 11 9 14 9 15 28 33 35 43 40 47 47 57 52 61
ROOT
ATOM      1  O   UNL     1      -3.312  -5.795  -0.744  1.00  0.00    -0.272 OA
ATOM      2  C   UNL     1      -2.247  -6.331  -1.084  1.00  0.00     0.245 C 
ENDROOT
BRANCH   2   3
ATOM      3  C   UNL     1      -2.300  -7.533  -2.060  1.00  0.00     0.168 C 
ATOM      4  C   UNL     1      -3.394  -8.514  -1.653  1.00  0.00     0.041 C 
BRANCH   3   5
ATOM      5  N   UNL     1      -2.391  -7.173  -3.467  1.00  0.00    -0.342 N 
ATOM      6  C   UNL     1      -1.268  -7.001  -4.248  1.00  0.00     0.251 C 
ATOM      7  O   UNL     1      -0.123  -7.095  -3.818  1.00  0.00    -0.272 OA
ATOM      8  H   UNL     1      -3.287  -7.034  -3.928  1.00  0.00     0.164 HD
BRANCH   6   9
ATOM      9  C   UNL     1      -1.605  -6.767  -5.730  1.00  0.00     0.219 C 
BRANCH   9  10
ATOM     10  O   UNL     1      -0.914  -5.639  -6.282  1.00  0.00    -0.382 OA
ATOM     11  H   UNL     1      -0.668  -5.939  -7.184  1.00  0.00     0.211 HD
ENDBRANCH   9  10
BRANCH   9  12
ATOM     12  C   UNL     1      -1.394  -8.027  -6.609  1.00  0.00     0.089 C 
BRANCH  12  13
ATOM     13  N   UNL     1      -1.648  -9.225  -5.778  1.00  0.00    -0.325 NA
ATOM     14  H   UNL     1      -2.454  -9.051  -5.175  1.00  0.00     0.119 HD
ATOM     15  H   UNL     1      -0.861  -9.357  -5.138  1.00  0.00     0.119 HD
ENDBRANCH  12  13
BRANCH  12  16
ATOM     16  C   UNL     1      -2.232  -8.094  -7.909  1.00  0.00     0.022 C 
BRANCH  16  17
ATOM     17  C   UNL     1      -3.700  -8.533  -7.829  1.00  0.00     0.002 C 
BRANCH  17  18
ATOM     18  C   UNL     1      -4.672  -7.450  -7.366  1.00  0.00     0.000 C 
BRANCH  18  19
ATOM     19  C   UNL     1      -5.887  -7.987  -6.597  1.00  0.00    -0.000 C 
BRANCH  19  20
ATOM     20  C   UNL     1      -5.770  -9.441  -6.132  1.00  0.00    -0.000 C 
BRANCH  20  21
ATOM     21  C   UNL     1      -5.444  -9.569  -4.641  1.00  0.00    -0.003 C 
ATOM     22  C   UNL     1      -4.537 -10.761  -4.372  1.00  0.00     0.004 C 
ENDBRANCH  20  21
ENDBRANCH  19  20
ENDBRANCH  18  19
ENDBRANCH  17  18
ENDBRANCH  16  17
ENDBRANCH  12  16
ENDBRANCH   9  12
ENDBRANCH   6   9
ENDBRANCH   3   5
ENDBRANCH   2   3
BRANCH   2  23
ATOM     23  N   UNL     1      -1.033  -5.779  -0.688  1.00  0.00    -0.332 N 
ATOM     24  C   UNL     1      -0.383  -4.656  -1.347  1.00  0.00     0.147 C 
BRANCH  23  25
ATOM     25  C   UNL     1      -0.367  -6.245   0.559  1.00  0.00     0.174 C 
BRANCH  25  26
ATOM     26  C   UNL     1      -0.296  -7.787   0.664  1.00  0.00     0.038 C 
BRANCH  26  27
ATOM     27  C   UNL     1       1.091  -8.438   0.470  1.00  0.00    -0.015 C 
ATOM     28  C   UNL     1       1.006  -9.955   0.298  1.00  0.00     0.007 C 
ATOM     29  C   UNL     1       1.903  -7.814  -0.662  1.00  0.00     0.007 C 
ENDBRANCH  26  27
ENDBRANCH  25  26
BRANCH  25  30
ATOM     30  C   UNL     1      -1.010  -5.568   1.791  1.00  0.00     0.243 C 
ATOM     31  O   UNL     1      -0.986  -4.348   1.948  1.00  0.00    -0.273 OA
ATOM     32  N   UNL     1      -1.599  -6.415   2.694  1.00  0.00    -0.342 N 
ATOM     33  H   UNL     1      -1.703  -7.396   2.424  1.00  0.00     0.164 HD
BRANCH  32  34
ATOM     34  C   UNL     1      -2.233  -5.952   3.931  1.00  0.00     0.175 C 
BRANCH  34  35
ATOM     35  C   UNL     1      -3.730  -6.296   3.955  1.00  0.00     0.070 C 
BRANCH  35  36
ATOM     36  C   UNL     1      -4.611  -5.096   3.689  1.00  0.00    -0.045 A 
ATOM     37  C   UNL     1      -4.123  -4.023   2.928  1.00  0.00     0.007 A 
ATOM     38  C   UNL     1      -5.908  -5.026   4.212  1.00  0.00     0.007 A 
ATOM     39  C   UNL     1      -4.922  -2.905   2.689  1.00  0.00     0.046 A 
ATOM     40  C   UNL     1      -6.709  -3.907   3.974  1.00  0.00     0.046 A 
ATOM     41  C   UNL     1      -6.209  -2.856   3.213  1.00  0.00     0.115 A 
BRANCH  41  42
ATOM     42  O   UNL     1      -6.957  -1.744   2.959  1.00  0.00    -0.508 OA
ATOM     43  H   UNL     1      -6.406  -1.113   2.465  1.00  0.00     0.293 HD
ENDBRANCH  41  42
ENDBRANCH  35  36
ENDBRANCH  34  35
BRANCH  34  44
ATOM     44  C   UNL     1      -1.477  -6.584   5.122  1.00  0.00     0.243 C 
ATOM     45  O   UNL     1      -0.462  -6.113   5.627  1.00  0.00    -0.273 OA
ATOM     46  N   UNL     1      -1.972  -7.815   5.495  1.00  0.00    -0.341 N 
ATOM     47  H   UNL     1      -2.744  -8.218   4.969  1.00  0.00     0.164 HD
BRANCH  46  48
ATOM     48  C   UNL     1      -1.378  -8.636   6.553  1.00  0.00     0.196 C 
BRANCH  48  49
ATOM     49  C   UNL     1      -2.329  -8.777   7.753  1.00  0.00     0.072 C 
BRANCH  49  50
ATOM     50  C   UNL     1      -3.742  -8.346   7.430  1.00  0.00    -0.045 A 
ATOM     51  C   UNL     1      -4.574  -9.188   6.679  1.00  0.00     0.007 A 
ATOM     52  C   UNL     1      -4.231  -7.104   7.853  1.00  0.00     0.007 A 
ATOM     53  C   UNL     1      -5.875  -8.796   6.363  1.00  0.00     0.046 A 
ATOM     54  C   UNL     1      -5.533  -6.710   7.536  1.00  0.00     0.046 A 
ATOM     55  C   UNL     1      -6.345  -7.561   6.794  1.00  0.00     0.115 A 
BRANCH  55  56
ATOM     56  O   UNL     1      -7.622  -7.215   6.463  1.00  0.00    -0.508 OA
ATOM     57  H   UNL     1      -8.214  -7.518   7.169  1.00  0.00     0.293 HD
ENDBRANCH  55  56
ENDBRANCH  49  50
ENDBRANCH  48  49
BRANCH  48  58
ATOM     58  C   UNL     1      -1.056 -10.025   5.985  1.00  0.00     0.326 C 
ATOM     59  O   UNL     1      -0.481 -10.940   6.553  1.00  0.00    -0.250 OA
BRANCH  58  60
ATOM     60  O   UNL     1      -1.493 -10.205   4.713  1.00  0.00    -0.480 OA
ATOM     61  H   UNL     1      -2.422 -10.498   4.833  1.00  0.00     0.296 HD
ENDBRANCH  58  60
ENDBRANCH  48  58
ENDBRANCH  46  48
ENDBRANCH  34  44
ENDBRANCH  32  34
ENDBRANCH  25  30
ENDBRANCH  23  25
ENDBRANCH   2  23
TORSDOF 28
ENDMDL
MODEL 7
REMARK VINA RESULT:    -6.069     11.571     15.057
REMARK INTER + INTRA:         -20.489
REMARK INTER:                 -14.763
REMARK INTRA:                  -5.726
REMARK UNBOUND:                -5.372
REMARK SMILES CCCCCCC[C@H](N)[C@H](O)C(=O)N[C@H](C)C(=O)N(C)[C@H](CC(C)C)C(=O)N[C@@H](Cc1ccc(O)cc1)C(=O)N[C@@H](Cc1ccc(O)cc1)C(=O)O
REMARK SMILES IDX 18 1 17 2 15 3 16 4 14 5 12 6 13 7 10 9 11 10 8 12 9 13 7 16
REMARK SMILES IDX 6 17 5 18 4 19 3 20 2 21 1 22 19 23 20 24 21 25 22 26 23 27
REMARK SMILES IDX 24 28 25 29 26 30 27 31 28 32 29 34 30 35 31 36 32 37 37 38
REMARK SMILES IDX 33 39 36 40 34 41 35 42 38 44 39 45 40 46 41 48 42 49 43 50
REMARK SMILES IDX 44 51 49 52 45 53 48 54 46 55 47 56 50 58 51 59 52 60
REMARK H PARENT 14 8 11 11 9 14 9 15 28 33 35 43 40 47 47 57 52 61
ROOT
ATOM      1  O   UNL     1       0.726  -9.822   3.525  1.00  0.00    -0.272 OA
ATOM      2  C   UNL     1      -0.426 -10.199   3.263  1.00  0.00     0.245 C 
ENDROOT
BRANCH   2   3
ATOM      3  C   UNL     1      -0.705 -10.811   1.867  1.00  0.00     0.168 C 
ATOM      4  C   UNL     1      -0.222 -12.256   1.803  1.00  0.00     0.041 C 
BRANCH   3   5
ATOM      5  N   UNL     1      -2.077 -10.677   1.405  1.00  0.00    -0.342 N 
ATOM      6  C   UNL     1      -2.387 -10.051   0.216  1.00  0.00     0.251 C 
ATOM      7  O   UNL     1      -1.549  -9.530  -0.513  1.00  0.00    -0.272 OA
ATOM      8  H   UNL     1      -2.862 -11.040   1.941  1.00  0.00     0.164 HD
BRANCH   6   9
ATOM      9  C   UNL     1      -3.879 -10.152  -0.138  1.00  0.00     0.219 C 
BRANCH   9  10
ATOM     10  O   UNL     1      -4.717  -9.462   0.796  1.00  0.00    -0.382 OA
ATOM     11  H   UNL     1      -5.627  -9.666   0.486  1.00  0.00     0.211 HD
ENDBRANCH   9  10
BRANCH   9  12
ATOM     12  C   UNL     1      -4.192  -9.708  -1.591  1.00  0.00     0.089 C 
BRANCH  12  13
ATOM     13  N   UNL     1      -4.276 -10.918  -2.442  1.00  0.00    -0.325 NA
ATOM     14  H   UNL     1      -4.268 -10.638  -3.424  1.00  0.00     0.119 HD
ATOM     15  H   UNL     1      -5.186 -11.361  -2.298  1.00  0.00     0.119 HD
ENDBRANCH  12  13
BRANCH  12  16
ATOM     16  C   UNL     1      -5.459  -8.839  -1.777  1.00  0.00     0.022 C 
BRANCH  16  17
ATOM     17  C   UNL     1      -5.403  -7.629  -2.719  1.00  0.00     0.002 C 
BRANCH  17  18
ATOM     18  C   UNL     1      -6.271  -7.746  -3.971  1.00  0.00     0.000 C 
BRANCH  18  19
ATOM     19  C   UNL     1      -6.004  -9.009  -4.800  1.00  0.00    -0.000 C 
BRANCH  19  20
ATOM     20  C   UNL     1      -5.891  -8.784  -6.310  1.00  0.00    -0.000 C 
BRANCH  20  21
ATOM     21  C   UNL     1      -5.201  -7.465  -6.670  1.00  0.00    -0.003 C 
ATOM     22  C   UNL     1      -4.844  -7.411  -8.147  1.00  0.00     0.004 C 
ENDBRANCH  20  21
ENDBRANCH  19  20
ENDBRANCH  18  19
ENDBRANCH  17  18
ENDBRANCH  16  17
ENDBRANCH  12  16
ENDBRANCH   9  12
ENDBRANCH   6   9
ENDBRANCH   3   5
ENDBRANCH   2   3
BRANCH   2  23
ATOM     23  N   UNL     1      -1.405 -10.183   4.250  1.00  0.00    -0.332 N 
ATOM     24  C   UNL     1      -1.876 -11.359   4.966  1.00  0.00     0.147 C 
BRANCH  23  25
ATOM     25  C   UNL     1      -1.959  -8.889   4.737  1.00  0.00     0.174 C 
BRANCH  25  26
ATOM     26  C   UNL     1      -2.870  -9.053   5.976  1.00  0.00     0.038 C 
BRANCH  26  27
ATOM     27  C   UNL     1      -2.976  -7.843   6.931  1.00  0.00    -0.015 C 
ATOM     28  C   UNL     1      -1.794  -6.884   6.793  1.00  0.00     0.007 C 
ATOM     29  C   UNL     1      -4.297  -7.088   6.811  1.00  0.00     0.007 C 
ENDBRANCH  26  27
ENDBRANCH  25  26
BRANCH  25  30
ATOM     30  C   UNL     1      -2.626  -8.124   3.571  1.00  0.00     0.243 C 
ATOM     31  O   UNL     1      -3.718  -8.459   3.115  1.00  0.00    -0.273 OA
ATOM     32  N   UNL     1      -1.919  -7.057   3.080  1.00  0.00    -0.342 N 
ATOM     33  H   UNL     1      -1.091  -6.756   3.602  1.00  0.00     0.164 HD
BRANCH  32  34
ATOM     34  C   UNL     1      -2.384  -6.234   1.960  1.00  0.00     0.175 C 
BRANCH  34  35
ATOM     35  C   UNL     1      -2.460  -4.750   2.352  1.00  0.00     0.070 C 
BRANCH  35  36
ATOM     36  C   UNL     1      -3.836  -4.340   2.827  1.00  0.00    -0.045 A 
ATOM     37  C   UNL     1      -4.555  -5.174   3.697  1.00  0.00     0.007 A 
ATOM     38  C   UNL     1      -4.421  -3.144   2.391  1.00  0.00     0.007 A 
ATOM     39  C   UNL     1      -5.831  -4.811   4.130  1.00  0.00     0.046 A 
ATOM     40  C   UNL     1      -5.699  -2.781   2.822  1.00  0.00     0.046 A 
ATOM     41  C   UNL     1      -6.392  -3.618   3.690  1.00  0.00     0.115 A 
BRANCH  41  42
ATOM     42  O   UNL     1      -7.642  -3.302   4.134  1.00  0.00    -0.508 OA
ATOM     43  H   UNL     1      -7.742  -3.650   5.036  1.00  0.00     0.293 HD
ENDBRANCH  41  42
ENDBRANCH  35  36
ENDBRANCH  34  35
BRANCH  34  44
ATOM     44  C   UNL     1      -1.431  -6.468   0.766  1.00  0.00     0.243 C 
ATOM     45  O   UNL     1      -0.255  -6.804   0.872  1.00  0.00    -0.273 OA
ATOM     46  N   UNL     1      -1.986  -6.135  -0.452  1.00  0.00    -0.341 N 
ATOM     47  H   UNL     1      -2.927  -5.749  -0.477  1.00  0.00     0.164 HD
BRANCH  46  48
ATOM     48  C   UNL     1      -1.254  -6.208  -1.718  1.00  0.00     0.196 C 
BRANCH  48  49
ATOM     49  C   UNL     1      -2.123  -5.736  -2.896  1.00  0.00     0.072 C 
BRANCH  49  50
ATOM     50  C   UNL     1      -1.953  -6.599  -4.126  1.00  0.00    -0.045 A 
ATOM     51  C   UNL     1      -1.696  -6.001  -5.368  1.00  0.00     0.007 A 
ATOM     52  C   UNL     1      -2.069  -7.993  -4.050  1.00  0.00     0.007 A 
ATOM     53  C   UNL     1      -1.551  -6.786  -6.513  1.00  0.00     0.046 A 
ATOM     54  C   UNL     1      -1.924  -8.778  -5.196  1.00  0.00     0.046 A 
ATOM     55  C   UNL     1      -1.665  -8.167  -6.418  1.00  0.00     0.115 A 
BRANCH  55  56
ATOM     56  O   UNL     1      -1.519  -8.898  -7.560  1.00  0.00    -0.508 OA
ATOM     57  H   UNL     1      -1.990  -8.444  -8.277  1.00  0.00     0.293 HD
ENDBRANCH  55  56
ENDBRANCH  49  50
ENDBRANCH  48  49
BRANCH  48  58
ATOM     58  C   UNL     1       0.001  -5.329  -1.620  1.00  0.00     0.326 C 
ATOM     59  O   UNL     1       0.052  -4.110  -1.621  1.00  0.00    -0.250 OA
BRANCH  58  60
ATOM     60  O   UNL     1       1.152  -6.040  -1.508  1.00  0.00    -0.480 OA
ATOM     61  H   UNL     1       1.738  -5.628  -2.180  1.00  0.00     0.296 HD
ENDBRANCH  58  60
ENDBRANCH  48  58
ENDBRANCH  46  48
ENDBRANCH  34  44
ENDBRANCH  32  34
ENDBRANCH  25  30
ENDBRANCH  23  25
ENDBRANCH   2  23
TORSDOF 28
ENDMDL
MODEL 8
REMARK VINA RESULT:    -6.020     10.226     14.341
REMARK INTER + INTRA:         -20.366
REMARK INTER:                 -16.918
REMARK INTRA:                  -3.448
REMARK UNBOUND:                -5.372
REMARK SMILES CCCCCCC[C@H](N)[C@H](O)C(=O)N[C@H](C)C(=O)N(C)[C@H](CC(C)C)C(=O)N[C@@H](Cc1ccc(O)cc1)C(=O)N[C@@H](Cc1ccc(O)cc1)C(=O)O
REMARK SMILES IDX 18 1 17 2 15 3 16 4 14 5 12 6 13 7 10 9 11 10 8 12 9 13 7 16
REMARK SMILES IDX 6 17 5 18 4 19 3 20 2 21 1 22 19 23 20 24 21 25 22 26 23 27
REMARK SMILES IDX 24 28 25 29 26 30 27 31 28 32 29 34 30 35 31 36 32 37 37 38
REMARK SMILES IDX 33 39 36 40 34 41 35 42 38 44 39 45 40 46 41 48 42 49 43 50
REMARK SMILES IDX 44 51 49 52 45 53 48 54 46 55 47 56 50 58 51 59 52 60
REMARK H PARENT 14 8 11 11 9 14 9 15 28 33 35 43 40 47 47 57 52 61
ROOT
ATOM      1  O   UNL     1       1.101  -7.092  -0.151  1.00  0.00    -0.272 OA
ATOM      2  C   UNL     1      -0.117  -6.961   0.042  1.00  0.00     0.245 C 
ENDROOT
BRANCH   2   3
ATOM      3  C   UNL     1      -0.928  -6.063  -0.926  1.00  0.00     0.168 C 
ATOM      4  C   UNL     1      -0.200  -4.747  -1.181  1.00  0.00     0.041 C 
BRANCH   3   5
ATOM      5  N   UNL     1      -1.332  -6.708  -2.165  1.00  0.00    -0.342 N 
ATOM      6  C   UNL     1      -2.640  -6.691  -2.602  1.00  0.00     0.251 C 
ATOM      7  O   UNL     1      -3.557  -6.176  -1.971  1.00  0.00    -0.272 OA
ATOM      8  H   UNL     1      -0.665  -7.198  -2.757  1.00  0.00     0.164 HD
BRANCH   6   9
ATOM      9  C   UNL     1      -2.808  -7.308  -3.999  1.00  0.00     0.219 C 
BRANCH   9  10
ATOM     10  O   UNL     1      -4.182  -7.485  -4.364  1.00  0.00    -0.382 OA
ATOM     11  H   UNL     1      -4.533  -8.079  -3.664  1.00  0.00     0.211 HD
ENDBRANCH   9  10
BRANCH   9  12
ATOM     12  C   UNL     1      -2.040  -6.535  -5.103  1.00  0.00     0.089 C 
BRANCH  12  13
ATOM     13  N   UNL     1      -0.609  -6.909  -5.026  1.00  0.00    -0.325 NA
ATOM     14  H   UNL     1      -0.052  -6.208  -5.519  1.00  0.00     0.119 HD
ATOM     15  H   UNL     1      -0.466  -7.777  -5.546  1.00  0.00     0.119 HD
ENDBRANCH  12  13
BRANCH  12  16
ATOM     16  C   UNL     1      -2.561  -6.721  -6.548  1.00  0.00     0.022 C 
BRANCH  16  17
ATOM     17  C   UNL     1      -2.038  -7.897  -7.385  1.00  0.00     0.002 C 
BRANCH  17  18
ATOM     18  C   UNL     1      -2.838  -8.192  -8.652  1.00  0.00     0.000 C 
BRANCH  18  19
ATOM     19  C   UNL     1      -3.477  -6.952  -9.291  1.00  0.00    -0.000 C 
BRANCH  19  20
ATOM     20  C   UNL     1      -3.123  -6.724 -10.763  1.00  0.00    -0.000 C 
BRANCH  20  21
ATOM     21  C   UNL     1      -4.355  -6.542 -11.654  1.00  0.00    -0.003 C 
ATOM     22  C   UNL     1      -3.996  -6.662 -13.127  1.00  0.00     0.004 C 
ENDBRANCH  20  21
ENDBRANCH  19  20
ENDBRANCH  18  19
ENDBRANCH  17  18
ENDBRANCH  16  17
ENDBRANCH  12  16
ENDBRANCH   9  12
ENDBRANCH   6   9
ENDBRANCH   3   5
ENDBRANCH   2   3
BRANCH   2  23
ATOM     23  N   UNL     1      -0.749  -7.707   1.031  1.00  0.00    -0.332 N 
ATOM     24  C   UNL     1      -2.191  -7.865   1.152  1.00  0.00     0.147 C 
BRANCH  23  25
ATOM     25  C   UNL     1       0.053  -8.521   1.985  1.00  0.00     0.174 C 
BRANCH  25  26
ATOM     26  C   UNL     1      -0.672  -9.814   2.430  1.00  0.00     0.038 C 
BRANCH  26  27
ATOM     27  C   UNL     1      -0.245 -11.129   1.740  1.00  0.00    -0.015 C 
ATOM     28  C   UNL     1      -0.901 -11.310   0.371  1.00  0.00     0.007 C 
ATOM     29  C   UNL     1       1.269 -11.297   1.636  1.00  0.00     0.007 C 
ENDBRANCH  26  27
ENDBRANCH  25  26
BRANCH  25  30
ATOM     30  C   UNL     1       0.534  -7.642   3.162  1.00  0.00     0.243 C 
ATOM     31  O   UNL     1       1.580  -7.878   3.764  1.00  0.00    -0.273 OA
ATOM     32  N   UNL     1      -0.283  -6.591   3.490  1.00  0.00    -0.342 N 
ATOM     33  H   UNL     1      -1.057  -6.377   2.855  1.00  0.00     0.164 HD
BRANCH  32  34
ATOM     34  C   UNL     1      -0.000  -5.669   4.593  1.00  0.00     0.175 C 
BRANCH  34  35
ATOM     35  C   UNL     1      -0.158  -4.206   4.154  1.00  0.00     0.070 C 
BRANCH  35  36
ATOM     36  C   UNL     1      -1.545  -3.896   3.639  1.00  0.00    -0.045 A 
ATOM     37  C   UNL     1      -1.925  -4.309   2.353  1.00  0.00     0.007 A 
ATOM     38  C   UNL     1      -2.459  -3.177   4.421  1.00  0.00     0.007 A 
ATOM     39  C   UNL     1      -3.199  -4.016   1.864  1.00  0.00     0.046 A 
ATOM     40  C   UNL     1      -3.733  -2.882   3.931  1.00  0.00     0.046 A 
ATOM     41  C   UNL     1      -4.092  -3.306   2.656  1.00  0.00     0.115 A 
BRANCH  41  42
ATOM     42  O   UNL     1      -5.325  -3.037   2.140  1.00  0.00    -0.508 OA
ATOM     43  H   UNL     1      -5.951  -3.694   2.487  1.00  0.00     0.293 HD
ENDBRANCH  41  42
ENDBRANCH  35  36
ENDBRANCH  34  35
BRANCH  34  44
ATOM     44  C   UNL     1      -0.942  -6.024   5.766  1.00  0.00     0.243 C 
ATOM     45  O   UNL     1      -1.152  -5.295   6.732  1.00  0.00    -0.273 OA
ATOM     46  N   UNL     1      -1.437  -7.309   5.703  1.00  0.00    -0.341 N 
ATOM     47  H   UNL     1      -1.140  -7.916   4.943  1.00  0.00     0.164 HD
BRANCH  46  48
ATOM     48  C   UNL     1      -2.295  -7.894   6.736  1.00  0.00     0.196 C 
BRANCH  48  49
ATOM     49  C   UNL     1      -3.466  -8.675   6.116  1.00  0.00     0.072 C 
BRANCH  49  50
ATOM     50  C   UNL     1      -4.676  -7.805   5.862  1.00  0.00    -0.045 A 
ATOM     51  C   UNL     1      -4.640  -6.834   4.851  1.00  0.00     0.007 A 
ATOM     52  C   UNL     1      -5.834  -7.937   6.639  1.00  0.00     0.007 A 
ATOM     53  C   UNL     1      -5.745  -6.017   4.616  1.00  0.00     0.046 A 
ATOM     54  C   UNL     1      -6.941  -7.118   6.405  1.00  0.00     0.046 A 
ATOM     55  C   UNL     1      -6.887  -6.165   5.394  1.00  0.00     0.115 A 
BRANCH  55  56
ATOM     56  O   UNL     1      -7.945  -5.345   5.135  1.00  0.00    -0.508 OA
ATOM     57  H   UNL     1      -8.174  -5.428   4.195  1.00  0.00     0.293 HD
ENDBRANCH  55  56
ENDBRANCH  49  50
ENDBRANCH  48  49
BRANCH  48  58
ATOM     58  C   UNL     1      -1.454  -8.835   7.609  1.00  0.00     0.326 C 
ATOM     59  O   UNL     1      -1.400 -10.053   7.544  1.00  0.00    -0.250 OA
BRANCH  58  60
ATOM     60  O   UNL     1      -0.696  -8.187   8.530  1.00  0.00    -0.480 OA
ATOM     61  H   UNL     1      -1.068  -8.493   9.385  1.00  0.00     0.296 HD
ENDBRANCH  58  60
ENDBRANCH  48  58
ENDBRANCH  46  48
ENDBRANCH  34  44
ENDBRANCH  32  34
ENDBRANCH  25  30
ENDBRANCH  23  25
ENDBRANCH   2  23
TORSDOF 28
ENDMDL
MODEL 9
REMARK VINA RESULT:    -5.979     10.917     15.662
REMARK INTER + INTRA:         -20.264
REMARK INTER:                 -13.909
REMARK INTRA:                  -6.354
REMARK UNBOUND:                -5.372
REMARK SMILES CCCCCCC[C@H](N)[C@H](O)C(=O)N[C@H](C)C(=O)N(C)[C@H](CC(C)C)C(=O)N[C@@H](Cc1ccc(O)cc1)C(=O)N[C@@H](Cc1ccc(O)cc1)C(=O)O
REMARK SMILES IDX 18 1 17 2 15 3 16 4 14 5 12 6 13 7 10 9 11 10 8 12 9 13 7 16
REMARK SMILES IDX 6 17 5 18 4 19 3 20 2 21 1 22 19 23 20 24 21 25 22 26 23 27
REMARK SMILES IDX 24 28 25 29 26 30 27 31 28 32 29 34 30 35 31 36 32 37 37 38
REMARK SMILES IDX 33 39 36 40 34 41 35 42 38 44 39 45 40 46 41 48 42 49 43 50
REMARK SMILES IDX 44 51 49 52 45 53 48 54 46 55 47 56 50 58 51 59 52 60
REMARK H PARENT 14 8 11 11 9 14 9 15 28 33 35 43 40 47 47 57 52 61
ROOT
ATOM      1  O   UNL     1      -4.217 -11.862   5.770  1.00  0.00    -0.272 OA
ATOM      2  C   UNL     1      -4.931 -12.007   4.767  1.00  0.00     0.245 C 
ENDROOT
BRANCH   2   3
ATOM      3  C   UNL     1      -6.340 -11.362   4.762  1.00  0.00     0.168 C 
ATOM      4  C   UNL     1      -7.349 -12.259   5.471  1.00  0.00     0.041 C 
BRANCH   3   5
ATOM      5  N   UNL     1      -6.388  -9.995   5.257  1.00  0.00    -0.342 N 
ATOM      6  C   UNL     1      -6.013  -8.924   4.473  1.00  0.00     0.251 C 
ATOM      7  O   UNL     1      -5.578  -9.040   3.333  1.00  0.00    -0.272 OA
ATOM      8  H   UNL     1      -6.699  -9.777   6.200  1.00  0.00     0.164 HD
BRANCH   6   9
ATOM      9  C   UNL     1      -6.281  -7.570   5.150  1.00  0.00     0.219 C 
BRANCH   9  10
ATOM     10  O   UNL     1      -7.358  -7.627   6.094  1.00  0.00    -0.382 OA
ATOM     11  H   UNL     1      -8.017  -8.210   5.657  1.00  0.00     0.211 HD
ENDBRANCH   9  10
BRANCH   9  12
ATOM     12  C   UNL     1      -5.014  -6.952   5.797  1.00  0.00     0.089 C 
BRANCH  12  13
ATOM     13  N   UNL     1      -4.400  -7.966   6.685  1.00  0.00    -0.325 NA
ATOM     14  H   UNL     1      -4.111  -8.771   6.126  1.00  0.00     0.119 HD
ATOM     15  H   UNL     1      -5.116  -8.326   7.321  1.00  0.00     0.119 HD
ENDBRANCH  12  13
BRANCH  12  16
ATOM     16  C   UNL     1      -3.956  -6.393   4.816  1.00  0.00     0.022 C 
BRANCH  16  17
ATOM     17  C   UNL     1      -4.034  -4.920   4.392  1.00  0.00     0.002 C 
BRANCH  17  18
ATOM     18  C   UNL     1      -4.326  -4.690   2.911  1.00  0.00     0.000 C 
BRANCH  18  19
ATOM     19  C   UNL     1      -4.792  -3.266   2.580  1.00  0.00    -0.000 C 
BRANCH  19  20
ATOM     20  C   UNL     1      -5.989  -2.768   3.394  1.00  0.00    -0.000 C 
BRANCH  20  21
ATOM     21  C   UNL     1      -7.218  -3.674   3.269  1.00  0.00    -0.003 C 
ATOM     22  C   UNL     1      -7.689  -4.160   4.630  1.00  0.00     0.004 C 
ENDBRANCH  20  21
ENDBRANCH  19  20
ENDBRANCH  18  19
ENDBRANCH  17  18
ENDBRANCH  16  17
ENDBRANCH  12  16
ENDBRANCH   9  12
ENDBRANCH   6   9
ENDBRANCH   3   5
ENDBRANCH   2   3
BRANCH   2  23
ATOM     23  N   UNL     1      -4.421 -12.631   3.634  1.00  0.00    -0.332 N 
ATOM     24  C   UNL     1      -3.388 -13.656   3.650  1.00  0.00     0.147 C 
BRANCH  23  25
ATOM     25  C   UNL     1      -5.018 -12.364   2.297  1.00  0.00     0.174 C 
BRANCH  25  26
ATOM     26  C   UNL     1      -5.651 -13.622   1.657  1.00  0.00     0.038 C 
BRANCH  26  27
ATOM     27  C   UNL     1      -6.909 -14.200   2.345  1.00  0.00    -0.015 C 
ATOM     28  C   UNL     1      -8.189 -13.480   1.922  1.00  0.00     0.007 C 
ATOM     29  C   UNL     1      -7.058 -15.709   2.170  1.00  0.00     0.007 C 
ENDBRANCH  26  27
ENDBRANCH  25  26
BRANCH  25  30
ATOM     30  C   UNL     1      -3.989 -11.655   1.386  1.00  0.00     0.243 C 
ATOM     31  O   UNL     1      -3.483 -12.218   0.417  1.00  0.00    -0.273 OA
ATOM     32  N   UNL     1      -3.677 -10.366   1.735  1.00  0.00    -0.342 N 
ATOM     33  H   UNL     1      -4.242  -9.923   2.464  1.00  0.00     0.164 HD
BRANCH  32  34
ATOM     34  C   UNL     1      -2.703  -9.552   1.004  1.00  0.00     0.175 C 
BRANCH  34  35
ATOM     35  C   UNL     1      -3.151  -8.085   0.921  1.00  0.00     0.070 C 
BRANCH  35  36
ATOM     36  C   UNL     1      -2.682  -7.400  -0.343  1.00  0.00    -0.045 A 
ATOM     37  C   UNL     1      -2.368  -8.162  -1.478  1.00  0.00     0.007 A 
ATOM     38  C   UNL     1      -2.531  -6.008  -0.393  1.00  0.00     0.007 A 
ATOM     39  C   UNL     1      -1.921  -7.541  -2.645  1.00  0.00     0.046 A 
ATOM     40  C   UNL     1      -2.082  -5.385  -1.560  1.00  0.00     0.046 A 
ATOM     41  C   UNL     1      -1.782  -6.158  -2.677  1.00  0.00     0.115 A 
BRANCH  41  42
ATOM     42  O   UNL     1      -1.339  -5.591  -3.834  1.00  0.00    -0.508 OA
ATOM     43  H   UNL     1      -1.299  -6.282  -4.516  1.00  0.00     0.293 HD
ENDBRANCH  41  42
ENDBRANCH  35  36
ENDBRANCH  34  35
BRANCH  34  44
ATOM     44  C   UNL     1      -1.334  -9.698   1.706  1.00  0.00     0.243 C 
ATOM     45  O   UNL     1      -0.386 -10.334   1.254  1.00  0.00    -0.273 OA
ATOM     46  N   UNL     1      -1.305  -9.150   2.971  1.00  0.00    -0.341 N 
ATOM     47  H   UNL     1      -2.153  -8.735   3.350  1.00  0.00     0.164 HD
BRANCH  46  48
ATOM     48  C   UNL     1      -0.139  -9.224   3.855  1.00  0.00     0.196 C 
BRANCH  48  49
ATOM     49  C   UNL     1       0.894  -8.137   3.513  1.00  0.00     0.072 C 
BRANCH  49  50
ATOM     50  C   UNL     1       0.306  -6.745   3.549  1.00  0.00    -0.045 A 
ATOM     51  C   UNL     1      -0.215  -6.175   2.378  1.00  0.00     0.007 A 
ATOM     52  C   UNL     1       0.291  -5.999   4.735  1.00  0.00     0.007 A 
ATOM     53  C   UNL     1      -0.748  -4.886   2.397  1.00  0.00     0.046 A 
ATOM     54  C   UNL     1      -0.242  -4.708   4.753  1.00  0.00     0.046 A 
ATOM     55  C   UNL     1      -0.758  -4.163   3.583  1.00  0.00     0.115 A 
BRANCH  55  56
ATOM     56  O   UNL     1      -1.286  -2.906   3.558  1.00  0.00    -0.508 OA
ATOM     57  H   UNL     1      -2.099  -2.905   4.088  1.00  0.00     0.293 HD
ENDBRANCH  55  56
ENDBRANCH  49  50
ENDBRANCH  48  49
BRANCH  48  58
ATOM     58  C   UNL     1      -0.603  -9.055   5.308  1.00  0.00     0.326 C 
ATOM     59  O   UNL     1      -1.730  -8.798   5.699  1.00  0.00    -0.250 OA
BRANCH  58  60
ATOM     60  O   UNL     1       0.389  -9.234   6.217  1.00  0.00    -0.480 OA
ATOM     61  H   UNL     1       0.416 -10.209   6.332  1.00  0.00     0.296 HD
ENDBRANCH  58  60
ENDBRANCH  48  58
ENDBRANCH  46  48
ENDBRANCH  34  44
ENDBRANCH  32  34
ENDBRANCH  25  30
ENDBRANCH  23  25
ENDBRANCH   2  23
TORSDOF 28
ENDMDL
MODEL 10
REMARK VINA RESULT:    -5.930     11.375     15.090
REMARK INTER + INTRA:         -20.142
REMARK INTER:                 -15.953
REMARK INTRA:                  -4.189
REMARK UNBOUND:                -5.372
REMARK SMILES CCCCCCC[C@H](N)[C@H](O)C(=O)N[C@H](C)C(=O)N(C)[C@H](CC(C)C)C(=O)N[C@@H](Cc1ccc(O)cc1)C(=O)N[C@@H](Cc1ccc(O)cc1)C(=O)O
REMARK SMILES IDX 18 1 17 2 15 3 16 4 14 5 12 6 13 7 10 9 11 10 8 12 9 13 7 16
REMARK SMILES IDX 6 17 5 18 4 19 3 20 2 21 1 22 19 23 20 24 21 25 22 26 23 27
REMARK SMILES IDX 24 28 25 29 26 30 27 31 28 32 29 34 30 35 31 36 32 37 37 38
REMARK SMILES IDX 33 39 36 40 34 41 35 42 38 44 39 45 40 46 41 48 42 49 43 50
REMARK SMILES IDX 44 51 49 52 45 53 48 54 46 55 47 56 50 58 51 59 52 60
REMARK H PARENT 14 8 11 11 9 14 9 15 28 33 35 43 40 47 47 57 52 61
ROOT
ATOM      1  O   UNL     1      -0.204  -7.686  -0.942  1.00  0.00    -0.272 OA
ATOM      2  C   UNL     1      -0.945  -6.703  -0.797  1.00  0.00     0.245 C 
ENDROOT
BRANCH   2   3
ATOM      3  C   UNL     1      -0.998  -5.642  -1.924  1.00  0.00     0.168 C 
ATOM      4  C   UNL     1       0.060  -4.566  -1.707  1.00  0.00     0.041 C 
BRANCH   3   5
ATOM      5  N   UNL     1      -0.952  -6.182  -3.274  1.00  0.00    -0.342 N 
ATOM      6  C   UNL     1      -1.897  -5.852  -4.223  1.00  0.00     0.251 C 
ATOM      7  O   UNL     1      -2.857  -5.123  -3.996  1.00  0.00    -0.272 OA
ATOM      8  H   UNL     1      -0.222  -6.825  -3.570  1.00  0.00     0.164 HD
BRANCH   6   9
ATOM      9  C   UNL     1      -1.570  -6.424  -5.612  1.00  0.00     0.219 C 
BRANCH   9  10
ATOM     10  O   UNL     1      -0.199  -6.229  -5.981  1.00  0.00    -0.382 OA
ATOM     11  H   UNL     1      -0.154  -6.580  -6.897  1.00  0.00     0.211 HD
ENDBRANCH   9  10
BRANCH   9  12
ATOM     12  C   UNL     1      -1.976  -7.913  -5.768  1.00  0.00     0.089 C 
BRANCH  12  13
ATOM     13  N   UNL     1      -3.184  -8.156  -4.948  1.00  0.00    -0.325 NA
ATOM     14  H   UNL     1      -3.010  -7.841  -3.991  1.00  0.00     0.119 HD
ATOM     15  H   UNL     1      -3.336  -9.165  -4.873  1.00  0.00     0.119 HD
ENDBRANCH  12  13
BRANCH  12  16
ATOM     16  C   UNL     1      -2.210  -8.403  -7.217  1.00  0.00     0.022 C 
BRANCH  16  17
ATOM     17  C   UNL     1      -2.492  -7.371  -8.318  1.00  0.00     0.002 C 
BRANCH  17  18
ATOM     18  C   UNL     1      -3.971  -7.106  -8.589  1.00  0.00     0.000 C 
BRANCH  18  19
ATOM     19  C   UNL     1      -4.452  -7.591  -9.963  1.00  0.00    -0.000 C 
BRANCH  19  20
ATOM     20  C   UNL     1      -3.344  -8.054 -10.913  1.00  0.00    -0.000 C 
BRANCH  20  21
ATOM     21  C   UNL     1      -3.121  -7.096 -12.086  1.00  0.00    -0.003 C 
ATOM     22  C   UNL     1      -4.418  -6.424 -12.508  1.00  0.00     0.004 C 
ENDBRANCH  20  21
ENDBRANCH  19  20
ENDBRANCH  18  19
ENDBRANCH  17  18
ENDBRANCH  16  17
ENDBRANCH  12  16
ENDBRANCH   9  12
ENDBRANCH   6   9
ENDBRANCH   3   5
ENDBRANCH   2   3
BRANCH   2  23
ATOM     23  N   UNL     1      -1.795  -6.629   0.302  1.00  0.00    -0.332 N 
ATOM     24  C   UNL     1      -2.736  -5.546   0.546  1.00  0.00     0.147 C 
BRANCH  23  25
ATOM     25  C   UNL     1      -1.881  -7.763   1.262  1.00  0.00     0.174 C 
BRANCH  25  26
ATOM     26  C   UNL     1      -3.338  -8.179   1.574  1.00  0.00     0.038 C 
BRANCH  26  27
ATOM     27  C   UNL     1      -3.870  -9.445   0.866  1.00  0.00    -0.015 C 
ATOM     28  C   UNL     1      -4.998 -10.120   1.646  1.00  0.00     0.007 C 
ATOM     29  C   UNL     1      -4.289  -9.202  -0.581  1.00  0.00     0.007 C 
ENDBRANCH  26  27
ENDBRANCH  25  26
BRANCH  25  30
ATOM     30  C   UNL     1      -1.039  -7.457   2.523  1.00  0.00     0.243 C 
ATOM     31  O   UNL     1       0.189  -7.399   2.486  1.00  0.00    -0.273 OA
ATOM     32  N   UNL     1      -1.751  -7.264   3.679  1.00  0.00    -0.342 N 
ATOM     33  H   UNL     1      -2.768  -7.187   3.602  1.00  0.00     0.164 HD
BRANCH  32  34
ATOM     34  C   UNL     1      -1.119  -6.991   4.973  1.00  0.00     0.175 C 
BRANCH  34  35
ATOM     35  C   UNL     1      -1.820  -5.837   5.705  1.00  0.00     0.070 C 
BRANCH  35  36
ATOM     36  C   UNL     1      -2.674  -4.993   4.785  1.00  0.00    -0.045 A 
ATOM     37  C   UNL     1      -2.189  -3.767   4.305  1.00  0.00     0.007 A 
ATOM     38  C   UNL     1      -3.961  -5.408   4.418  1.00  0.00     0.007 A 
ATOM     39  C   UNL     1      -2.974  -2.976   3.467  1.00  0.00     0.046 A 
ATOM     40  C   UNL     1      -4.749  -4.615   3.579  1.00  0.00     0.046 A 
ATOM     41  C   UNL     1      -4.247  -3.406   3.110  1.00  0.00     0.115 A 
BRANCH  41  42
ATOM     42  O   UNL     1      -4.983  -2.601   2.292  1.00  0.00    -0.508 OA
ATOM     43  H   UNL     1      -5.473  -3.165   1.671  1.00  0.00     0.293 HD
ENDBRANCH  41  42
ENDBRANCH  35  36
ENDBRANCH  34  35
BRANCH  34  44
ATOM     44  C   UNL     1      -1.140  -8.297   5.800  1.00  0.00     0.243 C 
ATOM     45  O   UNL     1      -0.140  -8.939   6.106  1.00  0.00    -0.273 OA
ATOM     46  N   UNL     1      -2.412  -8.760   6.061  1.00  0.00    -0.341 N 
ATOM     47  H   UNL     1      -3.209  -8.254   5.685  1.00  0.00     0.164 HD
BRANCH  46  48
ATOM     48  C   UNL     1      -2.682 -10.013   6.770  1.00  0.00     0.196 C 
BRANCH  48  49
ATOM     49  C   UNL     1      -3.978  -9.922   7.594  1.00  0.00     0.072 C 
BRANCH  49  50
ATOM     50  C   UNL     1      -4.932  -8.875   7.064  1.00  0.00    -0.045 A 
ATOM     51  C   UNL     1      -4.960  -7.598   7.643  1.00  0.00     0.007 A 
ATOM     52  C   UNL     1      -5.809  -9.166   6.011  1.00  0.00     0.007 A 
ATOM     53  C   UNL     1      -5.845  -6.628   7.172  1.00  0.00     0.046 A 
ATOM     54  C   UNL     1      -6.696  -8.195   5.540  1.00  0.00     0.046 A 
ATOM     55  C   UNL     1      -6.705  -6.933   6.124  1.00  0.00     0.115 A 
BRANCH  55  56
ATOM     56  O   UNL     1      -7.556  -5.958   5.694  1.00  0.00    -0.508 OA
ATOM     57  H   UNL     1      -8.400  -6.062   6.161  1.00  0.00     0.293 HD
ENDBRANCH  55  56
ENDBRANCH  49  50
ENDBRANCH  48  49
BRANCH  48  58
ATOM     58  C   UNL     1      -2.803 -11.150   5.745  1.00  0.00     0.326 C 
ATOM     59  O   UNL     1      -3.312 -11.095   4.637  1.00  0.00    -0.250 OA
BRANCH  58  60
ATOM     60  O   UNL     1      -2.255 -12.318   6.165  1.00  0.00    -0.480 OA
ATOM     61  H   UNL     1      -1.299 -12.201   5.974  1.00  0.00     0.296 HD
ENDBRANCH  58  60
ENDBRANCH  48  58
ENDBRANCH  46  48
ENDBRANCH  34  44
ENDBRANCH  32  34
ENDBRANCH  25  30
ENDBRANCH  23  25
ENDBRANCH   2  23
TORSDOF 28
ENDMDL
