MODEL 1
REMARK VINA RESULT:    -7.777      0.000      0.000
REMARK INTER + INTRA:         -23.518
REMARK INTER:                 -19.369
REMARK INTRA:                  -4.149
REMARK UNBOUND:                -4.149
REMARK SMILES CCCCCCC[C@H](N)[C@H](O)C(=O)N[C@H](C)C(=O)N(C)[C@H](CC(C)C)C(=O)N[C@@H](Cc1ccc(O)cc1)C(=O)N[C@@H](Cc1ccc(O)cc1)C(=O)O
REMARK SMILES IDX 18 1 17 2 15 3 16 4 14 5 12 6 13 7 10 9 11 10 8 12 9 13 7 16
REMARK SMILES IDX 6 17 5 18 4 19 3 20 2 21 1 22 19 23 20 24 21 25 22 26 23 27
REMARK SMILES IDX 24 28 25 29 26 30 27 31 28 32 29 34 30 35 31 36 32 37 37 38
REMARK SMILES IDX 33 39 36 40 34 41 35 42 38 44 39 45 40 46 41 48 42 49 43 50
REMARK SMILES IDX 44 51 49 52 45 53 48 54 46 55 47 56 50 58 51 59 52 60
REMARK H PARENT 14 8 11 11 9 14 9 15 28 33 35 43 40 47 47 57 52 61
ROOT
ATOM      1  O   UNL     1       1.389   8.953  -4.848  1.00  0.00    -0.272 OA
ATOM      2  C   UNL     1       1.309   9.955  -4.121  1.00  0.00     0.245 C 
ENDROOT
BRANCH   2   3
ATOM      3  C   UNL     1       0.906   9.764  -2.637  1.00  0.00     0.168 C 
ATOM      4  C   UNL     1       2.083   9.243  -1.820  1.00  0.00     0.041 C 
BRANCH   3   5
ATOM      5  N   UNL     1       0.288  10.925  -2.018  1.00  0.00    -0.342 N 
ATOM      6  C   UNL     1      -1.072  10.996  -1.798  1.00  0.00     0.251 C 
ATOM      7  O   UNL     1      -1.858  10.119  -2.140  1.00  0.00    -0.272 OA
ATOM      8  H   UNL     1       0.834  11.731  -1.723  1.00  0.00     0.164 HD
BRANCH   6   9
ATOM      9  C   UNL     1      -1.482  12.247  -1.005  1.00  0.00     0.219 C 
BRANCH   9  10
ATOM     10  O   UNL     1      -2.797  12.140  -0.447  1.00  0.00    -0.382 OA
ATOM     11  H   UNL     1      -2.764  12.733   0.336  1.00  0.00     0.211 HD
ENDBRANCH   9  10
BRANCH   9  12
ATOM     12  C   UNL     1      -0.451  12.642   0.084  1.00  0.00     0.089 C 
BRANCH  12  13
ATOM     13  N   UNL     1      -0.910  13.894   0.728  1.00  0.00    -0.325 NA
ATOM     14  H   UNL     1      -0.941  14.640   0.030  1.00  0.00     0.119 HD
ATOM     15  H   UNL     1      -0.206  14.194   1.407  1.00  0.00     0.119 HD
ENDBRANCH  12  13
BRANCH  12  16
ATOM     16  C   UNL     1      -0.155  11.569   1.159  1.00  0.00     0.022 C 
BRANCH  16  17
ATOM     17  C   UNL     1      -1.061  11.480   2.395  1.00  0.00     0.002 C 
BRANCH  17  18
ATOM     18  C   UNL     1      -1.847  10.177   2.525  1.00  0.00     0.000 C 
BRANCH  18  19
ATOM     19  C   UNL     1      -1.715   9.244   1.314  1.00  0.00    -0.000 C 
BRANCH  19  20
ATOM     20  C   UNL     1      -1.204   7.835   1.632  1.00  0.00    -0.000 C 
BRANCH  20  21
ATOM     21  C   UNL     1       0.063   7.836   2.491  1.00  0.00    -0.003 C 
ATOM     22  C   UNL     1       1.282   7.419   1.683  1.00  0.00     0.004 C 
ENDBRANCH  20  21
ENDBRANCH  19  20
ENDBRANCH  18  19
ENDBRANCH  17  18
ENDBRANCH  16  17
ENDBRANCH  12  16
ENDBRANCH   9  12
ENDBRANCH   6   9
ENDBRANCH   3   5
ENDBRANCH   2   3
BRANCH   2  23
ATOM     23  N   UNL     1       1.694  11.199  -4.607  1.00  0.00    -0.332 N 
ATOM     24  C   UNL     1       0.808  12.129  -5.292  1.00  0.00     0.147 C 
BRANCH  23  25
ATOM     25  C   UNL     1       3.060  11.723  -4.332  1.00  0.00     0.174 C 
BRANCH  25  26
ATOM     26  C   UNL     1       3.058  12.929  -3.362  1.00  0.00     0.038 C 
BRANCH  26  27
ATOM     27  C   UNL     1       3.773  12.737  -2.006  1.00  0.00    -0.015 C 
ATOM     28  C   UNL     1       5.264  13.061  -2.081  1.00  0.00     0.007 C 
ATOM     29  C   UNL     1       3.114  13.501  -0.860  1.00  0.00     0.007 C 
ENDBRANCH  26  27
ENDBRANCH  25  26
BRANCH  25  30
ATOM     30  C   UNL     1       3.804  11.995  -5.660  1.00  0.00     0.243 C 
ATOM     31  O   UNL     1       4.203  13.118  -5.963  1.00  0.00    -0.273 OA
ATOM     32  N   UNL     1       3.981  10.906  -6.474  1.00  0.00    -0.342 N 
ATOM     33  H   UNL     1       3.750   9.986  -6.091  1.00  0.00     0.164 HD
BRANCH  32  34
ATOM     34  C   UNL     1       4.640  10.981  -7.781  1.00  0.00     0.175 C 
BRANCH  34  35
ATOM     35  C   UNL     1       6.166  10.865  -7.645  1.00  0.00     0.070 C 
BRANCH  35  36
ATOM     36  C   UNL     1       6.880  12.162  -7.955  1.00  0.00    -0.045 A 
ATOM     37  C   UNL     1       6.205  13.191  -8.629  1.00  0.00     0.007 A 
ATOM     38  C   UNL     1       8.222  12.346  -7.598  1.00  0.00     0.007 A 
ATOM     39  C   UNL     1       6.860  14.385  -8.932  1.00  0.00     0.046 A 
ATOM     40  C   UNL     1       8.879  13.541  -7.902  1.00  0.00     0.046 A 
ATOM     41  C   UNL     1       8.190  14.551  -8.566  1.00  0.00     0.115 A 
BRANCH  41  42
ATOM     42  O   UNL     1       8.794  15.732  -8.883  1.00  0.00    -0.508 OA
ATOM     43  H   UNL     1       9.026  15.711  -9.826  1.00  0.00     0.293 HD
ENDBRANCH  41  42
ENDBRANCH  35  36
ENDBRANCH  34  35
BRANCH  34  44
ATOM     44  C   UNL     1       4.054   9.866  -8.676  1.00  0.00     0.243 C 
ATOM     45  O   UNL     1       2.978   9.941  -9.263  1.00  0.00    -0.273 OA
ATOM     46  N   UNL     1       4.794   8.702  -8.659  1.00  0.00    -0.341 N 
ATOM     47  H   UNL     1       5.617   8.649  -8.064  1.00  0.00     0.164 HD
BRANCH  46  48
ATOM     48  C   UNL     1       4.401   7.487  -9.376  1.00  0.00     0.196 C 
BRANCH  48  49
ATOM     49  C   UNL     1       5.570   6.920 -10.198  1.00  0.00     0.072 C 
BRANCH  49  50
ATOM     50  C   UNL     1       6.914   7.434  -9.732  1.00  0.00    -0.045 A 
ATOM     51  C   UNL     1       7.446   8.605 -10.290  1.00  0.00     0.007 A 
ATOM     52  C   UNL     1       7.651   6.745  -8.760  1.00  0.00     0.007 A 
ATOM     53  C   UNL     1       8.690   9.081  -9.877  1.00  0.00     0.046 A 
ATOM     54  C   UNL     1       8.897   7.222  -8.347  1.00  0.00     0.046 A 
ATOM     55  C   UNL     1       9.406   8.388  -8.909  1.00  0.00     0.115 A 
BRANCH  55  56
ATOM     56  O   UNL     1      10.619   8.886  -8.535  1.00  0.00    -0.508 OA
ATOM     57  H   UNL     1      10.539   9.848  -8.443  1.00  0.00     0.293 HD
ENDBRANCH  55  56
ENDBRANCH  49  50
ENDBRANCH  48  49
BRANCH  48  58
ATOM     58  C   UNL     1       3.931   6.438  -8.359  1.00  0.00     0.326 C 
ATOM     59  O   UNL     1       4.572   5.963  -7.436  1.00  0.00    -0.250 OA
BRANCH  58  60
ATOM     60  O   UNL     1       2.647   6.040  -8.547  1.00  0.00    -0.480 OA
ATOM     61  H   UNL     1       2.269   6.063  -7.641  1.00  0.00     0.296 HD
ENDBRANCH  58  60
ENDBRANCH  48  58
ENDBRANCH  46  48
ENDBRANCH  34  44
ENDBRANCH  32  34
ENDBRANCH  25  30
ENDBRANCH  23  25
ENDBRANCH   2  23
TORSDOF 28
ENDMDL
MODEL 2
REMARK VINA RESULT:    -7.743      1.691      2.540
REMARK INTER + INTRA:         -23.435
REMARK INTER:                 -19.406
REMARK INTRA:                  -4.029
REMARK UNBOUND:                -4.149
REMARK SMILES CCCCCCC[C@H](N)[C@H](O)C(=O)N[C@H](C)C(=O)N(C)[C@H](CC(C)C)C(=O)N[C@@H](Cc1ccc(O)cc1)C(=O)N[C@@H](Cc1ccc(O)cc1)C(=O)O
REMARK SMILES IDX 18 1 17 2 15 3 16 4 14 5 12 6 13 7 10 9 11 10 8 12 9 13 7 16
REMARK SMILES IDX 6 17 5 18 4 19 3 20 2 21 1 22 19 23 20 24 21 25 22 26 23 27
REMARK SMILES IDX 24 28 25 29 26 30 27 31 28 32 29 34 30 35 31 36 32 37 37 38
REMARK SMILES IDX 33 39 36 40 34 41 35 42 38 44 39 45 40 46 41 48 42 49 43 50
REMARK SMILES IDX 44 51 49 52 45 53 48 54 46 55 47 56 50 58 51 59 52 60
REMARK H PARENT 14 8 11 11 9 14 9 15 28 33 35 43 40 47 47 57 52 61
ROOT
ATOM      1  O   UNL     1       1.289   8.941  -5.001  1.00  0.00    -0.272 OA
ATOM      2  C   UNL     1       1.128  10.144  -4.744  1.00  0.00     0.245 C 
ENDROOT
BRANCH   2   3
ATOM      3  C   UNL     1       0.035  10.544  -3.722  1.00  0.00     0.168 C 
ATOM      4  C   UNL     1      -1.281  10.851  -4.428  1.00  0.00     0.041 C 
BRANCH   3   5
ATOM      5  N   UNL     1      -0.145   9.608  -2.623  1.00  0.00    -0.342 N 
ATOM      6  C   UNL     1      -0.274  10.035  -1.318  1.00  0.00     0.251 C 
ATOM      7  O   UNL     1      -0.205  11.212  -0.981  1.00  0.00    -0.272 OA
ATOM      8  H   UNL     1      -0.183   8.603  -2.775  1.00  0.00     0.164 HD
BRANCH   6   9
ATOM      9  C   UNL     1      -0.597   8.888  -0.347  1.00  0.00     0.219 C 
BRANCH   9  10
ATOM     10  O   UNL     1      -1.809   8.203  -0.685  1.00  0.00    -0.382 OA
ATOM     11  H   UNL     1      -2.484   8.916  -0.687  1.00  0.00     0.211 HD
ENDBRANCH   9  10
BRANCH   9  12
ATOM     12  C   UNL     1       0.574   7.885  -0.178  1.00  0.00     0.089 C 
BRANCH  12  13
ATOM     13  N   UNL     1       1.810   8.518  -0.693  1.00  0.00    -0.325 NA
ATOM     14  H   UNL     1       2.066   8.082  -1.580  1.00  0.00     0.119 HD
ATOM     15  H   UNL     1       2.582   8.303  -0.057  1.00  0.00     0.119 HD
ENDBRANCH  12  13
BRANCH  12  16
ATOM     16  C   UNL     1       0.808   7.350   1.255  1.00  0.00     0.022 C 
BRANCH  16  17
ATOM     17  C   UNL     1       1.712   8.143   2.210  1.00  0.00     0.002 C 
BRANCH  17  18
ATOM     18  C   UNL     1       0.982   8.852   3.348  1.00  0.00     0.000 C 
BRANCH  18  19
ATOM     19  C   UNL     1      -0.508   8.498   3.452  1.00  0.00    -0.000 C 
BRANCH  19  20
ATOM     20  C   UNL     1      -1.437   9.677   3.751  1.00  0.00    -0.000 C 
BRANCH  20  21
ATOM     21  C   UNL     1      -1.120  10.918   2.912  1.00  0.00    -0.003 C 
ATOM     22  C   UNL     1      -2.273  11.272   1.987  1.00  0.00     0.004 C 
ENDBRANCH  20  21
ENDBRANCH  19  20
ENDBRANCH  18  19
ENDBRANCH  17  18
ENDBRANCH  16  17
ENDBRANCH  12  16
ENDBRANCH   9  12
ENDBRANCH   6   9
ENDBRANCH   3   5
ENDBRANCH   2   3
BRANCH   2  23
ATOM     23  N   UNL     1       1.997  11.091  -5.275  1.00  0.00    -0.332 N 
ATOM     24  C   UNL     1       1.578  12.305  -5.960  1.00  0.00     0.147 C 
BRANCH  23  25
ATOM     25  C   UNL     1       3.464  10.971  -5.053  1.00  0.00     0.174 C 
BRANCH  25  26
ATOM     26  C   UNL     1       4.084  12.242  -4.425  1.00  0.00     0.038 C 
BRANCH  26  27
ATOM     27  C   UNL     1       5.446  12.707  -4.985  1.00  0.00    -0.015 C 
ATOM     28  C   UNL     1       5.494  14.215  -5.230  1.00  0.00     0.007 C 
ATOM     29  C   UNL     1       6.635  12.262  -4.137  1.00  0.00     0.007 C 
ENDBRANCH  26  27
ENDBRANCH  25  26
BRANCH  25  30
ATOM     30  C   UNL     1       4.164  10.516  -6.354  1.00  0.00     0.243 C 
ATOM     31  O   UNL     1       4.880   9.517  -6.392  1.00  0.00    -0.273 OA
ATOM     32  N   UNL     1       3.940  11.303  -7.455  1.00  0.00    -0.342 N 
ATOM     33  H   UNL     1       3.225  12.030  -7.379  1.00  0.00     0.164 HD
BRANCH  32  34
ATOM     34  C   UNL     1       4.542  11.040  -8.764  1.00  0.00     0.175 C 
BRANCH  34  35
ATOM     35  C   UNL     1       6.069  10.900  -8.659  1.00  0.00     0.070 C 
BRANCH  35  36
ATOM     36  C   UNL     1       6.761  12.219  -8.404  1.00  0.00    -0.045 A 
ATOM     37  C   UNL     1       6.217  13.408  -8.915  1.00  0.00     0.007 A 
ATOM     38  C   UNL     1       7.958  12.275  -7.678  1.00  0.00     0.007 A 
ATOM     39  C   UNL     1       6.856  14.629  -8.696  1.00  0.00     0.046 A 
ATOM     40  C   UNL     1       8.599  13.497  -7.460  1.00  0.00     0.046 A 
ATOM     41  C   UNL     1       8.041  14.664  -7.970  1.00  0.00     0.115 A 
BRANCH  41  42
ATOM     42  O   UNL     1       8.635  15.876  -7.782  1.00  0.00    -0.508 OA
ATOM     43  H   UNL     1       7.941  16.556  -7.766  1.00  0.00     0.293 HD
ENDBRANCH  41  42
ENDBRANCH  35  36
ENDBRANCH  34  35
BRANCH  34  44
ATOM     44  C   UNL     1       3.885   9.769  -9.348  1.00  0.00     0.243 C 
ATOM     45  O   UNL     1       2.706   9.688  -9.680  1.00  0.00    -0.273 OA
ATOM     46  N   UNL     1       4.717   8.670  -9.345  1.00  0.00    -0.341 N 
ATOM     47  H   UNL     1       5.651   8.758  -8.951  1.00  0.00     0.164 HD
BRANCH  46  48
ATOM     48  C   UNL     1       4.296   7.338  -9.786  1.00  0.00     0.196 C 
BRANCH  48  49
ATOM     49  C   UNL     1       5.505   6.456 -10.138  1.00  0.00     0.072 C 
BRANCH  49  50
ATOM     50  C   UNL     1       6.817   7.066  -9.701  1.00  0.00    -0.045 A 
ATOM     51  C   UNL     1       7.335   6.774  -8.430  1.00  0.00     0.007 A 
ATOM     52  C   UNL     1       7.521   7.940 -10.539  1.00  0.00     0.007 A 
ATOM     53  C   UNL     1       8.538   7.342  -8.011  1.00  0.00     0.046 A 
ATOM     54  C   UNL     1       8.725   8.509 -10.119  1.00  0.00     0.046 A 
ATOM     55  C   UNL     1       9.224   8.204  -8.858  1.00  0.00     0.115 A 
BRANCH  55  56
ATOM     56  O   UNL     1      10.396   8.739  -8.409  1.00  0.00    -0.508 OA
ATOM     57  H   UNL     1      11.069   8.041  -8.406  1.00  0.00     0.293 HD
ENDBRANCH  55  56
ENDBRANCH  49  50
ENDBRANCH  48  49
BRANCH  48  58
ATOM     58  C   UNL     1       3.483   6.675  -8.665  1.00  0.00     0.326 C 
ATOM     59  O   UNL     1       2.544   5.905  -8.789  1.00  0.00    -0.250 OA
BRANCH  58  60
ATOM     60  O   UNL     1       3.908   7.006  -7.420  1.00  0.00    -0.480 OA
ATOM     61  H   UNL     1       3.567   6.274  -6.862  1.00  0.00     0.296 HD
ENDBRANCH  58  60
ENDBRANCH  48  58
ENDBRANCH  46  48
ENDBRANCH  34  44
ENDBRANCH  32  34
ENDBRANCH  25  30
ENDBRANCH  23  25
ENDBRANCH   2  23
TORSDOF 28
ENDMDL
MODEL 3
REMARK VINA RESULT:    -7.720      4.987      8.850
REMARK INTER + INTRA:         -23.376
REMARK INTER:                 -18.126
REMARK INTRA:                  -5.251
REMARK UNBOUND:                -4.149
REMARK SMILES CCCCCCC[C@H](N)[C@H](O)C(=O)N[C@H](C)C(=O)N(C)[C@H](CC(C)C)C(=O)N[C@@H](Cc1ccc(O)cc1)C(=O)N[C@@H](Cc1ccc(O)cc1)C(=O)O
REMARK SMILES IDX 18 1 17 2 15 3 16 4 14 5 12 6 13 7 10 9 11 10 8 12 9 13 7 16
REMARK SMILES IDX 6 17 5 18 4 19 3 20 2 21 1 22 19 23 20 24 21 25 22 26 23 27
REMARK SMILES IDX 24 28 25 29 26 30 27 31 28 32 29 34 30 35 31 36 32 37 37 38
REMARK SMILES IDX 33 39 36 40 34 41 35 42 38 44 39 45 40 46 41 48 42 49 43 50
REMARK SMILES IDX 44 51 49 52 45 53 48 54 46 55 47 56 50 58 51 59 52 60
REMARK H PARENT 14 8 11 11 9 14 9 15 28 33 35 43 40 47 47 57 52 61
ROOT
ATOM      1  O   UNL     1      -1.613  10.045   4.287  1.00  0.00    -0.272 OA
ATOM      2  C   UNL     1      -1.020  11.018   3.797  1.00  0.00     0.245 C 
ENDROOT
BRANCH   2   3
ATOM      3  C   UNL     1       0.471  11.234   4.155  1.00  0.00     0.168 C 
ATOM      4  C   UNL     1       0.682  11.162   5.663  1.00  0.00     0.041 C 
BRANCH   3   5
ATOM      5  N   UNL     1       1.402  10.378   3.436  1.00  0.00    -0.342 N 
ATOM      6  C   UNL     1       2.412  10.897   2.654  1.00  0.00     0.251 C 
ATOM      7  O   UNL     1       2.577  12.098   2.471  1.00  0.00    -0.272 OA
ATOM      8  H   UNL     1       1.344   9.364   3.482  1.00  0.00     0.164 HD
BRANCH   6   9
ATOM      9  C   UNL     1       3.357   9.814   2.108  1.00  0.00     0.219 C 
BRANCH   9  10
ATOM     10  O   UNL     1       3.992  10.201   0.883  1.00  0.00    -0.382 OA
ATOM     11  H   UNL     1       3.597  11.078   0.685  1.00  0.00     0.211 HD
ENDBRANCH   9  10
BRANCH   9  12
ATOM     12  C   UNL     1       4.407   9.341   3.147  1.00  0.00     0.089 C 
BRANCH  12  13
ATOM     13  N   UNL     1       4.504  10.365   4.212  1.00  0.00    -0.325 NA
ATOM     14  H   UNL     1       4.753   9.911   5.093  1.00  0.00     0.119 HD
ATOM     15  H   UNL     1       3.576  10.766   4.372  1.00  0.00     0.119 HD
ENDBRANCH  12  13
BRANCH  12  16
ATOM     16  C   UNL     1       4.162   7.946   3.771  1.00  0.00     0.022 C 
BRANCH  16  17
ATOM     17  C   UNL     1       5.183   7.386   4.770  1.00  0.00     0.002 C 
BRANCH  17  18
ATOM     18  C   UNL     1       5.713   5.992   4.438  1.00  0.00     0.000 C 
BRANCH  18  19
ATOM     19  C   UNL     1       6.810   5.498   5.389  1.00  0.00    -0.000 C 
BRANCH  19  20
ATOM     20  C   UNL     1       6.307   4.823   6.668  1.00  0.00    -0.000 C 
BRANCH  20  21
ATOM     21  C   UNL     1       5.047   3.981   6.446  1.00  0.00    -0.003 C 
ATOM     22  C   UNL     1       3.994   4.269   7.505  1.00  0.00     0.004 C 
ENDBRANCH  20  21
ENDBRANCH  19  20
ENDBRANCH  18  19
ENDBRANCH  17  18
ENDBRANCH  16  17
ENDBRANCH  12  16
ENDBRANCH   9  12
ENDBRANCH   6   9
ENDBRANCH   3   5
ENDBRANCH   2   3
BRANCH   2  23
ATOM     23  N   UNL     1      -1.656  11.817   2.852  1.00  0.00    -0.332 N 
ATOM     24  C   UNL     1      -2.796  11.399   2.050  1.00  0.00     0.147 C 
BRANCH  23  25
ATOM     25  C   UNL     1      -1.269  13.245   2.694  1.00  0.00     0.174 C 
BRANCH  25  26
ATOM     26  C   UNL     1      -2.321  14.223   3.268  1.00  0.00     0.038 C 
BRANCH  26  27
ATOM     27  C   UNL     1      -2.338  14.413   4.801  1.00  0.00    -0.015 C 
ATOM     28  C   UNL     1      -3.180  13.354   5.512  1.00  0.00     0.007 C 
ATOM     29  C   UNL     1      -0.944  14.494   5.418  1.00  0.00     0.007 C 
ENDBRANCH  26  27
ENDBRANCH  25  26
BRANCH  25  30
ATOM     30  C   UNL     1      -0.890  13.534   1.223  1.00  0.00     0.243 C 
ATOM     31  O   UNL     1      -1.582  14.250   0.502  1.00  0.00    -0.273 OA
ATOM     32  N   UNL     1       0.261  12.934   0.778  1.00  0.00    -0.342 N 
ATOM     33  H   UNL     1       0.853  12.472   1.473  1.00  0.00     0.164 HD
BRANCH  32  34
ATOM     34  C   UNL     1       0.759  13.073  -0.593  1.00  0.00     0.175 C 
BRANCH  34  35
ATOM     35  C   UNL     1       2.094  13.833  -0.628  1.00  0.00     0.070 C 
BRANCH  35  36
ATOM     36  C   UNL     1       2.743  13.811  -1.994  1.00  0.00    -0.045 A 
ATOM     37  C   UNL     1       4.043  13.306  -2.145  1.00  0.00     0.007 A 
ATOM     38  C   UNL     1       2.072  14.313  -3.117  1.00  0.00     0.007 A 
ATOM     39  C   UNL     1       4.655  13.294  -3.398  1.00  0.00     0.046 A 
ATOM     40  C   UNL     1       2.685  14.303  -4.372  1.00  0.00     0.046 A 
ATOM     41  C   UNL     1       3.972  13.792  -4.501  1.00  0.00     0.115 A 
BRANCH  41  42
ATOM     42  O   UNL     1       4.607  13.765  -5.708  1.00  0.00    -0.508 OA
ATOM     43  H   UNL     1       5.132  12.949  -5.758  1.00  0.00     0.293 HD
ENDBRANCH  41  42
ENDBRANCH  35  36
ENDBRANCH  34  35
BRANCH  34  44
ATOM     44  C   UNL     1       0.883  11.659  -1.203  1.00  0.00     0.243 C 
ATOM     45  O   UNL     1       1.831  10.902  -1.012  1.00  0.00    -0.273 OA
ATOM     46  N   UNL     1      -0.119  11.359  -2.101  1.00  0.00    -0.341 N 
ATOM     47  H   UNL     1      -0.819  12.064  -2.314  1.00  0.00     0.164 HD
BRANCH  46  48
ATOM     48  C   UNL     1      -0.175  10.105  -2.856  1.00  0.00     0.196 C 
BRANCH  48  49
ATOM     49  C   UNL     1      -1.174   9.118  -2.229  1.00  0.00     0.072 C 
BRANCH  49  50
ATOM     50  C   UNL     1      -0.694   8.567  -0.905  1.00  0.00    -0.045 A 
ATOM     51  C   UNL     1      -1.520   8.647   0.226  1.00  0.00     0.007 A 
ATOM     52  C   UNL     1       0.578   7.994  -0.781  1.00  0.00     0.007 A 
ATOM     53  C   UNL     1      -1.083   8.154   1.456  1.00  0.00     0.046 A 
ATOM     54  C   UNL     1       1.016   7.502   0.451  1.00  0.00     0.046 A 
ATOM     55  C   UNL     1       0.180   7.585   1.559  1.00  0.00     0.115 A 
BRANCH  55  56
ATOM     56  O   UNL     1       0.570   7.118   2.779  1.00  0.00    -0.508 OA
ATOM     57  H   UNL     1       0.606   6.149   2.738  1.00  0.00     0.293 HD
ENDBRANCH  55  56
ENDBRANCH  49  50
ENDBRANCH  48  49
BRANCH  48  58
ATOM     58  C   UNL     1      -0.592  10.410  -4.301  1.00  0.00     0.326 C 
ATOM     59  O   UNL     1      -1.653  10.879  -4.681  1.00  0.00    -0.250 OA
BRANCH  58  60
ATOM     60  O   UNL     1       0.368  10.119  -5.215  1.00  0.00    -0.480 OA
ATOM     61  H   UNL     1       0.002   9.342  -5.688  1.00  0.00     0.296 HD
ENDBRANCH  58  60
ENDBRANCH  48  58
ENDBRANCH  46  48
ENDBRANCH  34  44
ENDBRANCH  32  34
ENDBRANCH  25  30
ENDBRANCH  23  25
ENDBRANCH   2  23
TORSDOF 28
ENDMDL
MODEL 4
REMARK VINA RESULT:    -7.475      2.626     10.114
REMARK INTER + INTRA:         -22.768
REMARK INTER:                 -18.265
REMARK INTRA:                  -4.502
REMARK UNBOUND:                -4.149
REMARK SMILES CCCCCCC[C@H](N)[C@H](O)C(=O)N[C@H](C)C(=O)N(C)[C@H](CC(C)C)C(=O)N[C@@H](Cc1ccc(O)cc1)C(=O)N[C@@H](Cc1ccc(O)cc1)C(=O)O
REMARK SMILES IDX 18 1 17 2 15 3 16 4 14 5 12 6 13 7 10 9 11 10 8 12 9 13 7 16
REMARK SMILES IDX 6 17 5 18 4 19 3 20 2 21 1 22 19 23 20 24 21 25 22 26 23 27
REMARK SMILES IDX 24 28 25 29 26 30 27 31 28 32 29 34 30 35 31 36 32 37 37 38
REMARK SMILES IDX 33 39 36 40 34 41 35 42 38 44 39 45 40 46 41 48 42 49 43 50
REMARK SMILES IDX 44 51 49 52 45 53 48 54 46 55 47 56 50 58 51 59 52 60
REMARK H PARENT 14 8 11 11 9 14 9 15 28 33 35 43 40 47 47 57 52 61
ROOT
ATOM      1  O   UNL     1       2.949  11.683  -4.413  1.00  0.00    -0.272 OA
ATOM      2  C   UNL     1       3.897  12.350  -4.853  1.00  0.00     0.245 C 
ENDROOT
BRANCH   2   3
ATOM      3  C   UNL     1       4.723  11.777  -6.031  1.00  0.00     0.168 C 
ATOM      4  C   UNL     1       5.931  11.001  -5.518  1.00  0.00     0.041 C 
BRANCH   3   5
ATOM      5  N   UNL     1       3.956  11.007  -6.998  1.00  0.00    -0.342 N 
ATOM      6  C   UNL     1       4.047  11.243  -8.354  1.00  0.00     0.251 C 
ATOM      7  O   UNL     1       4.738  12.132  -8.840  1.00  0.00    -0.272 OA
ATOM      8  H   UNL     1       3.321  10.266  -6.711  1.00  0.00     0.164 HD
BRANCH   6   9
ATOM      9  C   UNL     1       3.261  10.221  -9.190  1.00  0.00     0.219 C 
BRANCH   9  10
ATOM     10  O   UNL     1       3.016  10.672 -10.527  1.00  0.00    -0.382 OA
ATOM     11  H   UNL     1       3.903  10.636 -10.949  1.00  0.00     0.211 HD
ENDBRANCH   9  10
BRANCH   9  12
ATOM     12  C   UNL     1       3.908   8.811  -9.193  1.00  0.00     0.089 C 
BRANCH  12  13
ATOM     13  N   UNL     1       3.126   7.941 -10.101  1.00  0.00    -0.325 NA
ATOM     14  H   UNL     1       2.310   8.455 -10.439  1.00  0.00     0.119 HD
ATOM     15  H   UNL     1       2.745   7.159  -9.563  1.00  0.00     0.119 HD
ENDBRANCH  12  13
BRANCH  12  16
ATOM     16  C   UNL     1       5.409   8.755  -9.565  1.00  0.00     0.022 C 
BRANCH  16  17
ATOM     17  C   UNL     1       5.956   7.511 -10.279  1.00  0.00     0.002 C 
BRANCH  17  18
ATOM     18  C   UNL     1       6.319   6.347  -9.359  1.00  0.00     0.000 C 
BRANCH  18  19
ATOM     19  C   UNL     1       6.478   6.743  -7.885  1.00  0.00    -0.000 C 
BRANCH  19  20
ATOM     20  C   UNL     1       5.517   6.045  -6.918  1.00  0.00    -0.000 C 
BRANCH  20  21
ATOM     21  C   UNL     1       5.514   6.671  -5.520  1.00  0.00    -0.003 C 
ATOM     22  C   UNL     1       4.516   7.815  -5.427  1.00  0.00     0.004 C 
ENDBRANCH  20  21
ENDBRANCH  19  20
ENDBRANCH  18  19
ENDBRANCH  17  18
ENDBRANCH  16  17
ENDBRANCH  12  16
ENDBRANCH   9  12
ENDBRANCH   6   9
ENDBRANCH   3   5
ENDBRANCH   2   3
BRANCH   2  23
ATOM     23  N   UNL     1       4.123  13.636  -4.374  1.00  0.00    -0.332 N 
ATOM     24  C   UNL     1       3.636  14.852  -5.009  1.00  0.00     0.147 C 
BRANCH  23  25
ATOM     25  C   UNL     1       4.799  13.841  -3.063  1.00  0.00     0.174 C 
BRANCH  25  26
ATOM     26  C   UNL     1       6.309  13.510  -3.105  1.00  0.00     0.038 C 
BRANCH  26  27
ATOM     27  C   UNL     1       7.232  14.538  -3.797  1.00  0.00    -0.015 C 
ATOM     28  C   UNL     1       8.117  15.291  -2.804  1.00  0.00     0.007 C 
ATOM     29  C   UNL     1       8.075  13.939  -4.920  1.00  0.00     0.007 C 
ENDBRANCH  26  27
ENDBRANCH  25  26
BRANCH  25  30
ATOM     30  C   UNL     1       4.030  13.097  -1.947  1.00  0.00     0.243 C 
ATOM     31  O   UNL     1       4.603  12.368  -1.139  1.00  0.00    -0.273 OA
ATOM     32  N   UNL     1       2.674  13.299  -1.924  1.00  0.00    -0.342 N 
ATOM     33  H   UNL     1       2.293  14.026  -2.535  1.00  0.00     0.164 HD
BRANCH  32  34
ATOM     34  C   UNL     1       1.784  12.655  -0.955  1.00  0.00     0.175 C 
BRANCH  34  35
ATOM     35  C   UNL     1       0.524  13.499  -0.706  1.00  0.00     0.070 C 
BRANCH  35  36
ATOM     36  C   UNL     1      -0.284  13.009   0.474  1.00  0.00    -0.045 A 
ATOM     37  C   UNL     1       0.366  12.588   1.644  1.00  0.00     0.007 A 
ATOM     38  C   UNL     1      -1.683  12.946   0.412  1.00  0.00     0.007 A 
ATOM     39  C   UNL     1      -0.370  12.122   2.733  1.00  0.00     0.046 A 
ATOM     40  C   UNL     1      -2.421  12.478   1.502  1.00  0.00     0.046 A 
ATOM     41  C   UNL     1      -1.757  12.071   2.654  1.00  0.00     0.115 A 
BRANCH  41  42
ATOM     42  O   UNL     1      -2.439  11.606   3.739  1.00  0.00    -0.508 OA
ATOM     43  H   UNL     1      -3.310  12.036   3.758  1.00  0.00     0.293 HD
ENDBRANCH  41  42
ENDBRANCH  35  36
ENDBRANCH  34  35
BRANCH  34  44
ATOM     44  C   UNL     1       1.439  11.245  -1.485  1.00  0.00     0.243 C 
ATOM     45  O   UNL     1       2.102  10.237  -1.257  1.00  0.00    -0.273 OA
ATOM     46  N   UNL     1       0.374  11.233  -2.361  1.00  0.00    -0.341 N 
ATOM     47  H   UNL     1      -0.071  12.113  -2.609  1.00  0.00     0.164 HD
BRANCH  46  48
ATOM     48  C   UNL     1      -0.094  10.025  -3.044  1.00  0.00     0.196 C 
BRANCH  48  49
ATOM     49  C   UNL     1      -1.259   9.368  -2.284  1.00  0.00     0.072 C 
BRANCH  49  50
ATOM     50  C   UNL     1      -0.829   8.772  -0.963  1.00  0.00    -0.045 A 
ATOM     51  C   UNL     1       0.127   7.746  -0.937  1.00  0.00     0.007 A 
ATOM     52  C   UNL     1      -1.388   9.214   0.243  1.00  0.00     0.007 A 
ATOM     53  C   UNL     1       0.521   7.179   0.275  1.00  0.00     0.046 A 
ATOM     54  C   UNL     1      -0.994   8.645   1.456  1.00  0.00     0.046 A 
ATOM     55  C   UNL     1      -0.041   7.633   1.462  1.00  0.00     0.115 A 
BRANCH  55  56
ATOM     56  O   UNL     1       0.370   7.051   2.624  1.00  0.00    -0.508 OA
ATOM     57  H   UNL     1      -0.245   7.310   3.330  1.00  0.00     0.293 HD
ENDBRANCH  55  56
ENDBRANCH  49  50
ENDBRANCH  48  49
BRANCH  48  58
ATOM     58  C   UNL     1      -0.549  10.398  -4.462  1.00  0.00     0.326 C 
ATOM     59  O   UNL     1      -1.647  10.808  -4.802  1.00  0.00    -0.250 OA
BRANCH  58  60
ATOM     60  O   UNL     1       0.422  10.249  -5.398  1.00  0.00    -0.480 OA
ATOM     61  H   UNL     1       1.231  10.558  -4.936  1.00  0.00     0.296 HD
ENDBRANCH  58  60
ENDBRANCH  48  58
ENDBRANCH  46  48
ENDBRANCH  34  44
ENDBRANCH  32  34
ENDBRANCH  25  30
ENDBRANCH  23  25
ENDBRANCH   2  23
TORSDOF 28
ENDMDL
MODEL 5
REMARK VINA RESULT:    -7.410      2.348     11.418
REMARK INTER + INTRA:         -22.604
REMARK INTER:                 -18.154
REMARK INTRA:                  -4.450
REMARK UNBOUND:                -4.149
REMARK SMILES CCCCCCC[C@H](N)[C@H](O)C(=O)N[C@H](C)C(=O)N(C)[C@H](CC(C)C)C(=O)N[C@@H](Cc1ccc(O)cc1)C(=O)N[C@@H](Cc1ccc(O)cc1)C(=O)O
REMARK SMILES IDX 18 1 17 2 15 3 16 4 14 5 12 6 13 7 10 9 11 10 8 12 9 13 7 16
REMARK SMILES IDX 6 17 5 18 4 19 3 20 2 21 1 22 19 23 20 24 21 25 22 26 23 27
REMARK SMILES IDX 24 28 25 29 26 30 27 31 28 32 29 34 30 35 31 36 32 37 37 38
REMARK SMILES IDX 33 39 36 40 34 41 35 42 38 44 39 45 40 46 41 48 42 49 43 50
REMARK SMILES IDX 44 51 49 52 45 53 48 54 46 55 47 56 50 58 51 59 52 60
REMARK H PARENT 14 8 11 11 9 14 9 15 28 33 35 43 40 47 47 57 52 61
ROOT
ATOM      1  O   UNL     1       5.277  12.750  -5.853  1.00  0.00    -0.272 OA
ATOM      2  C   UNL     1       5.035  12.076  -6.865  1.00  0.00     0.245 C 
ENDROOT
BRANCH   2   3
ATOM      3  C   UNL     1       5.964  12.228  -8.096  1.00  0.00     0.168 C 
ATOM      4  C   UNL     1       6.434  13.670  -8.245  1.00  0.00     0.041 C 
BRANCH   3   5
ATOM      5  N   UNL     1       7.073  11.288  -8.143  1.00  0.00    -0.342 N 
ATOM      6  C   UNL     1       7.155  10.306  -9.107  1.00  0.00     0.251 C 
ATOM      7  O   UNL     1       6.293  10.122  -9.960  1.00  0.00    -0.272 OA
ATOM      8  H   UNL     1       7.832  11.320  -7.466  1.00  0.00     0.164 HD
BRANCH   6   9
ATOM      9  C   UNL     1       8.478   9.525  -9.050  1.00  0.00     0.219 C 
BRANCH   9  10
ATOM     10  O   UNL     1       8.821   9.116  -7.720  1.00  0.00    -0.382 OA
ATOM     11  H   UNL     1       9.378   8.319  -7.860  1.00  0.00     0.211 HD
ENDBRANCH   9  10
BRANCH   9  12
ATOM     12  C   UNL     1       8.516   8.319 -10.024  1.00  0.00     0.089 C 
BRANCH  12  13
ATOM     13  N   UNL     1       9.899   7.791 -10.060  1.00  0.00    -0.325 NA
ATOM     14  H   UNL     1       9.902   6.892 -10.546  1.00  0.00     0.119 HD
ATOM     15  H   UNL     1      10.197   7.579  -9.105  1.00  0.00     0.119 HD
ENDBRANCH  12  13
BRANCH  12  16
ATOM     16  C   UNL     1       7.517   7.175  -9.727  1.00  0.00     0.022 C 
BRANCH  16  17
ATOM     17  C   UNL     1       6.403   6.874 -10.738  1.00  0.00     0.002 C 
BRANCH  17  18
ATOM     18  C   UNL     1       5.934   5.421 -10.767  1.00  0.00     0.000 C 
BRANCH  18  19
ATOM     19  C   UNL     1       4.500   5.237 -11.279  1.00  0.00    -0.000 C 
BRANCH  19  20
ATOM     20  C   UNL     1       3.404   5.443 -10.230  1.00  0.00    -0.000 C 
BRANCH  20  21
ATOM     21  C   UNL     1       2.554   6.690 -10.486  1.00  0.00    -0.003 C 
ATOM     22  C   UNL     1       3.281   7.954 -10.054  1.00  0.00     0.004 C 
ENDBRANCH  20  21
ENDBRANCH  19  20
ENDBRANCH  18  19
ENDBRANCH  17  18
ENDBRANCH  16  17
ENDBRANCH  12  16
ENDBRANCH   9  12
ENDBRANCH   6   9
ENDBRANCH   3   5
ENDBRANCH   2   3
BRANCH   2  23
ATOM     23  N   UNL     1       4.025  11.120  -6.840  1.00  0.00    -0.332 N 
ATOM     24  C   UNL     1       2.802  11.190  -7.625  1.00  0.00     0.147 C 
BRANCH  23  25
ATOM     25  C   UNL     1       4.204   9.859  -6.070  1.00  0.00     0.174 C 
BRANCH  25  26
ATOM     26  C   UNL     1       4.571   8.653  -6.967  1.00  0.00     0.038 C 
BRANCH  26  27
ATOM     27  C   UNL     1       5.234   7.442  -6.274  1.00  0.00    -0.015 C 
ATOM     28  C   UNL     1       5.135   6.165  -7.108  1.00  0.00     0.007 C 
ATOM     29  C   UNL     1       6.680   7.699  -5.855  1.00  0.00     0.007 C 
ENDBRANCH  26  27
ENDBRANCH  25  26
BRANCH  25  30
ATOM     30  C   UNL     1       2.976   9.609  -5.164  1.00  0.00     0.243 C 
ATOM     31  O   UNL     1       2.063   8.857  -5.501  1.00  0.00    -0.273 OA
ATOM     32  N   UNL     1       2.973  10.284  -3.971  1.00  0.00    -0.342 N 
ATOM     33  H   UNL     1       3.829  10.776  -3.702  1.00  0.00     0.164 HD
BRANCH  32  34
ATOM     34  C   UNL     1       1.879  10.190  -3.000  1.00  0.00     0.175 C 
BRANCH  34  35
ATOM     35  C   UNL     1       2.079   9.002  -2.046  1.00  0.00     0.070 C 
BRANCH  35  36
ATOM     36  C   UNL     1       0.827   8.657  -1.272  1.00  0.00    -0.045 A 
ATOM     37  C   UNL     1      -0.422   8.681  -1.910  1.00  0.00     0.007 A 
ATOM     38  C   UNL     1       0.890   8.332   0.090  1.00  0.00     0.007 A 
ATOM     39  C   UNL     1      -1.585   8.377  -1.201  1.00  0.00     0.046 A 
ATOM     40  C   UNL     1      -0.273   8.029   0.801  1.00  0.00     0.046 A 
ATOM     41  C   UNL     1      -1.501   8.053   0.148  1.00  0.00     0.115 A 
BRANCH  41  42
ATOM     42  O   UNL     1      -2.660   7.766   0.806  1.00  0.00    -0.508 OA
ATOM     43  H   UNL     1      -2.989   6.910   0.483  1.00  0.00     0.293 HD
ENDBRANCH  41  42
ENDBRANCH  35  36
ENDBRANCH  34  35
BRANCH  34  44
ATOM     44  C   UNL     1       1.796  11.533  -2.240  1.00  0.00     0.243 C 
ATOM     45  O   UNL     1       1.436  12.593  -2.742  1.00  0.00    -0.273 OA
ATOM     46  N   UNL     1       2.295  11.468  -0.956  1.00  0.00    -0.341 N 
ATOM     47  H   UNL     1       2.691  10.593  -0.623  1.00  0.00     0.164 HD
BRANCH  46  48
ATOM     48  C   UNL     1       2.384  12.629  -0.067  1.00  0.00     0.196 C 
BRANCH  48  49
ATOM     49  C   UNL     1       2.070  12.244   1.389  1.00  0.00     0.072 C 
BRANCH  49  50
ATOM     50  C   UNL     1       0.632  11.820   1.581  1.00  0.00    -0.045 A 
ATOM     51  C   UNL     1      -0.312  12.070   0.574  1.00  0.00     0.007 A 
ATOM     52  C   UNL     1       0.216  11.195   2.764  1.00  0.00     0.007 A 
ATOM     53  C   UNL     1      -1.644  11.694   0.745  1.00  0.00     0.046 A 
ATOM     54  C   UNL     1      -1.118  10.820   2.936  1.00  0.00     0.046 A 
ATOM     55  C   UNL     1      -2.037  11.072   1.924  1.00  0.00     0.115 A 
BRANCH  55  56
ATOM     56  O   UNL     1      -3.349  10.723   2.053  1.00  0.00    -0.508 OA
ATOM     57  H   UNL     1      -3.759  11.311   2.707  1.00  0.00     0.293 HD
ENDBRANCH  55  56
ENDBRANCH  49  50
ENDBRANCH  48  49
BRANCH  48  58
ATOM     58  C   UNL     1       3.800  13.214  -0.150  1.00  0.00     0.326 C 
ATOM     59  O   UNL     1       4.831  12.620  -0.422  1.00  0.00    -0.250 OA
BRANCH  58  60
ATOM     60  O   UNL     1       3.851  14.546   0.102  1.00  0.00    -0.480 OA
ATOM     61  H   UNL     1       4.248  14.591   0.999  1.00  0.00     0.296 HD
ENDBRANCH  58  60
ENDBRANCH  48  58
ENDBRANCH  46  48
ENDBRANCH  34  44
ENDBRANCH  32  34
ENDBRANCH  25  30
ENDBRANCH  23  25
ENDBRANCH   2  23
TORSDOF 28
ENDMDL
MODEL 6
REMARK VINA RESULT:    -7.408      1.425      2.138
REMARK INTER + INTRA:         -22.601
REMARK INTER:                 -18.616
REMARK INTRA:                  -3.985
REMARK UNBOUND:                -4.149
REMARK SMILES CCCCCCC[C@H](N)[C@H](O)C(=O)N[C@H](C)C(=O)N(C)[C@H](CC(C)C)C(=O)N[C@@H](Cc1ccc(O)cc1)C(=O)N[C@@H](Cc1ccc(O)cc1)C(=O)O
REMARK SMILES IDX 18 1 17 2 15 3 16 4 14 5 12 6 13 7 10 9 11 10 8 12 9 13 7 16
REMARK SMILES IDX 6 17 5 18 4 19 3 20 2 21 1 22 19 23 20 24 21 25 22 26 23 27
REMARK SMILES IDX 24 28 25 29 26 30 27 31 28 32 29 34 30 35 31 36 32 37 37 38
REMARK SMILES IDX 33 39 36 40 34 41 35 42 38 44 39 45 40 46 41 48 42 49 43 50
REMARK SMILES IDX 44 51 49 52 45 53 48 54 46 55 47 56 50 58 51 59 52 60
REMARK H PARENT 14 8 11 11 9 14 9 15 28 33 35 43 40 47 47 57 52 61
ROOT
ATOM      1  O   UNL     1       1.328  12.167  -5.853  1.00  0.00    -0.272 OA
ATOM      2  C   UNL     1       1.595  11.786  -4.704  1.00  0.00     0.245 C 
ENDROOT
BRANCH   2   3
ATOM      3  C   UNL     1       1.163  10.361  -4.276  1.00  0.00     0.168 C 
ATOM      4  C   UNL     1       2.276   9.354  -4.544  1.00  0.00     0.041 C 
BRANCH   3   5
ATOM      5  N   UNL     1       0.655  10.259  -2.917  1.00  0.00    -0.342 N 
ATOM      6  C   UNL     1      -0.650  10.572  -2.602  1.00  0.00     0.251 C 
ATOM      7  O   UNL     1      -1.461  10.994  -3.419  1.00  0.00    -0.272 OA
ATOM      8  H   UNL     1       1.245   9.953  -2.146  1.00  0.00     0.164 HD
BRANCH   6   9
ATOM      9  C   UNL     1      -1.001  10.254  -1.139  1.00  0.00     0.219 C 
BRANCH   9  10
ATOM     10  O   UNL     1      -2.104  11.030  -0.654  1.00  0.00    -0.382 OA
ATOM     11  H   UNL     1      -1.791  11.957  -0.745  1.00  0.00     0.211 HD
ENDBRANCH   9  10
BRANCH   9  12
ATOM     12  C   UNL     1      -1.237   8.742  -0.884  1.00  0.00     0.089 C 
BRANCH  12  13
ATOM     13  N   UNL     1      -1.555   8.094  -2.178  1.00  0.00    -0.325 NA
ATOM     14  H   UNL     1      -2.377   7.499  -2.062  1.00  0.00     0.119 HD
ATOM     15  H   UNL     1      -0.795   7.455  -2.423  1.00  0.00     0.119 HD
ENDBRANCH  12  13
BRANCH  12  16
ATOM     16  C   UNL     1      -0.086   7.985  -0.180  1.00  0.00     0.022 C 
BRANCH  16  17
ATOM     17  C   UNL     1       1.046   8.790   0.475  1.00  0.00     0.002 C 
BRANCH  17  18
ATOM     18  C   UNL     1       1.277   8.491   1.954  1.00  0.00     0.000 C 
BRANCH  18  19
ATOM     19  C   UNL     1       0.027   7.994   2.694  1.00  0.00    -0.000 C 
BRANCH  19  20
ATOM     20  C   UNL     1      -0.450   8.891   3.839  1.00  0.00    -0.000 C 
BRANCH  20  21
ATOM     21  C   UNL     1      -1.716   9.681   3.495  1.00  0.00    -0.003 C 
ATOM     22  C   UNL     1      -1.386  10.949   2.724  1.00  0.00     0.004 C 
ENDBRANCH  20  21
ENDBRANCH  19  20
ENDBRANCH  18  19
ENDBRANCH  17  18
ENDBRANCH  16  17
ENDBRANCH  12  16
ENDBRANCH   9  12
ENDBRANCH   6   9
ENDBRANCH   3   5
ENDBRANCH   2   3
BRANCH   2  23
ATOM     23  N   UNL     1       2.373  12.582  -3.871  1.00  0.00    -0.332 N 
ATOM     24  C   UNL     1       1.846  13.445  -2.824  1.00  0.00     0.147 C 
BRANCH  23  25
ATOM     25  C   UNL     1       3.859  12.497  -3.922  1.00  0.00     0.174 C 
BRANCH  25  26
ATOM     26  C   UNL     1       4.552  13.433  -2.905  1.00  0.00     0.038 C 
BRANCH  26  27
ATOM     27  C   UNL     1       5.226  12.766  -1.686  1.00  0.00    -0.015 C 
ATOM     28  C   UNL     1       6.751  12.849  -1.743  1.00  0.00     0.007 C 
ATOM     29  C   UNL     1       4.709  13.286  -0.346  1.00  0.00     0.007 C 
ENDBRANCH  26  27
ENDBRANCH  25  26
BRANCH  25  30
ATOM     30  C   UNL     1       4.352  12.683  -5.376  1.00  0.00     0.243 C 
ATOM     31  O   UNL     1       4.614  13.794  -5.835  1.00  0.00    -0.273 OA
ATOM     32  N   UNL     1       4.471  11.534  -6.114  1.00  0.00    -0.342 N 
ATOM     33  H   UNL     1       4.372  10.643  -5.622  1.00  0.00     0.164 HD
BRANCH  32  34
ATOM     34  C   UNL     1       4.898  11.523  -7.516  1.00  0.00     0.175 C 
BRANCH  34  35
ATOM     35  C   UNL     1       6.425  11.403  -7.634  1.00  0.00     0.070 C 
BRANCH  35  36
ATOM     36  C   UNL     1       7.086  12.708  -8.016  1.00  0.00    -0.045 A 
ATOM     37  C   UNL     1       8.414  12.959  -7.638  1.00  0.00     0.007 A 
ATOM     38  C   UNL     1       6.383  13.689  -8.726  1.00  0.00     0.007 A 
ATOM     39  C   UNL     1       9.028  14.166  -7.974  1.00  0.00     0.046 A 
ATOM     40  C   UNL     1       6.997  14.898  -9.062  1.00  0.00     0.046 A 
ATOM     41  C   UNL     1       8.316  15.125  -8.683  1.00  0.00     0.115 A 
BRANCH  41  42
ATOM     42  O   UNL     1       8.952  16.292  -8.989  1.00  0.00    -0.508 OA
ATOM     43  H   UNL     1       8.735  16.945  -8.303  1.00  0.00     0.293 HD
ENDBRANCH  41  42
ENDBRANCH  35  36
ENDBRANCH  34  35
BRANCH  34  44
ATOM     44  C   UNL     1       4.171  10.360  -8.228  1.00  0.00     0.243 C 
ATOM     45  O   UNL     1       2.968  10.339  -8.472  1.00  0.00    -0.273 OA
ATOM     46  N   UNL     1       4.979   9.266  -8.458  1.00  0.00    -0.341 N 
ATOM     47  H   UNL     1       5.942   9.286  -8.131  1.00  0.00     0.164 HD
BRANCH  46  48
ATOM     48  C   UNL     1       4.497   8.020  -9.058  1.00  0.00     0.196 C 
BRANCH  48  49
ATOM     49  C   UNL     1       5.576   7.368  -9.938  1.00  0.00     0.072 C 
BRANCH  49  50
ATOM     50  C   UNL     1       6.977   7.773  -9.536  1.00  0.00    -0.045 A 
ATOM     51  C   UNL     1       7.579   8.892 -10.130  1.00  0.00     0.007 A 
ATOM     52  C   UNL     1       7.697   7.033  -8.590  1.00  0.00     0.007 A 
ATOM     53  C   UNL     1       8.875   9.267  -9.777  1.00  0.00     0.046 A 
ATOM     54  C   UNL     1       8.996   7.407  -8.237  1.00  0.00     0.046 A 
ATOM     55  C   UNL     1       9.573   8.523  -8.833  1.00  0.00     0.115 A 
BRANCH  55  56
ATOM     56  O   UNL     1      10.839   8.921  -8.518  1.00  0.00    -0.508 OA
ATOM     57  H   UNL     1      11.463   8.422  -9.068  1.00  0.00     0.293 HD
ENDBRANCH  55  56
ENDBRANCH  49  50
ENDBRANCH  48  49
BRANCH  48  58
ATOM     58  C   UNL     1       4.090   7.051  -7.939  1.00  0.00     0.326 C 
ATOM     59  O   UNL     1       4.505   7.032  -6.791  1.00  0.00    -0.250 OA
BRANCH  58  60
ATOM     60  O   UNL     1       3.153   6.147  -8.320  1.00  0.00    -0.480 OA
ATOM     61  H   UNL     1       2.906   5.709  -7.477  1.00  0.00     0.296 HD
ENDBRANCH  58  60
ENDBRANCH  48  58
ENDBRANCH  46  48
ENDBRANCH  34  44
ENDBRANCH  32  34
ENDBRANCH  25  30
ENDBRANCH  23  25
ENDBRANCH   2  23
TORSDOF 28
ENDMDL
MODEL 7
REMARK VINA RESULT:    -7.385      2.464     11.839
REMARK INTER + INTRA:         -22.543
REMARK INTER:                 -18.359
REMARK INTRA:                  -4.184
REMARK UNBOUND:                -4.149
REMARK SMILES CCCCCCC[C@H](N)[C@H](O)C(=O)N[C@H](C)C(=O)N(C)[C@H](CC(C)C)C(=O)N[C@@H](Cc1ccc(O)cc1)C(=O)N[C@@H](Cc1ccc(O)cc1)C(=O)O
REMARK SMILES IDX 18 1 17 2 15 3 16 4 14 5 12 6 13 7 10 9 11 10 8 12 9 13 7 16
REMARK SMILES IDX 6 17 5 18 4 19 3 20 2 21 1 22 19 23 20 24 21 25 22 26 23 27
REMARK SMILES IDX 24 28 25 29 26 30 27 31 28 32 29 34 30 35 31 36 32 37 37 38
REMARK SMILES IDX 33 39 36 40 34 41 35 42 38 44 39 45 40 46 41 48 42 49 43 50
REMARK SMILES IDX 44 51 49 52 45 53 48 54 46 55 47 56 50 58 51 59 52 60
REMARK H PARENT 14 8 11 11 9 14 9 15 28 33 35 43 40 47 47 57 52 61
ROOT
ATOM      1  O   UNL     1       5.305  12.595  -6.933  1.00  0.00    -0.272 OA
ATOM      2  C   UNL     1       5.450  11.548  -7.582  1.00  0.00     0.245 C 
ENDROOT
BRANCH   2   3
ATOM      3  C   UNL     1       6.783  11.324  -8.338  1.00  0.00     0.168 C 
ATOM      4  C   UNL     1       7.902  12.158  -7.723  1.00  0.00     0.041 C 
BRANCH   3   5
ATOM      5  N   UNL     1       7.170   9.931  -8.495  1.00  0.00    -0.342 N 
ATOM      6  C   UNL     1       7.085   9.284  -9.710  1.00  0.00     0.251 C 
ATOM      7  O   UNL     1       6.644   9.810 -10.727  1.00  0.00    -0.272 OA
ATOM      8  H   UNL     1       7.518   9.379  -7.714  1.00  0.00     0.164 HD
BRANCH   6   9
ATOM      9  C   UNL     1       7.679   7.867  -9.672  1.00  0.00     0.219 C 
BRANCH   9  10
ATOM     10  O   UNL     1       7.459   7.143 -10.889  1.00  0.00    -0.382 OA
ATOM     11  H   UNL     1       6.563   6.758 -10.770  1.00  0.00     0.211 HD
ENDBRANCH   9  10
BRANCH   9  12
ATOM     12  C   UNL     1       9.180   7.846  -9.283  1.00  0.00     0.089 C 
BRANCH  12  13
ATOM     13  N   UNL     1       9.724   6.503  -9.589  1.00  0.00    -0.325 NA
ATOM     14  H   UNL     1      10.736   6.571  -9.714  1.00  0.00     0.119 HD
ATOM     15  H   UNL     1       9.362   6.198 -10.496  1.00  0.00     0.119 HD
ENDBRANCH  12  13
BRANCH  12  16
ATOM     16  C   UNL     1      10.064   8.938  -9.933  1.00  0.00     0.022 C 
BRANCH  16  17
ATOM     17  C   UNL     1      10.791   9.945  -9.030  1.00  0.00     0.002 C 
BRANCH  17  18
ATOM     18  C   UNL     1      11.472  11.096  -9.767  1.00  0.00     0.000 C 
BRANCH  18  19
ATOM     19  C   UNL     1      11.610  10.875 -11.279  1.00  0.00    -0.000 C 
BRANCH  19  20
ATOM     20  C   UNL     1      12.337  11.991 -12.036  1.00  0.00    -0.000 C 
BRANCH  20  21
ATOM     21  C   UNL     1      12.803  13.129 -11.123  1.00  0.00    -0.003 C 
ATOM     22  C   UNL     1      12.048  14.416 -11.413  1.00  0.00     0.004 C 
ENDBRANCH  20  21
ENDBRANCH  19  20
ENDBRANCH  18  19
ENDBRANCH  17  18
ENDBRANCH  16  17
ENDBRANCH  12  16
ENDBRANCH   9  12
ENDBRANCH   6   9
ENDBRANCH   3   5
ENDBRANCH   2   3
BRANCH   2  23
ATOM     23  N   UNL     1       4.481  10.552  -7.522  1.00  0.00    -0.332 N 
ATOM     24  C   UNL     1       3.469  10.323  -8.543  1.00  0.00     0.147 C 
BRANCH  23  25
ATOM     25  C   UNL     1       4.505   9.545  -6.426  1.00  0.00     0.174 C 
BRANCH  25  26
ATOM     26  C   UNL     1       4.275   8.101  -6.930  1.00  0.00     0.038 C 
BRANCH  26  27
ATOM     27  C   UNL     1       5.252   7.018  -6.420  1.00  0.00    -0.015 C 
ATOM     28  C   UNL     1       5.499   5.920  -7.454  1.00  0.00     0.007 C 
ATOM     29  C   UNL     1       6.575   7.584  -5.911  1.00  0.00     0.007 C 
ENDBRANCH  26  27
ENDBRANCH  25  26
BRANCH  25  30
ATOM     30  C   UNL     1       3.541   9.969  -5.294  1.00  0.00     0.243 C 
ATOM     31  O   UNL     1       3.781  10.926  -4.560  1.00  0.00    -0.273 OA
ATOM     32  N   UNL     1       2.411   9.204  -5.159  1.00  0.00    -0.342 N 
ATOM     33  H   UNL     1       2.214   8.517  -5.892  1.00  0.00     0.164 HD
BRANCH  32  34
ATOM     34  C   UNL     1       1.401   9.441  -4.125  1.00  0.00     0.175 C 
BRANCH  34  35
ATOM     35  C   UNL     1       1.902   8.997  -2.742  1.00  0.00     0.070 C 
BRANCH  35  36
ATOM     36  C   UNL     1       0.776   8.661  -1.791  1.00  0.00    -0.045 A 
ATOM     37  C   UNL     1      -0.555   8.708  -2.235  1.00  0.00     0.007 A 
ATOM     38  C   UNL     1       1.037   8.322  -0.457  1.00  0.00     0.007 A 
ATOM     39  C   UNL     1      -1.602   8.413  -1.362  1.00  0.00     0.046 A 
ATOM     40  C   UNL     1      -0.011   8.028   0.418  1.00  0.00     0.046 A 
ATOM     41  C   UNL     1      -1.322   8.074  -0.044  1.00  0.00     0.115 A 
BRANCH  41  42
ATOM     42  O   UNL     1      -2.374   7.796   0.778  1.00  0.00    -0.508 OA
ATOM     43  H   UNL     1      -2.535   6.838   0.752  1.00  0.00     0.293 HD
ENDBRANCH  41  42
ENDBRANCH  35  36
ENDBRANCH  34  35
BRANCH  34  44
ATOM     44  C   UNL     1       1.032  10.941  -4.151  1.00  0.00     0.243 C 
ATOM     45  O   UNL     1       0.477  11.503  -5.091  1.00  0.00    -0.273 OA
ATOM     46  N   UNL     1       1.503  11.641  -3.060  1.00  0.00    -0.341 N 
ATOM     47  H   UNL     1       2.059  11.154  -2.363  1.00  0.00     0.164 HD
BRANCH  46  48
ATOM     48  C   UNL     1       1.335  13.087  -2.897  1.00  0.00     0.196 C 
BRANCH  48  49
ATOM     49  C   UNL     1       1.367  13.491  -1.414  1.00  0.00     0.072 C 
BRANCH  49  50
ATOM     50  C   UNL     1       0.309  12.786  -0.596  1.00  0.00    -0.045 A 
ATOM     51  C   UNL     1       0.655  12.176   0.619  1.00  0.00     0.007 A 
ATOM     52  C   UNL     1      -1.017  12.711  -1.043  1.00  0.00     0.007 A 
ATOM     53  C   UNL     1      -0.310  11.511   1.375  1.00  0.00     0.046 A 
ATOM     54  C   UNL     1      -1.983  12.044  -0.286  1.00  0.00     0.046 A 
ATOM     55  C   UNL     1      -1.620  11.450   0.918  1.00  0.00     0.115 A 
BRANCH  55  56
ATOM     56  O   UNL     1      -2.533  10.789   1.686  1.00  0.00    -0.508 OA
ATOM     57  H   UNL     1      -3.421  11.074   1.419  1.00  0.00     0.293 HD
ENDBRANCH  55  56
ENDBRANCH  49  50
ENDBRANCH  48  49
BRANCH  48  58
ATOM     58  C   UNL     1       2.461  13.808  -3.651  1.00  0.00     0.326 C 
ATOM     59  O   UNL     1       2.345  14.599  -4.573  1.00  0.00    -0.250 OA
BRANCH  58  60
ATOM     60  O   UNL     1       3.701  13.505  -3.191  1.00  0.00    -0.480 OA
ATOM     61  H   UNL     1       3.524  13.089  -2.320  1.00  0.00     0.296 HD
ENDBRANCH  58  60
ENDBRANCH  48  58
ENDBRANCH  46  48
ENDBRANCH  34  44
ENDBRANCH  32  34
ENDBRANCH  25  30
ENDBRANCH  23  25
ENDBRANCH   2  23
TORSDOF 28
ENDMDL
MODEL 8
REMARK VINA RESULT:    -7.382      1.828      2.749
REMARK INTER + INTRA:         -22.535
REMARK INTER:                 -18.741
REMARK INTRA:                  -3.794
REMARK UNBOUND:                -4.149
REMARK SMILES CCCCCCC[C@H](N)[C@H](O)C(=O)N[C@H](C)C(=O)N(C)[C@H](CC(C)C)C(=O)N[C@@H](Cc1ccc(O)cc1)C(=O)N[C@@H](Cc1ccc(O)cc1)C(=O)O
REMARK SMILES IDX 18 1 17 2 15 3 16 4 14 5 12 6 13 7 10 9 11 10 8 12 9 13 7 16
REMARK SMILES IDX 6 17 5 18 4 19 3 20 2 21 1 22 19 23 20 24 21 25 22 26 23 27
REMARK SMILES IDX 24 28 25 29 26 30 27 31 28 32 29 34 30 35 31 36 32 37 37 38
REMARK SMILES IDX 33 39 36 40 34 41 35 42 38 44 39 45 40 46 41 48 42 49 43 50
REMARK SMILES IDX 44 51 49 52 45 53 48 54 46 55 47 56 50 58 51 59 52 60
REMARK H PARENT 14 8 11 11 9 14 9 15 28 33 35 43 40 47 47 57 52 61
ROOT
ATOM      1  O   UNL     1       0.122  11.892  -4.275  1.00  0.00    -0.272 OA
ATOM      2  C   UNL     1       1.136  12.385  -3.758  1.00  0.00     0.245 C 
ENDROOT
BRANCH   2   3
ATOM      3  C   UNL     1       1.349  12.212  -2.234  1.00  0.00     0.168 C 
ATOM      4  C   UNL     1       1.759  13.532  -1.591  1.00  0.00     0.041 C 
BRANCH   3   5
ATOM      5  N   UNL     1       0.242  11.586  -1.529  1.00  0.00    -0.342 N 
ATOM      6  C   UNL     1       0.443  10.762  -0.442  1.00  0.00     0.251 C 
ATOM      7  O   UNL     1       1.554  10.463  -0.016  1.00  0.00    -0.272 OA
ATOM      8  H   UNL     1      -0.725  11.731  -1.812  1.00  0.00     0.164 HD
BRANCH   6   9
ATOM      9  C   UNL     1      -0.871  10.331   0.229  1.00  0.00     0.219 C 
BRANCH   9  10
ATOM     10  O   UNL     1      -1.965  11.200  -0.089  1.00  0.00    -0.382 OA
ATOM     11  H   UNL     1      -2.168  10.981  -1.026  1.00  0.00     0.211 HD
ENDBRANCH   9  10
BRANCH   9  12
ATOM     12  C   UNL     1      -1.242   8.852  -0.054  1.00  0.00     0.089 C 
BRANCH  12  13
ATOM     13  N   UNL     1      -0.502   8.406  -1.257  1.00  0.00    -0.325 NA
ATOM     14  H   UNL     1       0.501   8.460  -1.073  1.00  0.00     0.119 HD
ATOM     15  H   UNL     1      -0.671   9.072  -2.015  1.00  0.00     0.119 HD
ENDBRANCH  12  13
BRANCH  12  16
ATOM     16  C   UNL     1      -1.010   7.860   1.111  1.00  0.00     0.022 C 
BRANCH  16  17
ATOM     17  C   UNL     1       0.424   7.437   1.457  1.00  0.00     0.002 C 
BRANCH  17  18
ATOM     18  C   UNL     1       1.070   8.220   2.598  1.00  0.00     0.000 C 
BRANCH  18  19
ATOM     19  C   UNL     1       0.064   8.903   3.534  1.00  0.00    -0.000 C 
BRANCH  19  20
ATOM     20  C   UNL     1       0.622  10.079   4.341  1.00  0.00    -0.000 C 
BRANCH  20  21
ATOM     21  C   UNL     1      -0.289  10.498   5.498  1.00  0.00    -0.003 C 
ATOM     22  C   UNL     1      -1.658   9.845   5.390  1.00  0.00     0.004 C 
ENDBRANCH  20  21
ENDBRANCH  19  20
ENDBRANCH  18  19
ENDBRANCH  17  18
ENDBRANCH  16  17
ENDBRANCH  12  16
ENDBRANCH   9  12
ENDBRANCH   6   9
ENDBRANCH   3   5
ENDBRANCH   2   3
BRANCH   2  23
ATOM     23  N   UNL     1       2.111  12.970  -4.560  1.00  0.00    -0.332 N 
ATOM     24  C   UNL     1       2.225  14.399  -4.812  1.00  0.00     0.147 C 
BRANCH  23  25
ATOM     25  C   UNL     1       3.212  12.143  -5.126  1.00  0.00     0.174 C 
BRANCH  25  26
ATOM     26  C   UNL     1       4.592  12.836  -5.036  1.00  0.00     0.038 C 
BRANCH  26  27
ATOM     27  C   UNL     1       5.592  12.272  -4.003  1.00  0.00    -0.015 C 
ATOM     28  C   UNL     1       6.786  11.581  -4.662  1.00  0.00     0.007 C 
ATOM     29  C   UNL     1       6.065  13.308  -2.987  1.00  0.00     0.007 C 
ENDBRANCH  26  27
ENDBRANCH  25  26
BRANCH  25  30
ATOM     30  C   UNL     1       2.845  11.673  -6.552  1.00  0.00     0.243 C 
ATOM     31  O   UNL     1       1.775  11.973  -7.081  1.00  0.00    -0.273 OA
ATOM     32  N   UNL     1       3.784  10.897  -7.181  1.00  0.00    -0.342 N 
ATOM     33  H   UNL     1       4.701  10.809  -6.736  1.00  0.00     0.164 HD
BRANCH  32  34
ATOM     34  C   UNL     1       3.596  10.339  -8.523  1.00  0.00     0.175 C 
BRANCH  34  35
ATOM     35  C   UNL     1       4.522  11.017  -9.545  1.00  0.00     0.070 C 
BRANCH  35  36
ATOM     36  C   UNL     1       5.826  11.480  -8.935  1.00  0.00    -0.045 A 
ATOM     37  C   UNL     1       6.851  10.555  -8.685  1.00  0.00     0.007 A 
ATOM     38  C   UNL     1       6.022  12.824  -8.591  1.00  0.00     0.007 A 
ATOM     39  C   UNL     1       8.053  10.971  -8.110  1.00  0.00     0.046 A 
ATOM     40  C   UNL     1       7.224  13.241  -8.015  1.00  0.00     0.046 A 
ATOM     41  C   UNL     1       8.230  12.309  -7.780  1.00  0.00     0.115 A 
BRANCH  41  42
ATOM     42  O   UNL     1       9.417  12.673  -7.218  1.00  0.00    -0.508 OA
ATOM     43  H   UNL     1      10.118  12.119  -7.600  1.00  0.00     0.293 HD
ENDBRANCH  41  42
ENDBRANCH  35  36
ENDBRANCH  34  35
BRANCH  34  44
ATOM     44  C   UNL     1       3.838   8.815  -8.447  1.00  0.00     0.243 C 
ATOM     45  O   UNL     1       3.907   8.175  -7.401  1.00  0.00    -0.273 OA
ATOM     46  N   UNL     1       4.105   8.240  -9.671  1.00  0.00    -0.341 N 
ATOM     47  H   UNL     1       4.152   8.833 -10.496  1.00  0.00     0.164 HD
BRANCH  46  48
ATOM     48  C   UNL     1       4.432   6.823  -9.842  1.00  0.00     0.196 C 
BRANCH  48  49
ATOM     49  C   UNL     1       5.466   6.358  -8.803  1.00  0.00     0.072 C 
BRANCH  49  50
ATOM     50  C   UNL     1       6.856   6.876  -9.093  1.00  0.00    -0.045 A 
ATOM     51  C   UNL     1       7.190   7.293 -10.390  1.00  0.00     0.007 A 
ATOM     52  C   UNL     1       7.830   6.929  -8.088  1.00  0.00     0.007 A 
ATOM     53  C   UNL     1       8.473   7.761 -10.673  1.00  0.00     0.046 A 
ATOM     54  C   UNL     1       9.116   7.396  -8.372  1.00  0.00     0.046 A 
ATOM     55  C   UNL     1       9.426   7.810  -9.663  1.00  0.00     0.115 A 
BRANCH  55  56
ATOM     56  O   UNL     1      10.668   8.272  -9.981  1.00  0.00    -0.508 OA
ATOM     57  H   UNL     1      11.271   8.058  -9.251  1.00  0.00     0.293 HD
ENDBRANCH  55  56
ENDBRANCH  49  50
ENDBRANCH  48  49
BRANCH  48  58
ATOM     58  C   UNL     1       3.148   5.993  -9.697  1.00  0.00     0.326 C 
ATOM     59  O   UNL     1       2.002   6.367  -9.884  1.00  0.00    -0.250 OA
BRANCH  58  60
ATOM     60  O   UNL     1       3.374   4.706  -9.332  1.00  0.00    -0.480 OA
ATOM     61  H   UNL     1       4.340   4.598  -9.469  1.00  0.00     0.296 HD
ENDBRANCH  58  60
ENDBRANCH  48  58
ENDBRANCH  46  48
ENDBRANCH  34  44
ENDBRANCH  32  34
ENDBRANCH  25  30
ENDBRANCH  23  25
ENDBRANCH   2  23
TORSDOF 28
ENDMDL
MODEL 9
REMARK VINA RESULT:    -7.373      4.611     11.227
REMARK INTER + INTRA:         -22.514
REMARK INTER:                 -18.428
REMARK INTRA:                  -4.086
REMARK UNBOUND:                -4.149
REMARK SMILES CCCCCCC[C@H](N)[C@H](O)C(=O)N[C@H](C)C(=O)N(C)[C@H](CC(C)C)C(=O)N[C@@H](Cc1ccc(O)cc1)C(=O)N[C@@H](Cc1ccc(O)cc1)C(=O)O
REMARK SMILES IDX 18 1 17 2 15 3 16 4 14 5 12 6 13 7 10 9 11 10 8 12 9 13 7 16
REMARK SMILES IDX 6 17 5 18 4 19 3 20 2 21 1 22 19 23 20 24 21 25 22 26 23 27
REMARK SMILES IDX 24 28 25 29 26 30 27 31 28 32 29 34 30 35 31 36 32 37 37 38
REMARK SMILES IDX 33 39 36 40 34 41 35 42 38 44 39 45 40 46 41 48 42 49 43 50
REMARK SMILES IDX 44 51 49 52 45 53 48 54 46 55 47 56 50 58 51 59 52 60
REMARK H PARENT 14 8 11 11 9 14 9 15 28 33 35 43 40 47 47 57 52 61
ROOT
ATOM      1  O   UNL     1       1.402  14.347  -0.946  1.00  0.00    -0.272 OA
ATOM      2  C   UNL     1       1.878  13.335  -1.481  1.00  0.00     0.245 C 
ENDROOT
BRANCH   2   3
ATOM      3  C   UNL     1       1.825  13.218  -3.025  1.00  0.00     0.168 C 
ATOM      4  C   UNL     1       2.451  14.443  -3.682  1.00  0.00     0.041 C 
BRANCH   3   5
ATOM      5  N   UNL     1       2.365  11.979  -3.562  1.00  0.00    -0.342 N 
ATOM      6  C   UNL     1       1.710  11.264  -4.543  1.00  0.00     0.251 C 
ATOM      7  O   UNL     1       0.620  11.588  -5.002  1.00  0.00    -0.272 OA
ATOM      8  H   UNL     1       3.247  11.591  -3.235  1.00  0.00     0.164 HD
BRANCH   6   9
ATOM      9  C   UNL     1       2.531  10.071  -5.058  1.00  0.00     0.219 C 
BRANCH   9  10
ATOM     10  O   UNL     1       1.728   8.908  -5.291  1.00  0.00    -0.382 OA
ATOM     11  H   UNL     1       2.022   8.281  -4.594  1.00  0.00     0.211 HD
ENDBRANCH   9  10
BRANCH   9  12
ATOM     12  C   UNL     1       3.383  10.412  -6.308  1.00  0.00     0.089 C 
BRANCH  12  13
ATOM     13  N   UNL     1       3.233  11.857  -6.596  1.00  0.00    -0.325 NA
ATOM     14  H   UNL     1       3.071  12.359  -5.721  1.00  0.00     0.119 HD
ATOM     15  H   UNL     1       2.382  11.998  -7.146  1.00  0.00     0.119 HD
ENDBRANCH  12  13
BRANCH  12  16
ATOM     16  C   UNL     1       4.883  10.039  -6.229  1.00  0.00     0.022 C 
BRANCH  16  17
ATOM     17  C   UNL     1       5.764  10.221  -7.472  1.00  0.00     0.002 C 
BRANCH  17  18
ATOM     18  C   UNL     1       7.188   9.687  -7.337  1.00  0.00     0.000 C 
BRANCH  18  19
ATOM     19  C   UNL     1       7.323   8.509  -6.362  1.00  0.00    -0.000 C 
BRANCH  19  20
ATOM     20  C   UNL     1       7.134   7.124  -6.985  1.00  0.00    -0.000 C 
BRANCH  20  21
ATOM     21  C   UNL     1       5.826   6.450  -6.565  1.00  0.00    -0.003 C 
ATOM     22  C   UNL     1       4.773   6.553  -7.657  1.00  0.00     0.004 C 
ENDBRANCH  20  21
ENDBRANCH  19  20
ENDBRANCH  18  19
ENDBRANCH  17  18
ENDBRANCH  16  17
ENDBRANCH  12  16
ENDBRANCH   9  12
ENDBRANCH   6   9
ENDBRANCH   3   5
ENDBRANCH   2   3
BRANCH   2  23
ATOM     23  N   UNL     1       2.550  12.392  -0.711  1.00  0.00    -0.332 N 
ATOM     24  C   UNL     1       3.975  12.431  -0.416  1.00  0.00     0.147 C 
BRANCH  23  25
ATOM     25  C   UNL     1       1.795  11.316  -0.012  1.00  0.00     0.174 C 
BRANCH  25  26
ATOM     26  C   UNL     1       0.411  11.043  -0.646  1.00  0.00     0.038 C 
BRANCH  26  27
ATOM     27  C   UNL     1       0.319   9.871  -1.648  1.00  0.00    -0.015 C 
ATOM     28  C   UNL     1       1.113   8.647  -1.191  1.00  0.00     0.007 C 
ATOM     29  C   UNL     1      -1.115   9.481  -1.997  1.00  0.00     0.007 C 
ENDBRANCH  26  27
ENDBRANCH  25  26
BRANCH  25  30
ATOM     30  C   UNL     1       1.738  11.606   1.506  1.00  0.00     0.243 C 
ATOM     31  O   UNL     1       1.284  12.660   1.950  1.00  0.00    -0.273 OA
ATOM     32  N   UNL     1       2.230  10.617   2.318  1.00  0.00    -0.342 N 
ATOM     33  H   UNL     1       2.457   9.718   1.885  1.00  0.00     0.164 HD
BRANCH  32  34
ATOM     34  C   UNL     1       2.281  10.729   3.778  1.00  0.00     0.175 C 
BRANCH  34  35
ATOM     35  C   UNL     1       1.109   9.985   4.436  1.00  0.00     0.070 C 
BRANCH  35  36
ATOM     36  C   UNL     1       0.135   9.418   3.428  1.00  0.00    -0.045 A 
ATOM     37  C   UNL     1       0.413   8.199   2.792  1.00  0.00     0.007 A 
ATOM     38  C   UNL     1      -1.040  10.107   3.098  1.00  0.00     0.007 A 
ATOM     39  C   UNL     1      -0.472   7.675   1.850  1.00  0.00     0.046 A 
ATOM     40  C   UNL     1      -1.927   9.584   2.154  1.00  0.00     0.046 A 
ATOM     41  C   UNL     1      -1.635   8.371   1.539  1.00  0.00     0.115 A 
BRANCH  41  42
ATOM     42  O   UNL     1      -2.472   7.826   0.611  1.00  0.00    -0.508 OA
ATOM     43  H   UNL     1      -3.150   7.310   1.078  1.00  0.00     0.293 HD
ENDBRANCH  41  42
ENDBRANCH  35  36
ENDBRANCH  34  35
BRANCH  34  44
ATOM     44  C   UNL     1       3.648  10.188   4.253  1.00  0.00     0.243 C 
ATOM     45  O   UNL     1       4.388  10.768   5.042  1.00  0.00    -0.273 OA
ATOM     46  N   UNL     1       4.037   9.035   3.604  1.00  0.00    -0.341 N 
ATOM     47  H   UNL     1       3.442   8.655   2.872  1.00  0.00     0.164 HD
BRANCH  46  48
ATOM     48  C   UNL     1       5.324   8.375   3.836  1.00  0.00     0.196 C 
BRANCH  48  49
ATOM     49  C   UNL     1       5.211   6.851   3.659  1.00  0.00     0.072 C 
BRANCH  49  50
ATOM     50  C   UNL     1       5.870   6.084   4.783  1.00  0.00    -0.045 A 
ATOM     51  C   UNL     1       7.244   6.236   5.022  1.00  0.00     0.007 A 
ATOM     52  C   UNL     1       5.132   5.203   5.584  1.00  0.00     0.007 A 
ATOM     53  C   UNL     1       7.865   5.524   6.048  1.00  0.00     0.046 A 
ATOM     54  C   UNL     1       5.755   4.489   6.611  1.00  0.00     0.046 A 
ATOM     55  C   UNL     1       7.117   4.657   6.834  1.00  0.00     0.115 A 
BRANCH  55  56
ATOM     56  O   UNL     1       7.762   3.978   7.825  1.00  0.00    -0.508 OA
ATOM     57  H   UNL     1       8.180   4.624   8.417  1.00  0.00     0.293 HD
ENDBRANCH  55  56
ENDBRANCH  49  50
ENDBRANCH  48  49
BRANCH  48  58
ATOM     58  C   UNL     1       6.357   8.933   2.848  1.00  0.00     0.326 C 
ATOM     59  O   UNL     1       7.564   9.015   3.008  1.00  0.00    -0.250 OA
BRANCH  58  60
ATOM     60  O   UNL     1       5.815   9.356   1.679  1.00  0.00    -0.480 OA
ATOM     61  H   UNL     1       4.856   9.412   1.882  1.00  0.00     0.296 HD
ENDBRANCH  58  60
ENDBRANCH  48  58
ENDBRANCH  46  48
ENDBRANCH  34  44
ENDBRANCH  32  34
ENDBRANCH  25  30
ENDBRANCH  23  25
ENDBRANCH   2  23
TORSDOF 28
ENDMDL
MODEL 10
REMARK VINA RESULT:    -7.357      3.954      9.761
REMARK INTER + INTRA:         -22.473
REMARK INTER:                 -15.760
REMARK INTRA:                  -6.713
REMARK UNBOUND:                -4.149
REMARK SMILES CCCCCCC[C@H](N)[C@H](O)C(=O)N[C@H](C)C(=O)N(C)[C@H](CC(C)C)C(=O)N[C@@H](Cc1ccc(O)cc1)C(=O)N[C@@H](Cc1ccc(O)cc1)C(=O)O
REMARK SMILES IDX 18 1 17 2 15 3 16 4 14 5 12 6 13 7 10 9 11 10 8 12 9 13 7 16
REMARK SMILES IDX 6 17 5 18 4 19 3 20 2 21 1 22 19 23 20 24 21 25 22 26 23 27
REMARK SMILES IDX 24 28 25 29 26 30 27 31 28 32 29 34 30 35 31 36 32 37 37 38
REMARK SMILES IDX 33 39 36 40 34 41 35 42 38 44 39 45 40 46 41 48 42 49 43 50
REMARK SMILES IDX 44 51 49 52 45 53 48 54 46 55 47 56 50 58 51 59 52 60
REMARK H PARENT 14 8 11 11 9 14 9 15 28 33 35 43 40 47 47 57 52 61
ROOT
ATOM      1  O   UNL     1       2.393  12.481   1.671  1.00  0.00    -0.272 OA
ATOM      2  C   UNL     1       3.253  11.996   0.921  1.00  0.00     0.245 C 
ENDROOT
BRANCH   2   3
ATOM      3  C   UNL     1       3.538  10.476   1.007  1.00  0.00     0.168 C 
ATOM      4  C   UNL     1       4.684  10.193   1.972  1.00  0.00     0.041 C 
BRANCH   3   5
ATOM      5  N   UNL     1       2.374   9.650   1.291  1.00  0.00    -0.342 N 
ATOM      6  C   UNL     1       1.599   9.114   0.284  1.00  0.00     0.251 C 
ATOM      7  O   UNL     1       1.800   9.321  -0.908  1.00  0.00    -0.272 OA
ATOM      8  H   UNL     1       2.088   9.438   2.243  1.00  0.00     0.164 HD
BRANCH   6   9
ATOM      9  C   UNL     1       0.513   8.164   0.813  1.00  0.00     0.219 C 
BRANCH   9  10
ATOM     10  O   UNL     1       1.058   7.015   1.473  1.00  0.00    -0.382 OA
ATOM     11  H   UNL     1       1.468   7.387   2.284  1.00  0.00     0.211 HD
ENDBRANCH   9  10
BRANCH   9  12
ATOM     12  C   UNL     1      -0.531   8.873   1.714  1.00  0.00     0.089 C 
BRANCH  12  13
ATOM     13  N   UNL     1      -1.867   8.717   1.095  1.00  0.00    -0.325 NA
ATOM     14  H   UNL     1      -1.798   8.069   0.308  1.00  0.00     0.119 HD
ATOM     15  H   UNL     1      -2.147   9.609   0.682  1.00  0.00     0.119 HD
ENDBRANCH  12  13
BRANCH  12  16
ATOM     16  C   UNL     1      -0.574   8.416   3.192  1.00  0.00     0.022 C 
BRANCH  16  17
ATOM     17  C   UNL     1      -0.066   9.368   4.284  1.00  0.00     0.002 C 
BRANCH  17  18
ATOM     18  C   UNL     1       1.403   9.766   4.160  1.00  0.00     0.000 C 
BRANCH  18  19
ATOM     19  C   UNL     1       1.782  11.015   4.967  1.00  0.00    -0.000 C 
BRANCH  19  20
ATOM     20  C   UNL     1       0.903  11.290   6.190  1.00  0.00    -0.000 C 
BRANCH  20  21
ATOM     21  C   UNL     1       0.768  12.781   6.509  1.00  0.00    -0.003 C 
ATOM     22  C   UNL     1      -0.008  13.005   7.798  1.00  0.00     0.004 C 
ENDBRANCH  20  21
ENDBRANCH  19  20
ENDBRANCH  18  19
ENDBRANCH  17  18
ENDBRANCH  16  17
ENDBRANCH  12  16
ENDBRANCH   9  12
ENDBRANCH   6   9
ENDBRANCH   3   5
ENDBRANCH   2   3
BRANCH   2  23
ATOM     23  N   UNL     1       3.851  12.786  -0.054  1.00  0.00    -0.332 N 
ATOM     24  C   UNL     1       4.812  13.845   0.216  1.00  0.00     0.147 C 
BRANCH  23  25
ATOM     25  C   UNL     1       3.627  12.497  -1.497  1.00  0.00     0.174 C 
BRANCH  25  26
ATOM     26  C   UNL     1       4.715  13.108  -2.410  1.00  0.00     0.038 C 
BRANCH  26  27
ATOM     27  C   UNL     1       4.571  12.867  -3.930  1.00  0.00    -0.015 C 
ATOM     28  C   UNL     1       4.315  14.159  -4.705  1.00  0.00     0.007 C 
ATOM     29  C   UNL     1       5.743  12.099  -4.536  1.00  0.00     0.007 C 
ENDBRANCH  26  27
ENDBRANCH  25  26
BRANCH  25  30
ATOM     30  C   UNL     1       2.186  12.888  -1.900  1.00  0.00     0.243 C 
ATOM     31  O   UNL     1       1.854  14.060  -2.072  1.00  0.00    -0.273 OA
ATOM     32  N   UNL     1       1.308  11.845  -2.047  1.00  0.00    -0.342 N 
ATOM     33  H   UNL     1       1.691  10.897  -2.027  1.00  0.00     0.164 HD
BRANCH  32  34
ATOM     34  C   UNL     1      -0.103  12.029  -2.398  1.00  0.00     0.175 C 
BRANCH  34  35
ATOM     35  C   UNL     1      -0.487  11.190  -3.627  1.00  0.00     0.070 C 
BRANCH  35  36
ATOM     36  C   UNL     1       0.685  10.932  -4.548  1.00  0.00    -0.045 A 
ATOM     37  C   UNL     1       1.440   9.757  -4.411  1.00  0.00     0.007 A 
ATOM     38  C   UNL     1       1.046  11.864  -5.529  1.00  0.00     0.007 A 
ATOM     39  C   UNL     1       2.530   9.517  -5.247  1.00  0.00     0.046 A 
ATOM     40  C   UNL     1       2.139  11.625  -6.366  1.00  0.00     0.046 A 
ATOM     41  C   UNL     1       2.871  10.451  -6.217  1.00  0.00     0.115 A 
BRANCH  41  42
ATOM     42  O   UNL     1       3.946  10.180  -7.011  1.00  0.00    -0.508 OA
ATOM     43  H   UNL     1       4.658  10.799  -6.782  1.00  0.00     0.293 HD
ENDBRANCH  41  42
ENDBRANCH  35  36
ENDBRANCH  34  35
BRANCH  34  44
ATOM     44  C   UNL     1      -0.956  11.665  -1.162  1.00  0.00     0.243 C 
ATOM     45  O   UNL     1      -1.745  10.726  -1.115  1.00  0.00    -0.273 OA
ATOM     46  N   UNL     1      -0.851  12.579  -0.135  1.00  0.00    -0.341 N 
ATOM     47  H   UNL     1      -0.272  13.405  -0.266  1.00  0.00     0.164 HD
BRANCH  46  48
ATOM     48  C   UNL     1      -1.615  12.483   1.111  1.00  0.00     0.196 C 
BRANCH  48  49
ATOM     49  C   UNL     1      -0.841  13.092   2.292  1.00  0.00     0.072 C 
BRANCH  49  50
ATOM     50  C   UNL     1      -1.639  13.084   3.576  1.00  0.00    -0.045 A 
ATOM     51  C   UNL     1      -1.962  14.295   4.205  1.00  0.00     0.007 A 
ATOM     52  C   UNL     1      -2.045  11.880   4.165  1.00  0.00     0.007 A 
ATOM     53  C   UNL     1      -2.686  14.300   5.398  1.00  0.00     0.046 A 
ATOM     54  C   UNL     1      -2.769  11.885   5.360  1.00  0.00     0.046 A 
ATOM     55  C   UNL     1      -3.084  13.096   5.965  1.00  0.00     0.115 A 
BRANCH  55  56
ATOM     56  O   UNL     1      -3.788  13.144   7.132  1.00  0.00    -0.508 OA
ATOM     57  H   UNL     1      -4.505  12.491   7.084  1.00  0.00     0.293 HD
ENDBRANCH  55  56
ENDBRANCH  49  50
ENDBRANCH  48  49
BRANCH  48  58
ATOM     58  C   UNL     1      -2.950  13.221   0.935  1.00  0.00     0.326 C 
ATOM     59  O   UNL     1      -4.072  12.749   1.024  1.00  0.00    -0.250 OA
BRANCH  58  60
ATOM     60  O   UNL     1      -2.807  14.543   0.667  1.00  0.00    -0.480 OA
ATOM     61  H   UNL     1      -2.090  14.561  -0.004  1.00  0.00     0.296 HD
ENDBRANCH  58  60
ENDBRANCH  48  58
ENDBRANCH  46  48
ENDBRANCH  34  44
ENDBRANCH  32  34
ENDBRANCH  25  30
ENDBRANCH  23  25
ENDBRANCH   2  23
TORSDOF 28
ENDMDL
MODEL 11
REMARK VINA RESULT:    -7.292     12.633     17.672
REMARK INTER + INTRA:         -22.311
REMARK INTER:                 -17.718
REMARK INTRA:                  -4.592
REMARK UNBOUND:                -4.149
REMARK SMILES CCCCCCC[C@H](N)[C@H](O)C(=O)N[C@H](C)C(=O)N(C)[C@H](CC(C)C)C(=O)N[C@@H](Cc1ccc(O)cc1)C(=O)N[C@@H](Cc1ccc(O)cc1)C(=O)O
REMARK SMILES IDX 18 1 17 2 15 3 16 4 14 5 12 6 13 7 10 9 11 10 8 12 9 13 7 16
REMARK SMILES IDX 6 17 5 18 4 19 3 20 2 21 1 22 19 23 20 24 21 25 22 26 23 27
REMARK SMILES IDX 24 28 25 29 26 30 27 31 28 32 29 34 30 35 31 36 32 37 37 38
REMARK SMILES IDX 33 39 36 40 34 41 35 42 38 44 39 45 40 46 41 48 42 49 43 50
REMARK SMILES IDX 44 51 49 52 45 53 48 54 46 55 47 56 50 58 51 59 52 60
REMARK H PARENT 14 8 11 11 9 14 9 15 28 33 35 43 40 47 47 57 52 61
ROOT
ATOM      1  O   UNL     1       0.799   7.096  11.425  1.00  0.00    -0.272 OA
ATOM      2  C   UNL     1       0.326   5.993  11.734  1.00  0.00     0.245 C 
ENDROOT
BRANCH   2   3
ATOM      3  C   UNL     1      -1.056   5.949  12.433  1.00  0.00     0.168 C 
ATOM      4  C   UNL     1      -2.148   6.472  11.507  1.00  0.00     0.041 C 
BRANCH   3   5
ATOM      5  N   UNL     1      -1.407   4.661  13.012  1.00  0.00    -0.342 N 
ATOM      6  C   UNL     1      -1.852   4.545  14.312  1.00  0.00     0.251 C 
ATOM      7  O   UNL     1      -1.945   5.494  15.082  1.00  0.00    -0.272 OA
ATOM      8  H   UNL     1      -1.337   3.797  12.480  1.00  0.00     0.164 HD
BRANCH   6   9
ATOM      9  C   UNL     1      -2.298   3.116  14.661  1.00  0.00     0.219 C 
BRANCH   9  10
ATOM     10  O   UNL     1      -2.671   2.974  16.038  1.00  0.00    -0.382 OA
ATOM     11  H   UNL     1      -2.760   2.003  16.154  1.00  0.00     0.211 HD
ENDBRANCH   9  10
BRANCH   9  12
ATOM     12  C   UNL     1      -3.419   2.583  13.730  1.00  0.00     0.089 C 
BRANCH  12  13
ATOM     13  N   UNL     1      -4.252   3.729  13.298  1.00  0.00    -0.325 NA
ATOM     14  H   UNL     1      -4.630   4.199  14.123  1.00  0.00     0.119 HD
ATOM     15  H   UNL     1      -5.068   3.373  12.796  1.00  0.00     0.119 HD
ENDBRANCH  12  13
BRANCH  12  16
ATOM     16  C   UNL     1      -2.948   1.773  12.498  1.00  0.00     0.022 C 
BRANCH  16  17
ATOM     17  C   UNL     1      -3.671   0.467  12.142  1.00  0.00     0.002 C 
BRANCH  17  18
ATOM     18  C   UNL     1      -3.506   0.013  10.694  1.00  0.00     0.000 C 
BRANCH  18  19
ATOM     19  C   UNL     1      -2.718  -1.294  10.535  1.00  0.00    -0.000 C 
BRANCH  19  20
ATOM     20  C   UNL     1      -2.019  -1.790  11.804  1.00  0.00    -0.000 C 
BRANCH  20  21
ATOM     21  C   UNL     1      -0.492  -1.747  11.703  1.00  0.00    -0.003 C 
ATOM     22  C   UNL     1       0.033  -0.325  11.825  1.00  0.00     0.004 C 
ENDBRANCH  20  21
ENDBRANCH  19  20
ENDBRANCH  18  19
ENDBRANCH  17  18
ENDBRANCH  16  17
ENDBRANCH  12  16
ENDBRANCH   9  12
ENDBRANCH   6   9
ENDBRANCH   3   5
ENDBRANCH   2   3
BRANCH   2  23
ATOM     23  N   UNL     1       0.974   4.825  11.346  1.00  0.00    -0.332 N 
ATOM     24  C   UNL     1       1.889   4.069  12.188  1.00  0.00     0.147 C 
BRANCH  23  25
ATOM     25  C   UNL     1       0.655   4.188  10.039  1.00  0.00     0.174 C 
BRANCH  25  26
ATOM     26  C   UNL     1      -0.157   2.880  10.187  1.00  0.00     0.038 C 
BRANCH  26  27
ATOM     27  C   UNL     1      -1.319   2.661   9.193  1.00  0.00    -0.015 C 
ATOM     28  C   UNL     1      -1.631   3.913   8.373  1.00  0.00     0.007 C 
ATOM     29  C   UNL     1      -1.115   1.456   8.277  1.00  0.00     0.007 C 
ENDBRANCH  26  27
ENDBRANCH  25  26
BRANCH  25  30
ATOM     30  C   UNL     1       1.943   4.028   9.198  1.00  0.00     0.243 C 
ATOM     31  O   UNL     1       2.250   2.957   8.677  1.00  0.00    -0.273 OA
ATOM     32  N   UNL     1       2.716   5.154   9.077  1.00  0.00    -0.342 N 
ATOM     33  H   UNL     1       2.325   6.036   9.416  1.00  0.00     0.164 HD
BRANCH  32  34
ATOM     34  C   UNL     1       3.983   5.181   8.341  1.00  0.00     0.175 C 
BRANCH  34  35
ATOM     35  C   UNL     1       4.327   6.603   7.873  1.00  0.00     0.070 C 
BRANCH  35  36
ATOM     36  C   UNL     1       5.338   6.621   6.749  1.00  0.00    -0.045 A 
ATOM     37  C   UNL     1       5.351   5.587   5.800  1.00  0.00     0.007 A 
ATOM     38  C   UNL     1       6.285   7.649   6.649  1.00  0.00     0.007 A 
ATOM     39  C   UNL     1       6.288   5.587   4.767  1.00  0.00     0.046 A 
ATOM     40  C   UNL     1       7.225   7.649   5.616  1.00  0.00     0.046 A 
ATOM     41  C   UNL     1       7.217   6.618   4.683  1.00  0.00     0.115 A 
BRANCH  41  42
ATOM     42  O   UNL     1       8.118   6.579   3.660  1.00  0.00    -0.508 OA
ATOM     43  H   UNL     1       7.742   6.041   2.943  1.00  0.00     0.293 HD
ENDBRANCH  41  42
ENDBRANCH  35  36
ENDBRANCH  34  35
BRANCH  34  44
ATOM     44  C   UNL     1       5.081   4.592   9.255  1.00  0.00     0.243 C 
ATOM     45  O   UNL     1       5.630   5.207  10.164  1.00  0.00    -0.273 OA
ATOM     46  N   UNL     1       5.494   3.332   8.874  1.00  0.00    -0.341 N 
ATOM     47  H   UNL     1       5.091   2.911   8.041  1.00  0.00     0.164 HD
BRANCH  46  48
ATOM     48  C   UNL     1       6.570   2.600   9.546  1.00  0.00     0.196 C 
BRANCH  48  49
ATOM     49  C   UNL     1       6.435   1.083   9.330  1.00  0.00     0.072 C 
BRANCH  49  50
ATOM     50  C   UNL     1       6.518   0.302  10.621  1.00  0.00    -0.045 A 
ATOM     51  C   UNL     1       6.917  -1.043  10.600  1.00  0.00     0.007 A 
ATOM     52  C   UNL     1       6.181   0.894  11.845  1.00  0.00     0.007 A 
ATOM     53  C   UNL     1       6.985  -1.778  11.784  1.00  0.00     0.046 A 
ATOM     54  C   UNL     1       6.248   0.157  13.030  1.00  0.00     0.046 A 
ATOM     55  C   UNL     1       6.651  -1.173  12.989  1.00  0.00     0.115 A 
BRANCH  55  56
ATOM     56  O   UNL     1       6.728  -1.926  14.123  1.00  0.00    -0.508 OA
ATOM     57  H   UNL     1       5.941  -2.492  14.169  1.00  0.00     0.293 HD
ENDBRANCH  55  56
ENDBRANCH  49  50
ENDBRANCH  48  49
BRANCH  48  58
ATOM     58  C   UNL     1       7.920   3.080   8.997  1.00  0.00     0.326 C 
ATOM     59  O   UNL     1       8.997   3.071   9.571  1.00  0.00    -0.250 OA
BRANCH  58  60
ATOM     60  O   UNL     1       7.852   3.545   7.724  1.00  0.00    -0.480 OA
ATOM     61  H   UNL     1       8.766   3.416   7.388  1.00  0.00     0.296 HD
ENDBRANCH  58  60
ENDBRANCH  48  58
ENDBRANCH  46  48
ENDBRANCH  34  44
ENDBRANCH  32  34
ENDBRANCH  25  30
ENDBRANCH  23  25
ENDBRANCH   2  23
TORSDOF 28
ENDMDL
MODEL 12
REMARK VINA RESULT:    -7.271      2.405     11.370
REMARK INTER + INTRA:         -22.259
REMARK INTER:                 -17.806
REMARK INTRA:                  -4.452
REMARK UNBOUND:                -4.149
REMARK SMILES CCCCCCC[C@H](N)[C@H](O)C(=O)N[C@H](C)C(=O)N(C)[C@H](CC(C)C)C(=O)N[C@@H](Cc1ccc(O)cc1)C(=O)N[C@@H](Cc1ccc(O)cc1)C(=O)O
REMARK SMILES IDX 18 1 17 2 15 3 16 4 14 5 12 6 13 7 10 9 11 10 8 12 9 13 7 16
REMARK SMILES IDX 6 17 5 18 4 19 3 20 2 21 1 22 19 23 20 24 21 25 22 26 23 27
REMARK SMILES IDX 24 28 25 29 26 30 27 31 28 32 29 34 30 35 31 36 32 37 37 38
REMARK SMILES IDX 33 39 36 40 34 41 35 42 38 44 39 45 40 46 41 48 42 49 43 50
REMARK SMILES IDX 44 51 49 52 45 53 48 54 46 55 47 56 50 58 51 59 52 60
REMARK H PARENT 14 8 11 11 9 14 9 15 28 33 35 43 40 47 47 57 52 61
ROOT
ATOM      1  O   UNL     1       2.957  12.506  -3.194  1.00  0.00    -0.272 OA
ATOM      2  C   UNL     1       3.550  12.283  -4.260  1.00  0.00     0.245 C 
ENDROOT
BRANCH   2   3
ATOM      3  C   UNL     1       4.930  12.948  -4.493  1.00  0.00     0.168 C 
ATOM      4  C   UNL     1       5.908  12.568  -3.387  1.00  0.00     0.041 C 
BRANCH   3   5
ATOM      5  N   UNL     1       5.496  12.733  -5.816  1.00  0.00    -0.342 N 
ATOM      6  C   UNL     1       6.085  13.755  -6.530  1.00  0.00     0.251 C 
ATOM      7  O   UNL     1       6.139  14.914  -6.133  1.00  0.00    -0.272 OA
ATOM      8  H   UNL     1       5.479  11.821  -6.264  1.00  0.00     0.164 HD
BRANCH   6   9
ATOM      9  C   UNL     1       6.739  13.269  -7.834  1.00  0.00     0.219 C 
BRANCH   9  10
ATOM     10  O   UNL     1       7.748  12.277  -7.609  1.00  0.00    -0.382 OA
ATOM     11  H   UNL     1       7.816  12.234  -6.630  1.00  0.00     0.211 HD
ENDBRANCH   9  10
BRANCH   9  12
ATOM     12  C   UNL     1       5.710  12.778  -8.885  1.00  0.00     0.089 C 
BRANCH  12  13
ATOM     13  N   UNL     1       5.682  13.751 -10.002  1.00  0.00    -0.325 NA
ATOM     14  H   UNL     1       6.059  14.644  -9.678  1.00  0.00     0.119 HD
ATOM     15  H   UNL     1       4.709  13.946 -10.247  1.00  0.00     0.119 HD
ENDBRANCH  12  13
BRANCH  12  16
ATOM     16  C   UNL     1       5.929  11.347  -9.432  1.00  0.00     0.022 C 
BRANCH  16  17
ATOM     17  C   UNL     1       4.759  10.354  -9.415  1.00  0.00     0.002 C 
BRANCH  17  18
ATOM     18  C   UNL     1       5.141   8.904  -9.703  1.00  0.00     0.000 C 
BRANCH  18  19
ATOM     19  C   UNL     1       4.021   7.894  -9.417  1.00  0.00    -0.000 C 
BRANCH  19  20
ATOM     20  C   UNL     1       4.399   6.426  -9.631  1.00  0.00    -0.000 C 
BRANCH  20  21
ATOM     21  C   UNL     1       5.797   6.248 -10.228  1.00  0.00    -0.003 C 
ATOM     22  C   UNL     1       6.872   6.321  -9.155  1.00  0.00     0.004 C 
ENDBRANCH  20  21
ENDBRANCH  19  20
ENDBRANCH  18  19
ENDBRANCH  17  18
ENDBRANCH  16  17
ENDBRANCH  12  16
ENDBRANCH   9  12
ENDBRANCH   6   9
ENDBRANCH   3   5
ENDBRANCH   2   3
BRANCH   2  23
ATOM     23  N   UNL     1       3.036  11.359  -5.163  1.00  0.00    -0.332 N 
ATOM     24  C   UNL     1       2.646  11.669  -6.530  1.00  0.00     0.147 C 
BRANCH  23  25
ATOM     25  C   UNL     1       2.970   9.916  -4.804  1.00  0.00     0.174 C 
BRANCH  25  26
ATOM     26  C   UNL     1       3.610   8.999  -5.873  1.00  0.00     0.038 C 
BRANCH  26  27
ATOM     27  C   UNL     1       5.007   8.422  -5.554  1.00  0.00    -0.015 C 
ATOM     28  C   UNL     1       5.131   6.947  -5.936  1.00  0.00     0.007 C 
ATOM     29  C   UNL     1       6.152   9.232  -6.157  1.00  0.00     0.007 C 
ENDBRANCH  26  27
ENDBRANCH  25  26
BRANCH  25  30
ATOM     30  C   UNL     1       1.519   9.524  -4.438  1.00  0.00     0.243 C 
ATOM     31  O   UNL     1       0.831   8.818  -5.174  1.00  0.00    -0.273 OA
ATOM     32  N   UNL     1       1.053  10.020  -3.248  1.00  0.00    -0.342 N 
ATOM     33  H   UNL     1       1.727  10.478  -2.629  1.00  0.00     0.164 HD
BRANCH  32  34
ATOM     34  C   UNL     1      -0.304   9.775  -2.754  1.00  0.00     0.175 C 
BRANCH  34  35
ATOM     35  C   UNL     1      -0.450   8.346  -2.207  1.00  0.00     0.070 C 
BRANCH  35  36
ATOM     36  C   UNL     1      -0.366   8.286  -0.698  1.00  0.00    -0.045 A 
ATOM     37  C   UNL     1       0.886   8.268  -0.065  1.00  0.00     0.007 A 
ATOM     38  C   UNL     1      -1.526   8.225   0.085  1.00  0.00     0.007 A 
ATOM     39  C   UNL     1       0.974   8.199   1.325  1.00  0.00     0.046 A 
ATOM     40  C   UNL     1      -1.439   8.154   1.477  1.00  0.00     0.046 A 
ATOM     41  C   UNL     1      -0.188   8.144   2.085  1.00  0.00     0.115 A 
BRANCH  41  42
ATOM     42  O   UNL     1      -0.058   8.074   3.441  1.00  0.00    -0.508 OA
ATOM     43  H   UNL     1       0.827   8.396   3.679  1.00  0.00     0.293 HD
ENDBRANCH  41  42
ENDBRANCH  35  36
ENDBRANCH  34  35
BRANCH  34  44
ATOM     44  C   UNL     1      -0.623  10.839  -1.680  1.00  0.00     0.243 C 
ATOM     45  O   UNL     1      -1.756  11.200  -1.375  1.00  0.00    -0.273 OA
ATOM     46  N   UNL     1       0.499  11.459  -1.172  1.00  0.00    -0.341 N 
ATOM     47  H   UNL     1       1.413  11.207  -1.541  1.00  0.00     0.164 HD
BRANCH  46  48
ATOM     48  C   UNL     1       0.446  12.547  -0.193  1.00  0.00     0.196 C 
BRANCH  48  49
ATOM     49  C   UNL     1       0.540  12.011   1.246  1.00  0.00     0.072 C 
BRANCH  49  50
ATOM     50  C   UNL     1      -0.684  12.340   2.071  1.00  0.00    -0.045 A 
ATOM     51  C   UNL     1      -0.873  11.724   3.317  1.00  0.00     0.007 A 
ATOM     52  C   UNL     1      -1.649  13.239   1.601  1.00  0.00     0.007 A 
ATOM     53  C   UNL     1      -2.005  12.010   4.081  1.00  0.00     0.046 A 
ATOM     54  C   UNL     1      -2.783  13.524   2.366  1.00  0.00     0.046 A 
ATOM     55  C   UNL     1      -2.950  12.907   3.600  1.00  0.00     0.115 A 
BRANCH  55  56
ATOM     56  O   UNL     1      -4.043  13.158   4.377  1.00  0.00    -0.508 OA
ATOM     57  H   UNL     1      -4.433  12.309   4.638  1.00  0.00     0.293 HD
ENDBRANCH  55  56
ENDBRANCH  49  50
ENDBRANCH  48  49
BRANCH  48  58
ATOM     58  C   UNL     1       1.606  13.515  -0.458  1.00  0.00     0.326 C 
ATOM     59  O   UNL     1       1.534  14.658  -0.880  1.00  0.00    -0.250 OA
BRANCH  58  60
ATOM     60  O   UNL     1       2.824  12.996  -0.160  1.00  0.00    -0.480 OA
ATOM     61  H   UNL     1       2.651  12.031  -0.105  1.00  0.00     0.296 HD
ENDBRANCH  58  60
ENDBRANCH  48  58
ENDBRANCH  46  48
ENDBRANCH  34  44
ENDBRANCH  32  34
ENDBRANCH  25  30
ENDBRANCH  23  25
ENDBRANCH   2  23
TORSDOF 28
ENDMDL
MODEL 13
REMARK VINA RESULT:    -7.266      2.909      9.762
REMARK INTER + INTRA:         -22.246
REMARK INTER:                 -18.311
REMARK INTRA:                  -3.935
REMARK UNBOUND:                -4.149
REMARK SMILES CCCCCCC[C@H](N)[C@H](O)C(=O)N[C@H](C)C(=O)N(C)[C@H](CC(C)C)C(=O)N[C@@H](Cc1ccc(O)cc1)C(=O)N[C@@H](Cc1ccc(O)cc1)C(=O)O
REMARK SMILES IDX 18 1 17 2 15 3 16 4 14 5 12 6 13 7 10 9 11 10 8 12 9 13 7 16
REMARK SMILES IDX 6 17 5 18 4 19 3 20 2 21 1 22 19 23 20 24 21 25 22 26 23 27
REMARK SMILES IDX 24 28 25 29 26 30 27 31 28 32 29 34 30 35 31 36 32 37 37 38
REMARK SMILES IDX 33 39 36 40 34 41 35 42 38 44 39 45 40 46 41 48 42 49 43 50
REMARK SMILES IDX 44 51 49 52 45 53 48 54 46 55 47 56 50 58 51 59 52 60
REMARK H PARENT 14 8 11 11 9 14 9 15 28 33 35 43 40 47 47 57 52 61
ROOT
ATOM      1  O   UNL     1       2.468  10.449  -3.916  1.00  0.00    -0.272 OA
ATOM      2  C   UNL     1       1.353  10.951  -4.121  1.00  0.00     0.245 C 
ENDROOT
BRANCH   2   3
ATOM      3  C   UNL     1       1.195  11.951  -5.293  1.00  0.00     0.168 C 
ATOM      4  C   UNL     1       1.785  13.310  -4.930  1.00  0.00     0.041 C 
BRANCH   3   5
ATOM      5  N   UNL     1       1.687  11.472  -6.576  1.00  0.00    -0.342 N 
ATOM      6  C   UNL     1       2.993  11.667  -6.974  1.00  0.00     0.251 C 
ATOM      7  O   UNL     1       3.817  12.286  -6.309  1.00  0.00    -0.272 OA
ATOM      8  H   UNL     1       1.086  10.975  -7.229  1.00  0.00     0.164 HD
BRANCH   6   9
ATOM      9  C   UNL     1       3.324  10.955  -8.295  1.00  0.00     0.219 C 
BRANCH   9  10
ATOM     10  O   UNL     1       4.028  11.797  -9.216  1.00  0.00    -0.382 OA
ATOM     11  H   UNL     1       4.848  11.293  -9.410  1.00  0.00     0.211 HD
ENDBRANCH   9  10
BRANCH   9  12
ATOM     12  C   UNL     1       4.076   9.613  -8.091  1.00  0.00     0.089 C 
BRANCH  12  13
ATOM     13  N   UNL     1       3.579   8.984  -6.846  1.00  0.00    -0.325 NA
ATOM     14  H   UNL     1       3.179   8.070  -7.068  1.00  0.00     0.119 HD
ATOM     15  H   UNL     1       2.798   9.536  -6.485  1.00  0.00     0.119 HD
ENDBRANCH  12  13
BRANCH  12  16
ATOM     16  C   UNL     1       3.996   8.607  -9.264  1.00  0.00     0.022 C 
BRANCH  16  17
ATOM     17  C   UNL     1       4.264   7.120  -8.992  1.00  0.00     0.002 C 
BRANCH  17  18
ATOM     18  C   UNL     1       5.655   6.632  -9.391  1.00  0.00     0.000 C 
BRANCH  18  19
ATOM     19  C   UNL     1       6.680   6.666  -8.250  1.00  0.00    -0.000 C 
BRANCH  19  20
ATOM     20  C   UNL     1       6.118   6.353  -6.861  1.00  0.00    -0.000 C 
BRANCH  20  21
ATOM     21  C   UNL     1       6.484   7.408  -5.814  1.00  0.00    -0.003 C 
ATOM     22  C   UNL     1       7.271   8.553  -6.432  1.00  0.00     0.004 C 
ENDBRANCH  20  21
ENDBRANCH  19  20
ENDBRANCH  18  19
ENDBRANCH  17  18
ENDBRANCH  16  17
ENDBRANCH  12  16
ENDBRANCH   9  12
ENDBRANCH   6   9
ENDBRANCH   3   5
ENDBRANCH   2   3
BRANCH   2  23
ATOM     23  N   UNL     1       0.252  10.525  -3.386  1.00  0.00    -0.332 N 
ATOM     24  C   UNL     1      -0.809   9.676  -3.906  1.00  0.00     0.147 C 
BRANCH  23  25
ATOM     25  C   UNL     1       0.161  10.822  -1.930  1.00  0.00     0.174 C 
BRANCH  25  26
ATOM     26  C   UNL     1      -0.457  12.209  -1.636  1.00  0.00     0.038 C 
BRANCH  26  27
ATOM     27  C   UNL     1      -1.076  12.418  -0.236  1.00  0.00    -0.015 C 
ATOM     28  C   UNL     1      -0.339  13.481   0.577  1.00  0.00     0.007 C 
ATOM     29  C   UNL     1      -2.574  12.712  -0.273  1.00  0.00     0.007 C 
ENDBRANCH  26  27
ENDBRANCH  25  26
BRANCH  25  30
ATOM     30  C   UNL     1       1.532  10.596  -1.253  1.00  0.00     0.243 C 
ATOM     31  O   UNL     1       1.933   9.472  -0.957  1.00  0.00    -0.273 OA
ATOM     32  N   UNL     1       2.263  11.728  -1.002  1.00  0.00    -0.342 N 
ATOM     33  H   UNL     1       1.928  12.608  -1.404  1.00  0.00     0.164 HD
BRANCH  32  34
ATOM     34  C   UNL     1       3.572  11.708  -0.343  1.00  0.00     0.175 C 
BRANCH  34  35
ATOM     35  C   UNL     1       4.347  13.010  -0.599  1.00  0.00     0.070 C 
BRANCH  35  36
ATOM     36  C   UNL     1       5.493  12.828  -1.567  1.00  0.00    -0.045 A 
ATOM     37  C   UNL     1       5.261  12.890  -2.950  1.00  0.00     0.007 A 
ATOM     38  C   UNL     1       6.791  12.573  -1.106  1.00  0.00     0.007 A 
ATOM     39  C   UNL     1       6.310  12.710  -3.852  1.00  0.00     0.046 A 
ATOM     40  C   UNL     1       7.842  12.391  -2.008  1.00  0.00     0.046 A 
ATOM     41  C   UNL     1       7.591  12.463  -3.374  1.00  0.00     0.115 A 
BRANCH  41  42
ATOM     42  O   UNL     1       8.588  12.289  -4.289  1.00  0.00    -0.508 OA
ATOM     43  H   UNL     1       8.546  11.375  -4.615  1.00  0.00     0.293 HD
ENDBRANCH  41  42
ENDBRANCH  35  36
ENDBRANCH  34  35
BRANCH  34  44
ATOM     44  C   UNL     1       3.345  11.457   1.165  1.00  0.00     0.243 C 
ATOM     45  O   UNL     1       3.116  12.339   1.988  1.00  0.00    -0.273 OA
ATOM     46  N   UNL     1       3.554  10.147   1.541  1.00  0.00    -0.341 N 
ATOM     47  H   UNL     1       3.857   9.475   0.841  1.00  0.00     0.164 HD
BRANCH  46  48
ATOM     48  C   UNL     1       3.464   9.683   2.927  1.00  0.00     0.196 C 
BRANCH  48  49
ATOM     49  C   UNL     1       2.478   8.510   3.062  1.00  0.00     0.072 C 
BRANCH  49  50
ATOM     50  C   UNL     1       1.044   8.926   2.825  1.00  0.00    -0.045 A 
ATOM     51  C   UNL     1       0.234   8.178   1.958  1.00  0.00     0.007 A 
ATOM     52  C   UNL     1       0.512  10.064   3.444  1.00  0.00     0.007 A 
ATOM     53  C   UNL     1      -1.087   8.560   1.721  1.00  0.00     0.046 A 
ATOM     54  C   UNL     1      -0.810  10.447   3.206  1.00  0.00     0.046 A 
ATOM     55  C   UNL     1      -1.599   9.690   2.347  1.00  0.00     0.115 A 
BRANCH  55  56
ATOM     56  O   UNL     1      -2.894  10.030   2.087  1.00  0.00    -0.508 OA
ATOM     57  H   UNL     1      -3.072   9.862   1.148  1.00  0.00     0.293 HD
ENDBRANCH  55  56
ENDBRANCH  49  50
ENDBRANCH  48  49
BRANCH  48  58
ATOM     58  C   UNL     1       4.857   9.240   3.396  1.00  0.00     0.326 C 
ATOM     59  O   UNL     1       5.239   9.099   4.546  1.00  0.00    -0.250 OA
BRANCH  58  60
ATOM     60  O   UNL     1       5.714   8.978   2.377  1.00  0.00    -0.480 OA
ATOM     61  H   UNL     1       6.392   8.403   2.794  1.00  0.00     0.296 HD
ENDBRANCH  58  60
ENDBRANCH  48  58
ENDBRANCH  46  48
ENDBRANCH  34  44
ENDBRANCH  32  34
ENDBRANCH  25  30
ENDBRANCH  23  25
ENDBRANCH   2  23
TORSDOF 28
ENDMDL
MODEL 14
REMARK VINA RESULT:    -7.243      3.416     11.038
REMARK INTER + INTRA:         -22.188
REMARK INTER:                 -17.214
REMARK INTRA:                  -4.974
REMARK UNBOUND:                -4.149
REMARK SMILES CCCCCCC[C@H](N)[C@H](O)C(=O)N[C@H](C)C(=O)N(C)[C@H](CC(C)C)C(=O)N[C@@H](Cc1ccc(O)cc1)C(=O)N[C@@H](Cc1ccc(O)cc1)C(=O)O
REMARK SMILES IDX 18 1 17 2 15 3 16 4 14 5 12 6 13 7 10 9 11 10 8 12 9 13 7 16
REMARK SMILES IDX 6 17 5 18 4 19 3 20 2 21 1 22 19 23 20 24 21 25 22 26 23 27
REMARK SMILES IDX 24 28 25 29 26 30 27 31 28 32 29 34 30 35 31 36 32 37 37 38
REMARK SMILES IDX 33 39 36 40 34 41 35 42 38 44 39 45 40 46 41 48 42 49 43 50
REMARK SMILES IDX 44 51 49 52 45 53 48 54 46 55 47 56 50 58 51 59 52 60
REMARK H PARENT 14 8 11 11 9 14 9 15 28 33 35 43 40 47 47 57 52 61
ROOT
ATOM      1  O   UNL     1       1.629  14.138  -0.867  1.00  0.00    -0.272 OA
ATOM      2  C   UNL     1       2.319  13.303  -1.470  1.00  0.00     0.245 C 
ENDROOT
BRANCH   2   3
ATOM      3  C   UNL     1       1.980  12.990  -2.949  1.00  0.00     0.168 C 
ATOM      4  C   UNL     1       2.571  14.047  -3.875  1.00  0.00     0.041 C 
BRANCH   3   5
ATOM      5  N   UNL     1       2.316  11.642  -3.381  1.00  0.00    -0.342 N 
ATOM      6  C   UNL     1       1.738  11.069  -4.494  1.00  0.00     0.251 C 
ATOM      7  O   UNL     1       0.880  11.624  -5.172  1.00  0.00    -0.272 OA
ATOM      8  H   UNL     1       2.990  11.070  -2.877  1.00  0.00     0.164 HD
BRANCH   6   9
ATOM      9  C   UNL     1       2.346   9.701  -4.842  1.00  0.00     0.219 C 
BRANCH   9  10
ATOM     10  O   UNL     1       1.353   8.684  -5.021  1.00  0.00    -0.382 OA
ATOM     11  H   UNL     1       1.541   8.333  -5.919  1.00  0.00     0.211 HD
ENDBRANCH   9  10
BRANCH   9  12
ATOM     12  C   UNL     1       3.307   9.753  -6.059  1.00  0.00     0.089 C 
BRANCH  12  13
ATOM     13  N   UNL     1       2.763  10.717  -7.042  1.00  0.00    -0.325 NA
ATOM     14  H   UNL     1       2.731  10.275  -7.963  1.00  0.00     0.119 HD
ATOM     15  H   UNL     1       3.420  11.494  -7.142  1.00  0.00     0.119 HD
ENDBRANCH  12  13
BRANCH  12  16
ATOM     16  C   UNL     1       4.783  10.091  -5.743  1.00  0.00     0.022 C 
BRANCH  16  17
ATOM     17  C   UNL     1       5.887   9.136  -6.219  1.00  0.00     0.002 C 
BRANCH  17  18
ATOM     18  C   UNL     1       5.768   7.705  -5.700  1.00  0.00     0.000 C 
BRANCH  18  19
ATOM     19  C   UNL     1       6.114   6.632  -6.742  1.00  0.00    -0.000 C 
BRANCH  19  20
ATOM     20  C   UNL     1       5.695   6.961  -8.177  1.00  0.00    -0.000 C 
BRANCH  20  21
ATOM     21  C   UNL     1       4.220   6.657  -8.456  1.00  0.00    -0.003 C 
ATOM     22  C   UNL     1       4.056   5.799  -9.701  1.00  0.00     0.004 C 
ENDBRANCH  20  21
ENDBRANCH  19  20
ENDBRANCH  18  19
ENDBRANCH  17  18
ENDBRANCH  16  17
ENDBRANCH  12  16
ENDBRANCH   9  12
ENDBRANCH   6   9
ENDBRANCH   3   5
ENDBRANCH   2   3
BRANCH   2  23
ATOM     23  N   UNL     1       3.444  12.759  -0.859  1.00  0.00    -0.332 N 
ATOM     24  C   UNL     1       4.812  12.975  -1.306  1.00  0.00     0.147 C 
BRANCH  23  25
ATOM     25  C   UNL     1       3.314  11.997   0.413  1.00  0.00     0.174 C 
BRANCH  25  26
ATOM     26  C   UNL     1       4.644  11.900   1.196  1.00  0.00     0.038 C 
BRANCH  26  27
ATOM     27  C   UNL     1       5.067  10.498   1.689  1.00  0.00    -0.015 C 
ATOM     28  C   UNL     1       6.516  10.167   1.335  1.00  0.00     0.007 C 
ATOM     29  C   UNL     1       4.813  10.276   3.178  1.00  0.00     0.007 C 
ENDBRANCH  26  27
ENDBRANCH  25  26
BRANCH  25  30
ATOM     30  C   UNL     1       2.649  10.627   0.147  1.00  0.00     0.243 C 
ATOM     31  O   UNL     1       2.812  10.020  -0.911  1.00  0.00    -0.273 OA
ATOM     32  N   UNL     1       1.864  10.141   1.161  1.00  0.00    -0.342 N 
ATOM     33  H   UNL     1       1.892  10.633   2.058  1.00  0.00     0.164 HD
BRANCH  32  34
ATOM     34  C   UNL     1       1.136   8.873   1.074  1.00  0.00     0.175 C 
BRANCH  34  35
ATOM     35  C   UNL     1       0.957   8.235   2.460  1.00  0.00     0.070 C 
BRANCH  35  36
ATOM     36  C   UNL     1       0.311   9.172   3.456  1.00  0.00    -0.045 A 
ATOM     37  C   UNL     1      -1.054   9.047   3.754  1.00  0.00     0.007 A 
ATOM     38  C   UNL     1       1.055  10.186   4.075  1.00  0.00     0.007 A 
ATOM     39  C   UNL     1      -1.661   9.916   4.661  1.00  0.00     0.046 A 
ATOM     40  C   UNL     1       0.447  11.057   4.982  1.00  0.00     0.046 A 
ATOM     41  C   UNL     1      -0.907  10.912   5.269  1.00  0.00     0.115 A 
BRANCH  41  42
ATOM     42  O   UNL     1      -1.538  11.742   6.147  1.00  0.00    -0.508 OA
ATOM     43  H   UNL     1      -2.441  11.410   6.284  1.00  0.00     0.293 HD
ENDBRANCH  41  42
ENDBRANCH  35  36
ENDBRANCH  34  35
BRANCH  34  44
ATOM     44  C   UNL     1      -0.220   9.146   0.384  1.00  0.00     0.243 C 
ATOM     45  O   UNL     1      -1.139   8.334   0.314  1.00  0.00    -0.273 OA
ATOM     46  N   UNL     1      -0.267  10.358  -0.272  1.00  0.00    -0.341 N 
ATOM     47  H   UNL     1       0.562  10.946  -0.284  1.00  0.00     0.164 HD
BRANCH  46  48
ATOM     48  C   UNL     1      -1.423  10.806  -1.053  1.00  0.00     0.196 C 
BRANCH  48  49
ATOM     49  C   UNL     1      -1.629  12.325  -0.925  1.00  0.00     0.072 C 
BRANCH  49  50
ATOM     50  C   UNL     1      -2.058  12.739   0.464  1.00  0.00    -0.045 A 
ATOM     51  C   UNL     1      -1.092  13.097   1.416  1.00  0.00     0.007 A 
ATOM     52  C   UNL     1      -3.411  12.750   0.828  1.00  0.00     0.007 A 
ATOM     53  C   UNL     1      -1.475  13.468   2.705  1.00  0.00     0.046 A 
ATOM     54  C   UNL     1      -3.794  13.120   2.119  1.00  0.00     0.046 A 
ATOM     55  C   UNL     1      -2.821  13.477   3.047  1.00  0.00     0.115 A 
BRANCH  55  56
ATOM     56  O   UNL     1      -3.153  13.844   4.318  1.00  0.00    -0.508 OA
ATOM     57  H   UNL     1      -3.083  13.063   4.889  1.00  0.00     0.293 HD
ENDBRANCH  55  56
ENDBRANCH  49  50
ENDBRANCH  48  49
BRANCH  48  58
ATOM     58  C   UNL     1      -1.202  10.439  -2.527  1.00  0.00     0.326 C 
ATOM     59  O   UNL     1      -0.890   9.349  -2.979  1.00  0.00    -0.250 OA
BRANCH  58  60
ATOM     60  O   UNL     1      -1.402  11.476  -3.379  1.00  0.00    -0.480 OA
ATOM     61  H   UNL     1      -0.548  11.542  -3.859  1.00  0.00     0.296 HD
ENDBRANCH  58  60
ENDBRANCH  48  58
ENDBRANCH  46  48
ENDBRANCH  34  44
ENDBRANCH  32  34
ENDBRANCH  25  30
ENDBRANCH  23  25
ENDBRANCH   2  23
TORSDOF 28
ENDMDL
MODEL 15
REMARK VINA RESULT:    -7.239      2.624     11.047
REMARK INTER + INTRA:         -22.180
REMARK INTER:                 -16.933
REMARK INTRA:                  -5.247
REMARK UNBOUND:                -4.149
REMARK SMILES CCCCCCC[C@H](N)[C@H](O)C(=O)N[C@H](C)C(=O)N(C)[C@H](CC(C)C)C(=O)N[C@@H](Cc1ccc(O)cc1)C(=O)N[C@@H](Cc1ccc(O)cc1)C(=O)O
REMARK SMILES IDX 18 1 17 2 15 3 16 4 14 5 12 6 13 7 10 9 11 10 8 12 9 13 7 16
REMARK SMILES IDX 6 17 5 18 4 19 3 20 2 21 1 22 19 23 20 24 21 25 22 26 23 27
REMARK SMILES IDX 24 28 25 29 26 30 27 31 28 32 29 34 30 35 31 36 32 37 37 38
REMARK SMILES IDX 33 39 36 40 34 41 35 42 38 44 39 45 40 46 41 48 42 49 43 50
REMARK SMILES IDX 44 51 49 52 45 53 48 54 46 55 47 56 50 58 51 59 52 60
REMARK H PARENT 14 8 11 11 9 14 9 15 28 33 35 43 40 47 47 57 52 61
ROOT
ATOM      1  O   UNL     1       4.399  12.708  -2.538  1.00  0.00    -0.272 OA
ATOM      2  C   UNL     1       3.277  12.196  -2.412  1.00  0.00     0.245 C 
ENDROOT
BRANCH   2   3
ATOM      3  C   UNL     1       2.475  11.844  -3.690  1.00  0.00     0.168 C 
ATOM      4  C   UNL     1       1.768  13.078  -4.242  1.00  0.00     0.041 C 
BRANCH   3   5
ATOM      5  N   UNL     1       3.235  11.150  -4.717  1.00  0.00    -0.342 N 
ATOM      6  C   UNL     1       2.734  10.045  -5.372  1.00  0.00     0.251 C 
ATOM      7  O   UNL     1       1.644   9.543  -5.116  1.00  0.00    -0.272 OA
ATOM      8  H   UNL     1       4.167  11.452  -4.991  1.00  0.00     0.164 HD
BRANCH   6   9
ATOM      9  C   UNL     1       3.647   9.564  -6.512  1.00  0.00     0.219 C 
BRANCH   9  10
ATOM     10  O   UNL     1       3.602   8.144  -6.693  1.00  0.00    -0.382 OA
ATOM     11  H   UNL     1       4.285   7.810  -6.071  1.00  0.00     0.211 HD
ENDBRANCH   9  10
BRANCH   9  12
ATOM     12  C   UNL     1       3.386  10.299  -7.852  1.00  0.00     0.089 C 
BRANCH  12  13
ATOM     13  N   UNL     1       2.183  11.148  -7.694  1.00  0.00    -0.325 NA
ATOM     14  H   UNL     1       2.215  11.908  -8.375  1.00  0.00     0.119 HD
ATOM     15  H   UNL     1       2.219  11.607  -6.780  1.00  0.00     0.119 HD
ENDBRANCH  12  13
BRANCH  12  16
ATOM     16  C   UNL     1       4.561  11.142  -8.403  1.00  0.00     0.022 C 
BRANCH  16  17
ATOM     17  C   UNL     1       5.920  11.083  -7.692  1.00  0.00     0.002 C 
BRANCH  17  18
ATOM     18  C   UNL     1       7.014  10.337  -8.452  1.00  0.00     0.000 C 
BRANCH  18  19
ATOM     19  C   UNL     1       7.799   9.335  -7.595  1.00  0.00    -0.000 C 
BRANCH  19  20
ATOM     20  C   UNL     1       7.042   8.053  -7.237  1.00  0.00    -0.000 C 
BRANCH  20  21
ATOM     21  C   UNL     1       7.213   6.945  -8.279  1.00  0.00    -0.003 C 
ATOM     22  C   UNL     1       5.872   6.508  -8.849  1.00  0.00     0.004 C 
ENDBRANCH  20  21
ENDBRANCH  19  20
ENDBRANCH  18  19
ENDBRANCH  17  18
ENDBRANCH  16  17
ENDBRANCH  12  16
ENDBRANCH   9  12
ENDBRANCH   6   9
ENDBRANCH   3   5
ENDBRANCH   2   3
BRANCH   2  23
ATOM     23  N   UNL     1       2.814  11.837  -1.151  1.00  0.00    -0.332 N 
ATOM     24  C   UNL     1       2.487  10.477  -0.747  1.00  0.00     0.147 C 
BRANCH  23  25
ATOM     25  C   UNL     1       2.744  12.848  -0.061  1.00  0.00     0.174 C 
BRANCH  25  26
ATOM     26  C   UNL     1       3.179  12.284   1.313  1.00  0.00     0.038 C 
BRANCH  26  27
ATOM     27  C   UNL     1       4.688  12.325   1.640  1.00  0.00    -0.015 C 
ATOM     28  C   UNL     1       4.963  12.790   3.070  1.00  0.00     0.007 C 
ATOM     29  C   UNL     1       5.407  11.009   1.356  1.00  0.00     0.007 C 
ENDBRANCH  26  27
ENDBRANCH  25  26
BRANCH  25  30
ATOM     30  C   UNL     1       1.351  13.518  -0.045  1.00  0.00     0.243 C 
ATOM     31  O   UNL     1       1.119  14.551  -0.671  1.00  0.00    -0.273 OA
ATOM     32  N   UNL     1       0.399  12.889   0.716  1.00  0.00    -0.342 N 
ATOM     33  H   UNL     1       0.626  11.964   1.089  1.00  0.00     0.164 HD
BRANCH  32  34
ATOM     34  C   UNL     1      -0.968  13.396   0.870  1.00  0.00     0.175 C 
BRANCH  34  35
ATOM     35  C   UNL     1      -1.874  12.913  -0.273  1.00  0.00     0.070 C 
BRANCH  35  36
ATOM     36  C   UNL     1      -1.444  11.577  -0.837  1.00  0.00    -0.045 A 
ATOM     37  C   UNL     1      -1.079  11.471  -2.187  1.00  0.00     0.007 A 
ATOM     38  C   UNL     1      -1.425  10.430  -0.033  1.00  0.00     0.007 A 
ATOM     39  C   UNL     1      -0.693  10.240  -2.720  1.00  0.00     0.046 A 
ATOM     40  C   UNL     1      -1.040   9.197  -0.566  1.00  0.00     0.046 A 
ATOM     41  C   UNL     1      -0.676   9.114  -1.906  1.00  0.00     0.115 A 
BRANCH  41  42
ATOM     42  O   UNL     1      -0.296   7.931  -2.466  1.00  0.00    -0.508 OA
ATOM     43  H   UNL     1       0.338   7.500  -1.868  1.00  0.00     0.293 HD
ENDBRANCH  41  42
ENDBRANCH  35  36
ENDBRANCH  34  35
BRANCH  34  44
ATOM     44  C   UNL     1      -1.492  12.946   2.252  1.00  0.00     0.243 C 
ATOM     45  O   UNL     1      -2.628  13.160   2.666  1.00  0.00    -0.273 OA
ATOM     46  N   UNL     1      -0.519  12.386   3.052  1.00  0.00    -0.341 N 
ATOM     47  H   UNL     1       0.437  12.337   2.707  1.00  0.00     0.164 HD
BRANCH  46  48
ATOM     48  C   UNL     1      -0.761  11.947   4.429  1.00  0.00     0.196 C 
BRANCH  48  49
ATOM     49  C   UNL     1       0.361  11.022   4.927  1.00  0.00     0.072 C 
BRANCH  49  50
ATOM     50  C   UNL     1       0.629   9.871   3.984  1.00  0.00    -0.045 A 
ATOM     51  C   UNL     1       1.900   9.717   3.412  1.00  0.00     0.007 A 
ATOM     52  C   UNL     1      -0.383   8.961   3.651  1.00  0.00     0.007 A 
ATOM     53  C   UNL     1       2.155   8.667   2.530  1.00  0.00     0.046 A 
ATOM     54  C   UNL     1      -0.128   7.911   2.767  1.00  0.00     0.046 A 
ATOM     55  C   UNL     1       1.141   7.772   2.214  1.00  0.00     0.115 A 
BRANCH  55  56
ATOM     56  O   UNL     1       1.430   6.761   1.347  1.00  0.00    -0.508 OA
ATOM     57  H   UNL     1       2.352   6.859   1.060  1.00  0.00     0.293 HD
ENDBRANCH  55  56
ENDBRANCH  49  50
ENDBRANCH  48  49
BRANCH  48  58
ATOM     58  C   UNL     1      -0.853  13.181   5.337  1.00  0.00     0.326 C 
ATOM     59  O   UNL     1       0.071  13.847   5.775  1.00  0.00    -0.250 OA
BRANCH  58  60
ATOM     60  O   UNL     1      -2.127  13.533   5.645  1.00  0.00    -0.480 OA
ATOM     61  H   UNL     1      -2.532  13.706   4.768  1.00  0.00     0.296 HD
ENDBRANCH  58  60
ENDBRANCH  48  58
ENDBRANCH  46  48
ENDBRANCH  34  44
ENDBRANCH  32  34
ENDBRANCH  25  30
ENDBRANCH  23  25
ENDBRANCH   2  23
TORSDOF 28
ENDMDL
MODEL 16
REMARK VINA RESULT:    -7.220      5.255     11.274
REMARK INTER + INTRA:         -22.131
REMARK INTER:                 -16.917
REMARK INTRA:                  -5.214
REMARK UNBOUND:                -4.149
REMARK SMILES CCCCCCC[C@H](N)[C@H](O)C(=O)N[C@H](C)C(=O)N(C)[C@H](CC(C)C)C(=O)N[C@@H](Cc1ccc(O)cc1)C(=O)N[C@@H](Cc1ccc(O)cc1)C(=O)O
REMARK SMILES IDX 18 1 17 2 15 3 16 4 14 5 12 6 13 7 10 9 11 10 8 12 9 13 7 16
REMARK SMILES IDX 6 17 5 18 4 19 3 20 2 21 1 22 19 23 20 24 21 25 22 26 23 27
REMARK SMILES IDX 24 28 25 29 26 30 27 31 28 32 29 34 30 35 31 36 32 37 37 38
REMARK SMILES IDX 33 39 36 40 34 41 35 42 38 44 39 45 40 46 41 48 42 49 43 50
REMARK SMILES IDX 44 51 49 52 45 53 48 54 46 55 47 56 50 58 51 59 52 60
REMARK H PARENT 14 8 11 11 9 14 9 15 28 33 35 43 40 47 47 57 52 61
ROOT
ATOM      1  O   UNL     1       2.392  13.293   0.471  1.00  0.00    -0.272 OA
ATOM      2  C   UNL     1       3.387  12.655   0.094  1.00  0.00     0.245 C 
ENDROOT
BRANCH   2   3
ATOM      3  C   UNL     1       3.213  11.616  -1.041  1.00  0.00     0.168 C 
ATOM      4  C   UNL     1       2.514  10.362  -0.525  1.00  0.00     0.041 C 
BRANCH   3   5
ATOM      5  N   UNL     1       2.585  12.129  -2.248  1.00  0.00    -0.342 N 
ATOM      6  C   UNL     1       3.289  12.861  -3.181  1.00  0.00     0.251 C 
ATOM      7  O   UNL     1       4.469  13.168  -3.049  1.00  0.00    -0.272 OA
ATOM      8  H   UNL     1       1.601  11.967  -2.451  1.00  0.00     0.164 HD
BRANCH   6   9
ATOM      9  C   UNL     1       2.462  13.174  -4.438  1.00  0.00     0.219 C 
BRANCH   9  10
ATOM     10  O   UNL     1       2.875  14.385  -5.083  1.00  0.00    -0.382 OA
ATOM     11  H   UNL     1       3.515  14.078  -5.762  1.00  0.00     0.211 HD
ENDBRANCH   9  10
BRANCH   9  12
ATOM     12  C   UNL     1       2.421  11.998  -5.449  1.00  0.00     0.089 C 
BRANCH  12  13
ATOM     13  N   UNL     1       3.591  11.125  -5.198  1.00  0.00    -0.325 NA
ATOM     14  H   UNL     1       3.451  10.232  -5.673  1.00  0.00     0.119 HD
ATOM     15  H   UNL     1       3.625  10.896  -4.202  1.00  0.00     0.119 HD
ENDBRANCH  12  13
BRANCH  12  16
ATOM     16  C   UNL     1       1.122  11.157  -5.457  1.00  0.00     0.022 C 
BRANCH  16  17
ATOM     17  C   UNL     1      -0.054  11.590  -4.572  1.00  0.00     0.002 C 
BRANCH  17  18
ATOM     18  C   UNL     1      -0.919  10.448  -4.045  1.00  0.00     0.000 C 
BRANCH  18  19
ATOM     19  C   UNL     1      -0.333   9.735  -2.819  1.00  0.00    -0.000 C 
BRANCH  19  20
ATOM     20  C   UNL     1      -1.278   9.622  -1.619  1.00  0.00    -0.000 C 
BRANCH  20  21
ATOM     21  C   UNL     1      -1.249   8.240  -0.961  1.00  0.00    -0.003 C 
ATOM     22  C   UNL     1       0.166   7.688  -0.891  1.00  0.00     0.004 C 
ENDBRANCH  20  21
ENDBRANCH  19  20
ENDBRANCH  18  19
ENDBRANCH  17  18
ENDBRANCH  16  17
ENDBRANCH  12  16
ENDBRANCH   9  12
ENDBRANCH   6   9
ENDBRANCH   3   5
ENDBRANCH   2   3
BRANCH   2  23
ATOM     23  N   UNL     1       4.644  12.963   0.602  1.00  0.00    -0.332 N 
ATOM     24  C   UNL     1       5.352  14.211   0.354  1.00  0.00     0.147 C 
BRANCH  23  25
ATOM     25  C   UNL     1       5.309  12.048   1.569  1.00  0.00     0.174 C 
BRANCH  25  26
ATOM     26  C   UNL     1       6.093  10.907   0.878  1.00  0.00     0.038 C 
BRANCH  26  27
ATOM     27  C   UNL     1       7.633  10.943   0.997  1.00  0.00    -0.015 C 
ATOM     28  C   UNL     1       8.232   9.559   1.245  1.00  0.00     0.007 C 
ATOM     29  C   UNL     1       8.318  11.621  -0.187  1.00  0.00     0.007 C 
ENDBRANCH  26  27
ENDBRANCH  25  26
BRANCH  25  30
ATOM     30  C   UNL     1       4.289  11.553   2.620  1.00  0.00     0.243 C 
ATOM     31  O   UNL     1       3.726  12.326   3.394  1.00  0.00    -0.273 OA
ATOM     32  N   UNL     1       4.062  10.200   2.635  1.00  0.00    -0.342 N 
ATOM     33  H   UNL     1       4.458   9.645   1.873  1.00  0.00     0.164 HD
BRANCH  32  34
ATOM     34  C   UNL     1       3.149   9.551   3.580  1.00  0.00     0.175 C 
BRANCH  34  35
ATOM     35  C   UNL     1       2.230   8.546   2.869  1.00  0.00     0.070 C 
BRANCH  35  36
ATOM     36  C   UNL     1       0.825   9.072   2.679  1.00  0.00    -0.045 A 
ATOM     37  C   UNL     1      -0.270   8.200   2.778  1.00  0.00     0.007 A 
ATOM     38  C   UNL     1       0.596  10.422   2.381  1.00  0.00     0.007 A 
ATOM     39  C   UNL     1      -1.569   8.673   2.590  1.00  0.00     0.046 A 
ATOM     40  C   UNL     1      -0.704  10.896   2.192  1.00  0.00     0.046 A 
ATOM     41  C   UNL     1      -1.776  10.016   2.300  1.00  0.00     0.115 A 
BRANCH  41  42
ATOM     42  O   UNL     1      -3.060  10.437   2.121  1.00  0.00    -0.508 OA
ATOM     43  H   UNL     1      -3.068  11.408   2.142  1.00  0.00     0.293 HD
ENDBRANCH  41  42
ENDBRANCH  35  36
ENDBRANCH  34  35
BRANCH  34  44
ATOM     44  C   UNL     1       3.999   8.878   4.681  1.00  0.00     0.243 C 
ATOM     45  O   UNL     1       3.976   9.195   5.867  1.00  0.00    -0.273 OA
ATOM     46  N   UNL     1       4.901   7.957   4.191  1.00  0.00    -0.341 N 
ATOM     47  H   UNL     1       4.964   7.813   3.186  1.00  0.00     0.164 HD
BRANCH  46  48
ATOM     48  C   UNL     1       5.860   7.241   5.035  1.00  0.00     0.196 C 
BRANCH  48  49
ATOM     49  C   UNL     1       5.635   5.721   4.972  1.00  0.00     0.072 C 
BRANCH  49  50
ATOM     50  C   UNL     1       5.024   5.170   6.241  1.00  0.00    -0.045 A 
ATOM     51  C   UNL     1       4.627   6.045   7.263  1.00  0.00     0.007 A 
ATOM     52  C   UNL     1       4.865   3.790   6.425  1.00  0.00     0.007 A 
ATOM     53  C   UNL     1       4.074   5.548   8.443  1.00  0.00     0.046 A 
ATOM     54  C   UNL     1       4.313   3.292   7.607  1.00  0.00     0.046 A 
ATOM     55  C   UNL     1       3.921   4.176   8.606  1.00  0.00     0.115 A 
BRANCH  55  56
ATOM     56  O   UNL     1       3.379   3.731   9.775  1.00  0.00    -0.508 OA
ATOM     57  H   UNL     1       4.034   3.849  10.481  1.00  0.00     0.293 HD
ENDBRANCH  55  56
ENDBRANCH  49  50
ENDBRANCH  48  49
BRANCH  48  58
ATOM     58  C   UNL     1       7.283   7.570   4.565  1.00  0.00     0.326 C 
ATOM     59  O   UNL     1       7.920   8.586   4.792  1.00  0.00    -0.250 OA
BRANCH  58  60
ATOM     60  O   UNL     1       7.853   6.582   3.830  1.00  0.00    -0.480 OA
ATOM     61  H   UNL     1       7.537   5.763   4.269  1.00  0.00     0.296 HD
ENDBRANCH  58  60
ENDBRANCH  48  58
ENDBRANCH  46  48
ENDBRANCH  34  44
ENDBRANCH  32  34
ENDBRANCH  25  30
ENDBRANCH  23  25
ENDBRANCH   2  23
TORSDOF 28
ENDMDL
MODEL 17
REMARK VINA RESULT:    -7.217      6.243     10.595
REMARK INTER + INTRA:         -22.124
REMARK INTER:                 -18.127
REMARK INTRA:                  -3.996
REMARK UNBOUND:                -4.149
REMARK SMILES CCCCCCC[C@H](N)[C@H](O)C(=O)N[C@H](C)C(=O)N(C)[C@H](CC(C)C)C(=O)N[C@@H](Cc1ccc(O)cc1)C(=O)N[C@@H](Cc1ccc(O)cc1)C(=O)O
REMARK SMILES IDX 18 1 17 2 15 3 16 4 14 5 12 6 13 7 10 9 11 10 8 12 9 13 7 16
REMARK SMILES IDX 6 17 5 18 4 19 3 20 2 21 1 22 19 23 20 24 21 25 22 26 23 27
REMARK SMILES IDX 24 28 25 29 26 30 27 31 28 32 29 34 30 35 31 36 32 37 37 38
REMARK SMILES IDX 33 39 36 40 34 41 35 42 38 44 39 45 40 46 41 48 42 49 43 50
REMARK SMILES IDX 44 51 49 52 45 53 48 54 46 55 47 56 50 58 51 59 52 60
REMARK H PARENT 14 8 11 11 9 14 9 15 28 33 35 43 40 47 47 57 52 61
ROOT
ATOM      1  O   UNL     1       5.762  10.539   4.039  1.00  0.00    -0.272 OA
ATOM      2  C   UNL     1       5.372   9.696   3.217  1.00  0.00     0.245 C 
ENDROOT
BRANCH   2   3
ATOM      3  C   UNL     1       6.342   8.563   2.802  1.00  0.00     0.168 C 
ATOM      4  C   UNL     1       7.582   9.133   2.122  1.00  0.00     0.041 C 
BRANCH   3   5
ATOM      5  N   UNL     1       6.687   7.633   3.866  1.00  0.00    -0.342 N 
ATOM      6  C   UNL     1       5.992   6.457   4.059  1.00  0.00     0.251 C 
ATOM      7  O   UNL     1       5.019   6.129   3.388  1.00  0.00    -0.272 OA
ATOM      8  H   UNL     1       7.454   7.814   4.509  1.00  0.00     0.164 HD
BRANCH   6   9
ATOM      9  C   UNL     1       6.619   5.568   5.145  1.00  0.00     0.219 C 
BRANCH   9  10
ATOM     10  O   UNL     1       7.943   5.983   5.503  1.00  0.00    -0.382 OA
ATOM     11  H   UNL     1       8.469   5.156   5.438  1.00  0.00     0.211 HD
ENDBRANCH   9  10
BRANCH   9  12
ATOM     12  C   UNL     1       5.727   5.426   6.406  1.00  0.00     0.089 C 
BRANCH  12  13
ATOM     13  N   UNL     1       4.793   6.574   6.449  1.00  0.00    -0.325 NA
ATOM     14  H   UNL     1       4.286   6.562   7.336  1.00  0.00     0.119 HD
ATOM     15  H   UNL     1       4.076   6.445   5.731  1.00  0.00     0.119 HD
ENDBRANCH  12  13
BRANCH  12  16
ATOM     16  C   UNL     1       4.943   4.098   6.535  1.00  0.00     0.022 C 
BRANCH  16  17
ATOM     17  C   UNL     1       3.753   4.024   7.502  1.00  0.00     0.002 C 
BRANCH  17  18
ATOM     18  C   UNL     1       3.228   2.616   7.771  1.00  0.00     0.000 C 
BRANCH  18  19
ATOM     19  C   UNL     1       2.004   2.572   8.695  1.00  0.00    -0.000 C 
BRANCH  19  20
ATOM     20  C   UNL     1       0.649   2.603   7.982  1.00  0.00    -0.000 C 
BRANCH  20  21
ATOM     21  C   UNL     1      -0.368   3.521   8.666  1.00  0.00    -0.003 C 
ATOM     22  C   UNL     1      -1.686   3.550   7.908  1.00  0.00     0.004 C 
ENDBRANCH  20  21
ENDBRANCH  19  20
ENDBRANCH  18  19
ENDBRANCH  17  18
ENDBRANCH  16  17
ENDBRANCH  12  16
ENDBRANCH   9  12
ENDBRANCH   6   9
ENDBRANCH   3   5
ENDBRANCH   2   3
BRANCH   2  23
ATOM     23  N   UNL     1       4.051   9.708   2.781  1.00  0.00    -0.332 N 
ATOM     24  C   UNL     1       2.978   8.926   3.377  1.00  0.00     0.147 C 
BRANCH  23  25
ATOM     25  C   UNL     1       3.620  10.657   1.718  1.00  0.00     0.174 C 
BRANCH  25  26
ATOM     26  C   UNL     1       4.798  11.450   1.104  1.00  0.00     0.038 C 
BRANCH  26  27
ATOM     27  C   UNL     1       4.782  12.983   1.291  1.00  0.00    -0.015 C 
ATOM     28  C   UNL     1       5.924  13.476   2.179  1.00  0.00     0.007 C 
ATOM     29  C   UNL     1       4.755  13.755  -0.026  1.00  0.00     0.007 C 
ENDBRANCH  26  27
ENDBRANCH  25  26
BRANCH  25  30
ATOM     30  C   UNL     1       2.472  11.552   2.237  1.00  0.00     0.243 C 
ATOM     31  O   UNL     1       2.455  11.986   3.388  1.00  0.00    -0.273 OA
ATOM     32  N   UNL     1       1.476  11.823   1.334  1.00  0.00    -0.342 N 
ATOM     33  H   UNL     1       1.631  11.547   0.361  1.00  0.00     0.164 HD
BRANCH  32  34
ATOM     34  C   UNL     1       0.297  12.631   1.659  1.00  0.00     0.175 C 
BRANCH  34  35
ATOM     35  C   UNL     1      -0.145  13.482   0.459  1.00  0.00     0.070 C 
BRANCH  35  36
ATOM     36  C   UNL     1       0.258  12.877  -0.867  1.00  0.00    -0.045 A 
ATOM     37  C   UNL     1      -0.517  11.854  -1.435  1.00  0.00     0.007 A 
ATOM     38  C   UNL     1       1.413  13.308  -1.533  1.00  0.00     0.007 A 
ATOM     39  C   UNL     1      -0.146  11.280  -2.652  1.00  0.00     0.046 A 
ATOM     40  C   UNL     1       1.785  12.732  -2.750  1.00  0.00     0.046 A 
ATOM     41  C   UNL     1       1.001  11.723  -3.299  1.00  0.00     0.115 A 
BRANCH  41  42
ATOM     42  O   UNL     1       1.330  11.134  -4.484  1.00  0.00    -0.508 OA
ATOM     43  H   UNL     1       1.042  10.207  -4.453  1.00  0.00     0.293 HD
ENDBRANCH  41  42
ENDBRANCH  35  36
ENDBRANCH  34  35
BRANCH  34  44
ATOM     44  C   UNL     1      -0.822  11.677   2.133  1.00  0.00     0.243 C 
ATOM     45  O   UNL     1      -2.019  11.857   1.932  1.00  0.00    -0.273 OA
ATOM     46  N   UNL     1      -0.364  10.649   2.931  1.00  0.00    -0.341 N 
ATOM     47  H   UNL     1       0.624  10.608   3.166  1.00  0.00     0.164 HD
BRANCH  46  48
ATOM     48  C   UNL     1      -1.246   9.659   3.553  1.00  0.00     0.196 C 
BRANCH  48  49
ATOM     49  C   UNL     1      -0.875   8.230   3.123  1.00  0.00     0.072 C 
BRANCH  49  50
ATOM     50  C   UNL     1      -0.633   8.113   1.635  1.00  0.00    -0.045 A 
ATOM     51  C   UNL     1      -1.699   8.284   0.739  1.00  0.00     0.007 A 
ATOM     52  C   UNL     1       0.639   7.815   1.132  1.00  0.00     0.007 A 
ATOM     53  C   UNL     1      -1.491   8.167  -0.635  1.00  0.00     0.046 A 
ATOM     54  C   UNL     1       0.847   7.696  -0.244  1.00  0.00     0.046 A 
ATOM     55  C   UNL     1      -0.221   7.874  -1.116  1.00  0.00     0.115 A 
BRANCH  55  56
ATOM     56  O   UNL     1      -0.060   7.766  -2.466  1.00  0.00    -0.508 OA
ATOM     57  H   UNL     1      -0.017   6.823  -2.694  1.00  0.00     0.293 HD
ENDBRANCH  55  56
ENDBRANCH  49  50
ENDBRANCH  48  49
BRANCH  48  58
ATOM     58  C   UNL     1      -1.137   9.782   5.079  1.00  0.00     0.326 C 
ATOM     59  O   UNL     1      -2.016   9.582   5.901  1.00  0.00    -0.250 OA
BRANCH  58  60
ATOM     60  O   UNL     1       0.099  10.144   5.506  1.00  0.00    -0.480 OA
ATOM     61  H   UNL     1       0.504   9.291   5.774  1.00  0.00     0.296 HD
ENDBRANCH  58  60
ENDBRANCH  48  58
ENDBRANCH  46  48
ENDBRANCH  34  44
ENDBRANCH  32  34
ENDBRANCH  25  30
ENDBRANCH  23  25
ENDBRANCH   2  23
TORSDOF 28
ENDMDL
MODEL 18
REMARK VINA RESULT:    -7.202      1.672      2.279
REMARK INTER + INTRA:         -22.086
REMARK INTER:                 -18.237
REMARK INTRA:                  -3.849
REMARK UNBOUND:                -4.149
REMARK SMILES CCCCCCC[C@H](N)[C@H](O)C(=O)N[C@H](C)C(=O)N(C)[C@H](CC(C)C)C(=O)N[C@@H](Cc1ccc(O)cc1)C(=O)N[C@@H](Cc1ccc(O)cc1)C(=O)O
REMARK SMILES IDX 18 1 17 2 15 3 16 4 14 5 12 6 13 7 10 9 11 10 8 12 9 13 7 16
REMARK SMILES IDX 6 17 5 18 4 19 3 20 2 21 1 22 19 23 20 24 21 25 22 26 23 27
REMARK SMILES IDX 24 28 25 29 26 30 27 31 28 32 29 34 30 35 31 36 32 37 37 38
REMARK SMILES IDX 33 39 36 40 34 41 35 42 38 44 39 45 40 46 41 48 42 49 43 50
REMARK SMILES IDX 44 51 49 52 45 53 48 54 46 55 47 56 50 58 51 59 52 60
REMARK H PARENT 14 8 11 11 9 14 9 15 28 33 35 43 40 47 47 57 52 61
ROOT
ATOM      1  O   UNL     1       0.618  11.835  -3.513  1.00  0.00    -0.272 OA
ATOM      2  C   UNL     1       1.202  12.145  -2.464  1.00  0.00     0.245 C 
ENDROOT
BRANCH   2   3
ATOM      3  C   UNL     1       0.827  11.399  -1.159  1.00  0.00     0.168 C 
ATOM      4  C   UNL     1       2.066  10.803  -0.500  1.00  0.00     0.041 C 
BRANCH   3   5
ATOM      5  N   UNL     1       0.032  12.173  -0.219  1.00  0.00    -0.342 N 
ATOM      6  C   UNL     1      -1.346  12.141  -0.230  1.00  0.00     0.251 C 
ATOM      7  O   UNL     1      -2.001  11.501  -1.047  1.00  0.00    -0.272 OA
ATOM      8  H   UNL     1       0.463  12.769   0.484  1.00  0.00     0.164 HD
BRANCH   6   9
ATOM      9  C   UNL     1      -1.969  12.921   0.939  1.00  0.00     0.219 C 
BRANCH   9  10
ATOM     10  O   UNL     1      -3.040  13.777   0.523  1.00  0.00    -0.382 OA
ATOM     11  H   UNL     1      -2.581  14.590   0.218  1.00  0.00     0.211 HD
ENDBRANCH   9  10
BRANCH   9  12
ATOM     12  C   UNL     1      -2.416  12.008   2.110  1.00  0.00     0.089 C 
BRANCH  12  13
ATOM     13  N   UNL     1      -3.770  11.490   1.809  1.00  0.00    -0.325 NA
ATOM     14  H   UNL     1      -4.466  12.078   2.272  1.00  0.00     0.119 HD
ATOM     15  H   UNL     1      -3.875  10.567   2.236  1.00  0.00     0.119 HD
ENDBRANCH  12  13
BRANCH  12  16
ATOM     16  C   UNL     1      -1.465  10.838   2.459  1.00  0.00     0.022 C 
BRANCH  16  17
ATOM     17  C   UNL     1      -1.999   9.400   2.404  1.00  0.00     0.002 C 
BRANCH  17  18
ATOM     18  C   UNL     1      -1.615   8.618   1.150  1.00  0.00     0.000 C 
BRANCH  18  19
ATOM     19  C   UNL     1      -0.123   8.270   1.063  1.00  0.00    -0.000 C 
BRANCH  19  20
ATOM     20  C   UNL     1       0.516   7.812   2.377  1.00  0.00    -0.000 C 
BRANCH  20  21
ATOM     21  C   UNL     1       1.893   8.434   2.622  1.00  0.00    -0.003 C 
ATOM     22  C   UNL     1       1.875   9.367   3.823  1.00  0.00     0.004 C 
ENDBRANCH  20  21
ENDBRANCH  19  20
ENDBRANCH  18  19
ENDBRANCH  17  18
ENDBRANCH  16  17
ENDBRANCH  12  16
ENDBRANCH   9  12
ENDBRANCH   6   9
ENDBRANCH   3   5
ENDBRANCH   2   3
BRANCH   2  23
ATOM     23  N   UNL     1       2.253  13.056  -2.495  1.00  0.00    -0.332 N 
ATOM     24  C   UNL     1       2.159  14.440  -2.054  1.00  0.00     0.147 C 
BRANCH  23  25
ATOM     25  C   UNL     1       3.620  12.611  -2.879  1.00  0.00     0.174 C 
BRANCH  25  26
ATOM     26  C   UNL     1       4.735  13.471  -2.237  1.00  0.00     0.038 C 
BRANCH  26  27
ATOM     27  C   UNL     1       6.118  12.804  -2.059  1.00  0.00    -0.015 C 
ATOM     28  C   UNL     1       7.247  13.625  -2.682  1.00  0.00     0.007 C 
ATOM     29  C   UNL     1       6.443  12.458  -0.609  1.00  0.00     0.007 C 
ENDBRANCH  26  27
ENDBRANCH  25  26
BRANCH  25  30
ATOM     30  C   UNL     1       3.731  12.497  -4.417  1.00  0.00     0.243 C 
ATOM     31  O   UNL     1       3.253  13.347  -5.167  1.00  0.00    -0.273 OA
ATOM     32  N   UNL     1       4.388  11.388  -4.884  1.00  0.00    -0.342 N 
ATOM     33  H   UNL     1       4.877  10.805  -4.200  1.00  0.00     0.164 HD
BRANCH  32  34
ATOM     34  C   UNL     1       4.563  11.102  -6.310  1.00  0.00     0.175 C 
BRANCH  34  35
ATOM     35  C   UNL     1       6.037  11.227  -6.728  1.00  0.00     0.070 C 
BRANCH  35  36
ATOM     36  C   UNL     1       6.391  12.615  -7.212  1.00  0.00    -0.045 A 
ATOM     37  C   UNL     1       6.852  13.579  -6.303  1.00  0.00     0.007 A 
ATOM     38  C   UNL     1       6.245  12.965  -8.561  1.00  0.00     0.007 A 
ATOM     39  C   UNL     1       7.168  14.867  -6.738  1.00  0.00     0.046 A 
ATOM     40  C   UNL     1       6.560  14.254  -8.998  1.00  0.00     0.046 A 
ATOM     41  C   UNL     1       7.021  15.193  -8.081  1.00  0.00     0.115 A 
BRANCH  41  42
ATOM     42  O   UNL     1       7.338  16.463  -8.465  1.00  0.00    -0.508 OA
ATOM     43  H   UNL     1       8.041  16.412  -9.133  1.00  0.00     0.293 HD
ENDBRANCH  41  42
ENDBRANCH  35  36
ENDBRANCH  34  35
BRANCH  34  44
ATOM     44  C   UNL     1       4.003   9.689  -6.587  1.00  0.00     0.243 C 
ATOM     45  O   UNL     1       2.882   9.310  -6.258  1.00  0.00    -0.273 OA
ATOM     46  N   UNL     1       4.931   8.827  -7.132  1.00  0.00    -0.341 N 
ATOM     47  H   UNL     1       5.883   9.155  -7.279  1.00  0.00     0.164 HD
BRANCH  46  48
ATOM     48  C   UNL     1       4.652   7.418  -7.419  1.00  0.00     0.196 C 
BRANCH  48  49
ATOM     49  C   UNL     1       5.156   7.021  -8.817  1.00  0.00     0.072 C 
BRANCH  49  50
ATOM     50  C   UNL     1       6.585   7.450  -9.064  1.00  0.00    -0.045 A 
ATOM     51  C   UNL     1       7.638   6.566  -8.786  1.00  0.00     0.007 A 
ATOM     52  C   UNL     1       6.879   8.730  -9.550  1.00  0.00     0.007 A 
ATOM     53  C   UNL     1       8.960   6.955  -8.998  1.00  0.00     0.046 A 
ATOM     54  C   UNL     1       8.204   9.120  -9.761  1.00  0.00     0.046 A 
ATOM     55  C   UNL     1       9.234   8.228  -9.484  1.00  0.00     0.115 A 
BRANCH  55  56
ATOM     56  O   UNL     1      10.540   8.569  -9.675  1.00  0.00    -0.508 OA
ATOM     57  H   UNL     1      10.931   8.777  -8.812  1.00  0.00     0.293 HD
ENDBRANCH  55  56
ENDBRANCH  49  50
ENDBRANCH  48  49
BRANCH  48  58
ATOM     58  C   UNL     1       5.339   6.547  -6.358  1.00  0.00     0.326 C 
ATOM     59  O   UNL     1       5.992   6.927  -5.400  1.00  0.00    -0.250 OA
BRANCH  58  60
ATOM     60  O   UNL     1       5.155   5.217  -6.549  1.00  0.00    -0.480 OA
ATOM     61  H   UNL     1       6.071   4.872  -6.635  1.00  0.00     0.296 HD
ENDBRANCH  58  60
ENDBRANCH  48  58
ENDBRANCH  46  48
ENDBRANCH  34  44
ENDBRANCH  32  34
ENDBRANCH  25  30
ENDBRANCH  23  25
ENDBRANCH   2  23
TORSDOF 28
ENDMDL
MODEL 19
REMARK VINA RESULT:    -7.170      1.850      3.347
REMARK INTER + INTRA:         -22.007
REMARK INTER:                 -18.028
REMARK INTRA:                  -3.979
REMARK UNBOUND:                -4.149
REMARK SMILES CCCCCCC[C@H](N)[C@H](O)C(=O)N[C@H](C)C(=O)N(C)[C@H](CC(C)C)C(=O)N[C@@H](Cc1ccc(O)cc1)C(=O)N[C@@H](Cc1ccc(O)cc1)C(=O)O
REMARK SMILES IDX 18 1 17 2 15 3 16 4 14 5 12 6 13 7 10 9 11 10 8 12 9 13 7 16
REMARK SMILES IDX 6 17 5 18 4 19 3 20 2 21 1 22 19 23 20 24 21 25 22 26 23 27
REMARK SMILES IDX 24 28 25 29 26 30 27 31 28 32 29 34 30 35 31 36 32 37 37 38
REMARK SMILES IDX 33 39 36 40 34 41 35 42 38 44 39 45 40 46 41 48 42 49 43 50
REMARK SMILES IDX 44 51 49 52 45 53 48 54 46 55 47 56 50 58 51 59 52 60
REMARK H PARENT 14 8 11 11 9 14 9 15 28 33 35 43 40 47 47 57 52 61
ROOT
ATOM      1  O   UNL     1       1.635   8.913  -3.714  1.00  0.00    -0.272 OA
ATOM      2  C   UNL     1       1.213   9.970  -3.224  1.00  0.00     0.245 C 
ENDROOT
BRANCH   2   3
ATOM      3  C   UNL     1       0.880  10.006  -1.712  1.00  0.00     0.168 C 
ATOM      4  C   UNL     1       2.121   9.710  -0.877  1.00  0.00     0.041 C 
BRANCH   3   5
ATOM      5  N   UNL     1       0.200  11.211  -1.263  1.00  0.00    -0.342 N 
ATOM      6  C   UNL     1      -1.176  11.307  -1.247  1.00  0.00     0.251 C 
ATOM      7  O   UNL     1      -1.921  10.416  -1.642  1.00  0.00    -0.272 OA
ATOM      8  H   UNL     1       0.713  12.029  -0.945  1.00  0.00     0.164 HD
BRANCH   6   9
ATOM      9  C   UNL     1      -1.673  12.611  -0.603  1.00  0.00     0.219 C 
BRANCH   9  10
ATOM     10  O   UNL     1      -3.099  12.742  -0.650  1.00  0.00    -0.382 OA
ATOM     11  H   UNL     1      -3.260  13.215  -1.495  1.00  0.00     0.211 HD
ENDBRANCH   9  10
BRANCH   9  12
ATOM     12  C   UNL     1      -1.148  12.816   0.842  1.00  0.00     0.089 C 
BRANCH  12  13
ATOM     13  N   UNL     1      -1.533  14.173   1.291  1.00  0.00    -0.325 NA
ATOM     14  H   UNL     1      -2.251  14.543   0.665  1.00  0.00     0.119 HD
ATOM     15  H   UNL     1      -0.732  14.800   1.177  1.00  0.00     0.119 HD
ENDBRANCH  12  13
BRANCH  12  16
ATOM     16  C   UNL     1      -1.599  11.764   1.882  1.00  0.00     0.022 C 
BRANCH  16  17
ATOM     17  C   UNL     1      -0.541  11.076   2.756  1.00  0.00     0.002 C 
BRANCH  17  18
ATOM     18  C   UNL     1      -1.093  10.082   3.775  1.00  0.00     0.000 C 
BRANCH  18  19
ATOM     19  C   UNL     1      -0.702   8.624   3.501  1.00  0.00    -0.000 C 
BRANCH  19  20
ATOM     20  C   UNL     1       0.330   8.426   2.386  1.00  0.00    -0.000 C 
BRANCH  20  21
ATOM     21  C   UNL     1      -0.233   7.678   1.174  1.00  0.00    -0.003 C 
ATOM     22  C   UNL     1      -1.698   8.016   0.946  1.00  0.00     0.004 C 
ENDBRANCH  20  21
ENDBRANCH  19  20
ENDBRANCH  18  19
ENDBRANCH  17  18
ENDBRANCH  16  17
ENDBRANCH  12  16
ENDBRANCH   9  12
ENDBRANCH   6   9
ENDBRANCH   3   5
ENDBRANCH   2   3
BRANCH   2  23
ATOM     23  N   UNL     1       1.161  11.124  -3.999  1.00  0.00    -0.332 N 
ATOM     24  C   UNL     1      -0.022  11.592  -4.706  1.00  0.00     0.147 C 
BRANCH  23  25
ATOM     25  C   UNL     1       2.326  12.049  -4.048  1.00  0.00     0.174 C 
BRANCH  25  26
ATOM     26  C   UNL     1       2.035  13.420  -3.395  1.00  0.00     0.038 C 
BRANCH  26  27
ATOM     27  C   UNL     1       2.946  13.845  -2.222  1.00  0.00    -0.015 C 
ATOM     28  C   UNL     1       2.152  14.239  -0.977  1.00  0.00     0.007 C 
ATOM     29  C   UNL     1       4.011  12.808  -1.874  1.00  0.00     0.007 C 
ENDBRANCH  26  27
ENDBRANCH  25  26
BRANCH  25  30
ATOM     30  C   UNL     1       2.864  12.151  -5.494  1.00  0.00     0.243 C 
ATOM     31  O   UNL     1       2.225  12.704  -6.388  1.00  0.00    -0.273 OA
ATOM     32  N   UNL     1       4.092  11.581  -5.712  1.00  0.00    -0.342 N 
ATOM     33  H   UNL     1       4.621  11.267  -4.893  1.00  0.00     0.164 HD
BRANCH  32  34
ATOM     34  C   UNL     1       4.744  11.558  -7.024  1.00  0.00     0.175 C 
BRANCH  34  35
ATOM     35  C   UNL     1       5.898  12.570  -7.092  1.00  0.00     0.070 C 
BRANCH  35  36
ATOM     36  C   UNL     1       6.474  12.892  -5.731  1.00  0.00    -0.045 A 
ATOM     37  C   UNL     1       6.183  14.121  -5.119  1.00  0.00     0.007 A 
ATOM     38  C   UNL     1       7.319  11.987  -5.076  1.00  0.00     0.007 A 
ATOM     39  C   UNL     1       6.721  14.432  -3.870  1.00  0.00     0.046 A 
ATOM     40  C   UNL     1       7.860  12.299  -3.826  1.00  0.00     0.046 A 
ATOM     41  C   UNL     1       7.554  13.520  -3.233  1.00  0.00     0.115 A 
BRANCH  41  42
ATOM     42  O   UNL     1       8.061  13.864  -2.015  1.00  0.00    -0.508 OA
ATOM     43  H   UNL     1       8.273  13.049  -1.532  1.00  0.00     0.293 HD
ENDBRANCH  41  42
ENDBRANCH  35  36
ENDBRANCH  34  35
BRANCH  34  44
ATOM     44  C   UNL     1       5.225  10.115  -7.294  1.00  0.00     0.243 C 
ATOM     45  O   UNL     1       5.036   9.167  -6.537  1.00  0.00    -0.273 OA
ATOM     46  N   UNL     1       6.014  10.001  -8.420  1.00  0.00    -0.341 N 
ATOM     47  H   UNL     1       6.240  10.838  -8.951  1.00  0.00     0.164 HD
BRANCH  46  48
ATOM     48  C   UNL     1       6.641   8.746  -8.841  1.00  0.00     0.196 C 
BRANCH  48  49
ATOM     49  C   UNL     1       6.143   8.310 -10.229  1.00  0.00     0.072 C 
BRANCH  49  50
ATOM     50  C   UNL     1       5.275   7.074 -10.174  1.00  0.00    -0.045 A 
ATOM     51  C   UNL     1       4.220   7.001  -9.253  1.00  0.00     0.007 A 
ATOM     52  C   UNL     1       5.520   5.983 -11.018  1.00  0.00     0.007 A 
ATOM     53  C   UNL     1       3.421   5.860  -9.184  1.00  0.00     0.046 A 
ATOM     54  C   UNL     1       4.721   4.840 -10.948  1.00  0.00     0.046 A 
ATOM     55  C   UNL     1       3.676   4.789 -10.032  1.00  0.00     0.115 A 
BRANCH  55  56
ATOM     56  O   UNL     1       2.873   3.691  -9.931  1.00  0.00    -0.508 OA
ATOM     57  H   UNL     1       2.147   3.784 -10.568  1.00  0.00     0.293 HD
ENDBRANCH  55  56
ENDBRANCH  49  50
ENDBRANCH  48  49
BRANCH  48  58
ATOM     58  C   UNL     1       8.164   8.936  -8.876  1.00  0.00     0.326 C 
ATOM     59  O   UNL     1       8.865   9.105  -9.861  1.00  0.00    -0.250 OA
BRANCH  58  60
ATOM     60  O   UNL     1       8.740   8.918  -7.648  1.00  0.00    -0.480 OA
ATOM     61  H   UNL     1       8.749   9.865  -7.389  1.00  0.00     0.296 HD
ENDBRANCH  58  60
ENDBRANCH  48  58
ENDBRANCH  46  48
ENDBRANCH  34  44
ENDBRANCH  32  34
ENDBRANCH  25  30
ENDBRANCH  23  25
ENDBRANCH   2  23
TORSDOF 28
ENDMDL
MODEL 20
REMARK VINA RESULT:    -7.137      3.181      9.701
REMARK INTER + INTRA:         -21.925
REMARK INTER:                 -16.873
REMARK INTRA:                  -5.052
REMARK UNBOUND:                -4.149
REMARK SMILES CCCCCCC[C@H](N)[C@H](O)C(=O)N[C@H](C)C(=O)N(C)[C@H](CC(C)C)C(=O)N[C@@H](Cc1ccc(O)cc1)C(=O)N[C@@H](Cc1ccc(O)cc1)C(=O)O
REMARK SMILES IDX 18 1 17 2 15 3 16 4 14 5 12 6 13 7 10 9 11 10 8 12 9 13 7 16
REMARK SMILES IDX 6 17 5 18 4 19 3 20 2 21 1 22 19 23 20 24 21 25 22 26 23 27
REMARK SMILES IDX 24 28 25 29 26 30 27 31 28 32 29 34 30 35 31 36 32 37 37 38
REMARK SMILES IDX 33 39 36 40 34 41 35 42 38 44 39 45 40 46 41 48 42 49 43 50
REMARK SMILES IDX 44 51 49 52 45 53 48 54 46 55 47 56 50 58 51 59 52 60
REMARK H PARENT 14 8 11 11 9 14 9 15 28 33 35 43 40 47 47 57 52 61
ROOT
ATOM      1  O   UNL     1       1.741  13.815  -2.196  1.00  0.00    -0.272 OA
ATOM      2  C   UNL     1       1.288  12.896  -2.894  1.00  0.00     0.245 C 
ENDROOT
BRANCH   2   3
ATOM      3  C   UNL     1       1.856  12.700  -4.322  1.00  0.00     0.168 C 
ATOM      4  C   UNL     1       2.537  13.973  -4.814  1.00  0.00     0.041 C 
BRANCH   3   5
ATOM      5  N   UNL     1       2.707  11.532  -4.486  1.00  0.00    -0.342 N 
ATOM      6  C   UNL     1       2.649  10.741  -5.614  1.00  0.00     0.251 C 
ATOM      7  O   UNL     1       1.860  10.931  -6.533  1.00  0.00    -0.272 OA
ATOM      8  H   UNL     1       3.378  11.253  -3.774  1.00  0.00     0.164 HD
BRANCH   6   9
ATOM      9  C   UNL     1       3.734   9.652  -5.633  1.00  0.00     0.219 C 
BRANCH   9  10
ATOM     10  O   UNL     1       3.239   8.386  -6.085  1.00  0.00    -0.382 OA
ATOM     11  H   UNL     1       4.046   7.829  -6.143  1.00  0.00     0.211 HD
ENDBRANCH   9  10
BRANCH   9  12
ATOM     12  C   UNL     1       4.998  10.066  -6.430  1.00  0.00     0.089 C 
BRANCH  12  13
ATOM     13  N   UNL     1       4.954  11.529  -6.651  1.00  0.00    -0.325 NA
ATOM     14  H   UNL     1       5.167  12.008  -5.773  1.00  0.00     0.119 HD
ATOM     15  H   UNL     1       3.994  11.801  -6.876  1.00  0.00     0.119 HD
ENDBRANCH  12  13
BRANCH  12  16
ATOM     16  C   UNL     1       6.356   9.663  -5.806  1.00  0.00     0.022 C 
BRANCH  16  17
ATOM     17  C   UNL     1       7.172   8.537  -6.456  1.00  0.00     0.002 C 
BRANCH  17  18
ATOM     18  C   UNL     1       6.632   7.129  -6.217  1.00  0.00     0.000 C 
BRANCH  18  19
ATOM     19  C   UNL     1       5.883   6.535  -7.418  1.00  0.00    -0.000 C 
BRANCH  19  20
ATOM     20  C   UNL     1       6.647   6.577  -8.745  1.00  0.00    -0.000 C 
BRANCH  20  21
ATOM     21  C   UNL     1       5.968   7.455  -9.799  1.00  0.00    -0.003 C 
ATOM     22  C   UNL     1       4.543   7.804  -9.397  1.00  0.00     0.004 C 
ENDBRANCH  20  21
ENDBRANCH  19  20
ENDBRANCH  18  19
ENDBRANCH  17  18
ENDBRANCH  16  17
ENDBRANCH  12  16
ENDBRANCH   9  12
ENDBRANCH   6   9
ENDBRANCH   3   5
ENDBRANCH   2   3
BRANCH   2  23
ATOM     23  N   UNL     1       0.379  11.994  -2.351  1.00  0.00    -0.332 N 
ATOM     24  C   UNL     1      -0.598  11.240  -3.123  1.00  0.00     0.147 C 
BRANCH  23  25
ATOM     25  C   UNL     1       0.443  11.641  -0.906  1.00  0.00     0.174 C 
BRANCH  25  26
ATOM     26  C   UNL     1      -0.007  12.797   0.016  1.00  0.00     0.038 C 
BRANCH  26  27
ATOM     27  C   UNL     1      -1.340  12.610   0.774  1.00  0.00    -0.015 C 
ATOM     28  C   UNL     1      -1.467  13.547   1.975  1.00  0.00     0.007 C 
ATOM     29  C   UNL     1      -2.570  12.717  -0.124  1.00  0.00     0.007 C 
ENDBRANCH  26  27
ENDBRANCH  25  26
BRANCH  25  30
ATOM     30  C   UNL     1       1.840  11.076  -0.558  1.00  0.00     0.243 C 
ATOM     31  O   UNL     1       2.130   9.896  -0.751  1.00  0.00    -0.273 OA
ATOM     32  N   UNL     1       2.724  11.973  -0.017  1.00  0.00    -0.342 N 
ATOM     33  H   UNL     1       2.458  12.961  -0.019  1.00  0.00     0.164 HD
BRANCH  32  34
ATOM     34  C   UNL     1       4.082  11.609   0.399  1.00  0.00     0.175 C 
BRANCH  34  35
ATOM     35  C   UNL     1       5.048  12.794   0.253  1.00  0.00     0.070 C 
BRANCH  35  36
ATOM     36  C   UNL     1       5.830  12.756  -1.040  1.00  0.00    -0.045 A 
ATOM     37  C   UNL     1       5.197  13.063  -2.254  1.00  0.00     0.007 A 
ATOM     38  C   UNL     1       7.184  12.393  -1.051  1.00  0.00     0.007 A 
ATOM     39  C   UNL     1       5.907  13.016  -3.454  1.00  0.00     0.046 A 
ATOM     40  C   UNL     1       7.895  12.345  -2.252  1.00  0.00     0.046 A 
ATOM     41  C   UNL     1       7.250  12.659  -3.444  1.00  0.00     0.115 A 
BRANCH  41  42
ATOM     42  O   UNL     1       7.907  12.622  -4.638  1.00  0.00    -0.508 OA
ATOM     43  H   UNL     1       7.312  12.234  -5.301  1.00  0.00     0.293 HD
ENDBRANCH  41  42
ENDBRANCH  35  36
ENDBRANCH  34  35
BRANCH  34  44
ATOM     44  C   UNL     1       4.015  11.094   1.854  1.00  0.00     0.243 C 
ATOM     45  O   UNL     1       4.224  11.787   2.846  1.00  0.00    -0.273 OA
ATOM     46  N   UNL     1       3.824   9.731   1.946  1.00  0.00    -0.341 N 
ATOM     47  H   UNL     1       3.773   9.181   1.092  1.00  0.00     0.164 HD
BRANCH  46  48
ATOM     48  C   UNL     1       3.794   9.006   3.218  1.00  0.00     0.196 C 
BRANCH  48  49
ATOM     49  C   UNL     1       2.808   7.827   3.167  1.00  0.00     0.072 C 
BRANCH  49  50
ATOM     50  C   UNL     1       1.415   8.251   2.758  1.00  0.00    -0.045 A 
ATOM     51  C   UNL     1       0.747   9.249   3.483  1.00  0.00     0.007 A 
ATOM     52  C   UNL     1       0.767   7.646   1.674  1.00  0.00     0.007 A 
ATOM     53  C   UNL     1      -0.543   9.639   3.123  1.00  0.00     0.046 A 
ATOM     54  C   UNL     1      -0.525   8.036   1.314  1.00  0.00     0.046 A 
ATOM     55  C   UNL     1      -1.169   9.031   2.042  1.00  0.00     0.115 A 
BRANCH  55  56
ATOM     56  O   UNL     1      -2.430   9.439   1.724  1.00  0.00    -0.508 OA
ATOM     57  H   UNL     1      -2.404  10.389   1.528  1.00  0.00     0.293 HD
ENDBRANCH  55  56
ENDBRANCH  49  50
ENDBRANCH  48  49
BRANCH  48  58
ATOM     58  C   UNL     1       5.204   8.484   3.528  1.00  0.00     0.326 C 
ATOM     59  O   UNL     1       6.046   9.009   4.239  1.00  0.00    -0.250 OA
BRANCH  58  60
ATOM     60  O   UNL     1       5.486   7.299   2.931  1.00  0.00    -0.480 OA
ATOM     61  H   UNL     1       5.309   6.642   3.639  1.00  0.00     0.296 HD
ENDBRANCH  58  60
ENDBRANCH  48  58
ENDBRANCH  46  48
ENDBRANCH  34  44
ENDBRANCH  32  34
ENDBRANCH  25  30
ENDBRANCH  23  25
ENDBRANCH   2  23
TORSDOF 28
ENDMDL
MODEL 21
REMARK VINA RESULT:    -7.133      4.598     10.874
REMARK INTER + INTRA:         -21.915
REMARK INTER:                 -18.846
REMARK INTRA:                  -3.069
REMARK UNBOUND:                -4.149
REMARK SMILES CCCCCCC[C@H](N)[C@H](O)C(=O)N[C@H](C)C(=O)N(C)[C@H](CC(C)C)C(=O)N[C@@H](Cc1ccc(O)cc1)C(=O)N[C@@H](Cc1ccc(O)cc1)C(=O)O
REMARK SMILES IDX 18 1 17 2 15 3 16 4 14 5 12 6 13 7 10 9 11 10 8 12 9 13 7 16
REMARK SMILES IDX 6 17 5 18 4 19 3 20 2 21 1 22 19 23 20 24 21 25 22 26 23 27
REMARK SMILES IDX 24 28 25 29 26 30 27 31 28 32 29 34 30 35 31 36 32 37 37 38
REMARK SMILES IDX 33 39 36 40 34 41 35 42 38 44 39 45 40 46 41 48 42 49 43 50
REMARK SMILES IDX 44 51 49 52 45 53 48 54 46 55 47 56 50 58 51 59 52 60
REMARK H PARENT 14 8 11 11 9 14 9 15 28 33 35 43 40 47 47 57 52 61
ROOT
ATOM      1  O   UNL     1       3.621  12.026  -3.500  1.00  0.00    -0.272 OA
ATOM      2  C   UNL     1       2.384  11.937  -3.497  1.00  0.00     0.245 C 
ENDROOT
BRANCH   2   3
ATOM      3  C   UNL     1       1.655  11.708  -4.844  1.00  0.00     0.168 C 
ATOM      4  C   UNL     1       1.452  13.028  -5.581  1.00  0.00     0.041 C 
BRANCH   3   5
ATOM      5  N   UNL     1       2.256  10.697  -5.700  1.00  0.00    -0.342 N 
ATOM      6  C   UNL     1       3.290  10.994  -6.562  1.00  0.00     0.251 C 
ATOM      7  O   UNL     1       3.750  12.122  -6.704  1.00  0.00    -0.272 OA
ATOM      8  H   UNL     1       1.935   9.732  -5.696  1.00  0.00     0.164 HD
BRANCH   6   9
ATOM      9  C   UNL     1       3.859   9.747  -7.259  1.00  0.00     0.219 C 
BRANCH   9  10
ATOM     10  O   UNL     1       3.434   8.526  -6.641  1.00  0.00    -0.382 OA
ATOM     11  H   UNL     1       2.464   8.514  -6.797  1.00  0.00     0.211 HD
ENDBRANCH   9  10
BRANCH   9  12
ATOM     12  C   UNL     1       3.579   9.720  -8.784  1.00  0.00     0.089 C 
BRANCH  12  13
ATOM     13  N   UNL     1       2.446  10.631  -9.067  1.00  0.00    -0.325 NA
ATOM     14  H   UNL     1       1.649  10.084  -9.396  1.00  0.00     0.119 HD
ATOM     15  H   UNL     1       2.697  11.237  -9.852  1.00  0.00     0.119 HD
ENDBRANCH  12  13
BRANCH  12  16
ATOM     16  C   UNL     1       4.778  10.062  -9.700  1.00  0.00     0.022 C 
BRANCH  16  17
ATOM     17  C   UNL     1       6.159   9.481  -9.371  1.00  0.00     0.002 C 
BRANCH  17  18
ATOM     18  C   UNL     1       6.441   8.106  -9.973  1.00  0.00     0.000 C 
BRANCH  18  19
ATOM     19  C   UNL     1       6.289   6.946  -8.981  1.00  0.00    -0.000 C 
BRANCH  19  20
ATOM     20  C   UNL     1       4.948   6.209  -9.042  1.00  0.00    -0.000 C 
BRANCH  20  21
ATOM     21  C   UNL     1       4.326   6.212 -10.441  1.00  0.00    -0.003 C 
ATOM     22  C   UNL     1       4.535   4.879 -11.143  1.00  0.00     0.004 C 
ENDBRANCH  20  21
ENDBRANCH  19  20
ENDBRANCH  18  19
ENDBRANCH  17  18
ENDBRANCH  16  17
ENDBRANCH  12  16
ENDBRANCH   9  12
ENDBRANCH   6   9
ENDBRANCH   3   5
ENDBRANCH   2   3
BRANCH   2  23
ATOM     23  N   UNL     1       1.691  11.920  -2.291  1.00  0.00    -0.332 N 
ATOM     24  C   UNL     1       0.649  12.869  -1.925  1.00  0.00     0.147 C 
BRANCH  23  25
ATOM     25  C   UNL     1       1.897  10.810  -1.322  1.00  0.00     0.174 C 
BRANCH  25  26
ATOM     26  C   UNL     1       0.583  10.080  -0.955  1.00  0.00     0.038 C 
BRANCH  26  27
ATOM     27  C   UNL     1       0.439   8.617  -1.430  1.00  0.00    -0.015 C 
ATOM     28  C   UNL     1       0.964   7.614  -0.402  1.00  0.00     0.007 C 
ATOM     29  C   UNL     1      -0.980   8.254  -1.857  1.00  0.00     0.007 C 
ENDBRANCH  26  27
ENDBRANCH  25  26
BRANCH  25  30
ATOM     30  C   UNL     1       2.691  11.315  -0.095  1.00  0.00     0.243 C 
ATOM     31  O   UNL     1       3.254  12.408  -0.091  1.00  0.00    -0.273 OA
ATOM     32  N   UNL     1       2.730  10.462   0.978  1.00  0.00    -0.342 N 
ATOM     33  H   UNL     1       2.123   9.639   0.951  1.00  0.00     0.164 HD
BRANCH  32  34
ATOM     34  C   UNL     1       3.457  10.762   2.214  1.00  0.00     0.175 C 
BRANCH  34  35
ATOM     35  C   UNL     1       2.617  10.421   3.454  1.00  0.00     0.070 C 
BRANCH  35  36
ATOM     36  C   UNL     1       1.151  10.231   3.133  1.00  0.00    -0.045 A 
ATOM     37  C   UNL     1       0.329  11.348   2.921  1.00  0.00     0.007 A 
ATOM     38  C   UNL     1       0.590   8.949   3.066  1.00  0.00     0.007 A 
ATOM     39  C   UNL     1      -1.027  11.183   2.638  1.00  0.00     0.046 A 
ATOM     40  C   UNL     1      -0.768   8.783   2.784  1.00  0.00     0.046 A 
ATOM     41  C   UNL     1      -1.564   9.903   2.571  1.00  0.00     0.115 A 
BRANCH  41  42
ATOM     42  O   UNL     1      -2.894   9.786   2.295  1.00  0.00    -0.508 OA
ATOM     43  H   UNL     1      -2.989   9.389   1.413  1.00  0.00     0.293 HD
ENDBRANCH  41  42
ENDBRANCH  35  36
ENDBRANCH  34  35
BRANCH  34  44
ATOM     44  C   UNL     1       4.790   9.981   2.187  1.00  0.00     0.243 C 
ATOM     45  O   UNL     1       5.650  10.106   1.320  1.00  0.00    -0.273 OA
ATOM     46  N   UNL     1       4.881   9.017   3.169  1.00  0.00    -0.341 N 
ATOM     47  H   UNL     1       4.092   8.872   3.793  1.00  0.00     0.164 HD
BRANCH  46  48
ATOM     48  C   UNL     1       6.020   8.106   3.301  1.00  0.00     0.196 C 
BRANCH  48  49
ATOM     49  C   UNL     1       6.995   8.582   4.391  1.00  0.00     0.072 C 
BRANCH  49  50
ATOM     50  C   UNL     1       8.343   8.979   3.834  1.00  0.00    -0.045 A 
ATOM     51  C   UNL     1       8.630   8.764   2.478  1.00  0.00     0.007 A 
ATOM     52  C   UNL     1       9.326   9.542   4.658  1.00  0.00     0.007 A 
ATOM     53  C   UNL     1       9.875   9.113   1.956  1.00  0.00     0.046 A 
ATOM     54  C   UNL     1      10.573   9.891   4.135  1.00  0.00     0.046 A 
ATOM     55  C   UNL     1      10.837   9.675   2.787  1.00  0.00     0.115 A 
BRANCH  55  56
ATOM     56  O   UNL     1      12.041  10.001   2.238  1.00  0.00    -0.508 OA
ATOM     57  H   UNL     1      12.428   9.199   1.851  1.00  0.00     0.293 HD
ENDBRANCH  55  56
ENDBRANCH  49  50
ENDBRANCH  48  49
BRANCH  48  58
ATOM     58  C   UNL     1       5.501   6.704   3.650  1.00  0.00     0.326 C 
ATOM     59  O   UNL     1       5.776   6.038   4.635  1.00  0.00    -0.250 OA
BRANCH  58  60
ATOM     60  O   UNL     1       4.634   6.205   2.734  1.00  0.00    -0.480 OA
ATOM     61  H   UNL     1       3.806   6.085   3.248  1.00  0.00     0.296 HD
ENDBRANCH  58  60
ENDBRANCH  48  58
ENDBRANCH  46  48
ENDBRANCH  34  44
ENDBRANCH  32  34
ENDBRANCH  25  30
ENDBRANCH  23  25
ENDBRANCH   2  23
TORSDOF 28
ENDMDL
MODEL 22
REMARK VINA RESULT:    -7.128      2.564      9.474
REMARK INTER + INTRA:         -21.902
REMARK INTER:                 -16.521
REMARK INTRA:                  -5.380
REMARK UNBOUND:                -4.149
REMARK SMILES CCCCCCC[C@H](N)[C@H](O)C(=O)N[C@H](C)C(=O)N(C)[C@H](CC(C)C)C(=O)N[C@@H](Cc1ccc(O)cc1)C(=O)N[C@@H](Cc1ccc(O)cc1)C(=O)O
REMARK SMILES IDX 18 1 17 2 15 3 16 4 14 5 12 6 13 7 10 9 11 10 8 12 9 13 7 16
REMARK SMILES IDX 6 17 5 18 4 19 3 20 2 21 1 22 19 23 20 24 21 25 22 26 23 27
REMARK SMILES IDX 24 28 25 29 26 30 27 31 28 32 29 34 30 35 31 36 32 37 37 38
REMARK SMILES IDX 33 39 36 40 34 41 35 42 38 44 39 45 40 46 41 48 42 49 43 50
REMARK SMILES IDX 44 51 49 52 45 53 48 54 46 55 47 56 50 58 51 59 52 60
REMARK H PARENT 14 8 11 11 9 14 9 15 28 33 35 43 40 47 47 57 52 61
ROOT
ATOM      1  O   UNL     1       2.469   9.324  -5.034  1.00  0.00    -0.272 OA
ATOM      2  C   UNL     1       1.622  10.225  -5.113  1.00  0.00     0.245 C 
ENDROOT
BRANCH   2   3
ATOM      3  C   UNL     1       1.756  11.271  -6.248  1.00  0.00     0.168 C 
ATOM      4  C   UNL     1       1.423  12.669  -5.739  1.00  0.00     0.041 C 
BRANCH   3   5
ATOM      5  N   UNL     1       3.025  11.242  -6.960  1.00  0.00    -0.342 N 
ATOM      6  C   UNL     1       3.091  11.034  -8.321  1.00  0.00     0.251 C 
ATOM      7  O   UNL     1       2.107  10.820  -9.021  1.00  0.00    -0.272 OA
ATOM      8  H   UNL     1       3.912  11.372  -6.479  1.00  0.00     0.164 HD
BRANCH   6   9
ATOM      9  C   UNL     1       4.516  11.185  -8.877  1.00  0.00     0.219 C 
BRANCH   9  10
ATOM     10  O   UNL     1       5.229  12.276  -8.280  1.00  0.00    -0.382 OA
ATOM     11  H   UNL     1       5.975  11.837  -7.816  1.00  0.00     0.211 HD
ENDBRANCH   9  10
BRANCH   9  12
ATOM     12  C   UNL     1       5.344   9.876  -8.795  1.00  0.00     0.089 C 
BRANCH  12  13
ATOM     13  N   UNL     1       4.419   8.756  -8.509  1.00  0.00    -0.325 NA
ATOM     14  H   UNL     1       3.462   9.111  -8.471  1.00  0.00     0.119 HD
ATOM     15  H   UNL     1       4.609   8.401  -7.568  1.00  0.00     0.119 HD
ENDBRANCH  12  13
BRANCH  12  16
ATOM     16  C   UNL     1       6.213   9.545 -10.032  1.00  0.00     0.022 C 
BRANCH  16  17
ATOM     17  C   UNL     1       7.670   9.110  -9.826  1.00  0.00     0.002 C 
BRANCH  17  18
ATOM     18  C   UNL     1       8.182   9.229  -8.392  1.00  0.00     0.000 C 
BRANCH  18  19
ATOM     19  C   UNL     1       8.249   7.894  -7.640  1.00  0.00    -0.000 C 
BRANCH  19  20
ATOM     20  C   UNL     1       7.323   7.785  -6.425  1.00  0.00    -0.000 C 
BRANCH  20  21
ATOM     21  C   UNL     1       6.329   6.626  -6.531  1.00  0.00    -0.003 C 
ATOM     22  C   UNL     1       5.235   6.735  -5.480  1.00  0.00     0.004 C 
ENDBRANCH  20  21
ENDBRANCH  19  20
ENDBRANCH  18  19
ENDBRANCH  17  18
ENDBRANCH  16  17
ENDBRANCH  12  16
ENDBRANCH   9  12
ENDBRANCH   6   9
ENDBRANCH   3   5
ENDBRANCH   2   3
BRANCH   2  23
ATOM     23  N   UNL     1       0.514  10.214  -4.273  1.00  0.00    -0.332 N 
ATOM     24  C   UNL     1      -0.868  10.271  -4.727  1.00  0.00     0.147 C 
BRANCH  23  25
ATOM     25  C   UNL     1       0.683  10.007  -2.809  1.00  0.00     0.174 C 
BRANCH  25  26
ATOM     26  C   UNL     1      -0.444   9.150  -2.187  1.00  0.00     0.038 C 
BRANCH  26  27
ATOM     27  C   UNL     1      -0.283   8.751  -0.703  1.00  0.00    -0.015 C 
ATOM     28  C   UNL     1      -1.556   8.139  -0.121  1.00  0.00     0.007 C 
ATOM     29  C   UNL     1       0.917   7.843  -0.444  1.00  0.00     0.007 C 
ENDBRANCH  26  27
ENDBRANCH  25  26
BRANCH  25  30
ATOM     30  C   UNL     1       0.895  11.365  -2.100  1.00  0.00     0.243 C 
ATOM     31  O   UNL     1       0.072  12.276  -2.183  1.00  0.00    -0.273 OA
ATOM     32  N   UNL     1       2.057  11.485  -1.383  1.00  0.00    -0.342 N 
ATOM     33  H   UNL     1       2.618  10.641  -1.245  1.00  0.00     0.164 HD
BRANCH  32  34
ATOM     34  C   UNL     1       2.436  12.708  -0.670  1.00  0.00     0.175 C 
BRANCH  34  35
ATOM     35  C   UNL     1       2.510  12.471   0.846  1.00  0.00     0.070 C 
BRANCH  35  36
ATOM     36  C   UNL     1       1.228  11.903   1.413  1.00  0.00    -0.045 A 
ATOM     37  C   UNL     1       0.025  12.612   1.273  1.00  0.00     0.007 A 
ATOM     38  C   UNL     1       1.224  10.682   2.100  1.00  0.00     0.007 A 
ATOM     39  C   UNL     1      -1.161  12.102   1.804  1.00  0.00     0.046 A 
ATOM     40  C   UNL     1       0.038  10.172   2.633  1.00  0.00     0.046 A 
ATOM     41  C   UNL     1      -1.145  10.887   2.479  1.00  0.00     0.115 A 
BRANCH  41  42
ATOM     42  O   UNL     1      -2.324  10.427   2.985  1.00  0.00    -0.508 OA
ATOM     43  H   UNL     1      -3.038  11.009   2.674  1.00  0.00     0.293 HD
ENDBRANCH  41  42
ENDBRANCH  35  36
ENDBRANCH  34  35
BRANCH  34  44
ATOM     44  C   UNL     1       3.784  13.198  -1.244  1.00  0.00     0.243 C 
ATOM     45  O   UNL     1       4.693  13.676  -0.570  1.00  0.00    -0.273 OA
ATOM     46  N   UNL     1       3.835  13.174  -2.622  1.00  0.00    -0.341 N 
ATOM     47  H   UNL     1       3.013  12.879  -3.141  1.00  0.00     0.164 HD
BRANCH  46  48
ATOM     48  C   UNL     1       4.984  13.654  -3.394  1.00  0.00     0.196 C 
BRANCH  48  49
ATOM     49  C   UNL     1       6.061  12.565  -3.530  1.00  0.00     0.072 C 
BRANCH  49  50
ATOM     50  C   UNL     1       7.431  13.046  -3.106  1.00  0.00    -0.045 A 
ATOM     51  C   UNL     1       7.564  14.266  -2.427  1.00  0.00     0.007 A 
ATOM     52  C   UNL     1       8.579  12.300  -3.400  1.00  0.00     0.007 A 
ATOM     53  C   UNL     1       8.824  14.726  -2.042  1.00  0.00     0.046 A 
ATOM     54  C   UNL     1       9.841  12.761  -3.016  1.00  0.00     0.046 A 
ATOM     55  C   UNL     1       9.952  13.970  -2.339  1.00  0.00     0.115 A 
BRANCH  55  56
ATOM     56  O   UNL     1      11.164  14.456  -1.948  1.00  0.00    -0.508 OA
ATOM     57  H   UNL     1      11.857  13.960  -2.412  1.00  0.00     0.293 HD
ENDBRANCH  55  56
ENDBRANCH  49  50
ENDBRANCH  48  49
BRANCH  48  58
ATOM     58  C   UNL     1       4.504  14.081  -4.788  1.00  0.00     0.326 C 
ATOM     59  O   UNL     1       3.879  15.088  -5.078  1.00  0.00    -0.250 OA
BRANCH  58  60
ATOM     60  O   UNL     1       4.854  13.213  -5.770  1.00  0.00    -0.480 OA
ATOM     61  H   UNL     1       5.268  13.791  -6.446  1.00  0.00     0.296 HD
ENDBRANCH  58  60
ENDBRANCH  48  58
ENDBRANCH  46  48
ENDBRANCH  34  44
ENDBRANCH  32  34
ENDBRANCH  25  30
ENDBRANCH  23  25
ENDBRANCH   2  23
TORSDOF 28
ENDMDL
MODEL 23
REMARK VINA RESULT:    -7.050      5.470     10.061
REMARK INTER + INTRA:         -21.708
REMARK INTER:                 -18.570
REMARK INTRA:                  -3.138
REMARK UNBOUND:                -4.149
REMARK SMILES CCCCCCC[C@H](N)[C@H](O)C(=O)N[C@H](C)C(=O)N(C)[C@H](CC(C)C)C(=O)N[C@@H](Cc1ccc(O)cc1)C(=O)N[C@@H](Cc1ccc(O)cc1)C(=O)O
REMARK SMILES IDX 18 1 17 2 15 3 16 4 14 5 12 6 13 7 10 9 11 10 8 12 9 13 7 16
REMARK SMILES IDX 6 17 5 18 4 19 3 20 2 21 1 22 19 23 20 24 21 25 22 26 23 27
REMARK SMILES IDX 24 28 25 29 26 30 27 31 28 32 29 34 30 35 31 36 32 37 37 38
REMARK SMILES IDX 33 39 36 40 34 41 35 42 38 44 39 45 40 46 41 48 42 49 43 50
REMARK SMILES IDX 44 51 49 52 45 53 48 54 46 55 47 56 50 58 51 59 52 60
REMARK H PARENT 14 8 11 11 9 14 9 15 28 33 35 43 40 47 47 57 52 61
ROOT
ATOM      1  O   UNL     1       8.251  11.417   2.934  1.00  0.00    -0.272 OA
ATOM      2  C   UNL     1       7.435  11.206   2.024  1.00  0.00     0.245 C 
ENDROOT
BRANCH   2   3
ATOM      3  C   UNL     1       7.357   9.784   1.413  1.00  0.00     0.168 C 
ATOM      4  C   UNL     1       8.751   9.187   1.253  1.00  0.00     0.041 C 
BRANCH   3   5
ATOM      5  N   UNL     1       6.452   8.874   2.097  1.00  0.00    -0.342 N 
ATOM      6  C   UNL     1       6.841   8.163   3.213  1.00  0.00     0.251 C 
ATOM      7  O   UNL     1       7.972   8.209   3.684  1.00  0.00    -0.272 OA
ATOM      8  H   UNL     1       5.498   8.726   1.778  1.00  0.00     0.164 HD
BRANCH   6   9
ATOM      9  C   UNL     1       5.683   7.377   3.850  1.00  0.00     0.219 C 
BRANCH   9  10
ATOM     10  O   UNL     1       5.196   6.329   3.004  1.00  0.00    -0.382 OA
ATOM     11  H   UNL     1       4.860   6.806   2.214  1.00  0.00     0.211 HD
ENDBRANCH   9  10
BRANCH   9  12
ATOM     12  C   UNL     1       6.021   6.833   5.263  1.00  0.00     0.089 C 
BRANCH  12  13
ATOM     13  N   UNL     1       6.226   7.985   6.170  1.00  0.00    -0.325 NA
ATOM     14  H   UNL     1       7.138   7.899   6.623  1.00  0.00     0.119 HD
ATOM     15  H   UNL     1       5.545   7.933   6.931  1.00  0.00     0.119 HD
ENDBRANCH  12  13
BRANCH  12  16
ATOM     16  C   UNL     1       4.994   5.851   5.874  1.00  0.00     0.022 C 
BRANCH  16  17
ATOM     17  C   UNL     1       5.416   4.399   6.139  1.00  0.00     0.002 C 
BRANCH  17  18
ATOM     18  C   UNL     1       4.392   3.559   6.899  1.00  0.00     0.000 C 
BRANCH  18  19
ATOM     19  C   UNL     1       3.663   4.320   8.014  1.00  0.00    -0.000 C 
BRANCH  19  20
ATOM     20  C   UNL     1       2.493   3.570   8.656  1.00  0.00    -0.000 C 
BRANCH  20  21
ATOM     21  C   UNL     1       1.796   2.606   7.691  1.00  0.00    -0.003 C 
ATOM     22  C   UNL     1       0.383   2.286   8.151  1.00  0.00     0.004 C 
ENDBRANCH  20  21
ENDBRANCH  19  20
ENDBRANCH  18  19
ENDBRANCH  17  18
ENDBRANCH  16  17
ENDBRANCH  12  16
ENDBRANCH   9  12
ENDBRANCH   6   9
ENDBRANCH   3   5
ENDBRANCH   2   3
BRANCH   2  23
ATOM     23  N   UNL     1       6.532  12.197   1.656  1.00  0.00    -0.332 N 
ATOM     24  C   UNL     1       6.216  13.367   2.462  1.00  0.00     0.147 C 
BRANCH  23  25
ATOM     25  C   UNL     1       5.906  12.180   0.305  1.00  0.00     0.174 C 
BRANCH  25  26
ATOM     26  C   UNL     1       6.079  13.516  -0.455  1.00  0.00     0.038 C 
BRANCH  26  27
ATOM     27  C   UNL     1       6.806  13.457  -1.817  1.00  0.00    -0.015 C 
ATOM     28  C   UNL     1       7.935  12.426  -1.833  1.00  0.00     0.007 C 
ATOM     29  C   UNL     1       5.866  13.242  -3.000  1.00  0.00     0.007 C 
ENDBRANCH  26  27
ENDBRANCH  25  26
BRANCH  25  30
ATOM     30  C   UNL     1       4.438  11.707   0.405  1.00  0.00     0.243 C 
ATOM     31  O   UNL     1       4.112  10.738   1.089  1.00  0.00    -0.273 OA
ATOM     32  N   UNL     1       3.530  12.432  -0.323  1.00  0.00    -0.342 N 
ATOM     33  H   UNL     1       3.854  13.303  -0.751  1.00  0.00     0.164 HD
BRANCH  32  34
ATOM     34  C   UNL     1       2.101  12.112  -0.370  1.00  0.00     0.175 C 
BRANCH  34  35
ATOM     35  C   UNL     1       1.241  13.352  -0.080  1.00  0.00     0.070 C 
BRANCH  35  36
ATOM     36  C   UNL     1      -0.052  13.014   0.629  1.00  0.00    -0.045 A 
ATOM     37  C   UNL     1      -0.142  11.849   1.406  1.00  0.00     0.007 A 
ATOM     38  C   UNL     1      -1.177  13.839   0.504  1.00  0.00     0.007 A 
ATOM     39  C   UNL     1      -1.335  11.522   2.053  1.00  0.00     0.046 A 
ATOM     40  C   UNL     1      -2.372  13.511   1.150  1.00  0.00     0.046 A 
ATOM     41  C   UNL     1      -2.439  12.355   1.920  1.00  0.00     0.115 A 
BRANCH  41  42
ATOM     42  O   UNL     1      -3.586  11.998   2.566  1.00  0.00    -0.508 OA
ATOM     43  H   UNL     1      -4.337  12.390   2.090  1.00  0.00     0.293 HD
ENDBRANCH  41  42
ENDBRANCH  35  36
ENDBRANCH  34  35
BRANCH  34  44
ATOM     44  C   UNL     1       1.791  11.506  -1.757  1.00  0.00     0.243 C 
ATOM     45  O   UNL     1       2.388  11.796  -2.790  1.00  0.00    -0.273 OA
ATOM     46  N   UNL     1       0.679  10.691  -1.764  1.00  0.00    -0.341 N 
ATOM     47  H   UNL     1       0.147  10.573  -0.905  1.00  0.00     0.164 HD
BRANCH  46  48
ATOM     48  C   UNL     1       0.151  10.058  -2.975  1.00  0.00     0.196 C 
BRANCH  48  49
ATOM     49  C   UNL     1      -0.279   8.606  -2.706  1.00  0.00     0.072 C 
BRANCH  49  50
ATOM     50  C   UNL     1      -0.268   8.259  -1.235  1.00  0.00    -0.045 A 
ATOM     51  C   UNL     1       0.922   7.839  -0.624  1.00  0.00     0.007 A 
ATOM     52  C   UNL     1      -1.439   8.330  -0.469  1.00  0.00     0.007 A 
ATOM     53  C   UNL     1       0.942   7.503   0.729  1.00  0.00     0.046 A 
ATOM     54  C   UNL     1      -1.420   7.993   0.887  1.00  0.00     0.046 A 
ATOM     55  C   UNL     1      -0.228   7.583   1.475  1.00  0.00     0.115 A 
BRANCH  55  56
ATOM     56  O   UNL     1      -0.167   7.245   2.794  1.00  0.00    -0.508 OA
ATOM     57  H   UNL     1      -1.002   7.504   3.215  1.00  0.00     0.293 HD
ENDBRANCH  55  56
ENDBRANCH  49  50
ENDBRANCH  48  49
BRANCH  48  58
ATOM     58  C   UNL     1      -1.052  10.867  -3.477  1.00  0.00     0.326 C 
ATOM     59  O   UNL     1      -1.563  10.823  -4.585  1.00  0.00    -0.250 OA
BRANCH  58  60
ATOM     60  O   UNL     1      -1.574  11.699  -2.540  1.00  0.00    -0.480 OA
ATOM     61  H   UNL     1      -1.568  11.152  -1.724  1.00  0.00     0.296 HD
ENDBRANCH  58  60
ENDBRANCH  48  58
ENDBRANCH  46  48
ENDBRANCH  34  44
ENDBRANCH  32  34
ENDBRANCH  25  30
ENDBRANCH  23  25
ENDBRANCH   2  23
TORSDOF 28
ENDMDL
MODEL 24
REMARK VINA RESULT:    -7.050      5.478     10.507
REMARK INTER + INTRA:         -21.708
REMARK INTER:                 -15.857
REMARK INTRA:                  -5.851
REMARK UNBOUND:                -4.149
REMARK SMILES CCCCCCC[C@H](N)[C@H](O)C(=O)N[C@H](C)C(=O)N(C)[C@H](CC(C)C)C(=O)N[C@@H](Cc1ccc(O)cc1)C(=O)N[C@@H](Cc1ccc(O)cc1)C(=O)O
REMARK SMILES IDX 18 1 17 2 15 3 16 4 14 5 12 6 13 7 10 9 11 10 8 12 9 13 7 16
REMARK SMILES IDX 6 17 5 18 4 19 3 20 2 21 1 22 19 23 20 24 21 25 22 26 23 27
REMARK SMILES IDX 24 28 25 29 26 30 27 31 28 32 29 34 30 35 31 36 32 37 37 38
REMARK SMILES IDX 33 39 36 40 34 41 35 42 38 44 39 45 40 46 41 48 42 49 43 50
REMARK SMILES IDX 44 51 49 52 45 53 48 54 46 55 47 56 50 58 51 59 52 60
REMARK H PARENT 14 8 11 11 9 14 9 15 28 33 35 43 40 47 47 57 52 61
ROOT
ATOM      1  O   UNL     1       0.124  12.544   2.970  1.00  0.00    -0.272 OA
ATOM      2  C   UNL     1      -0.590  12.113   2.052  1.00  0.00     0.245 C 
ENDROOT
BRANCH   2   3
ATOM      3  C   UNL     1      -0.892  13.041   0.849  1.00  0.00     0.168 C 
ATOM      4  C   UNL     1      -1.802  14.191   1.268  1.00  0.00     0.041 C 
BRANCH   3   5
ATOM      5  N   UNL     1       0.282  13.512   0.131  1.00  0.00    -0.342 N 
ATOM      6  C   UNL     1       0.551  13.118  -1.162  1.00  0.00     0.251 C 
ATOM      7  O   UNL     1      -0.143  12.320  -1.784  1.00  0.00    -0.272 OA
ATOM      8  H   UNL     1       0.950  14.150   0.556  1.00  0.00     0.164 HD
BRANCH   6   9
ATOM      9  C   UNL     1       1.760  13.849  -1.768  1.00  0.00     0.219 C 
BRANCH   9  10
ATOM     10  O   UNL     1       2.130  15.015  -1.022  1.00  0.00    -0.382 OA
ATOM     11  H   UNL     1       3.079  14.866  -0.816  1.00  0.00     0.211 HD
ENDBRANCH   9  10
BRANCH   9  12
ATOM     12  C   UNL     1       2.985  12.923  -1.986  1.00  0.00     0.089 C 
BRANCH  12  13
ATOM     13  N   UNL     1       2.783  11.687  -1.197  1.00  0.00    -0.325 NA
ATOM     14  H   UNL     1       1.807  11.393  -1.276  1.00  0.00     0.119 HD
ATOM     15  H   UNL     1       2.917  11.901  -0.206  1.00  0.00     0.119 HD
ENDBRANCH  12  13
BRANCH  12  16
ATOM     16  C   UNL     1       3.312  12.567  -3.456  1.00  0.00     0.022 C 
BRANCH  16  17
ATOM     17  C   UNL     1       2.828  13.499  -4.576  1.00  0.00     0.002 C 
BRANCH  17  18
ATOM     18  C   UNL     1       1.470  13.139  -5.174  1.00  0.00     0.000 C 
BRANCH  18  19
ATOM     19  C   UNL     1       1.355  11.677  -5.626  1.00  0.00    -0.000 C 
BRANCH  19  20
ATOM     20  C   UNL     1       0.363  10.826  -4.829  1.00  0.00    -0.000 C 
BRANCH  20  21
ATOM     21  C   UNL     1       0.821   9.376  -4.653  1.00  0.00    -0.003 C 
ATOM     22  C   UNL     1       2.111   9.296  -3.852  1.00  0.00     0.004 C 
ENDBRANCH  20  21
ENDBRANCH  19  20
ENDBRANCH  18  19
ENDBRANCH  17  18
ENDBRANCH  16  17
ENDBRANCH  12  16
ENDBRANCH   9  12
ENDBRANCH   6   9
ENDBRANCH   3   5
ENDBRANCH   2   3
BRANCH   2  23
ATOM     23  N   UNL     1      -1.001  10.784   2.057  1.00  0.00    -0.332 N 
ATOM     24  C   UNL     1      -2.345  10.336   2.391  1.00  0.00     0.147 C 
BRANCH  23  25
ATOM     25  C   UNL     1      -0.085   9.713   1.578  1.00  0.00     0.174 C 
BRANCH  25  26
ATOM     26  C   UNL     1      -0.836   8.454   1.085  1.00  0.00     0.038 C 
BRANCH  26  27
ATOM     27  C   UNL     1      -0.487   7.940  -0.330  1.00  0.00    -0.015 C 
ATOM     28  C   UNL     1      -1.246   8.686  -1.427  1.00  0.00     0.007 C 
ATOM     29  C   UNL     1       1.012   7.936  -0.622  1.00  0.00     0.007 C 
ENDBRANCH  26  27
ENDBRANCH  25  26
BRANCH  25  30
ATOM     30  C   UNL     1       0.991   9.415   2.648  1.00  0.00     0.243 C 
ATOM     31  O   UNL     1       0.813   8.579   3.533  1.00  0.00    -0.273 OA
ATOM     32  N   UNL     1       2.146  10.147   2.547  1.00  0.00    -0.342 N 
ATOM     33  H   UNL     1       2.275  10.716   1.707  1.00  0.00     0.164 HD
BRANCH  32  34
ATOM     34  C   UNL     1       3.261  10.018   3.489  1.00  0.00     0.175 C 
BRANCH  34  35
ATOM     35  C   UNL     1       4.231   8.906   3.058  1.00  0.00     0.070 C 
BRANCH  35  36
ATOM     36  C   UNL     1       4.593   7.974   4.192  1.00  0.00    -0.045 A 
ATOM     37  C   UNL     1       5.135   6.710   3.916  1.00  0.00     0.007 A 
ATOM     38  C   UNL     1       4.374   8.345   5.526  1.00  0.00     0.007 A 
ATOM     39  C   UNL     1       5.460   5.838   4.955  1.00  0.00     0.046 A 
ATOM     40  C   UNL     1       4.698   7.472   6.567  1.00  0.00     0.046 A 
ATOM     41  C   UNL     1       5.240   6.225   6.271  1.00  0.00     0.115 A 
BRANCH  41  42
ATOM     42  O   UNL     1       5.568   5.342   7.257  1.00  0.00    -0.508 OA
ATOM     43  H   UNL     1       6.110   4.637   6.867  1.00  0.00     0.293 HD
ENDBRANCH  41  42
ENDBRANCH  35  36
ENDBRANCH  34  35
BRANCH  34  44
ATOM     44  C   UNL     1       3.964  11.390   3.590  1.00  0.00     0.243 C 
ATOM     45  O   UNL     1       3.622  12.291   4.350  1.00  0.00    -0.273 OA
ATOM     46  N   UNL     1       4.950  11.573   2.643  1.00  0.00    -0.341 N 
ATOM     47  H   UNL     1       5.118  10.840   1.957  1.00  0.00     0.164 HD
BRANCH  46  48
ATOM     48  C   UNL     1       5.708  12.817   2.498  1.00  0.00     0.196 C 
BRANCH  48  49
ATOM     49  C   UNL     1       7.221  12.549   2.449  1.00  0.00     0.072 C 
BRANCH  49  50
ATOM     50  C   UNL     1       7.563  11.097   2.693  1.00  0.00    -0.045 A 
ATOM     51  C   UNL     1       7.715  10.223   1.607  1.00  0.00     0.007 A 
ATOM     52  C   UNL     1       7.710  10.599   3.994  1.00  0.00     0.007 A 
ATOM     53  C   UNL     1       8.017   8.877   1.820  1.00  0.00     0.046 A 
ATOM     54  C   UNL     1       8.012   9.252   4.208  1.00  0.00     0.046 A 
ATOM     55  C   UNL     1       8.163   8.402   3.117  1.00  0.00     0.115 A 
BRANCH  55  56
ATOM     56  O   UNL     1       8.457   7.081   3.283  1.00  0.00    -0.508 OA
ATOM     57  H   UNL     1       8.507   6.667   2.406  1.00  0.00     0.293 HD
ENDBRANCH  55  56
ENDBRANCH  49  50
ENDBRANCH  48  49
BRANCH  48  58
ATOM     58  C   UNL     1       5.268  13.522   1.207  1.00  0.00     0.326 C 
ATOM     59  O   UNL     1       5.983  14.078   0.388  1.00  0.00    -0.250 OA
BRANCH  58  60
ATOM     60  O   UNL     1       3.929  13.480   0.997  1.00  0.00    -0.480 OA
ATOM     61  H   UNL     1       3.670  12.606   1.362  1.00  0.00     0.296 HD
ENDBRANCH  58  60
ENDBRANCH  48  58
ENDBRANCH  46  48
ENDBRANCH  34  44
ENDBRANCH  32  34
ENDBRANCH  25  30
ENDBRANCH  23  25
ENDBRANCH   2  23
TORSDOF 28
ENDMDL
MODEL 25
REMARK VINA RESULT:    -7.047      3.502     10.361
REMARK INTER + INTRA:         -21.700
REMARK INTER:                 -17.544
REMARK INTRA:                  -4.156
REMARK UNBOUND:                -4.149
REMARK SMILES CCCCCCC[C@H](N)[C@H](O)C(=O)N[C@H](C)C(=O)N(C)[C@H](CC(C)C)C(=O)N[C@@H](Cc1ccc(O)cc1)C(=O)N[C@@H](Cc1ccc(O)cc1)C(=O)O
REMARK SMILES IDX 18 1 17 2 15 3 16 4 14 5 12 6 13 7 10 9 11 10 8 12 9 13 7 16
REMARK SMILES IDX 6 17 5 18 4 19 3 20 2 21 1 22 19 23 20 24 21 25 22 26 23 27
REMARK SMILES IDX 24 28 25 29 26 30 27 31 28 32 29 34 30 35 31 36 32 37 37 38
REMARK SMILES IDX 33 39 36 40 34 41 35 42 38 44 39 45 40 46 41 48 42 49 43 50
REMARK SMILES IDX 44 51 49 52 45 53 48 54 46 55 47 56 50 58 51 59 52 60
REMARK H PARENT 14 8 11 11 9 14 9 15 28 33 35 43 40 47 47 57 52 61
ROOT
ATOM      1  O   UNL     1       1.833  13.551  -1.967  1.00  0.00    -0.272 OA
ATOM      2  C   UNL     1       1.440  12.629  -2.697  1.00  0.00     0.245 C 
ENDROOT
BRANCH   2   3
ATOM      3  C   UNL     1       1.909  12.602  -4.173  1.00  0.00     0.168 C 
ATOM      4  C   UNL     1       2.419  13.973  -4.605  1.00  0.00     0.041 C 
BRANCH   3   5
ATOM      5  N   UNL     1       2.857  11.546  -4.494  1.00  0.00    -0.342 N 
ATOM      6  C   UNL     1       2.463  10.376  -5.108  1.00  0.00     0.251 C 
ATOM      7  O   UNL     1       1.297  10.120  -5.390  1.00  0.00    -0.272 OA
ATOM      8  H   UNL     1       3.847  11.630  -4.276  1.00  0.00     0.164 HD
BRANCH   6   9
ATOM      9  C   UNL     1       3.649   9.470  -5.478  1.00  0.00     0.219 C 
BRANCH   9  10
ATOM     10  O   UNL     1       3.235   8.236  -6.076  1.00  0.00    -0.382 OA
ATOM     11  H   UNL     1       3.852   7.575  -5.691  1.00  0.00     0.211 HD
ENDBRANCH   9  10
BRANCH   9  12
ATOM     12  C   UNL     1       4.707  10.183  -6.360  1.00  0.00     0.089 C 
BRANCH  12  13
ATOM     13  N   UNL     1       5.592  10.977  -5.477  1.00  0.00    -0.325 NA
ATOM     14  H   UNL     1       6.103  11.660  -6.040  1.00  0.00     0.119 HD
ATOM     15  H   UNL     1       6.311  10.362  -5.089  1.00  0.00     0.119 HD
ENDBRANCH  12  13
BRANCH  12  16
ATOM     16  C   UNL     1       5.553   9.267  -7.276  1.00  0.00     0.022 C 
BRANCH  16  17
ATOM     17  C   UNL     1       5.674   9.609  -8.768  1.00  0.00     0.002 C 
BRANCH  17  18
ATOM     18  C   UNL     1       5.636   8.408  -9.710  1.00  0.00     0.000 C 
BRANCH  18  19
ATOM     19  C   UNL     1       5.290   7.082  -9.018  1.00  0.00    -0.000 C 
BRANCH  19  20
ATOM     20  C   UNL     1       3.901   6.524  -9.341  1.00  0.00    -0.000 C 
BRANCH  20  21
ATOM     21  C   UNL     1       3.949   5.157 -10.029  1.00  0.00    -0.003 C 
ATOM     22  C   UNL     1       3.591   5.264 -11.503  1.00  0.00     0.004 C 
ENDBRANCH  20  21
ENDBRANCH  19  20
ENDBRANCH  18  19
ENDBRANCH  17  18
ENDBRANCH  16  17
ENDBRANCH  12  16
ENDBRANCH   9  12
ENDBRANCH   6   9
ENDBRANCH   3   5
ENDBRANCH   2   3
BRANCH   2  23
ATOM     23  N   UNL     1       0.696  11.584  -2.159  1.00  0.00    -0.332 N 
ATOM     24  C   UNL     1      -0.743  11.432  -2.311  1.00  0.00     0.147 C 
BRANCH  23  25
ATOM     25  C   UNL     1       1.378  10.451  -1.477  1.00  0.00     0.174 C 
BRANCH  25  26
ATOM     26  C   UNL     1       0.693   9.089  -1.740  1.00  0.00     0.038 C 
BRANCH  26  27
ATOM     27  C   UNL     1       0.013   8.403  -0.534  1.00  0.00    -0.015 C 
ATOM     28  C   UNL     1      -1.478   8.160  -0.764  1.00  0.00     0.007 C 
ATOM     29  C   UNL     1       0.707   7.114  -0.099  1.00  0.00     0.007 C 
ENDBRANCH  26  27
ENDBRANCH  25  26
BRANCH  25  30
ATOM     30  C   UNL     1       1.570  10.770   0.023  1.00  0.00     0.243 C 
ATOM     31  O   UNL     1       0.798  11.507   0.635  1.00  0.00    -0.273 OA
ATOM     32  N   UNL     1       2.657  10.184   0.621  1.00  0.00    -0.342 N 
ATOM     33  H   UNL     1       3.166   9.476   0.086  1.00  0.00     0.164 HD
BRANCH  32  34
ATOM     34  C   UNL     1       3.010  10.396   2.027  1.00  0.00     0.175 C 
BRANCH  34  35
ATOM     35  C   UNL     1       2.613   9.188   2.890  1.00  0.00     0.070 C 
BRANCH  35  36
ATOM     36  C   UNL     1       1.293   9.386   3.601  1.00  0.00    -0.045 A 
ATOM     37  C   UNL     1       1.217  10.232   4.718  1.00  0.00     0.007 A 
ATOM     38  C   UNL     1       0.139   8.716   3.173  1.00  0.00     0.007 A 
ATOM     39  C   UNL     1       0.006  10.410   5.388  1.00  0.00     0.046 A 
ATOM     40  C   UNL     1      -1.073   8.893   3.845  1.00  0.00     0.046 A 
ATOM     41  C   UNL     1      -1.129   9.740   4.946  1.00  0.00     0.115 A 
BRANCH  41  42
ATOM     42  O   UNL     1      -2.291   9.939   5.631  1.00  0.00    -0.508 OA
ATOM     43  H   UNL     1      -2.333  10.873   5.896  1.00  0.00     0.293 HD
ENDBRANCH  41  42
ENDBRANCH  35  36
ENDBRANCH  34  35
BRANCH  34  44
ATOM     44  C   UNL     1       4.526  10.686   2.102  1.00  0.00     0.243 C 
ATOM     45  O   UNL     1       5.046  11.455   2.905  1.00  0.00    -0.273 OA
ATOM     46  N   UNL     1       5.248  10.095   1.087  1.00  0.00    -0.341 N 
ATOM     47  H   UNL     1       4.755   9.560   0.376  1.00  0.00     0.164 HD
BRANCH  46  48
ATOM     48  C   UNL     1       6.690  10.281   0.910  1.00  0.00     0.196 C 
BRANCH  48  49
ATOM     49  C   UNL     1       7.053  11.771   0.798  1.00  0.00     0.072 C 
BRANCH  49  50
ATOM     50  C   UNL     1       6.788  12.332  -0.581  1.00  0.00    -0.045 A 
ATOM     51  C   UNL     1       5.516  12.831  -0.900  1.00  0.00     0.007 A 
ATOM     52  C   UNL     1       7.790  12.343  -1.560  1.00  0.00     0.007 A 
ATOM     53  C   UNL     1       5.256  13.339  -2.173  1.00  0.00     0.046 A 
ATOM     54  C   UNL     1       7.529  12.851  -2.835  1.00  0.00     0.046 A 
ATOM     55  C   UNL     1       6.264  13.345  -3.130  1.00  0.00     0.115 A 
BRANCH  55  56
ATOM     56  O   UNL     1       5.968  13.849  -4.362  1.00  0.00    -0.508 OA
ATOM     57  H   UNL     1       6.553  14.604  -4.533  1.00  0.00     0.293 HD
ENDBRANCH  55  56
ENDBRANCH  49  50
ENDBRANCH  48  49
BRANCH  48  58
ATOM     58  C   UNL     1       7.423   9.661   2.108  1.00  0.00     0.326 C 
ATOM     59  O   UNL     1       8.174  10.226   2.887  1.00  0.00    -0.250 OA
BRANCH  58  60
ATOM     60  O   UNL     1       7.161   8.341   2.279  1.00  0.00    -0.480 OA
ATOM     61  H   UNL     1       7.572   8.140   3.148  1.00  0.00     0.296 HD
ENDBRANCH  58  60
ENDBRANCH  48  58
ENDBRANCH  46  48
ENDBRANCH  34  44
ENDBRANCH  32  34
ENDBRANCH  25  30
ENDBRANCH  23  25
ENDBRANCH   2  23
TORSDOF 28
ENDMDL
MODEL 26
REMARK VINA RESULT:    -7.045      2.629     10.640
REMARK INTER + INTRA:         -21.695
REMARK INTER:                 -18.022
REMARK INTRA:                  -3.673
REMARK UNBOUND:                -4.149
REMARK SMILES CCCCCCC[C@H](N)[C@H](O)C(=O)N[C@H](C)C(=O)N(C)[C@H](CC(C)C)C(=O)N[C@@H](Cc1ccc(O)cc1)C(=O)N[C@@H](Cc1ccc(O)cc1)C(=O)O
REMARK SMILES IDX 18 1 17 2 15 3 16 4 14 5 12 6 13 7 10 9 11 10 8 12 9 13 7 16
REMARK SMILES IDX 6 17 5 18 4 19 3 20 2 21 1 22 19 23 20 24 21 25 22 26 23 27
REMARK SMILES IDX 24 28 25 29 26 30 27 31 28 32 29 34 30 35 31 36 32 37 37 38
REMARK SMILES IDX 33 39 36 40 34 41 35 42 38 44 39 45 40 46 41 48 42 49 43 50
REMARK SMILES IDX 44 51 49 52 45 53 48 54 46 55 47 56 50 58 51 59 52 60
REMARK H PARENT 14 8 11 11 9 14 9 15 28 33 35 43 40 47 47 57 52 61
ROOT
ATOM      1  O   UNL     1       1.583   9.174  -5.111  1.00  0.00    -0.272 OA
ATOM      2  C   UNL     1       1.105  10.297  -4.895  1.00  0.00     0.245 C 
ENDROOT
BRANCH   2   3
ATOM      3  C   UNL     1       1.595  11.489  -5.754  1.00  0.00     0.168 C 
ATOM      4  C   UNL     1       1.525  12.792  -4.964  1.00  0.00     0.041 C 
BRANCH   3   5
ATOM      5  N   UNL     1       2.898  11.301  -6.374  1.00  0.00    -0.342 N 
ATOM      6  C   UNL     1       3.036  11.102  -7.732  1.00  0.00     0.251 C 
ATOM      7  O   UNL     1       2.086  11.028  -8.505  1.00  0.00    -0.272 OA
ATOM      8  H   UNL     1       3.757  11.308  -5.830  1.00  0.00     0.164 HD
BRANCH   6   9
ATOM      9  C   UNL     1       4.505  11.071  -8.181  1.00  0.00     0.219 C 
BRANCH   9  10
ATOM     10  O   UNL     1       5.208  12.277  -7.860  1.00  0.00    -0.382 OA
ATOM     11  H   UNL     1       4.766  12.590  -7.040  1.00  0.00     0.211 HD
ENDBRANCH   9  10
BRANCH   9  12
ATOM     12  C   UNL     1       5.276   9.830  -7.659  1.00  0.00     0.089 C 
BRANCH  12  13
ATOM     13  N   UNL     1       4.309   8.722  -7.478  1.00  0.00    -0.325 NA
ATOM     14  H   UNL     1       3.633   8.738  -8.243  1.00  0.00     0.119 HD
ATOM     15  H   UNL     1       3.760   8.898  -6.633  1.00  0.00     0.119 HD
ENDBRANCH  12  13
BRANCH  12  16
ATOM     16  C   UNL     1       6.468   9.358  -8.526  1.00  0.00     0.022 C 
BRANCH  16  17
ATOM     17  C   UNL     1       6.323   9.347 -10.054  1.00  0.00     0.002 C 
BRANCH  17  18
ATOM     18  C   UNL     1       6.776   8.057 -10.735  1.00  0.00     0.000 C 
BRANCH  18  19
ATOM     19  C   UNL     1       6.709   6.818  -9.833  1.00  0.00    -0.000 C 
BRANCH  19  20
ATOM     20  C   UNL     1       5.442   5.971  -9.985  1.00  0.00    -0.000 C 
BRANCH  20  21
ATOM     21  C   UNL     1       5.164   5.563 -11.434  1.00  0.00    -0.003 C 
ATOM     22  C   UNL     1       3.675   5.376 -11.682  1.00  0.00     0.004 C 
ENDBRANCH  20  21
ENDBRANCH  19  20
ENDBRANCH  18  19
ENDBRANCH  17  18
ENDBRANCH  16  17
ENDBRANCH  12  16
ENDBRANCH   9  12
ENDBRANCH   6   9
ENDBRANCH   3   5
ENDBRANCH   2   3
BRANCH   2  23
ATOM     23  N   UNL     1       0.065  10.447  -3.984  1.00  0.00    -0.332 N 
ATOM     24  C   UNL     1      -1.262  10.942  -4.320  1.00  0.00     0.147 C 
BRANCH  23  25
ATOM     25  C   UNL     1       0.219   9.970  -2.582  1.00  0.00     0.174 C 
BRANCH  25  26
ATOM     26  C   UNL     1      -1.111   9.481  -1.963  1.00  0.00     0.038 C 
BRANCH  26  27
ATOM     27  C   UNL     1      -1.095   8.100  -1.270  1.00  0.00    -0.015 C 
ATOM     28  C   UNL     1       0.322   7.612  -0.972  1.00  0.00     0.007 C 
ATOM     29  C   UNL     1      -1.958   8.041  -0.013  1.00  0.00     0.007 C 
ENDBRANCH  26  27
ENDBRANCH  25  26
BRANCH  25  30
ATOM     30  C   UNL     1       0.945  11.039  -1.734  1.00  0.00     0.243 C 
ATOM     31  O   UNL     1       0.475  12.163  -1.564  1.00  0.00    -0.273 OA
ATOM     32  N   UNL     1       2.143  10.653  -1.191  1.00  0.00    -0.342 N 
ATOM     33  H   UNL     1       2.397   9.664  -1.258  1.00  0.00     0.164 HD
BRANCH  32  34
ATOM     34  C   UNL     1       2.981  11.543  -0.382  1.00  0.00     0.175 C 
BRANCH  34  35
ATOM     35  C   UNL     1       3.303  12.843  -1.133  1.00  0.00     0.070 C 
BRANCH  35  36
ATOM     36  C   UNL     1       4.630  12.789  -1.855  1.00  0.00    -0.045 A 
ATOM     37  C   UNL     1       5.828  12.799  -1.124  1.00  0.00     0.007 A 
ATOM     38  C   UNL     1       4.686  12.750  -3.255  1.00  0.00     0.007 A 
ATOM     39  C   UNL     1       7.057  12.763  -1.782  1.00  0.00     0.046 A 
ATOM     40  C   UNL     1       5.917  12.715  -3.914  1.00  0.00     0.046 A 
ATOM     41  C   UNL     1       7.093  12.720  -3.171  1.00  0.00     0.115 A 
BRANCH  41  42
ATOM     42  O   UNL     1       8.314  12.688  -3.775  1.00  0.00    -0.508 OA
ATOM     43  H   UNL     1       8.261  13.201  -4.598  1.00  0.00     0.293 HD
ENDBRANCH  41  42
ENDBRANCH  35  36
ENDBRANCH  34  35
BRANCH  34  44
ATOM     44  C   UNL     1       2.245  11.812   0.950  1.00  0.00     0.243 C 
ATOM     45  O   UNL     1       2.479  12.762   1.692  1.00  0.00    -0.273 OA
ATOM     46  N   UNL     1       1.374  10.805   1.310  1.00  0.00    -0.341 N 
ATOM     47  H   UNL     1       1.301   9.981   0.719  1.00  0.00     0.164 HD
BRANCH  46  48
ATOM     48  C   UNL     1       0.615  10.805   2.562  1.00  0.00     0.196 C 
BRANCH  48  49
ATOM     49  C   UNL     1      -0.852  10.410   2.328  1.00  0.00     0.072 C 
BRANCH  49  50
ATOM     50  C   UNL     1      -1.744  11.606   2.079  1.00  0.00    -0.045 A 
ATOM     51  C   UNL     1      -2.271  12.323   3.164  1.00  0.00     0.007 A 
ATOM     52  C   UNL     1      -2.073  12.001   0.777  1.00  0.00     0.007 A 
ATOM     53  C   UNL     1      -3.105  13.419   2.947  1.00  0.00     0.046 A 
ATOM     54  C   UNL     1      -2.909  13.099   0.559  1.00  0.00     0.046 A 
ATOM     55  C   UNL     1      -3.418  13.799   1.648  1.00  0.00     0.115 A 
BRANCH  55  56
ATOM     56  O   UNL     1      -4.238  14.875   1.479  1.00  0.00    -0.508 OA
ATOM     57  H   UNL     1      -4.541  15.169   2.352  1.00  0.00     0.293 HD
ENDBRANCH  55  56
ENDBRANCH  49  50
ENDBRANCH  48  49
BRANCH  48  58
ATOM     58  C   UNL     1       1.265   9.816   3.540  1.00  0.00     0.326 C 
ATOM     59  O   UNL     1       1.855   8.784   3.264  1.00  0.00    -0.250 OA
BRANCH  58  60
ATOM     60  O   UNL     1       1.152  10.187   4.840  1.00  0.00    -0.480 OA
ATOM     61  H   UNL     1       0.434   9.608   5.178  1.00  0.00     0.296 HD
ENDBRANCH  58  60
ENDBRANCH  48  58
ENDBRANCH  46  48
ENDBRANCH  34  44
ENDBRANCH  32  34
ENDBRANCH  25  30
ENDBRANCH  23  25
ENDBRANCH   2  23
TORSDOF 28
ENDMDL
MODEL 27
REMARK VINA RESULT:    -7.025      4.800      8.483
REMARK INTER + INTRA:         -21.645
REMARK INTER:                 -15.014
REMARK INTRA:                  -6.632
REMARK UNBOUND:                -4.149
REMARK SMILES CCCCCCC[C@H](N)[C@H](O)C(=O)N[C@H](C)C(=O)N(C)[C@H](CC(C)C)C(=O)N[C@@H](Cc1ccc(O)cc1)C(=O)N[C@@H](Cc1ccc(O)cc1)C(=O)O
REMARK SMILES IDX 18 1 17 2 15 3 16 4 14 5 12 6 13 7 10 9 11 10 8 12 9 13 7 16
REMARK SMILES IDX 6 17 5 18 4 19 3 20 2 21 1 22 19 23 20 24 21 25 22 26 23 27
REMARK SMILES IDX 24 28 25 29 26 30 27 31 28 32 29 34 30 35 31 36 32 37 37 38
REMARK SMILES IDX 33 39 36 40 34 41 35 42 38 44 39 45 40 46 41 48 42 49 43 50
REMARK SMILES IDX 44 51 49 52 45 53 48 54 46 55 47 56 50 58 51 59 52 60
REMARK H PARENT 14 8 11 11 9 14 9 15 28 33 35 43 40 47 47 57 52 61
ROOT
ATOM      1  O   UNL     1      -1.531  11.220  -4.238  1.00  0.00    -0.272 OA
ATOM      2  C   UNL     1      -0.710  10.908  -3.363  1.00  0.00     0.245 C 
ENDROOT
BRANCH   2   3
ATOM      3  C   UNL     1      -1.239  10.462  -1.977  1.00  0.00     0.168 C 
ATOM      4  C   UNL     1      -0.898   8.999  -1.713  1.00  0.00     0.041 C 
BRANCH   3   5
ATOM      5  N   UNL     1      -0.846  11.318  -0.868  1.00  0.00    -0.342 N 
ATOM      6  C   UNL     1      -1.624  12.380  -0.458  1.00  0.00     0.251 C 
ATOM      7  O   UNL     1      -2.668  12.707  -1.012  1.00  0.00    -0.272 OA
ATOM      8  H   UNL     1       0.018  11.166  -0.353  1.00  0.00     0.164 HD
BRANCH   6   9
ATOM      9  C   UNL     1      -1.087  13.053   0.815  1.00  0.00     0.219 C 
BRANCH   9  10
ATOM     10  O   UNL     1      -0.281  14.204   0.534  1.00  0.00    -0.382 OA
ATOM     11  H   UNL     1       0.639  13.871   0.632  1.00  0.00     0.211 HD
ENDBRANCH   9  10
BRANCH   9  12
ATOM     12  C   UNL     1      -2.202  13.399   1.838  1.00  0.00     0.089 C 
BRANCH  12  13
ATOM     13  N   UNL     1      -3.196  14.268   1.169  1.00  0.00    -0.325 NA
ATOM     14  H   UNL     1      -3.989  14.417   1.797  1.00  0.00     0.119 HD
ATOM     15  H   UNL     1      -3.583  13.770   0.364  1.00  0.00     0.119 HD
ENDBRANCH  12  13
BRANCH  12  16
ATOM     16  C   UNL     1      -2.910  12.193   2.501  1.00  0.00     0.022 C 
BRANCH  16  17
ATOM     17  C   UNL     1      -2.103  11.265   3.418  1.00  0.00     0.002 C 
BRANCH  17  18
ATOM     18  C   UNL     1      -1.659   9.952   2.777  1.00  0.00     0.000 C 
BRANCH  18  19
ATOM     19  C   UNL     1      -1.043   8.951   3.765  1.00  0.00    -0.000 C 
BRANCH  19  20
ATOM     20  C   UNL     1      -0.224   7.827   3.125  1.00  0.00    -0.000 C 
BRANCH  20  21
ATOM     21  C   UNL     1      -0.119   7.953   1.602  1.00  0.00    -0.003 C 
ATOM     22  C   UNL     1       1.080   7.189   1.064  1.00  0.00     0.004 C 
ENDBRANCH  20  21
ENDBRANCH  19  20
ENDBRANCH  18  19
ENDBRANCH  17  18
ENDBRANCH  16  17
ENDBRANCH  12  16
ENDBRANCH   9  12
ENDBRANCH   6   9
ENDBRANCH   3   5
ENDBRANCH   2   3
BRANCH   2  23
ATOM     23  N   UNL     1       0.645  10.846  -3.670  1.00  0.00    -0.332 N 
ATOM     24  C   UNL     1       1.314   9.677  -4.221  1.00  0.00     0.147 C 
BRANCH  23  25
ATOM     25  C   UNL     1       1.495  12.064  -3.566  1.00  0.00     0.174 C 
BRANCH  25  26
ATOM     26  C   UNL     1       2.785  11.972  -4.414  1.00  0.00     0.038 C 
BRANCH  26  27
ATOM     27  C   UNL     1       3.335  13.293  -4.998  1.00  0.00    -0.015 C 
ATOM     28  C   UNL     1       2.410  14.480  -4.730  1.00  0.00     0.007 C 
ATOM     29  C   UNL     1       4.759  13.610  -4.548  1.00  0.00     0.007 C 
ENDBRANCH  26  27
ENDBRANCH  25  26
BRANCH  25  30
ATOM     30  C   UNL     1       1.752  12.408  -2.080  1.00  0.00     0.243 C 
ATOM     31  O   UNL     1       1.312  13.435  -1.566  1.00  0.00    -0.273 OA
ATOM     32  N   UNL     1       2.503  11.499  -1.382  1.00  0.00    -0.342 N 
ATOM     33  H   UNL     1       2.711  10.606  -1.837  1.00  0.00     0.164 HD
BRANCH  32  34
ATOM     34  C   UNL     1       2.869  11.673   0.026  1.00  0.00     0.175 C 
BRANCH  34  35
ATOM     35  C   UNL     1       3.055  10.319   0.728  1.00  0.00     0.070 C 
BRANCH  35  36
ATOM     36  C   UNL     1       2.708  10.369   2.198  1.00  0.00    -0.045 A 
ATOM     37  C   UNL     1       3.197   9.383   3.069  1.00  0.00     0.007 A 
ATOM     38  C   UNL     1       1.881  11.379   2.708  1.00  0.00     0.007 A 
ATOM     39  C   UNL     1       2.871   9.413   4.425  1.00  0.00     0.046 A 
ATOM     40  C   UNL     1       1.553  11.409   4.066  1.00  0.00     0.046 A 
ATOM     41  C   UNL     1       2.053  10.425   4.913  1.00  0.00     0.115 A 
BRANCH  41  42
ATOM     42  O   UNL     1       1.756  10.417   6.243  1.00  0.00    -0.508 OA
ATOM     43  H   UNL     1       2.589  10.365   6.741  1.00  0.00     0.293 HD
ENDBRANCH  41  42
ENDBRANCH  35  36
ENDBRANCH  34  35
BRANCH  34  44
ATOM     44  C   UNL     1       4.150  12.535   0.086  1.00  0.00     0.243 C 
ATOM     45  O   UNL     1       4.160  13.763   0.105  1.00  0.00    -0.273 OA
ATOM     46  N   UNL     1       5.311  11.799  -0.018  1.00  0.00    -0.341 N 
ATOM     47  H   UNL     1       5.249  10.793  -0.150  1.00  0.00     0.164 HD
BRANCH  46  48
ATOM     48  C   UNL     1       6.646  12.402  -0.054  1.00  0.00     0.196 C 
BRANCH  48  49
ATOM     49  C   UNL     1       7.725  11.398   0.387  1.00  0.00     0.072 C 
BRANCH  49  50
ATOM     50  C   UNL     1       7.341  10.643   1.639  1.00  0.00    -0.045 A 
ATOM     51  C   UNL     1       7.271   9.243   1.617  1.00  0.00     0.007 A 
ATOM     52  C   UNL     1       7.030  11.323   2.824  1.00  0.00     0.007 A 
ATOM     53  C   UNL     1       6.904   8.536   2.763  1.00  0.00     0.046 A 
ATOM     54  C   UNL     1       6.662  10.615   3.971  1.00  0.00     0.046 A 
ATOM     55  C   UNL     1       6.603   9.227   3.930  1.00  0.00     0.115 A 
BRANCH  55  56
ATOM     56  O   UNL     1       6.248   8.499   5.027  1.00  0.00    -0.508 OA
ATOM     57  H   UNL     1       6.801   7.703   5.059  1.00  0.00     0.293 HD
ENDBRANCH  55  56
ENDBRANCH  49  50
ENDBRANCH  48  49
BRANCH  48  58
ATOM     58  C   UNL     1       6.940  12.879  -1.483  1.00  0.00     0.326 C 
ATOM     59  O   UNL     1       7.328  12.204  -2.422  1.00  0.00    -0.250 OA
BRANCH  58  60
ATOM     60  O   UNL     1       6.713  14.204  -1.669  1.00  0.00    -0.480 OA
ATOM     61  H   UNL     1       7.481  14.491  -2.208  1.00  0.00     0.296 HD
ENDBRANCH  58  60
ENDBRANCH  48  58
ENDBRANCH  46  48
ENDBRANCH  34  44
ENDBRANCH  32  34
ENDBRANCH  25  30
ENDBRANCH  23  25
ENDBRANCH   2  23
TORSDOF 28
ENDMDL
MODEL 28
REMARK VINA RESULT:    -7.016      4.785     11.047
REMARK INTER + INTRA:         -21.623
REMARK INTER:                 -18.570
REMARK INTRA:                  -3.053
REMARK UNBOUND:                -4.149
REMARK SMILES CCCCCCC[C@H](N)[C@H](O)C(=O)N[C@H](C)C(=O)N(C)[C@H](CC(C)C)C(=O)N[C@@H](Cc1ccc(O)cc1)C(=O)N[C@@H](Cc1ccc(O)cc1)C(=O)O
REMARK SMILES IDX 18 1 17 2 15 3 16 4 14 5 12 6 13 7 10 9 11 10 8 12 9 13 7 16
REMARK SMILES IDX 6 17 5 18 4 19 3 20 2 21 1 22 19 23 20 24 21 25 22 26 23 27
REMARK SMILES IDX 24 28 25 29 26 30 27 31 28 32 29 34 30 35 31 36 32 37 37 38
REMARK SMILES IDX 33 39 36 40 34 41 35 42 38 44 39 45 40 46 41 48 42 49 43 50
REMARK SMILES IDX 44 51 49 52 45 53 48 54 46 55 47 56 50 58 51 59 52 60
REMARK H PARENT 14 8 11 11 9 14 9 15 28 33 35 43 40 47 47 57 52 61
ROOT
ATOM      1  O   UNL     1       3.172  12.051  -0.718  1.00  0.00    -0.272 OA
ATOM      2  C   UNL     1       2.259  12.201  -1.543  1.00  0.00     0.245 C 
ENDROOT
BRANCH   2   3
ATOM      3  C   UNL     1       2.625  12.657  -2.978  1.00  0.00     0.168 C 
ATOM      4  C   UNL     1       3.978  13.360  -2.995  1.00  0.00     0.041 C 
BRANCH   3   5
ATOM      5  N   UNL     1       2.542  11.616  -3.990  1.00  0.00    -0.342 N 
ATOM      6  C   UNL     1       2.166  11.890  -5.288  1.00  0.00     0.251 C 
ATOM      7  O   UNL     1       1.836  13.006  -5.675  1.00  0.00    -0.272 OA
ATOM      8  H   UNL     1       2.759  10.644  -3.778  1.00  0.00     0.164 HD
BRANCH   6   9
ATOM      9  C   UNL     1       2.287  10.668  -6.212  1.00  0.00     0.219 C 
BRANCH   9  10
ATOM     10  O   UNL     1       2.237  11.019  -7.601  1.00  0.00    -0.382 OA
ATOM     11  H   UNL     1       1.642  10.340  -7.989  1.00  0.00     0.211 HD
ENDBRANCH   9  10
BRANCH   9  12
ATOM     12  C   UNL     1       3.534   9.796  -5.909  1.00  0.00     0.089 C 
BRANCH  12  13
ATOM     13  N   UNL     1       3.255   8.411  -6.354  1.00  0.00    -0.325 NA
ATOM     14  H   UNL     1       2.257   8.220  -6.250  1.00  0.00     0.119 HD
ATOM     15  H   UNL     1       3.719   7.759  -5.718  1.00  0.00     0.119 HD
ENDBRANCH  12  13
BRANCH  12  16
ATOM     16  C   UNL     1       4.870  10.290  -6.514  1.00  0.00     0.022 C 
BRANCH  16  17
ATOM     17  C   UNL     1       6.178  10.015  -5.759  1.00  0.00     0.002 C 
BRANCH  17  18
ATOM     18  C   UNL     1       7.297   9.414  -6.607  1.00  0.00     0.000 C 
BRANCH  18  19
ATOM     19  C   UNL     1       7.282   7.880  -6.664  1.00  0.00    -0.000 C 
BRANCH  19  20
ATOM     20  C   UNL     1       6.572   7.282  -7.882  1.00  0.00    -0.000 C 
BRANCH  20  21
ATOM     21  C   UNL     1       7.488   6.406  -8.740  1.00  0.00    -0.003 C 
ATOM     22  C   UNL     1       8.954   6.718  -8.483  1.00  0.00     0.004 C 
ENDBRANCH  20  21
ENDBRANCH  19  20
ENDBRANCH  18  19
ENDBRANCH  17  18
ENDBRANCH  16  17
ENDBRANCH  12  16
ENDBRANCH   9  12
ENDBRANCH   6   9
ENDBRANCH   3   5
ENDBRANCH   2   3
BRANCH   2  23
ATOM     23  N   UNL     1       0.956  11.846  -1.211  1.00  0.00    -0.332 N 
ATOM     24  C   UNL     1      -0.235  12.512  -1.717  1.00  0.00     0.147 C 
BRANCH  23  25
ATOM     25  C   UNL     1       0.695  10.636  -0.384  1.00  0.00     0.174 C 
BRANCH  25  26
ATOM     26  C   UNL     1      -0.778  10.167  -0.451  1.00  0.00     0.038 C 
BRANCH  26  27
ATOM     27  C   UNL     1      -1.024   8.645  -0.542  1.00  0.00    -0.015 C 
ATOM     28  C   UNL     1       0.248   7.865  -0.875  1.00  0.00     0.007 C 
ATOM     29  C   UNL     1      -1.701   8.064   0.697  1.00  0.00     0.007 C 
ENDBRANCH  26  27
ENDBRANCH  25  26
BRANCH  25  30
ATOM     30  C   UNL     1       1.213  10.853   1.056  1.00  0.00     0.243 C 
ATOM     31  O   UNL     1       0.789  11.761   1.769  1.00  0.00    -0.273 OA
ATOM     32  N   UNL     1       2.177   9.974   1.479  1.00  0.00    -0.342 N 
ATOM     33  H   UNL     1       2.374   9.165   0.884  1.00  0.00     0.164 HD
BRANCH  32  34
ATOM     34  C   UNL     1       2.801  10.045   2.802  1.00  0.00     0.175 C 
BRANCH  34  35
ATOM     35  C   UNL     1       2.131   9.078   3.790  1.00  0.00     0.070 C 
BRANCH  35  36
ATOM     36  C   UNL     1       0.854   9.635   4.379  1.00  0.00    -0.045 A 
ATOM     37  C   UNL     1      -0.388   9.138   3.958  1.00  0.00     0.007 A 
ATOM     38  C   UNL     1       0.890  10.664   5.329  1.00  0.00     0.007 A 
ATOM     39  C   UNL     1      -1.572   9.655   4.485  1.00  0.00     0.046 A 
ATOM     40  C   UNL     1      -0.294  11.183   5.857  1.00  0.00     0.046 A 
ATOM     41  C   UNL     1      -1.516  10.672   5.430  1.00  0.00     0.115 A 
BRANCH  41  42
ATOM     42  O   UNL     1      -2.695  11.152   5.918  1.00  0.00    -0.508 OA
ATOM     43  H   UNL     1      -3.134  11.657   5.213  1.00  0.00     0.293 HD
ENDBRANCH  41  42
ENDBRANCH  35  36
ENDBRANCH  34  35
BRANCH  34  44
ATOM     44  C   UNL     1       4.309   9.748   2.637  1.00  0.00     0.243 C 
ATOM     45  O   UNL     1       5.039  10.302   1.820  1.00  0.00    -0.273 OA
ATOM     46  N   UNL     1       4.749   8.695   3.410  1.00  0.00    -0.341 N 
ATOM     47  H   UNL     1       4.078   8.191   3.985  1.00  0.00     0.164 HD
BRANCH  46  48
ATOM     48  C   UNL     1       6.121   8.186   3.373  1.00  0.00     0.196 C 
BRANCH  48  49
ATOM     49  C   UNL     1       7.008   8.889   4.414  1.00  0.00     0.072 C 
BRANCH  49  50
ATOM     50  C   UNL     1       8.388   9.205   3.885  1.00  0.00    -0.045 A 
ATOM     51  C   UNL     1       8.685   8.987   2.531  1.00  0.00     0.007 A 
ATOM     52  C   UNL     1       9.390   9.696   4.731  1.00  0.00     0.007 A 
ATOM     53  C   UNL     1       9.958   9.263   2.034  1.00  0.00     0.046 A 
ATOM     54  C   UNL     1      10.666   9.972   4.234  1.00  0.00     0.046 A 
ATOM     55  C   UNL     1      10.939   9.753   2.888  1.00  0.00     0.115 A 
BRANCH  55  56
ATOM     56  O   UNL     1      12.171  10.008   2.363  1.00  0.00    -0.508 OA
ATOM     57  H   UNL     1      12.192   9.672   1.453  1.00  0.00     0.293 HD
ENDBRANCH  55  56
ENDBRANCH  49  50
ENDBRANCH  48  49
BRANCH  48  58
ATOM     58  C   UNL     1       6.102   6.676   3.648  1.00  0.00     0.326 C 
ATOM     59  O   UNL     1       6.844   6.050   4.388  1.00  0.00    -0.250 OA
BRANCH  58  60
ATOM     60  O   UNL     1       5.123   6.016   2.980  1.00  0.00    -0.480 OA
ATOM     61  H   UNL     1       4.387   6.667   2.956  1.00  0.00     0.296 HD
ENDBRANCH  58  60
ENDBRANCH  48  58
ENDBRANCH  46  48
ENDBRANCH  34  44
ENDBRANCH  32  34
ENDBRANCH  25  30
ENDBRANCH  23  25
ENDBRANCH   2  23
TORSDOF 28
ENDMDL
MODEL 29
REMARK VINA RESULT:    -6.975      5.830     11.140
REMARK INTER + INTRA:         -21.521
REMARK INTER:                 -15.945
REMARK INTRA:                  -5.577
REMARK UNBOUND:                -4.149
REMARK SMILES CCCCCCC[C@H](N)[C@H](O)C(=O)N[C@H](C)C(=O)N(C)[C@H](CC(C)C)C(=O)N[C@@H](Cc1ccc(O)cc1)C(=O)N[C@@H](Cc1ccc(O)cc1)C(=O)O
REMARK SMILES IDX 18 1 17 2 15 3 16 4 14 5 12 6 13 7 10 9 11 10 8 12 9 13 7 16
REMARK SMILES IDX 6 17 5 18 4 19 3 20 2 21 1 22 19 23 20 24 21 25 22 26 23 27
REMARK SMILES IDX 24 28 25 29 26 30 27 31 28 32 29 34 30 35 31 36 32 37 37 38
REMARK SMILES IDX 33 39 36 40 34 41 35 42 38 44 39 45 40 46 41 48 42 49 43 50
REMARK SMILES IDX 44 51 49 52 45 53 48 54 46 55 47 56 50 58 51 59 52 60
REMARK H PARENT 14 8 11 11 9 14 9 15 28 33 35 43 40 47 47 57 52 61
ROOT
ATOM      1  O   UNL     1       9.060  11.388   2.921  1.00  0.00    -0.272 OA
ATOM      2  C   UNL     1       8.314  11.099   1.974  1.00  0.00     0.245 C 
ENDROOT
BRANCH   2   3
ATOM      3  C   UNL     1       8.291   9.635   1.468  1.00  0.00     0.168 C 
ATOM      4  C   UNL     1       9.493   9.352   0.574  1.00  0.00     0.041 C 
BRANCH   3   5
ATOM      5  N   UNL     1       8.143   8.631   2.510  1.00  0.00    -0.342 N 
ATOM      6  C   UNL     1       6.921   8.352   3.084  1.00  0.00     0.251 C 
ATOM      7  O   UNL     1       5.887   8.947   2.796  1.00  0.00    -0.272 OA
ATOM      8  H   UNL     1       8.936   8.096   2.856  1.00  0.00     0.164 HD
BRANCH   6   9
ATOM      9  C   UNL     1       6.977   7.162   4.055  1.00  0.00     0.219 C 
BRANCH   9  10
ATOM     10  O   UNL     1       7.688   7.466   5.261  1.00  0.00    -0.382 OA
ATOM     11  H   UNL     1       7.775   6.593   5.704  1.00  0.00     0.211 HD
ENDBRANCH   9  10
BRANCH   9  12
ATOM     12  C   UNL     1       5.580   6.568   4.373  1.00  0.00     0.089 C 
BRANCH  12  13
ATOM     13  N   UNL     1       4.885   6.298   3.094  1.00  0.00    -0.325 NA
ATOM     14  H   UNL     1       4.114   5.648   3.261  1.00  0.00     0.119 HD
ATOM     15  H   UNL     1       5.523   5.799   2.469  1.00  0.00     0.119 HD
ENDBRANCH  12  13
BRANCH  12  16
ATOM     16  C   UNL     1       5.568   5.302   5.263  1.00  0.00     0.022 C 
BRANCH  16  17
ATOM     17  C   UNL     1       5.161   5.429   6.737  1.00  0.00     0.002 C 
BRANCH  17  18
ATOM     18  C   UNL     1       4.351   4.256   7.286  1.00  0.00     0.000 C 
BRANCH  18  19
ATOM     19  C   UNL     1       5.142   2.945   7.387  1.00  0.00    -0.000 C 
BRANCH  19  20
ATOM     20  C   UNL     1       5.779   2.673   8.753  1.00  0.00    -0.000 C 
BRANCH  20  21
ATOM     21  C   UNL     1       7.304   2.808   8.741  1.00  0.00    -0.003 C 
ATOM     22  C   UNL     1       7.739   4.208   9.145  1.00  0.00     0.004 C 
ENDBRANCH  20  21
ENDBRANCH  19  20
ENDBRANCH  18  19
ENDBRANCH  17  18
ENDBRANCH  16  17
ENDBRANCH  12  16
ENDBRANCH   9  12
ENDBRANCH   6   9
ENDBRANCH   3   5
ENDBRANCH   2   3
BRANCH   2  23
ATOM     23  N   UNL     1       7.433  12.049   1.469  1.00  0.00    -0.332 N 
ATOM     24  C   UNL     1       7.119  13.313   2.118  1.00  0.00     0.147 C 
BRANCH  23  25
ATOM     25  C   UNL     1       6.833  11.873   0.117  1.00  0.00     0.174 C 
BRANCH  25  26
ATOM     26  C   UNL     1       7.491  12.774  -0.955  1.00  0.00     0.038 C 
BRANCH  26  27
ATOM     27  C   UNL     1       8.817  12.275  -1.571  1.00  0.00    -0.015 C 
ATOM     28  C   UNL     1       8.849  12.429  -3.091  1.00  0.00     0.007 C 
ATOM     29  C   UNL     1      10.055  12.906  -0.941  1.00  0.00     0.007 C 
ENDBRANCH  26  27
ENDBRANCH  25  26
BRANCH  25  30
ATOM     30  C   UNL     1       5.296  12.019   0.194  1.00  0.00     0.243 C 
ATOM     31  O   UNL     1       4.704  12.954  -0.343  1.00  0.00    -0.273 OA
ATOM     32  N   UNL     1       4.642  11.043   0.902  1.00  0.00    -0.342 N 
ATOM     33  H   UNL     1       5.185  10.227   1.195  1.00  0.00     0.164 HD
BRANCH  32  34
ATOM     34  C   UNL     1       3.191  11.034   1.102  1.00  0.00     0.175 C 
BRANCH  34  35
ATOM     35  C   UNL     1       2.584   9.673   0.729  1.00  0.00     0.070 C 
BRANCH  35  36
ATOM     36  C   UNL     1       1.475   9.787  -0.292  1.00  0.00    -0.045 A 
ATOM     37  C   UNL     1       0.646  10.919  -0.305  1.00  0.00     0.007 A 
ATOM     38  C   UNL     1       1.244   8.763  -1.220  1.00  0.00     0.007 A 
ATOM     39  C   UNL     1      -0.389  11.027  -1.234  1.00  0.00     0.046 A 
ATOM     40  C   UNL     1       0.208   8.870  -2.151  1.00  0.00     0.046 A 
ATOM     41  C   UNL     1      -0.599  10.003  -2.150  1.00  0.00     0.115 A 
BRANCH  41  42
ATOM     42  O   UNL     1      -1.623  10.146  -3.040  1.00  0.00    -0.508 OA
ATOM     43  H   UNL     1      -1.285  10.617  -3.819  1.00  0.00     0.293 HD
ENDBRANCH  41  42
ENDBRANCH  35  36
ENDBRANCH  34  35
BRANCH  34  44
ATOM     44  C   UNL     1       2.908  11.409   2.574  1.00  0.00     0.243 C 
ATOM     45  O   UNL     1       3.448  12.337   3.170  1.00  0.00    -0.273 OA
ATOM     46  N   UNL     1       2.077  10.517   3.217  1.00  0.00    -0.341 N 
ATOM     47  H   UNL     1       1.747   9.698   2.713  1.00  0.00     0.164 HD
BRANCH  46  48
ATOM     48  C   UNL     1       1.720  10.626   4.634  1.00  0.00     0.196 C 
BRANCH  48  49
ATOM     49  C   UNL     1       0.288  10.127   4.890  1.00  0.00     0.072 C 
BRANCH  49  50
ATOM     50  C   UNL     1      -0.341   9.508   3.663  1.00  0.00    -0.045 A 
ATOM     51  C   UNL     1      -1.390  10.168   3.006  1.00  0.00     0.007 A 
ATOM     52  C   UNL     1       0.093   8.268   3.177  1.00  0.00     0.007 A 
ATOM     53  C   UNL     1      -1.987   9.601   1.880  1.00  0.00     0.046 A 
ATOM     54  C   UNL     1      -0.506   7.699   2.051  1.00  0.00     0.046 A 
ATOM     55  C   UNL     1      -1.541   8.372   1.411  1.00  0.00     0.115 A 
BRANCH  55  56
ATOM     56  O   UNL     1      -2.152   7.851   0.309  1.00  0.00    -0.508 OA
ATOM     57  H   UNL     1      -3.078   7.664   0.532  1.00  0.00     0.293 HD
ENDBRANCH  55  56
ENDBRANCH  49  50
ENDBRANCH  48  49
BRANCH  48  58
ATOM     58  C   UNL     1       2.710   9.797   5.463  1.00  0.00     0.326 C 
ATOM     59  O   UNL     1       2.877   9.837   6.671  1.00  0.00    -0.250 OA
BRANCH  58  60
ATOM     60  O   UNL     1       3.446   8.932   4.721  1.00  0.00    -0.480 OA
ATOM     61  H   UNL     1       4.054   9.521   4.224  1.00  0.00     0.296 HD
ENDBRANCH  58  60
ENDBRANCH  48  58
ENDBRANCH  46  48
ENDBRANCH  34  44
ENDBRANCH  32  34
ENDBRANCH  25  30
ENDBRANCH  23  25
ENDBRANCH   2  23
TORSDOF 28
ENDMDL
MODEL 30
REMARK VINA RESULT:    -6.958      6.492     12.083
REMARK INTER + INTRA:         -21.478
REMARK INTER:                 -15.224
REMARK INTRA:                  -6.255
REMARK UNBOUND:                -4.149
REMARK SMILES CCCCCCC[C@H](N)[C@H](O)C(=O)N[C@H](C)C(=O)N(C)[C@H](CC(C)C)C(=O)N[C@@H](Cc1ccc(O)cc1)C(=O)N[C@@H](Cc1ccc(O)cc1)C(=O)O
REMARK SMILES IDX 18 1 17 2 15 3 16 4 14 5 12 6 13 7 10 9 11 10 8 12 9 13 7 16
REMARK SMILES IDX 6 17 5 18 4 19 3 20 2 21 1 22 19 23 20 24 21 25 22 26 23 27
REMARK SMILES IDX 24 28 25 29 26 30 27 31 28 32 29 34 30 35 31 36 32 37 37 38
REMARK SMILES IDX 33 39 36 40 34 41 35 42 38 44 39 45 40 46 41 48 42 49 43 50
REMARK SMILES IDX 44 51 49 52 45 53 48 54 46 55 47 56 50 58 51 59 52 60
REMARK H PARENT 14 8 11 11 9 14 9 15 28 33 35 43 40 47 47 57 52 61
ROOT
ATOM      1  O   UNL     1       8.017   8.558   4.994  1.00  0.00    -0.272 OA
ATOM      2  C   UNL     1       7.138   9.291   4.517  1.00  0.00     0.245 C 
ENDROOT
BRANCH   2   3
ATOM      3  C   UNL     1       7.414   9.997   3.166  1.00  0.00     0.168 C 
ATOM      4  C   UNL     1       7.539   8.979   2.038  1.00  0.00     0.041 C 
BRANCH   3   5
ATOM      5  N   UNL     1       6.484  11.064   2.833  1.00  0.00    -0.342 N 
ATOM      6  C   UNL     1       6.912  12.349   2.574  1.00  0.00     0.251 C 
ATOM      7  O   UNL     1       8.086  12.698   2.644  1.00  0.00    -0.272 OA
ATOM      8  H   UNL     1       5.481  10.904   2.779  1.00  0.00     0.164 HD
BRANCH   6   9
ATOM      9  C   UNL     1       5.776  13.272   2.106  1.00  0.00     0.219 C 
BRANCH   9  10
ATOM     10  O   UNL     1       5.885  14.597   2.639  1.00  0.00    -0.382 OA
ATOM     11  H   UNL     1       6.598  15.005   2.099  1.00  0.00     0.211 HD
ENDBRANCH   9  10
BRANCH   9  12
ATOM     12  C   UNL     1       5.617  13.309   0.564  1.00  0.00     0.089 C 
BRANCH  12  13
ATOM     13  N   UNL     1       6.457  12.238  -0.018  1.00  0.00    -0.325 NA
ATOM     14  H   UNL     1       6.340  12.233  -1.033  1.00  0.00     0.119 HD
ATOM     15  H   UNL     1       6.102  11.331   0.296  1.00  0.00     0.119 HD
ENDBRANCH  12  13
BRANCH  12  16
ATOM     16  C   UNL     1       4.169  13.200   0.028  1.00  0.00     0.022 C 
BRANCH  16  17
ATOM     17  C   UNL     1       3.083  12.599   0.930  1.00  0.00     0.002 C 
BRANCH  17  18
ATOM     18  C   UNL     1       2.404  11.348   0.375  1.00  0.00     0.000 C 
BRANCH  18  19
ATOM     19  C   UNL     1       1.396  11.630  -0.746  1.00  0.00    -0.000 C 
BRANCH  19  20
ATOM     20  C   UNL     1       1.799  11.109  -2.129  1.00  0.00    -0.000 C 
BRANCH  20  21
ATOM     21  C   UNL     1       1.305  11.999  -3.272  1.00  0.00    -0.003 C 
ATOM     22  C   UNL     1       0.266  11.284  -4.123  1.00  0.00     0.004 C 
ENDBRANCH  20  21
ENDBRANCH  19  20
ENDBRANCH  18  19
ENDBRANCH  17  18
ENDBRANCH  16  17
ENDBRANCH  12  16
ENDBRANCH   9  12
ENDBRANCH   6   9
ENDBRANCH   3   5
ENDBRANCH   2   3
BRANCH   2  23
ATOM     23  N   UNL     1       5.891   9.370   5.128  1.00  0.00    -0.332 N 
ATOM     24  C   UNL     1       5.490  10.420   6.052  1.00  0.00     0.147 C 
BRANCH  23  25
ATOM     25  C   UNL     1       4.812   8.414   4.759  1.00  0.00     0.174 C 
BRANCH  25  26
ATOM     26  C   UNL     1       5.355   7.085   4.182  1.00  0.00     0.038 C 
BRANCH  26  27
ATOM     27  C   UNL     1       5.491   5.900   5.164  1.00  0.00    -0.015 C 
ATOM     28  C   UNL     1       6.936   5.420   5.305  1.00  0.00     0.007 C 
ATOM     29  C   UNL     1       4.880   6.174   6.536  1.00  0.00     0.007 C 
ENDBRANCH  26  27
ENDBRANCH  25  26
BRANCH  25  30
ATOM     30  C   UNL     1       3.774   9.109   3.847  1.00  0.00     0.243 C 
ATOM     31  O   UNL     1       4.028   9.402   2.680  1.00  0.00    -0.273 OA
ATOM     32  N   UNL     1       2.562   9.379   4.427  1.00  0.00    -0.342 N 
ATOM     33  H   UNL     1       2.379   8.979   5.351  1.00  0.00     0.164 HD
BRANCH  32  34
ATOM     34  C   UNL     1       1.470  10.057   3.723  1.00  0.00     0.175 C 
BRANCH  34  35
ATOM     35  C   UNL     1       0.311   9.092   3.429  1.00  0.00     0.070 C 
BRANCH  35  36
ATOM     36  C   UNL     1       0.159   8.793   1.954  1.00  0.00    -0.045 A 
ATOM     37  C   UNL     1      -0.910   9.345   1.233  1.00  0.00     0.007 A 
ATOM     38  C   UNL     1       1.063   7.949   1.295  1.00  0.00     0.007 A 
ATOM     39  C   UNL     1      -1.066   9.065  -0.125  1.00  0.00     0.046 A 
ATOM     40  C   UNL     1       0.906   7.667  -0.064  1.00  0.00     0.046 A 
ATOM     41  C   UNL     1      -0.157   8.229  -0.763  1.00  0.00     0.115 A 
BRANCH  41  42
ATOM     42  O   UNL     1      -0.347   7.977  -2.089  1.00  0.00    -0.508 OA
ATOM     43  H   UNL     1       0.522   7.953  -2.522  1.00  0.00     0.293 HD
ENDBRANCH  41  42
ENDBRANCH  35  36
ENDBRANCH  34  35
BRANCH  34  44
ATOM     44  C   UNL     1       1.017  11.257   4.585  1.00  0.00     0.243 C 
ATOM     45  O   UNL     1       1.777  11.980   5.222  1.00  0.00    -0.273 OA
ATOM     46  N   UNL     1      -0.354  11.374   4.685  1.00  0.00    -0.341 N 
ATOM     47  H   UNL     1      -0.943  10.680   4.233  1.00  0.00     0.164 HD
BRANCH  46  48
ATOM     48  C   UNL     1      -1.018  12.393   5.502  1.00  0.00     0.196 C 
BRANCH  48  49
ATOM     49  C   UNL     1      -1.308  13.663   4.686  1.00  0.00     0.072 C 
BRANCH  49  50
ATOM     50  C   UNL     1      -1.800  13.358   3.289  1.00  0.00    -0.045 A 
ATOM     51  C   UNL     1      -3.153  13.061   3.074  1.00  0.00     0.007 A 
ATOM     52  C   UNL     1      -0.918  13.345   2.201  1.00  0.00     0.007 A 
ATOM     53  C   UNL     1      -3.616  12.765   1.792  1.00  0.00     0.046 A 
ATOM     54  C   UNL     1      -1.381  13.047   0.917  1.00  0.00     0.046 A 
ATOM     55  C   UNL     1      -2.728  12.760   0.724  1.00  0.00     0.115 A 
BRANCH  55  56
ATOM     56  O   UNL     1      -3.220  12.464  -0.513  1.00  0.00    -0.508 OA
ATOM     57  H   UNL     1      -2.792  11.651  -0.826  1.00  0.00     0.293 HD
ENDBRANCH  55  56
ENDBRANCH  49  50
ENDBRANCH  48  49
BRANCH  48  58
ATOM     58  C   UNL     1      -2.333  11.818   6.045  1.00  0.00     0.326 C 
ATOM     59  O   UNL     1      -3.207  12.416   6.652  1.00  0.00    -0.250 OA
BRANCH  58  60
ATOM     60  O   UNL     1      -2.497  10.497   5.780  1.00  0.00    -0.480 OA
ATOM     61  H   UNL     1      -2.959  10.496   4.914  1.00  0.00     0.296 HD
ENDBRANCH  58  60
ENDBRANCH  48  58
ENDBRANCH  46  48
ENDBRANCH  34  44
ENDBRANCH  32  34
ENDBRANCH  25  30
ENDBRANCH  23  25
ENDBRANCH   2  23
TORSDOF 28
ENDMDL
MODEL 31
REMARK VINA RESULT:    -6.957      3.855      7.663
REMARK INTER + INTRA:         -21.476
REMARK INTER:                 -16.156
REMARK INTRA:                  -5.321
REMARK UNBOUND:                -4.149
REMARK SMILES CCCCCCC[C@H](N)[C@H](O)C(=O)N[C@H](C)C(=O)N(C)[C@H](CC(C)C)C(=O)N[C@@H](Cc1ccc(O)cc1)C(=O)N[C@@H](Cc1ccc(O)cc1)C(=O)O
REMARK SMILES IDX 18 1 17 2 15 3 16 4 14 5 12 6 13 7 10 9 11 10 8 12 9 13 7 16
REMARK SMILES IDX 6 17 5 18 4 19 3 20 2 21 1 22 19 23 20 24 21 25 22 26 23 27
REMARK SMILES IDX 24 28 25 29 26 30 27 31 28 32 29 34 30 35 31 36 32 37 37 38
REMARK SMILES IDX 33 39 36 40 34 41 35 42 38 44 39 45 40 46 41 48 42 49 43 50
REMARK SMILES IDX 44 51 49 52 45 53 48 54 46 55 47 56 50 58 51 59 52 60
REMARK H PARENT 14 8 11 11 9 14 9 15 28 33 35 43 40 47 47 57 52 61
ROOT
ATOM      1  O   UNL     1       7.965  11.662   2.706  1.00  0.00    -0.272 OA
ATOM      2  C   UNL     1       7.106  11.315   1.882  1.00  0.00     0.245 C 
ENDROOT
BRANCH   2   3
ATOM      3  C   UNL     1       7.026   9.821   1.480  1.00  0.00     0.168 C 
ATOM      4  C   UNL     1       8.368   9.129   1.698  1.00  0.00     0.041 C 
BRANCH   3   5
ATOM      5  N   UNL     1       5.930   9.082   2.087  1.00  0.00    -0.342 N 
ATOM      6  C   UNL     1       5.817   8.941   3.454  1.00  0.00     0.251 C 
ATOM      7  O   UNL     1       6.639   9.383   4.250  1.00  0.00    -0.272 OA
ATOM      8  H   UNL     1       5.206   8.641   1.526  1.00  0.00     0.164 HD
BRANCH   6   9
ATOM      9  C   UNL     1       4.510   8.248   3.874  1.00  0.00     0.219 C 
BRANCH   9  10
ATOM     10  O   UNL     1       4.572   7.708   5.199  1.00  0.00    -0.382 OA
ATOM     11  H   UNL     1       3.664   7.847   5.548  1.00  0.00     0.211 HD
ENDBRANCH   9  10
BRANCH   9  12
ATOM     12  C   UNL     1       3.261   9.151   3.705  1.00  0.00     0.089 C 
BRANCH  12  13
ATOM     13  N   UNL     1       3.716  10.539   3.460  1.00  0.00    -0.325 NA
ATOM     14  H   UNL     1       3.115  10.970   2.756  1.00  0.00     0.119 HD
ATOM     15  H   UNL     1       4.647  10.512   3.036  1.00  0.00     0.119 HD
ENDBRANCH  12  13
BRANCH  12  16
ATOM     16  C   UNL     1       2.256   8.721   2.609  1.00  0.00     0.022 C 
BRANCH  16  17
ATOM     17  C   UNL     1       0.752   8.771   2.913  1.00  0.00     0.002 C 
BRANCH  17  18
ATOM     18  C   UNL     1      -0.079   7.681   2.241  1.00  0.00     0.000 C 
BRANCH  18  19
ATOM     19  C   UNL     1      -1.335   8.202   1.530  1.00  0.00    -0.000 C 
BRANCH  19  20
ATOM     20  C   UNL     1      -1.254   8.226   0.001  1.00  0.00    -0.000 C 
BRANCH  20  21
ATOM     21  C   UNL     1       0.124   7.828  -0.533  1.00  0.00    -0.003 C 
ATOM     22  C   UNL     1       0.874   9.031  -1.083  1.00  0.00     0.004 C 
ENDBRANCH  20  21
ENDBRANCH  19  20
ENDBRANCH  18  19
ENDBRANCH  17  18
ENDBRANCH  16  17
ENDBRANCH  12  16
ENDBRANCH   9  12
ENDBRANCH   6   9
ENDBRANCH   3   5
ENDBRANCH   2   3
BRANCH   2  23
ATOM     23  N   UNL     1       6.163  12.233   1.432  1.00  0.00    -0.332 N 
ATOM     24  C   UNL     1       5.579  13.286   2.250  1.00  0.00     0.147 C 
BRANCH  23  25
ATOM     25  C   UNL     1       5.776  12.268  -0.005  1.00  0.00     0.174 C 
BRANCH  25  26
ATOM     26  C   UNL     1       6.127  13.610  -0.690  1.00  0.00     0.038 C 
BRANCH  26  27
ATOM     27  C   UNL     1       7.407  13.640  -1.555  1.00  0.00    -0.015 C 
ATOM     28  C   UNL     1       8.134  12.296  -1.571  1.00  0.00     0.007 C 
ATOM     29  C   UNL     1       7.166  14.137  -2.978  1.00  0.00     0.007 C 
ENDBRANCH  26  27
ENDBRANCH  25  26
BRANCH  25  30
ATOM     30  C   UNL     1       4.295  11.857  -0.168  1.00  0.00     0.243 C 
ATOM     31  O   UNL     1       3.803  10.932   0.477  1.00  0.00    -0.273 OA
ATOM     32  N   UNL     1       3.574  12.584  -1.079  1.00  0.00    -0.342 N 
ATOM     33  H   UNL     1       4.012  13.423  -1.469  1.00  0.00     0.164 HD
BRANCH  32  34
ATOM     34  C   UNL     1       2.165  12.318  -1.383  1.00  0.00     0.175 C 
BRANCH  34  35
ATOM     35  C   UNL     1       1.255  13.426  -0.832  1.00  0.00     0.070 C 
BRANCH  35  36
ATOM     36  C   UNL     1       0.055  12.882  -0.091  1.00  0.00    -0.045 A 
ATOM     37  C   UNL     1       0.209  12.347   1.197  1.00  0.00     0.007 A 
ATOM     38  C   UNL     1      -1.216  12.882  -0.681  1.00  0.00     0.007 A 
ATOM     39  C   UNL     1      -0.890  11.830   1.884  1.00  0.00     0.046 A 
ATOM     40  C   UNL     1      -2.317  12.364   0.005  1.00  0.00     0.046 A 
ATOM     41  C   UNL     1      -2.143  11.843   1.284  1.00  0.00     0.115 A 
BRANCH  41  42
ATOM     42  O   UNL     1      -3.191  11.326   1.987  1.00  0.00    -0.508 OA
ATOM     43  H   UNL     1      -2.834  10.783   2.709  1.00  0.00     0.293 HD
ENDBRANCH  41  42
ENDBRANCH  35  36
ENDBRANCH  34  35
BRANCH  34  44
ATOM     44  C   UNL     1       2.027  12.165  -2.915  1.00  0.00     0.243 C 
ATOM     45  O   UNL     1       1.137  12.681  -3.586  1.00  0.00    -0.273 OA
ATOM     46  N   UNL     1       2.930  11.278  -3.462  1.00  0.00    -0.341 N 
ATOM     47  H   UNL     1       3.573  10.786  -2.847  1.00  0.00     0.164 HD
BRANCH  46  48
ATOM     48  C   UNL     1       2.948  10.919  -4.882  1.00  0.00     0.196 C 
BRANCH  48  49
ATOM     49  C   UNL     1       4.372  10.583  -5.356  1.00  0.00     0.072 C 
BRANCH  49  50
ATOM     50  C   UNL     1       4.687  11.171  -6.713  1.00  0.00    -0.045 A 
ATOM     51  C   UNL     1       3.921  10.804  -7.829  1.00  0.00     0.007 A 
ATOM     52  C   UNL     1       5.752  12.066  -6.880  1.00  0.00     0.007 A 
ATOM     53  C   UNL     1       4.212  11.330  -9.088  1.00  0.00     0.046 A 
ATOM     54  C   UNL     1       6.043  12.592  -8.141  1.00  0.00     0.046 A 
ATOM     55  C   UNL     1       5.269  12.220  -9.234  1.00  0.00     0.115 A 
BRANCH  55  56
ATOM     56  O   UNL     1       5.521  12.710 -10.482  1.00  0.00    -0.508 OA
ATOM     57  H   UNL     1       4.699  13.088 -10.833  1.00  0.00     0.293 HD
ENDBRANCH  55  56
ENDBRANCH  49  50
ENDBRANCH  48  49
BRANCH  48  58
ATOM     58  C   UNL     1       2.032   9.708  -5.102  1.00  0.00     0.326 C 
ATOM     59  O   UNL     1       0.812   9.693  -5.094  1.00  0.00    -0.250 OA
BRANCH  58  60
ATOM     60  O   UNL     1       2.707   8.555  -5.342  1.00  0.00    -0.480 OA
ATOM     61  H   UNL     1       2.488   8.356  -6.278  1.00  0.00     0.296 HD
ENDBRANCH  58  60
ENDBRANCH  48  58
ENDBRANCH  46  48
ENDBRANCH  34  44
ENDBRANCH  32  34
ENDBRANCH  25  30
ENDBRANCH  23  25
ENDBRANCH   2  23
TORSDOF 28
ENDMDL
MODEL 32
REMARK VINA RESULT:    -6.953      2.410      3.701
REMARK INTER + INTRA:         -21.466
REMARK INTER:                 -17.749
REMARK INTRA:                  -3.718
REMARK UNBOUND:                -4.149
REMARK SMILES CCCCCCC[C@H](N)[C@H](O)C(=O)N[C@H](C)C(=O)N(C)[C@H](CC(C)C)C(=O)N[C@@H](Cc1ccc(O)cc1)C(=O)N[C@@H](Cc1ccc(O)cc1)C(=O)O
REMARK SMILES IDX 18 1 17 2 15 3 16 4 14 5 12 6 13 7 10 9 11 10 8 12 9 13 7 16
REMARK SMILES IDX 6 17 5 18 4 19 3 20 2 21 1 22 19 23 20 24 21 25 22 26 23 27
REMARK SMILES IDX 24 28 25 29 26 30 27 31 28 32 29 34 30 35 31 36 32 37 37 38
REMARK SMILES IDX 33 39 36 40 34 41 35 42 38 44 39 45 40 46 41 48 42 49 43 50
REMARK SMILES IDX 44 51 49 52 45 53 48 54 46 55 47 56 50 58 51 59 52 60
REMARK H PARENT 14 8 11 11 9 14 9 15 28 33 35 43 40 47 47 57 52 61
ROOT
ATOM      1  O   UNL     1       1.683  13.070  -2.522  1.00  0.00    -0.272 OA
ATOM      2  C   UNL     1       1.034  12.338  -1.760  1.00  0.00     0.245 C 
ENDROOT
BRANCH   2   3
ATOM      3  C   UNL     1       1.089  12.619  -0.238  1.00  0.00     0.168 C 
ATOM      4  C   UNL     1       2.425  13.244   0.150  1.00  0.00     0.041 C 
BRANCH   3   5
ATOM      5  N   UNL     1      -0.036  13.379   0.284  1.00  0.00    -0.342 N 
ATOM      6  C   UNL     1      -1.056  12.777   0.991  1.00  0.00     0.251 C 
ATOM      7  O   UNL     1      -1.115  11.569   1.196  1.00  0.00    -0.272 OA
ATOM      8  H   UNL     1      -0.115  14.384   0.147  1.00  0.00     0.164 HD
BRANCH   6   9
ATOM      9  C   UNL     1      -2.059  13.790   1.566  1.00  0.00     0.219 C 
BRANCH   9  10
ATOM     10  O   UNL     1      -3.071  14.161   0.622  1.00  0.00    -0.382 OA
ATOM     11  H   UNL     1      -3.607  13.343   0.524  1.00  0.00     0.211 HD
ENDBRANCH   9  10
BRANCH   9  12
ATOM     12  C   UNL     1      -2.696  13.325   2.902  1.00  0.00     0.089 C 
BRANCH  12  13
ATOM     13  N   UNL     1      -3.646  12.228   2.610  1.00  0.00    -0.325 NA
ATOM     14  H   UNL     1      -3.575  11.975   1.623  1.00  0.00     0.119 HD
ATOM     15  H   UNL     1      -4.600  12.576   2.728  1.00  0.00     0.119 HD
ENDBRANCH  12  13
BRANCH  12  16
ATOM     16  C   UNL     1      -1.706  12.891   4.009  1.00  0.00     0.022 C 
BRANCH  16  17
ATOM     17  C   UNL     1      -2.234  12.099   5.214  1.00  0.00     0.002 C 
BRANCH  17  18
ATOM     18  C   UNL     1      -1.497  10.793   5.500  1.00  0.00     0.000 C 
BRANCH  18  19
ATOM     19  C   UNL     1      -1.498   9.805   4.325  1.00  0.00    -0.000 C 
BRANCH  19  20
ATOM     20  C   UNL     1      -0.125   9.236   3.953  1.00  0.00    -0.000 C 
BRANCH  20  21
ATOM     21  C   UNL     1       1.011  10.247   4.128  1.00  0.00    -0.003 C 
ATOM     22  C   UNL     1       2.357   9.552   4.259  1.00  0.00     0.004 C 
ENDBRANCH  20  21
ENDBRANCH  19  20
ENDBRANCH  18  19
ENDBRANCH  17  18
ENDBRANCH  16  17
ENDBRANCH  12  16
ENDBRANCH   9  12
ENDBRANCH   6   9
ENDBRANCH   3   5
ENDBRANCH   2   3
BRANCH   2  23
ATOM     23  N   UNL     1       0.184  11.369  -2.283  1.00  0.00    -0.332 N 
ATOM     24  C   UNL     1      -1.230  11.573  -2.559  1.00  0.00     0.147 C 
BRANCH  23  25
ATOM     25  C   UNL     1       0.726  10.054  -2.725  1.00  0.00     0.174 C 
BRANCH  25  26
ATOM     26  C   UNL     1       1.895   9.557  -1.841  1.00  0.00     0.038 C 
BRANCH  26  27
ATOM     27  C   UNL     1       1.550   8.538  -0.733  1.00  0.00    -0.015 C 
ATOM     28  C   UNL     1       1.552   9.167   0.660  1.00  0.00     0.007 C 
ATOM     29  C   UNL     1       0.243   7.789  -0.982  1.00  0.00     0.007 C 
ENDBRANCH  26  27
ENDBRANCH  25  26
BRANCH  25  30
ATOM     30  C   UNL     1       1.061  10.097  -4.233  1.00  0.00     0.243 C 
ATOM     31  O   UNL     1       0.259   9.725  -5.088  1.00  0.00    -0.273 OA
ATOM     32  N   UNL     1       2.309  10.568  -4.550  1.00  0.00    -0.342 N 
ATOM     33  H   UNL     1       2.862  10.989  -3.799  1.00  0.00     0.164 HD
BRANCH  32  34
ATOM     34  C   UNL     1       2.808  10.654  -5.925  1.00  0.00     0.175 C 
BRANCH  34  35
ATOM     35  C   UNL     1       3.616  11.942  -6.148  1.00  0.00     0.070 C 
BRANCH  35  36
ATOM     36  C   UNL     1       4.785  12.071  -5.198  1.00  0.00    -0.045 A 
ATOM     37  C   UNL     1       6.028  11.514  -5.535  1.00  0.00     0.007 A 
ATOM     38  C   UNL     1       4.641  12.722  -3.966  1.00  0.00     0.007 A 
ATOM     39  C   UNL     1       7.108  11.616  -4.658  1.00  0.00     0.046 A 
ATOM     40  C   UNL     1       5.722  12.824  -3.087  1.00  0.00     0.046 A 
ATOM     41  C   UNL     1       6.948  12.270  -3.443  1.00  0.00     0.115 A 
BRANCH  41  42
ATOM     42  O   UNL     1       8.028  12.345  -2.614  1.00  0.00    -0.508 OA
ATOM     43  H   UNL     1       7.889  13.084  -1.999  1.00  0.00     0.293 HD
ENDBRANCH  41  42
ENDBRANCH  35  36
ENDBRANCH  34  35
BRANCH  34  44
ATOM     44  C   UNL     1       3.650   9.389  -6.209  1.00  0.00     0.243 C 
ATOM     45  O   UNL     1       4.034   8.604  -5.347  1.00  0.00    -0.273 OA
ATOM     46  N   UNL     1       4.052   9.280  -7.523  1.00  0.00    -0.341 N 
ATOM     47  H   UNL     1       3.805  10.019  -8.178  1.00  0.00     0.164 HD
BRANCH  46  48
ATOM     48  C   UNL     1       4.912   8.203  -8.016  1.00  0.00     0.196 C 
BRANCH  48  49
ATOM     49  C   UNL     1       6.261   8.180  -7.277  1.00  0.00     0.072 C 
BRANCH  49  50
ATOM     50  C   UNL     1       7.428   7.922  -8.203  1.00  0.00    -0.045 A 
ATOM     51  C   UNL     1       8.078   6.679  -8.177  1.00  0.00     0.007 A 
ATOM     52  C   UNL     1       7.888   8.914  -9.078  1.00  0.00     0.007 A 
ATOM     53  C   UNL     1       9.164   6.434  -9.017  1.00  0.00     0.046 A 
ATOM     54  C   UNL     1       8.976   8.668  -9.918  1.00  0.00     0.046 A 
ATOM     55  C   UNL     1       9.605   7.429  -9.881  1.00  0.00     0.115 A 
BRANCH  55  56
ATOM     56  O   UNL     1      10.670   7.149 -10.684  1.00  0.00    -0.508 OA
ATOM     57  H   UNL     1      11.431   6.936 -10.120  1.00  0.00     0.293 HD
ENDBRANCH  55  56
ENDBRANCH  49  50
ENDBRANCH  48  49
BRANCH  48  58
ATOM     58  C   UNL     1       4.195   6.860  -7.819  1.00  0.00     0.326 C 
ATOM     59  O   UNL     1       3.265   6.416  -8.473  1.00  0.00    -0.250 OA
BRANCH  58  60
ATOM     60  O   UNL     1       4.700   6.122  -6.799  1.00  0.00    -0.480 OA
ATOM     61  H   UNL     1       3.973   6.121  -6.139  1.00  0.00     0.296 HD
ENDBRANCH  58  60
ENDBRANCH  48  58
ENDBRANCH  46  48
ENDBRANCH  34  44
ENDBRANCH  32  34
ENDBRANCH  25  30
ENDBRANCH  23  25
ENDBRANCH   2  23
TORSDOF 28
ENDMDL
MODEL 33
REMARK VINA RESULT:    -6.943      5.562      9.676
REMARK INTER + INTRA:         -21.442
REMARK INTER:                 -17.154
REMARK INTRA:                  -4.289
REMARK UNBOUND:                -4.149
REMARK SMILES CCCCCCC[C@H](N)[C@H](O)C(=O)N[C@H](C)C(=O)N(C)[C@H](CC(C)C)C(=O)N[C@@H](Cc1ccc(O)cc1)C(=O)N[C@@H](Cc1ccc(O)cc1)C(=O)O
REMARK SMILES IDX 18 1 17 2 15 3 16 4 14 5 12 6 13 7 10 9 11 10 8 12 9 13 7 16
REMARK SMILES IDX 6 17 5 18 4 19 3 20 2 21 1 22 19 23 20 24 21 25 22 26 23 27
REMARK SMILES IDX 24 28 25 29 26 30 27 31 28 32 29 34 30 35 31 36 32 37 37 38
REMARK SMILES IDX 33 39 36 40 34 41 35 42 38 44 39 45 40 46 41 48 42 49 43 50
REMARK SMILES IDX 44 51 49 52 45 53 48 54 46 55 47 56 50 58 51 59 52 60
REMARK H PARENT 14 8 11 11 9 14 9 15 28 33 35 43 40 47 47 57 52 61
ROOT
ATOM      1  O   UNL     1       8.318  11.594   2.858  1.00  0.00    -0.272 OA
ATOM      2  C   UNL     1       7.464  11.315   2.004  1.00  0.00     0.245 C 
ENDROOT
BRANCH   2   3
ATOM      3  C   UNL     1       7.461   9.891   1.396  1.00  0.00     0.168 C 
ATOM      4  C   UNL     1       8.821   9.223   1.574  1.00  0.00     0.041 C 
BRANCH   3   5
ATOM      5  N   UNL     1       6.374   9.036   1.847  1.00  0.00    -0.342 N 
ATOM      6  C   UNL     1       6.404   8.407   3.074  1.00  0.00     0.251 C 
ATOM      7  O   UNL     1       7.350   8.483   3.850  1.00  0.00    -0.272 OA
ATOM      8  H   UNL     1       5.550   8.868   1.274  1.00  0.00     0.164 HD
BRANCH   6   9
ATOM      9  C   UNL     1       5.092   7.674   3.398  1.00  0.00     0.219 C 
BRANCH   9  10
ATOM     10  O   UNL     1       5.126   6.291   3.028  1.00  0.00    -0.382 OA
ATOM     11  H   UNL     1       5.828   6.252   2.342  1.00  0.00     0.211 HD
ENDBRANCH   9  10
BRANCH   9  12
ATOM     12  C   UNL     1       4.653   7.838   4.877  1.00  0.00     0.089 C 
BRANCH  12  13
ATOM     13  N   UNL     1       5.673   7.200   5.741  1.00  0.00    -0.325 NA
ATOM     14  H   UNL     1       5.384   7.282   6.718  1.00  0.00     0.119 HD
ATOM     15  H   UNL     1       6.543   7.732   5.674  1.00  0.00     0.119 HD
ENDBRANCH  12  13
BRANCH  12  16
ATOM     16  C   UNL     1       4.388   9.287   5.349  1.00  0.00     0.022 C 
BRANCH  16  17
ATOM     17  C   UNL     1       3.730   9.519   6.716  1.00  0.00     0.002 C 
BRANCH  17  18
ATOM     18  C   UNL     1       3.004  10.854   6.865  1.00  0.00     0.000 C 
BRANCH  18  19
ATOM     19  C   UNL     1       2.041  11.173   5.713  1.00  0.00    -0.000 C 
BRANCH  19  20
ATOM     20  C   UNL     1       0.578  10.797   5.967  1.00  0.00    -0.000 C 
BRANCH  20  21
ATOM     21  C   UNL     1      -0.081  10.108   4.770  1.00  0.00    -0.003 C 
ATOM     22  C   UNL     1      -1.522   9.727   5.072  1.00  0.00     0.004 C 
ENDBRANCH  20  21
ENDBRANCH  19  20
ENDBRANCH  18  19
ENDBRANCH  17  18
ENDBRANCH  16  17
ENDBRANCH  12  16
ENDBRANCH   9  12
ENDBRANCH   6   9
ENDBRANCH   3   5
ENDBRANCH   2   3
BRANCH   2  23
ATOM     23  N   UNL     1       6.461  12.230   1.698  1.00  0.00    -0.332 N 
ATOM     24  C   UNL     1       6.049  13.324   2.565  1.00  0.00     0.147 C 
BRANCH  23  25
ATOM     25  C   UNL     1       5.815  12.215   0.357  1.00  0.00     0.174 C 
BRANCH  25  26
ATOM     26  C   UNL     1       5.971  13.554  -0.402  1.00  0.00     0.038 C 
BRANCH  26  27
ATOM     27  C   UNL     1       6.660  13.499  -1.783  1.00  0.00    -0.015 C 
ATOM     28  C   UNL     1       7.787  12.467  -1.834  1.00  0.00     0.007 C 
ATOM     29  C   UNL     1       5.687  13.288  -2.940  1.00  0.00     0.007 C 
ENDBRANCH  26  27
ENDBRANCH  25  26
BRANCH  25  30
ATOM     30  C   UNL     1       4.350  11.737   0.478  1.00  0.00     0.243 C 
ATOM     31  O   UNL     1       4.043  10.740   1.131  1.00  0.00    -0.273 OA
ATOM     32  N   UNL     1       3.422  12.491  -0.192  1.00  0.00    -0.342 N 
ATOM     33  H   UNL     1       3.734  13.380  -0.592  1.00  0.00     0.164 HD
BRANCH  32  34
ATOM     34  C   UNL     1       1.992  12.172  -0.212  1.00  0.00     0.175 C 
BRANCH  34  35
ATOM     35  C   UNL     1       1.143  13.385   0.198  1.00  0.00     0.070 C 
BRANCH  35  36
ATOM     36  C   UNL     1      -0.239  12.998   0.675  1.00  0.00    -0.045 A 
ATOM     37  C   UNL     1      -0.436  11.775   1.335  1.00  0.00     0.007 A 
ATOM     38  C   UNL     1      -1.339  13.836   0.449  1.00  0.00     0.007 A 
ATOM     39  C   UNL     1      -1.709  11.403   1.767  1.00  0.00     0.046 A 
ATOM     40  C   UNL     1      -2.614  13.463   0.880  1.00  0.00     0.046 A 
ATOM     41  C   UNL     1      -2.788  12.249   1.537  1.00  0.00     0.115 A 
BRANCH  41  42
ATOM     42  O   UNL     1      -4.015  11.847   1.972  1.00  0.00    -0.508 OA
ATOM     43  H   UNL     1      -4.270  11.053   1.473  1.00  0.00     0.293 HD
ENDBRANCH  41  42
ENDBRANCH  35  36
ENDBRANCH  34  35
BRANCH  34  44
ATOM     44  C   UNL     1       1.633  11.669  -1.628  1.00  0.00     0.243 C 
ATOM     45  O   UNL     1       2.050  12.169  -2.669  1.00  0.00    -0.273 OA
ATOM     46  N   UNL     1       0.682  10.670  -1.631  1.00  0.00    -0.341 N 
ATOM     47  H   UNL     1       0.280  10.369  -0.747  1.00  0.00     0.164 HD
BRANCH  46  48
ATOM     48  C   UNL     1       0.135  10.082  -2.856  1.00  0.00     0.196 C 
BRANCH  48  49
ATOM     49  C   UNL     1      -0.299   8.624  -2.631  1.00  0.00     0.072 C 
BRANCH  49  50
ATOM     50  C   UNL     1      -0.238   8.216  -1.177  1.00  0.00    -0.045 A 
ATOM     51  C   UNL     1      -1.401   8.243  -0.394  1.00  0.00     0.007 A 
ATOM     52  C   UNL     1       0.972   7.828  -0.587  1.00  0.00     0.007 A 
ATOM     53  C   UNL     1      -1.355   7.881   0.953  1.00  0.00     0.046 A 
ATOM     54  C   UNL     1       1.019   7.467   0.761  1.00  0.00     0.046 A 
ATOM     55  C   UNL     1      -0.146   7.496   1.520  1.00  0.00     0.115 A 
BRANCH  55  56
ATOM     56  O   UNL     1      -0.143   7.152   2.839  1.00  0.00    -0.508 OA
ATOM     57  H   UNL     1       0.598   6.545   2.996  1.00  0.00     0.293 HD
ENDBRANCH  55  56
ENDBRANCH  49  50
ENDBRANCH  48  49
BRANCH  48  58
ATOM     58  C   UNL     1      -1.072  10.913  -3.312  1.00  0.00     0.326 C 
ATOM     59  O   UNL     1      -1.580  10.931  -4.422  1.00  0.00    -0.250 OA
BRANCH  58  60
ATOM     60  O   UNL     1      -1.600  11.686  -2.330  1.00  0.00    -0.480 OA
ATOM     61  H   UNL     1      -1.806  11.039  -1.620  1.00  0.00     0.296 HD
ENDBRANCH  58  60
ENDBRANCH  48  58
ENDBRANCH  46  48
ENDBRANCH  34  44
ENDBRANCH  32  34
ENDBRANCH  25  30
ENDBRANCH  23  25
ENDBRANCH   2  23
TORSDOF 28
ENDMDL
MODEL 34
REMARK VINA RESULT:    -6.935      2.382     11.295
REMARK INTER + INTRA:         -21.423
REMARK INTER:                 -17.805
REMARK INTRA:                  -3.618
REMARK UNBOUND:                -4.149
REMARK SMILES CCCCCCC[C@H](N)[C@H](O)C(=O)N[C@H](C)C(=O)N(C)[C@H](CC(C)C)C(=O)N[C@@H](Cc1ccc(O)cc1)C(=O)N[C@@H](Cc1ccc(O)cc1)C(=O)O
REMARK SMILES IDX 18 1 17 2 15 3 16 4 14 5 12 6 13 7 10 9 11 10 8 12 9 13 7 16
REMARK SMILES IDX 6 17 5 18 4 19 3 20 2 21 1 22 19 23 20 24 21 25 22 26 23 27
REMARK SMILES IDX 24 28 25 29 26 30 27 31 28 32 29 34 30 35 31 36 32 37 37 38
REMARK SMILES IDX 33 39 36 40 34 41 35 42 38 44 39 45 40 46 41 48 42 49 43 50
REMARK SMILES IDX 44 51 49 52 45 53 48 54 46 55 47 56 50 58 51 59 52 60
REMARK H PARENT 14 8 11 11 9 14 9 15 28 33 35 43 40 47 47 57 52 61
ROOT
ATOM      1  O   UNL     1       2.871  13.738  -5.451  1.00  0.00    -0.272 OA
ATOM      2  C   UNL     1       3.542  12.838  -4.926  1.00  0.00     0.245 C 
ENDROOT
BRANCH   2   3
ATOM      3  C   UNL     1       5.081  12.864  -5.099  1.00  0.00     0.168 C 
ATOM      4  C   UNL     1       5.778  12.910  -3.744  1.00  0.00     0.041 C 
BRANCH   3   5
ATOM      5  N   UNL     1       5.619  11.814  -5.950  1.00  0.00    -0.342 N 
ATOM      6  C   UNL     1       5.855  12.015  -7.293  1.00  0.00     0.251 C 
ATOM      7  O   UNL     1       5.597  13.062  -7.876  1.00  0.00    -0.272 OA
ATOM      8  H   UNL     1       5.840  10.890  -5.586  1.00  0.00     0.164 HD
BRANCH   6   9
ATOM      9  C   UNL     1       6.555  10.819  -7.959  1.00  0.00     0.219 C 
BRANCH   9  10
ATOM     10  O   UNL     1       7.748  10.423  -7.271  1.00  0.00    -0.382 OA
ATOM     11  H   UNL     1       8.050  11.252  -6.839  1.00  0.00     0.211 HD
ENDBRANCH   9  10
BRANCH   9  12
ATOM     12  C   UNL     1       5.614   9.604  -8.172  1.00  0.00     0.089 C 
BRANCH  12  13
ATOM     13  N   UNL     1       4.226  10.105  -8.300  1.00  0.00    -0.325 NA
ATOM     14  H   UNL     1       4.194  10.825  -9.024  1.00  0.00     0.119 HD
ATOM     15  H   UNL     1       3.966  10.585  -7.435  1.00  0.00     0.119 HD
ENDBRANCH  12  13
BRANCH  12  16
ATOM     16  C   UNL     1       5.958   8.681  -9.366  1.00  0.00     0.022 C 
BRANCH  16  17
ATOM     17  C   UNL     1       6.997   7.568  -9.174  1.00  0.00     0.002 C 
BRANCH  17  18
ATOM     18  C   UNL     1       6.628   6.226  -9.802  1.00  0.00     0.000 C 
BRANCH  18  19
ATOM     19  C   UNL     1       5.643   6.335 -10.974  1.00  0.00    -0.000 C 
BRANCH  19  20
ATOM     20  C   UNL     1       4.762   5.103 -11.198  1.00  0.00    -0.000 C 
BRANCH  20  21
ATOM     21  C   UNL     1       3.373   5.236 -10.568  1.00  0.00    -0.003 C 
ATOM     22  C   UNL     1       2.973   6.695 -10.412  1.00  0.00     0.004 C 
ENDBRANCH  20  21
ENDBRANCH  19  20
ENDBRANCH  18  19
ENDBRANCH  17  18
ENDBRANCH  16  17
ENDBRANCH  12  16
ENDBRANCH   9  12
ENDBRANCH   6   9
ENDBRANCH   3   5
ENDBRANCH   2   3
BRANCH   2  23
ATOM     23  N   UNL     1       2.927  11.902  -4.100  1.00  0.00    -0.332 N 
ATOM     24  C   UNL     1       2.929  10.466  -4.335  1.00  0.00     0.147 C 
BRANCH  23  25
ATOM     25  C   UNL     1       2.314  12.326  -2.811  1.00  0.00     0.174 C 
BRANCH  25  26
ATOM     26  C   UNL     1       2.976  11.660  -1.582  1.00  0.00     0.038 C 
BRANCH  26  27
ATOM     27  C   UNL     1       3.407  12.592  -0.428  1.00  0.00    -0.015 C 
ATOM     28  C   UNL     1       4.920  12.589  -0.208  1.00  0.00     0.007 C 
ATOM     29  C   UNL     1       2.889  14.021  -0.576  1.00  0.00     0.007 C 
ENDBRANCH  26  27
ENDBRANCH  25  26
BRANCH  25  30
ATOM     30  C   UNL     1       0.780  12.144  -2.866  1.00  0.00     0.243 C 
ATOM     31  O   UNL     1       0.147  12.275  -3.912  1.00  0.00    -0.273 OA
ATOM     32  N   UNL     1       0.177  11.834  -1.674  1.00  0.00    -0.342 N 
ATOM     33  H   UNL     1       0.782  11.603  -0.883  1.00  0.00     0.164 HD
BRANCH  32  34
ATOM     34  C   UNL     1      -1.270  11.651  -1.532  1.00  0.00     0.175 C 
BRANCH  34  35
ATOM     35  C   UNL     1      -1.658  10.168  -1.623  1.00  0.00     0.070 C 
BRANCH  35  36
ATOM     36  C   UNL     1      -0.751   9.275  -0.807  1.00  0.00    -0.045 A 
ATOM     37  C   UNL     1      -1.241   8.645   0.348  1.00  0.00     0.007 A 
ATOM     38  C   UNL     1       0.587   9.082  -1.173  1.00  0.00     0.007 A 
ATOM     39  C   UNL     1      -0.408   7.831   1.116  1.00  0.00     0.046 A 
ATOM     40  C   UNL     1       1.422   8.267  -0.404  1.00  0.00     0.046 A 
ATOM     41  C   UNL     1       0.916   7.648   0.734  1.00  0.00     0.115 A 
BRANCH  41  42
ATOM     42  O   UNL     1       1.697   6.847   1.513  1.00  0.00    -0.508 OA
ATOM     43  H   UNL     1       1.148   6.118   1.847  1.00  0.00     0.293 HD
ENDBRANCH  41  42
ENDBRANCH  35  36
ENDBRANCH  34  35
BRANCH  34  44
ATOM     44  C   UNL     1      -1.702  12.280  -0.188  1.00  0.00     0.243 C 
ATOM     45  O   UNL     1      -1.464  13.437   0.145  1.00  0.00    -0.273 OA
ATOM     46  N   UNL     1      -2.277  11.376   0.680  1.00  0.00    -0.341 N 
ATOM     47  H   UNL     1      -2.347  10.400   0.403  1.00  0.00     0.164 HD
BRANCH  46  48
ATOM     48  C   UNL     1      -2.704  11.723   2.038  1.00  0.00     0.196 C 
BRANCH  48  49
ATOM     49  C   UNL     1      -1.561  12.372   2.836  1.00  0.00     0.072 C 
BRANCH  49  50
ATOM     50  C   UNL     1      -0.381  11.446   3.020  1.00  0.00    -0.045 A 
ATOM     51  C   UNL     1      -0.472  10.365   3.909  1.00  0.00     0.007 A 
ATOM     52  C   UNL     1       0.819  11.661   2.329  1.00  0.00     0.007 A 
ATOM     53  C   UNL     1       0.615   9.512   4.098  1.00  0.00     0.046 A 
ATOM     54  C   UNL     1       1.908  10.807   2.518  1.00  0.00     0.046 A 
ATOM     55  C   UNL     1       1.796   9.738   3.401  1.00  0.00     0.115 A 
BRANCH  55  56
ATOM     56  O   UNL     1       2.835   8.882   3.615  1.00  0.00    -0.508 OA
ATOM     57  H   UNL     1       2.992   8.381   2.798  1.00  0.00     0.293 HD
ENDBRANCH  55  56
ENDBRANCH  49  50
ENDBRANCH  48  49
BRANCH  48  58
ATOM     58  C   UNL     1      -3.891  12.693   1.956  1.00  0.00     0.326 C 
ATOM     59  O   UNL     1      -3.927  13.851   2.340  1.00  0.00    -0.250 OA
BRANCH  58  60
ATOM     60  O   UNL     1      -4.990  12.155   1.369  1.00  0.00    -0.480 OA
ATOM     61  H   UNL     1      -4.880  12.392   0.423  1.00  0.00     0.296 HD
ENDBRANCH  58  60
ENDBRANCH  48  58
ENDBRANCH  46  48
ENDBRANCH  34  44
ENDBRANCH  32  34
ENDBRANCH  25  30
ENDBRANCH  23  25
ENDBRANCH   2  23
TORSDOF 28
ENDMDL
MODEL 35
REMARK VINA RESULT:    -6.933     12.650     17.301
REMARK INTER + INTRA:         -21.416
REMARK INTER:                 -16.541
REMARK INTRA:                  -4.876
REMARK UNBOUND:                -4.149
REMARK SMILES CCCCCCC[C@H](N)[C@H](O)C(=O)N[C@H](C)C(=O)N(C)[C@H](CC(C)C)C(=O)N[C@@H](Cc1ccc(O)cc1)C(=O)N[C@@H](Cc1ccc(O)cc1)C(=O)O
REMARK SMILES IDX 18 1 17 2 15 3 16 4 14 5 12 6 13 7 10 9 11 10 8 12 9 13 7 16
REMARK SMILES IDX 6 17 5 18 4 19 3 20 2 21 1 22 19 23 20 24 21 25 22 26 23 27
REMARK SMILES IDX 24 28 25 29 26 30 27 31 28 32 29 34 30 35 31 36 32 37 37 38
REMARK SMILES IDX 33 39 36 40 34 41 35 42 38 44 39 45 40 46 41 48 42 49 43 50
REMARK SMILES IDX 44 51 49 52 45 53 48 54 46 55 47 56 50 58 51 59 52 60
REMARK H PARENT 14 8 11 11 9 14 9 15 28 33 35 43 40 47 47 57 52 61
ROOT
ATOM      1  O   UNL     1      -1.469   0.801   8.021  1.00  0.00    -0.272 OA
ATOM      2  C   UNL     1      -1.322   1.483   9.046  1.00  0.00     0.245 C 
ENDROOT
BRANCH   2   3
ATOM      3  C   UNL     1      -1.648   0.841  10.417  1.00  0.00     0.168 C 
ATOM      4  C   UNL     1      -0.647  -0.260  10.752  1.00  0.00     0.041 C 
BRANCH   3   5
ATOM      5  N   UNL     1      -1.801   1.785  11.513  1.00  0.00    -0.342 N 
ATOM      6  C   UNL     1      -2.709   1.579  12.530  1.00  0.00     0.251 C 
ATOM      7  O   UNL     1      -3.476   0.623  12.568  1.00  0.00    -0.272 OA
ATOM      8  H   UNL     1      -1.244   2.635  11.571  1.00  0.00     0.164 HD
BRANCH   6   9
ATOM      9  C   UNL     1      -2.598   2.628  13.648  1.00  0.00     0.219 C 
BRANCH   9  10
ATOM     10  O   UNL     1      -3.853   2.893  14.285  1.00  0.00    -0.382 OA
ATOM     11  H   UNL     1      -3.677   2.699  15.232  1.00  0.00     0.211 HD
ENDBRANCH   9  10
BRANCH   9  12
ATOM     12  C   UNL     1      -1.509   2.285  14.698  1.00  0.00     0.089 C 
BRANCH  12  13
ATOM     13  N   UNL     1      -0.787   1.074  14.244  1.00  0.00    -0.325 NA
ATOM     14  H   UNL     1      -1.460   0.323  14.082  1.00  0.00     0.119 HD
ATOM     15  H   UNL     1      -0.191   0.740  15.005  1.00  0.00     0.119 HD
ENDBRANCH  12  13
BRANCH  12  16
ATOM     16  C   UNL     1      -0.502   3.414  15.024  1.00  0.00     0.022 C 
BRANCH  16  17
ATOM     17  C   UNL     1      -1.033   4.805  15.394  1.00  0.00     0.002 C 
BRANCH  17  18
ATOM     18  C   UNL     1      -0.240   5.974  14.814  1.00  0.00     0.000 C 
BRANCH  18  19
ATOM     19  C   UNL     1      -0.868   6.593  13.558  1.00  0.00    -0.000 C 
BRANCH  19  20
ATOM     20  C   UNL     1      -2.289   6.118  13.241  1.00  0.00    -0.000 C 
BRANCH  20  21
ATOM     21  C   UNL     1      -2.436   5.576  11.817  1.00  0.00    -0.003 C 
ATOM     22  C   UNL     1      -2.161   6.656  10.781  1.00  0.00     0.004 C 
ENDBRANCH  20  21
ENDBRANCH  19  20
ENDBRANCH  18  19
ENDBRANCH  17  18
ENDBRANCH  16  17
ENDBRANCH  12  16
ENDBRANCH   9  12
ENDBRANCH   6   9
ENDBRANCH   3   5
ENDBRANCH   2   3
BRANCH   2  23
ATOM     23  N   UNL     1      -0.758   2.752   8.961  1.00  0.00    -0.332 N 
ATOM     24  C   UNL     1      -1.430   3.919   8.410  1.00  0.00     0.147 C 
BRANCH  23  25
ATOM     25  C   UNL     1       0.573   3.024   9.570  1.00  0.00     0.174 C 
BRANCH  25  26
ATOM     26  C   UNL     1       0.571   4.268  10.490  1.00  0.00     0.038 C 
BRANCH  26  27
ATOM     27  C   UNL     1       1.197   4.102  11.893  1.00  0.00    -0.015 C 
ATOM     28  C   UNL     1       1.700   2.680  12.144  1.00  0.00     0.007 C 
ATOM     29  C   UNL     1       2.293   5.121  12.194  1.00  0.00     0.007 C 
ENDBRANCH  26  27
ENDBRANCH  25  26
BRANCH  25  30
ATOM     30  C   UNL     1       1.662   3.064   8.473  1.00  0.00     0.243 C 
ATOM     31  O   UNL     1       1.559   2.419   7.431  1.00  0.00    -0.273 OA
ATOM     32  N   UNL     1       2.747   3.858   8.742  1.00  0.00    -0.342 N 
ATOM     33  H   UNL     1       2.694   4.470   9.561  1.00  0.00     0.164 HD
BRANCH  32  34
ATOM     34  C   UNL     1       3.886   3.996   7.831  1.00  0.00     0.175 C 
BRANCH  34  35
ATOM     35  C   UNL     1       4.594   5.346   8.021  1.00  0.00     0.070 C 
BRANCH  35  36
ATOM     36  C   UNL     1       5.559   5.663   6.901  1.00  0.00    -0.045 A 
ATOM     37  C   UNL     1       5.122   5.635   5.568  1.00  0.00     0.007 A 
ATOM     38  C   UNL     1       6.901   5.964   7.172  1.00  0.00     0.007 A 
ATOM     39  C   UNL     1       6.009   5.913   4.528  1.00  0.00     0.046 A 
ATOM     40  C   UNL     1       7.790   6.240   6.131  1.00  0.00     0.046 A 
ATOM     41  C   UNL     1       7.334   6.213   4.817  1.00  0.00     0.115 A 
BRANCH  41  42
ATOM     42  O   UNL     1       8.169   6.475   3.771  1.00  0.00    -0.508 OA
ATOM     43  H   UNL     1       8.469   7.396   3.844  1.00  0.00     0.293 HD
ENDBRANCH  41  42
ENDBRANCH  35  36
ENDBRANCH  34  35
BRANCH  34  44
ATOM     44  C   UNL     1       4.840   2.804   8.074  1.00  0.00     0.243 C 
ATOM     45  O   UNL     1       5.811   2.538   7.371  1.00  0.00    -0.273 OA
ATOM     46  N   UNL     1       4.429   1.971   9.092  1.00  0.00    -0.341 N 
ATOM     47  H   UNL     1       3.553   2.169   9.570  1.00  0.00     0.164 HD
BRANCH  46  48
ATOM     48  C   UNL     1       5.134   0.741   9.461  1.00  0.00     0.196 C 
BRANCH  48  49
ATOM     49  C   UNL     1       6.260   1.023  10.469  1.00  0.00     0.072 C 
BRANCH  49  50
ATOM     50  C   UNL     1       7.510   0.220  10.185  1.00  0.00    -0.045 A 
ATOM     51  C   UNL     1       7.657  -0.429   8.950  1.00  0.00     0.007 A 
ATOM     52  C   UNL     1       8.520   0.095  11.146  1.00  0.00     0.007 A 
ATOM     53  C   UNL     1       8.800  -1.183   8.682  1.00  0.00     0.046 A 
ATOM     54  C   UNL     1       9.664  -0.661  10.878  1.00  0.00     0.046 A 
ATOM     55  C   UNL     1       9.794  -1.293   9.646  1.00  0.00     0.115 A 
BRANCH  55  56
ATOM     56  O   UNL     1      10.893  -2.041   9.345  1.00  0.00    -0.508 OA
ATOM     57  H   UNL     1      10.596  -2.908   9.026  1.00  0.00     0.293 HD
ENDBRANCH  55  56
ENDBRANCH  49  50
ENDBRANCH  48  49
BRANCH  48  58
ATOM     58  C   UNL     1       4.130  -0.245  10.074  1.00  0.00     0.326 C 
ATOM     59  O   UNL     1       4.377  -1.202  10.790  1.00  0.00    -0.250 OA
BRANCH  58  60
ATOM     60  O   UNL     1       2.839   0.033   9.762  1.00  0.00    -0.480 OA
ATOM     61  H   UNL     1       2.330  -0.521  10.393  1.00  0.00     0.296 HD
ENDBRANCH  58  60
ENDBRANCH  48  58
ENDBRANCH  46  48
ENDBRANCH  34  44
ENDBRANCH  32  34
ENDBRANCH  25  30
ENDBRANCH  23  25
ENDBRANCH   2  23
TORSDOF 28
ENDMDL
MODEL 36
REMARK VINA RESULT:    -6.927     14.746     20.625
REMARK INTER + INTRA:         -21.403
REMARK INTER:                 -17.124
REMARK INTRA:                  -4.279
REMARK UNBOUND:                -4.149
REMARK SMILES CCCCCCC[C@H](N)[C@H](O)C(=O)N[C@H](C)C(=O)N(C)[C@H](CC(C)C)C(=O)N[C@@H](Cc1ccc(O)cc1)C(=O)N[C@@H](Cc1ccc(O)cc1)C(=O)O
REMARK SMILES IDX 18 1 17 2 15 3 16 4 14 5 12 6 13 7 10 9 11 10 8 12 9 13 7 16
REMARK SMILES IDX 6 17 5 18 4 19 3 20 2 21 1 22 19 23 20 24 21 25 22 26 23 27
REMARK SMILES IDX 24 28 25 29 26 30 27 31 28 32 29 34 30 35 31 36 32 37 37 38
REMARK SMILES IDX 33 39 36 40 34 41 35 42 38 44 39 45 40 46 41 48 42 49 43 50
REMARK SMILES IDX 44 51 49 52 45 53 48 54 46 55 47 56 50 58 51 59 52 60
REMARK H PARENT 14 8 11 11 9 14 9 15 28 33 35 43 40 47 47 57 52 61
ROOT
ATOM      1  O   UNL     1       4.844  -0.155   9.481  1.00  0.00    -0.272 OA
ATOM      2  C   UNL     1       5.835   0.441   9.928  1.00  0.00     0.245 C 
ENDROOT
BRANCH   2   3
ATOM      3  C   UNL     1       6.867  -0.359  10.761  1.00  0.00     0.168 C 
ATOM      4  C   UNL     1       6.181  -1.112  11.896  1.00  0.00     0.041 C 
BRANCH   3   5
ATOM      5  N   UNL     1       7.739  -1.227   9.984  1.00  0.00    -0.342 N 
ATOM      6  C   UNL     1       9.095  -1.300  10.223  1.00  0.00     0.251 C 
ATOM      7  O   UNL     1       9.670  -0.620  11.066  1.00  0.00    -0.272 OA
ATOM      8  H   UNL     1       7.381  -1.813   9.233  1.00  0.00     0.164 HD
BRANCH   6   9
ATOM      9  C   UNL     1       9.789  -2.382   9.381  1.00  0.00     0.219 C 
BRANCH   9  10
ATOM     10  O   UNL     1       8.868  -3.337   8.840  1.00  0.00    -0.382 OA
ATOM     11  H   UNL     1       8.938  -4.100   9.455  1.00  0.00     0.211 HD
ENDBRANCH   9  10
BRANCH   9  12
ATOM     12  C   UNL     1      10.697  -1.799   8.267  1.00  0.00     0.089 C 
BRANCH  12  13
ATOM     13  N   UNL     1      10.394  -0.356   8.125  1.00  0.00    -0.325 NA
ATOM     14  H   UNL     1      11.176   0.107   7.659  1.00  0.00     0.119 HD
ATOM     15  H   UNL     1      10.350   0.066   9.056  1.00  0.00     0.119 HD
ENDBRANCH  12  13
BRANCH  12  16
ATOM     16  C   UNL     1      12.219  -2.007   8.454  1.00  0.00     0.022 C 
BRANCH  16  17
ATOM     17  C   UNL     1      12.737  -3.385   8.885  1.00  0.00     0.002 C 
BRANCH  17  18
ATOM     18  C   UNL     1      12.760  -4.440   7.781  1.00  0.00     0.000 C 
BRANCH  18  19
ATOM     19  C   UNL     1      11.551  -5.385   7.795  1.00  0.00    -0.000 C 
BRANCH  19  20
ATOM     20  C   UNL     1      11.474  -6.358   6.615  1.00  0.00    -0.000 C 
BRANCH  20  21
ATOM     21  C   UNL     1      11.674  -5.675   5.260  1.00  0.00    -0.003 C 
ATOM     22  C   UNL     1      12.935  -6.173   4.569  1.00  0.00     0.004 C 
ENDBRANCH  20  21
ENDBRANCH  19  20
ENDBRANCH  18  19
ENDBRANCH  17  18
ENDBRANCH  16  17
ENDBRANCH  12  16
ENDBRANCH   9  12
ENDBRANCH   6   9
ENDBRANCH   3   5
ENDBRANCH   2   3
BRANCH   2  23
ATOM     23  N   UNL     1       6.065   1.768   9.579  1.00  0.00    -0.332 N 
ATOM     24  C   UNL     1       7.295   2.494   9.860  1.00  0.00     0.147 C 
BRANCH  23  25
ATOM     25  C   UNL     1       5.073   2.510   8.755  1.00  0.00     0.174 C 
BRANCH  25  26
ATOM     26  C   UNL     1       5.700   3.691   7.977  1.00  0.00     0.038 C 
BRANCH  26  27
ATOM     27  C   UNL     1       4.761   4.498   7.052  1.00  0.00    -0.015 C 
ATOM     28  C   UNL     1       4.241   5.773   7.716  1.00  0.00     0.007 C 
ATOM     29  C   UNL     1       5.374   4.813   5.690  1.00  0.00     0.007 C 
ENDBRANCH  26  27
ENDBRANCH  25  26
BRANCH  25  30
ATOM     30  C   UNL     1       3.856   2.912   9.619  1.00  0.00     0.243 C 
ATOM     31  O   UNL     1       3.950   3.732  10.532  1.00  0.00    -0.273 OA
ATOM     32  N   UNL     1       2.675   2.291   9.306  1.00  0.00    -0.342 N 
ATOM     33  H   UNL     1       2.646   1.732   8.449  1.00  0.00     0.164 HD
BRANCH  32  34
ATOM     34  C   UNL     1       1.426   2.528  10.036  1.00  0.00     0.175 C 
BRANCH  34  35
ATOM     35  C   UNL     1       0.424   3.324   9.185  1.00  0.00     0.070 C 
BRANCH  35  36
ATOM     36  C   UNL     1      -0.202   4.473   9.942  1.00  0.00    -0.045 A 
ATOM     37  C   UNL     1       0.571   5.229  10.837  1.00  0.00     0.007 A 
ATOM     38  C   UNL     1      -1.559   4.785   9.782  1.00  0.00     0.007 A 
ATOM     39  C   UNL     1      -0.002   6.282  11.550  1.00  0.00     0.046 A 
ATOM     40  C   UNL     1      -2.133   5.839  10.497  1.00  0.00     0.046 A 
ATOM     41  C   UNL     1      -1.348   6.579  11.374  1.00  0.00     0.115 A 
BRANCH  41  42
ATOM     42  O   UNL     1      -1.870   7.614  12.092  1.00  0.00    -0.508 OA
ATOM     43  H   UNL     1      -2.786   7.755  11.802  1.00  0.00     0.293 HD
ENDBRANCH  41  42
ENDBRANCH  35  36
ENDBRANCH  34  35
BRANCH  34  44
ATOM     44  C   UNL     1       0.857   1.158  10.468  1.00  0.00     0.243 C 
ATOM     45  O   UNL     1       1.535   0.151  10.650  1.00  0.00    -0.273 OA
ATOM     46  N   UNL     1      -0.521   1.124  10.508  1.00  0.00    -0.341 N 
ATOM     47  H   UNL     1      -1.043   1.953  10.235  1.00  0.00     0.164 HD
BRANCH  46  48
ATOM     48  C   UNL     1      -1.289  -0.082  10.825  1.00  0.00     0.196 C 
BRANCH  48  49
ATOM     49  C   UNL     1      -1.815  -0.048  12.270  1.00  0.00     0.072 C 
BRANCH  49  50
ATOM     50  C   UNL     1      -2.000   1.360  12.788  1.00  0.00    -0.045 A 
ATOM     51  C   UNL     1      -0.985   1.967  13.541  1.00  0.00     0.007 A 
ATOM     52  C   UNL     1      -3.185   2.066  12.547  1.00  0.00     0.007 A 
ATOM     53  C   UNL     1      -1.150   3.261  14.036  1.00  0.00     0.046 A 
ATOM     54  C   UNL     1      -3.352   3.361  13.043  1.00  0.00     0.046 A 
ATOM     55  C   UNL     1      -2.331   3.948  13.783  1.00  0.00     0.115 A 
BRANCH  55  56
ATOM     56  O   UNL     1      -2.454   5.210  14.286  1.00  0.00    -0.508 OA
ATOM     57  H   UNL     1      -3.232   5.233  14.866  1.00  0.00     0.293 HD
ENDBRANCH  55  56
ENDBRANCH  49  50
ENDBRANCH  48  49
BRANCH  48  58
ATOM     58  C   UNL     1      -2.469  -0.193   9.850  1.00  0.00     0.326 C 
ATOM     59  O   UNL     1      -2.548   0.280   8.728  1.00  0.00    -0.250 OA
BRANCH  58  60
ATOM     60  O   UNL     1      -3.507  -0.919  10.337  1.00  0.00    -0.480 OA
ATOM     61  H   UNL     1      -3.915  -1.300   9.529  1.00  0.00     0.296 HD
ENDBRANCH  58  60
ENDBRANCH  48  58
ENDBRANCH  46  48
ENDBRANCH  34  44
ENDBRANCH  32  34
ENDBRANCH  25  30
ENDBRANCH  23  25
ENDBRANCH   2  23
TORSDOF 28
ENDMDL
MODEL 37
REMARK VINA RESULT:    -6.922      3.820     10.606
REMARK INTER + INTRA:         -21.391
REMARK INTER:                 -15.525
REMARK INTRA:                  -5.866
REMARK UNBOUND:                -4.149
REMARK SMILES CCCCCCC[C@H](N)[C@H](O)C(=O)N[C@H](C)C(=O)N(C)[C@H](CC(C)C)C(=O)N[C@@H](Cc1ccc(O)cc1)C(=O)N[C@@H](Cc1ccc(O)cc1)C(=O)O
REMARK SMILES IDX 18 1 17 2 15 3 16 4 14 5 12 6 13 7 10 9 11 10 8 12 9 13 7 16
REMARK SMILES IDX 6 17 5 18 4 19 3 20 2 21 1 22 19 23 20 24 21 25 22 26 23 27
REMARK SMILES IDX 24 28 25 29 26 30 27 31 28 32 29 34 30 35 31 36 32 37 37 38
REMARK SMILES IDX 33 39 36 40 34 41 35 42 38 44 39 45 40 46 41 48 42 49 43 50
REMARK SMILES IDX 44 51 49 52 45 53 48 54 46 55 47 56 50 58 51 59 52 60
REMARK H PARENT 14 8 11 11 9 14 9 15 28 33 35 43 40 47 47 57 52 61
ROOT
ATOM      1  O   UNL     1       6.507  13.529  -2.283  1.00  0.00    -0.272 OA
ATOM      2  C   UNL     1       7.679  13.235  -2.006  1.00  0.00     0.245 C 
ENDROOT
BRANCH   2   3
ATOM      3  C   UNL     1       8.626  12.803  -3.153  1.00  0.00     0.168 C 
ATOM      4  C   UNL     1       9.732  11.893  -2.629  1.00  0.00     0.041 C 
BRANCH   3   5
ATOM      5  N   UNL     1       7.960  12.232  -4.314  1.00  0.00    -0.342 N 
ATOM      6  C   UNL     1       7.790  12.947  -5.481  1.00  0.00     0.251 C 
ATOM      7  O   UNL     1       8.144  14.113  -5.617  1.00  0.00    -0.272 OA
ATOM      8  H   UNL     1       7.592  11.284  -4.308  1.00  0.00     0.164 HD
BRANCH   6   9
ATOM      9  C   UNL     1       7.191  12.100  -6.615  1.00  0.00     0.219 C 
BRANCH   9  10
ATOM     10  O   UNL     1       7.549  10.716  -6.519  1.00  0.00    -0.382 OA
ATOM     11  H   UNL     1       6.693  10.248  -6.628  1.00  0.00     0.211 HD
ENDBRANCH   9  10
BRANCH   9  12
ATOM     12  C   UNL     1       5.655  12.263  -6.750  1.00  0.00     0.089 C 
BRANCH  12  13
ATOM     13  N   UNL     1       5.280  12.004  -8.159  1.00  0.00    -0.325 NA
ATOM     14  H   UNL     1       4.308  11.690  -8.196  1.00  0.00     0.119 HD
ATOM     15  H   UNL     1       5.828  11.214  -8.508  1.00  0.00     0.119 HD
ENDBRANCH  12  13
BRANCH  12  16
ATOM     16  C   UNL     1       4.794  11.393  -5.802  1.00  0.00     0.022 C 
BRANCH  16  17
ATOM     17  C   UNL     1       3.779  10.412  -6.405  1.00  0.00     0.002 C 
BRANCH  17  18
ATOM     18  C   UNL     1       3.273   9.339  -5.444  1.00  0.00     0.000 C 
BRANCH  18  19
ATOM     19  C   UNL     1       2.367   9.876  -4.328  1.00  0.00    -0.000 C 
BRANCH  19  20
ATOM     20  C   UNL     1       0.871   9.888  -4.653  1.00  0.00    -0.000 C 
BRANCH  20  21
ATOM     21  C   UNL     1       0.260  11.291  -4.618  1.00  0.00    -0.003 C 
ATOM     22  C   UNL     1       1.322  12.352  -4.370  1.00  0.00     0.004 C 
ENDBRANCH  20  21
ENDBRANCH  19  20
ENDBRANCH  18  19
ENDBRANCH  17  18
ENDBRANCH  16  17
ENDBRANCH  12  16
ENDBRANCH   9  12
ENDBRANCH   6   9
ENDBRANCH   3   5
ENDBRANCH   2   3
BRANCH   2  23
ATOM     23  N   UNL     1       8.153  13.413  -0.711  1.00  0.00    -0.332 N 
ATOM     24  C   UNL     1       9.112  14.435  -0.315  1.00  0.00     0.147 C 
BRANCH  23  25
ATOM     25  C   UNL     1       7.588  12.616   0.412  1.00  0.00     0.174 C 
BRANCH  25  26
ATOM     26  C   UNL     1       7.862  11.100   0.273  1.00  0.00     0.038 C 
BRANCH  26  27
ATOM     27  C   UNL     1       8.897  10.484   1.241  1.00  0.00    -0.015 C 
ATOM     28  C   UNL     1       8.797   8.961   1.311  1.00  0.00     0.007 C 
ATOM     29  C   UNL     1      10.333  10.915   0.950  1.00  0.00     0.007 C 
ENDBRANCH  26  27
ENDBRANCH  25  26
BRANCH  25  30
ATOM     30  C   UNL     1       6.094  12.962   0.611  1.00  0.00     0.243 C 
ATOM     31  O   UNL     1       5.735  14.006   1.152  1.00  0.00    -0.273 OA
ATOM     32  N   UNL     1       5.203  12.027   0.151  1.00  0.00    -0.342 N 
ATOM     33  H   UNL     1       5.573  11.256  -0.411  1.00  0.00     0.164 HD
BRANCH  32  34
ATOM     34  C   UNL     1       3.750  12.173   0.278  1.00  0.00     0.175 C 
BRANCH  34  35
ATOM     35  C   UNL     1       3.015  11.468  -0.872  1.00  0.00     0.070 C 
BRANCH  35  36
ATOM     36  C   UNL     1       1.513  11.616  -0.783  1.00  0.00    -0.045 A 
ATOM     37  C   UNL     1       0.684  10.504  -0.998  1.00  0.00     0.007 A 
ATOM     38  C   UNL     1       0.928  12.860  -0.511  1.00  0.00     0.007 A 
ATOM     39  C   UNL     1      -0.704  10.634  -0.932  1.00  0.00     0.046 A 
ATOM     40  C   UNL     1      -0.461  12.991  -0.446  1.00  0.00     0.046 A 
ATOM     41  C   UNL     1      -1.265  11.875  -0.656  1.00  0.00     0.115 A 
BRANCH  41  42
ATOM     42  O   UNL     1      -2.625  11.960  -0.604  1.00  0.00    -0.508 OA
ATOM     43  H   UNL     1      -2.894  12.800  -1.011  1.00  0.00     0.293 HD
ENDBRANCH  41  42
ENDBRANCH  35  36
ENDBRANCH  34  35
BRANCH  34  44
ATOM     44  C   UNL     1       3.332  11.617   1.658  1.00  0.00     0.243 C 
ATOM     45  O   UNL     1       3.026  12.312   2.622  1.00  0.00    -0.273 OA
ATOM     46  N   UNL     1       3.458  10.247   1.759  1.00  0.00    -0.341 N 
ATOM     47  H   UNL     1       3.828   9.726   0.968  1.00  0.00     0.164 HD
BRANCH  46  48
ATOM     48  C   UNL     1       3.186   9.501   2.989  1.00  0.00     0.196 C 
BRANCH  48  49
ATOM     49  C   UNL     1       2.189   8.357   2.741  1.00  0.00     0.072 C 
BRANCH  49  50
ATOM     50  C   UNL     1       0.768   8.848   2.582  1.00  0.00    -0.045 A 
ATOM     51  C   UNL     1      -0.169   8.065   1.892  1.00  0.00     0.007 A 
ATOM     52  C   UNL     1       0.371  10.088   3.098  1.00  0.00     0.007 A 
ATOM     53  C   UNL     1      -1.480   8.513   1.727  1.00  0.00     0.046 A 
ATOM     54  C   UNL     1      -0.941  10.538   2.932  1.00  0.00     0.046 A 
ATOM     55  C   UNL     1      -1.856   9.745   2.249  1.00  0.00     0.115 A 
BRANCH  55  56
ATOM     56  O   UNL     1      -3.146  10.147   2.065  1.00  0.00    -0.508 OA
ATOM     57  H   UNL     1      -3.504   9.683   1.291  1.00  0.00     0.293 HD
ENDBRANCH  55  56
ENDBRANCH  49  50
ENDBRANCH  48  49
BRANCH  48  58
ATOM     58  C   UNL     1       4.504   8.928   3.528  1.00  0.00     0.326 C 
ATOM     59  O   UNL     1       4.805   8.740   4.695  1.00  0.00    -0.250 OA
BRANCH  58  60
ATOM     60  O   UNL     1       5.390   8.600   2.554  1.00  0.00    -0.480 OA
ATOM     61  H   UNL     1       5.390   9.392   1.973  1.00  0.00     0.296 HD
ENDBRANCH  58  60
ENDBRANCH  48  58
ENDBRANCH  46  48
ENDBRANCH  34  44
ENDBRANCH  32  34
ENDBRANCH  25  30
ENDBRANCH  23  25
ENDBRANCH   2  23
TORSDOF 28
ENDMDL
MODEL 38
REMARK VINA RESULT:    -6.900      2.280      3.510
REMARK INTER + INTRA:         -21.335
REMARK INTER:                 -17.903
REMARK INTRA:                  -3.432
REMARK UNBOUND:                -4.149
REMARK SMILES CCCCCCC[C@H](N)[C@H](O)C(=O)N[C@H](C)C(=O)N(C)[C@H](CC(C)C)C(=O)N[C@@H](Cc1ccc(O)cc1)C(=O)N[C@@H](Cc1ccc(O)cc1)C(=O)O
REMARK SMILES IDX 18 1 17 2 15 3 16 4 14 5 12 6 13 7 10 9 11 10 8 12 9 13 7 16
REMARK SMILES IDX 6 17 5 18 4 19 3 20 2 21 1 22 19 23 20 24 21 25 22 26 23 27
REMARK SMILES IDX 24 28 25 29 26 30 27 31 28 32 29 34 30 35 31 36 32 37 37 38
REMARK SMILES IDX 33 39 36 40 34 41 35 42 38 44 39 45 40 46 41 48 42 49 43 50
REMARK SMILES IDX 44 51 49 52 45 53 48 54 46 55 47 56 50 58 51 59 52 60
REMARK H PARENT 14 8 11 11 9 14 9 15 28 33 35 43 40 47 47 57 52 61
ROOT
ATOM      1  O   UNL     1       1.267   8.959  -4.475  1.00  0.00    -0.272 OA
ATOM      2  C   UNL     1       0.944   9.820  -3.643  1.00  0.00     0.245 C 
ENDROOT
BRANCH   2   3
ATOM      3  C   UNL     1       0.670   9.376  -2.185  1.00  0.00     0.168 C 
ATOM      4  C   UNL     1       1.816   8.522  -1.654  1.00  0.00     0.041 C 
BRANCH   3   5
ATOM      5  N   UNL     1       0.329  10.455  -1.271  1.00  0.00    -0.342 N 
ATOM      6  C   UNL     1      -0.519  10.262  -0.201  1.00  0.00     0.251 C 
ATOM      7  O   UNL     1      -1.077   9.196   0.037  1.00  0.00    -0.272 OA
ATOM      8  H   UNL     1       0.703  11.394  -1.387  1.00  0.00     0.164 HD
BRANCH   6   9
ATOM      9  C   UNL     1      -0.621  11.499   0.707  1.00  0.00     0.219 C 
BRANCH   9  10
ATOM     10  O   UNL     1       0.654  12.095   0.973  1.00  0.00    -0.382 OA
ATOM     11  H   UNL     1       1.276  11.565   0.428  1.00  0.00     0.211 HD
ENDBRANCH   9  10
BRANCH   9  12
ATOM     12  C   UNL     1      -1.626  12.558   0.182  1.00  0.00     0.089 C 
BRANCH  12  13
ATOM     13  N   UNL     1      -2.375  11.970  -0.952  1.00  0.00    -0.325 NA
ATOM     14  H   UNL     1      -2.820  12.719  -1.485  1.00  0.00     0.119 HD
ATOM     15  H   UNL     1      -3.148  11.410  -0.583  1.00  0.00     0.119 HD
ENDBRANCH  12  13
BRANCH  12  16
ATOM     16  C   UNL     1      -2.610  13.135   1.228  1.00  0.00     0.022 C 
BRANCH  16  17
ATOM     17  C   UNL     1      -2.054  13.719   2.534  1.00  0.00     0.002 C 
BRANCH  17  18
ATOM     18  C   UNL     1      -2.902  13.447   3.774  1.00  0.00     0.000 C 
BRANCH  18  19
ATOM     19  C   UNL     1      -2.324  12.369   4.701  1.00  0.00    -0.000 C 
BRANCH  19  20
ATOM     20  C   UNL     1      -1.097  11.632   4.156  1.00  0.00    -0.000 C 
BRANCH  20  21
ATOM     21  C   UNL     1      -1.233  10.109   4.225  1.00  0.00    -0.003 C 
ATOM     22  C   UNL     1      -1.694   9.655   5.602  1.00  0.00     0.004 C 
ENDBRANCH  20  21
ENDBRANCH  19  20
ENDBRANCH  18  19
ENDBRANCH  17  18
ENDBRANCH  16  17
ENDBRANCH  12  16
ENDBRANCH   9  12
ENDBRANCH   6   9
ENDBRANCH   3   5
ENDBRANCH   2   3
BRANCH   2  23
ATOM     23  N   UNL     1       0.953  11.165  -3.996  1.00  0.00    -0.332 N 
ATOM     24  C   UNL     1      -0.239  11.966  -4.230  1.00  0.00     0.147 C 
BRANCH  23  25
ATOM     25  C   UNL     1       2.234  11.924  -4.031  1.00  0.00     0.174 C 
BRANCH  25  26
ATOM     26  C   UNL     1       2.150  13.283  -3.297  1.00  0.00     0.038 C 
BRANCH  26  27
ATOM     27  C   UNL     1       2.501  13.289  -1.793  1.00  0.00    -0.015 C 
ATOM     28  C   UNL     1       3.969  12.951  -1.534  1.00  0.00     0.007 C 
ATOM     29  C   UNL     1       2.115  14.585  -1.084  1.00  0.00     0.007 C 
ENDBRANCH  26  27
ENDBRANCH  25  26
BRANCH  25  30
ATOM     30  C   UNL     1       2.747  12.034  -5.486  1.00  0.00     0.243 C 
ATOM     31  O   UNL     1       2.029  12.436  -6.400  1.00  0.00    -0.273 OA
ATOM     32  N   UNL     1       4.047  11.648  -5.687  1.00  0.00    -0.342 N 
ATOM     33  H   UNL     1       4.619  11.461  -4.859  1.00  0.00     0.164 HD
BRANCH  32  34
ATOM     34  C   UNL     1       4.692  11.659  -7.003  1.00  0.00     0.175 C 
BRANCH  34  35
ATOM     35  C   UNL     1       6.144  12.152  -6.909  1.00  0.00     0.070 C 
BRANCH  35  36
ATOM     36  C   UNL     1       6.511  12.631  -5.522  1.00  0.00    -0.045 A 
ATOM     37  C   UNL     1       6.278  13.966  -5.157  1.00  0.00     0.007 A 
ATOM     38  C   UNL     1       7.104  11.764  -4.595  1.00  0.00     0.007 A 
ATOM     39  C   UNL     1       6.625  14.421  -3.884  1.00  0.00     0.046 A 
ATOM     40  C   UNL     1       7.454  12.220  -3.322  1.00  0.00     0.046 A 
ATOM     41  C   UNL     1       7.209  13.545  -2.977  1.00  0.00     0.115 A 
BRANCH  41  42
ATOM     42  O   UNL     1       7.536  14.030  -1.746  1.00  0.00    -0.508 OA
ATOM     43  H   UNL     1       7.024  13.541  -1.080  1.00  0.00     0.293 HD
ENDBRANCH  41  42
ENDBRANCH  35  36
ENDBRANCH  34  35
BRANCH  34  44
ATOM     44  C   UNL     1       4.603  10.233  -7.592  1.00  0.00     0.243 C 
ATOM     45  O   UNL     1       3.589   9.747  -8.083  1.00  0.00    -0.273 OA
ATOM     46  N   UNL     1       5.748   9.488  -7.399  1.00  0.00    -0.341 N 
ATOM     47  H   UNL     1       6.522   9.896  -6.882  1.00  0.00     0.164 HD
BRANCH  46  48
ATOM     48  C   UNL     1       5.876   8.088  -7.810  1.00  0.00     0.196 C 
BRANCH  48  49
ATOM     49  C   UNL     1       6.270   7.973  -9.292  1.00  0.00     0.072 C 
BRANCH  49  50
ATOM     50  C   UNL     1       5.351   7.059 -10.070  1.00  0.00    -0.045 A 
ATOM     51  C   UNL     1       3.962   7.157  -9.903  1.00  0.00     0.007 A 
ATOM     52  C   UNL     1       5.866   6.093 -10.944  1.00  0.00     0.007 A 
ATOM     53  C   UNL     1       3.104   6.310 -10.605  1.00  0.00     0.046 A 
ATOM     54  C   UNL     1       5.007   5.244 -11.646  1.00  0.00     0.046 A 
ATOM     55  C   UNL     1       3.633   5.361 -11.471  1.00  0.00     0.115 A 
BRANCH  55  56
ATOM     56  O   UNL     1       2.761   4.551 -12.137  1.00  0.00    -0.508 OA
ATOM     57  H   UNL     1       2.927   4.639 -13.089  1.00  0.00     0.293 HD
ENDBRANCH  55  56
ENDBRANCH  49  50
ENDBRANCH  48  49
BRANCH  48  58
ATOM     58  C   UNL     1       6.942   7.408  -6.940  1.00  0.00     0.326 C 
ATOM     59  O   UNL     1       8.132   7.292  -7.184  1.00  0.00    -0.250 OA
BRANCH  58  60
ATOM     60  O   UNL     1       6.453   6.910  -5.776  1.00  0.00    -0.480 OA
ATOM     61  H   UNL     1       5.481   6.926  -5.914  1.00  0.00     0.296 HD
ENDBRANCH  58  60
ENDBRANCH  48  58
ENDBRANCH  46  48
ENDBRANCH  34  44
ENDBRANCH  32  34
ENDBRANCH  25  30
ENDBRANCH  23  25
ENDBRANCH   2  23
TORSDOF 28
ENDMDL
MODEL 39
REMARK VINA RESULT:    -6.893      2.517     10.694
REMARK INTER + INTRA:         -21.317
REMARK INTER:                 -16.649
REMARK INTRA:                  -4.668
REMARK UNBOUND:                -4.149
REMARK SMILES CCCCCCC[C@H](N)[C@H](O)C(=O)N[C@H](C)C(=O)N(C)[C@H](CC(C)C)C(=O)N[C@@H](Cc1ccc(O)cc1)C(=O)N[C@@H](Cc1ccc(O)cc1)C(=O)O
REMARK SMILES IDX 18 1 17 2 15 3 16 4 14 5 12 6 13 7 10 9 11 10 8 12 9 13 7 16
REMARK SMILES IDX 6 17 5 18 4 19 3 20 2 21 1 22 19 23 20 24 21 25 22 26 23 27
REMARK SMILES IDX 24 28 25 29 26 30 27 31 28 32 29 34 30 35 31 36 32 37 37 38
REMARK SMILES IDX 33 39 36 40 34 41 35 42 38 44 39 45 40 46 41 48 42 49 43 50
REMARK SMILES IDX 44 51 49 52 45 53 48 54 46 55 47 56 50 58 51 59 52 60
REMARK H PARENT 14 8 11 11 9 14 9 15 28 33 35 43 40 47 47 57 52 61
ROOT
ATOM      1  O   UNL     1       5.146  12.164  -7.843  1.00  0.00    -0.272 OA
ATOM      2  C   UNL     1       6.191  12.574  -7.317  1.00  0.00     0.245 C 
ENDROOT
BRANCH   2   3
ATOM      3  C   UNL     1       7.545  12.035  -7.840  1.00  0.00     0.168 C 
ATOM      4  C   UNL     1       8.709  12.796  -7.213  1.00  0.00     0.041 C 
BRANCH   3   5
ATOM      5  N   UNL     1       7.715  10.595  -7.726  1.00  0.00    -0.342 N 
ATOM      6  C   UNL     1       8.596   9.900  -8.527  1.00  0.00     0.251 C 
ATOM      7  O   UNL     1       9.263  10.425  -9.412  1.00  0.00    -0.272 OA
ATOM      8  H   UNL     1       7.189  10.045  -7.051  1.00  0.00     0.164 HD
BRANCH   6   9
ATOM      9  C   UNL     1       8.714   8.418  -8.136  1.00  0.00     0.219 C 
BRANCH   9  10
ATOM     10  O   UNL     1       7.971   8.099  -6.953  1.00  0.00    -0.382 OA
ATOM     11  H   UNL     1       7.158   7.672  -7.299  1.00  0.00     0.211 HD
ENDBRANCH   9  10
BRANCH   9  12
ATOM     12  C   UNL     1       8.350   7.452  -9.293  1.00  0.00     0.089 C 
BRANCH  12  13
ATOM     13  N   UNL     1       9.585   6.762  -9.731  1.00  0.00    -0.325 NA
ATOM     14  H   UNL     1      10.004   6.283  -8.932  1.00  0.00     0.119 HD
ATOM     15  H   UNL     1      10.273   7.464 -10.013  1.00  0.00     0.119 HD
ENDBRANCH  12  13
BRANCH  12  16
ATOM     16  C   UNL     1       7.242   6.415  -8.987  1.00  0.00     0.022 C 
BRANCH  16  17
ATOM     17  C   UNL     1       5.802   6.708  -9.430  1.00  0.00     0.002 C 
BRANCH  17  18
ATOM     18  C   UNL     1       5.440   8.189  -9.507  1.00  0.00     0.000 C 
BRANCH  18  19
ATOM     19  C   UNL     1       4.569   8.680  -8.343  1.00  0.00    -0.000 C 
BRANCH  19  20
ATOM     20  C   UNL     1       4.159   7.601  -7.337  1.00  0.00    -0.000 C 
BRANCH  20  21
ATOM     21  C   UNL     1       4.750   7.825  -5.943  1.00  0.00    -0.003 C 
ATOM     22  C   UNL     1       5.329   6.540  -5.372  1.00  0.00     0.004 C 
ENDBRANCH  20  21
ENDBRANCH  19  20
ENDBRANCH  18  19
ENDBRANCH  17  18
ENDBRANCH  16  17
ENDBRANCH  12  16
ENDBRANCH   9  12
ENDBRANCH   6   9
ENDBRANCH   3   5
ENDBRANCH   2   3
BRANCH   2  23
ATOM     23  N   UNL     1       6.138  13.587  -6.365  1.00  0.00    -0.332 N 
ATOM     24  C   UNL     1       6.303  15.003  -6.656  1.00  0.00     0.147 C 
BRANCH  23  25
ATOM     25  C   UNL     1       5.771  13.276  -4.956  1.00  0.00     0.174 C 
BRANCH  25  26
ATOM     26  C   UNL     1       6.648  12.162  -4.337  1.00  0.00     0.038 C 
BRANCH  26  27
ATOM     27  C   UNL     1       7.535  12.556  -3.135  1.00  0.00    -0.015 C 
ATOM     28  C   UNL     1       9.009  12.223  -3.362  1.00  0.00     0.007 C 
ATOM     29  C   UNL     1       7.372  14.014  -2.712  1.00  0.00     0.007 C 
ENDBRANCH  26  27
ENDBRANCH  25  26
BRANCH  25  30
ATOM     30  C   UNL     1       4.253  13.003  -4.850  1.00  0.00     0.243 C 
ATOM     31  O   UNL     1       3.423  13.724  -5.401  1.00  0.00    -0.273 OA
ATOM     32  N   UNL     1       3.898  11.912  -4.099  1.00  0.00    -0.342 N 
ATOM     33  H   UNL     1       4.645  11.284  -3.793  1.00  0.00     0.164 HD
BRANCH  32  34
ATOM     34  C   UNL     1       2.505  11.518  -3.867  1.00  0.00     0.175 C 
BRANCH  34  35
ATOM     35  C   UNL     1       2.348   9.989  -3.877  1.00  0.00     0.070 C 
BRANCH  35  36
ATOM     36  C   UNL     1       1.183   9.515  -3.038  1.00  0.00    -0.045 A 
ATOM     37  C   UNL     1       1.409   8.691  -1.925  1.00  0.00     0.007 A 
ATOM     38  C   UNL     1      -0.131   9.870  -3.368  1.00  0.00     0.007 A 
ATOM     39  C   UNL     1       0.339   8.238  -1.153  1.00  0.00     0.046 A 
ATOM     40  C   UNL     1      -1.203   9.415  -2.596  1.00  0.00     0.046 A 
ATOM     41  C   UNL     1      -0.957   8.603  -1.494  1.00  0.00     0.115 A 
BRANCH  41  42
ATOM     42  O   UNL     1      -1.975   8.137  -0.715  1.00  0.00    -0.508 OA
ATOM     43  H   UNL     1      -2.816   8.354  -1.150  1.00  0.00     0.293 HD
ENDBRANCH  41  42
ENDBRANCH  35  36
ENDBRANCH  34  35
BRANCH  34  44
ATOM     44  C   UNL     1       2.050  12.136  -2.526  1.00  0.00     0.243 C 
ATOM     45  O   UNL     1       1.142  12.955  -2.412  1.00  0.00    -0.273 OA
ATOM     46  N   UNL     1       2.849  11.782  -1.459  1.00  0.00    -0.341 N 
ATOM     47  H   UNL     1       3.661  11.193  -1.625  1.00  0.00     0.164 HD
BRANCH  46  48
ATOM     48  C   UNL     1       2.656  12.297  -0.102  1.00  0.00     0.196 C 
BRANCH  48  49
ATOM     49  C   UNL     1       2.448  11.155   0.906  1.00  0.00     0.072 C 
BRANCH  49  50
ATOM     50  C   UNL     1       0.989  10.915   1.222  1.00  0.00    -0.045 A 
ATOM     51  C   UNL     1       0.626   9.906   2.126  1.00  0.00     0.007 A 
ATOM     52  C   UNL     1      -0.015  11.675   0.609  1.00  0.00     0.007 A 
ATOM     53  C   UNL     1      -0.717   9.667   2.416  1.00  0.00     0.046 A 
ATOM     54  C   UNL     1      -1.360  11.435   0.898  1.00  0.00     0.046 A 
ATOM     55  C   UNL     1      -1.700  10.433   1.801  1.00  0.00     0.115 A 
BRANCH  55  56
ATOM     56  O   UNL     1      -3.001  10.166   2.109  1.00  0.00    -0.508 OA
ATOM     57  H   UNL     1      -3.066   9.239   2.386  1.00  0.00     0.293 HD
ENDBRANCH  55  56
ENDBRANCH  49  50
ENDBRANCH  48  49
BRANCH  48  58
ATOM     58  C   UNL     1       3.887  13.121   0.300  1.00  0.00     0.326 C 
ATOM     59  O   UNL     1       4.693  13.655  -0.444  1.00  0.00    -0.250 OA
BRANCH  58  60
ATOM     60  O   UNL     1       4.038  13.249   1.642  1.00  0.00    -0.480 OA
ATOM     61  H   UNL     1       4.561  14.074   1.733  1.00  0.00     0.296 HD
ENDBRANCH  58  60
ENDBRANCH  48  58
ENDBRANCH  46  48
ENDBRANCH  34  44
ENDBRANCH  32  34
ENDBRANCH  25  30
ENDBRANCH  23  25
ENDBRANCH   2  23
TORSDOF 28
ENDMDL
MODEL 40
REMARK VINA RESULT:    -6.890      1.857      3.721
REMARK INTER + INTRA:         -21.310
REMARK INTER:                 -17.509
REMARK INTRA:                  -3.801
REMARK UNBOUND:                -4.149
REMARK SMILES CCCCCCC[C@H](N)[C@H](O)C(=O)N[C@H](C)C(=O)N(C)[C@H](CC(C)C)C(=O)N[C@@H](Cc1ccc(O)cc1)C(=O)N[C@@H](Cc1ccc(O)cc1)C(=O)O
REMARK SMILES IDX 18 1 17 2 15 3 16 4 14 5 12 6 13 7 10 9 11 10 8 12 9 13 7 16
REMARK SMILES IDX 6 17 5 18 4 19 3 20 2 21 1 22 19 23 20 24 21 25 22 26 23 27
REMARK SMILES IDX 24 28 25 29 26 30 27 31 28 32 29 34 30 35 31 36 32 37 37 38
REMARK SMILES IDX 33 39 36 40 34 41 35 42 38 44 39 45 40 46 41 48 42 49 43 50
REMARK SMILES IDX 44 51 49 52 45 53 48 54 46 55 47 56 50 58 51 59 52 60
REMARK H PARENT 14 8 11 11 9 14 9 15 28 33 35 43 40 47 47 57 52 61
ROOT
ATOM      1  O   UNL     1       0.810  11.745  -4.525  1.00  0.00    -0.272 OA
ATOM      2  C   UNL     1       1.568  12.438  -3.829  1.00  0.00     0.245 C 
ENDROOT
BRANCH   2   3
ATOM      3  C   UNL     1       1.542  12.247  -2.292  1.00  0.00     0.168 C 
ATOM      4  C   UNL     1       1.799  13.569  -1.578  1.00  0.00     0.041 C 
BRANCH   3   5
ATOM      5  N   UNL     1       0.359  11.575  -1.779  1.00  0.00    -0.342 N 
ATOM      6  C   UNL     1       0.432  10.647  -0.762  1.00  0.00     0.251 C 
ATOM      7  O   UNL     1       1.486  10.291  -0.246  1.00  0.00    -0.272 OA
ATOM      8  H   UNL     1      -0.569  11.763  -2.152  1.00  0.00     0.164 HD
BRANCH   6   9
ATOM      9  C   UNL     1      -0.952  10.176  -0.287  1.00  0.00     0.219 C 
BRANCH   9  10
ATOM     10  O   UNL     1      -2.021  10.949  -0.845  1.00  0.00    -0.382 OA
ATOM     11  H   UNL     1      -2.764  10.309  -0.903  1.00  0.00     0.211 HD
ENDBRANCH   9  10
BRANCH   9  12
ATOM     12  C   UNL     1      -1.191   8.660  -0.516  1.00  0.00     0.089 C 
BRANCH  12  13
ATOM     13  N   UNL     1      -0.100   8.140  -1.372  1.00  0.00    -0.325 NA
ATOM     14  H   UNL     1       0.191   7.224  -1.025  1.00  0.00     0.119 HD
ATOM     15  H   UNL     1       0.721   8.740  -1.264  1.00  0.00     0.119 HD
ENDBRANCH  12  13
BRANCH  12  16
ATOM     16  C   UNL     1      -1.325   7.795   0.760  1.00  0.00     0.022 C 
BRANCH  16  17
ATOM     17  C   UNL     1      -0.189   7.806   1.793  1.00  0.00     0.002 C 
BRANCH  17  18
ATOM     18  C   UNL     1      -0.539   8.459   3.128  1.00  0.00     0.000 C 
BRANCH  18  19
ATOM     19  C   UNL     1       0.523   9.442   3.639  1.00  0.00    -0.000 C 
BRANCH  19  20
ATOM     20  C   UNL     1       0.360  10.885   3.154  1.00  0.00    -0.000 C 
BRANCH  20  21
ATOM     21  C   UNL     1      -1.087  11.382   3.225  1.00  0.00    -0.003 C 
ATOM     22  C   UNL     1      -1.474  11.759   4.647  1.00  0.00     0.004 C 
ENDBRANCH  20  21
ENDBRANCH  19  20
ENDBRANCH  18  19
ENDBRANCH  17  18
ENDBRANCH  16  17
ENDBRANCH  12  16
ENDBRANCH   9  12
ENDBRANCH   6   9
ENDBRANCH   3   5
ENDBRANCH   2   3
BRANCH   2  23
ATOM     23  N   UNL     1       2.500  13.273  -4.435  1.00  0.00    -0.332 N 
ATOM     24  C   UNL     1       2.293  14.690  -4.696  1.00  0.00     0.147 C 
BRANCH  23  25
ATOM     25  C   UNL     1       3.866  12.771  -4.749  1.00  0.00     0.174 C 
BRANCH  25  26
ATOM     26  C   UNL     1       4.976  13.792  -4.408  1.00  0.00     0.038 C 
BRANCH  26  27
ATOM     27  C   UNL     1       5.980  13.393  -3.303  1.00  0.00    -0.015 C 
ATOM     28  C   UNL     1       5.297  12.740  -2.102  1.00  0.00     0.007 C 
ATOM     29  C   UNL     1       7.125  12.521  -3.810  1.00  0.00     0.007 C 
ENDBRANCH  26  27
ENDBRANCH  25  26
BRANCH  25  30
ATOM     30  C   UNL     1       3.922  12.255  -6.206  1.00  0.00     0.243 C 
ATOM     31  O   UNL     1       2.902  12.004  -6.846  1.00  0.00    -0.273 OA
ATOM     32  N   UNL     1       5.178  12.092  -6.730  1.00  0.00    -0.342 N 
ATOM     33  H   UNL     1       5.968  12.454  -6.189  1.00  0.00     0.164 HD
BRANCH  32  34
ATOM     34  C   UNL     1       5.423  11.587  -8.083  1.00  0.00     0.175 C 
BRANCH  34  35
ATOM     35  C   UNL     1       6.251  12.583  -8.910  1.00  0.00     0.070 C 
BRANCH  35  36
ATOM     36  C   UNL     1       7.077  13.513  -8.050  1.00  0.00    -0.045 A 
ATOM     37  C   UNL     1       8.316  13.088  -7.548  1.00  0.00     0.007 A 
ATOM     38  C   UNL     1       6.611  14.793  -7.723  1.00  0.00     0.007 A 
ATOM     39  C   UNL     1       9.079  13.934  -6.742  1.00  0.00     0.046 A 
ATOM     40  C   UNL     1       7.374  15.640  -6.915  1.00  0.00     0.046 A 
ATOM     41  C   UNL     1       8.603  15.202  -6.433  1.00  0.00     0.115 A 
BRANCH  41  42
ATOM     42  O   UNL     1       9.378  15.996  -5.640  1.00  0.00    -0.508 OA
ATOM     43  H   UNL     1       9.654  16.769  -6.160  1.00  0.00     0.293 HD
ENDBRANCH  41  42
ENDBRANCH  35  36
ENDBRANCH  34  35
BRANCH  34  44
ATOM     44  C   UNL     1       6.123  10.214  -7.963  1.00  0.00     0.243 C 
ATOM     45  O   UNL     1       6.199   9.563  -6.926  1.00  0.00    -0.273 OA
ATOM     46  N   UNL     1       6.781   9.832  -9.113  1.00  0.00    -0.341 N 
ATOM     47  H   UNL     1       6.787  10.461  -9.912  1.00  0.00     0.164 HD
BRANCH  46  48
ATOM     48  C   UNL     1       7.571   8.603  -9.218  1.00  0.00     0.196 C 
BRANCH  48  49
ATOM     49  C   UNL     1       7.257   7.845 -10.518  1.00  0.00     0.072 C 
BRANCH  49  50
ATOM     50  C   UNL     1       6.135   6.845 -10.351  1.00  0.00    -0.045 A 
ATOM     51  C   UNL     1       5.768   6.021 -11.425  1.00  0.00     0.007 A 
ATOM     52  C   UNL     1       5.437   6.739  -9.142  1.00  0.00     0.007 A 
ATOM     53  C   UNL     1       4.726   5.104 -11.287  1.00  0.00     0.046 A 
ATOM     54  C   UNL     1       4.393   5.822  -9.004  1.00  0.00     0.046 A 
ATOM     55  C   UNL     1       4.047   5.011 -10.079  1.00  0.00     0.115 A 
BRANCH  55  56
ATOM     56  O   UNL     1       3.033   4.103  -9.986  1.00  0.00    -0.508 OA
ATOM     57  H   UNL     1       3.310   3.396  -9.381  1.00  0.00     0.293 HD
ENDBRANCH  55  56
ENDBRANCH  49  50
ENDBRANCH  48  49
BRANCH  48  58
ATOM     58  C   UNL     1       9.063   8.964  -9.181  1.00  0.00     0.326 C 
ATOM     59  O   UNL     1       9.555  10.047  -8.909  1.00  0.00    -0.250 OA
BRANCH  58  60
ATOM     60  O   UNL     1       9.879   7.922  -9.477  1.00  0.00    -0.480 OA
ATOM     61  H   UNL     1       9.314   7.137  -9.309  1.00  0.00     0.296 HD
ENDBRANCH  58  60
ENDBRANCH  48  58
ENDBRANCH  46  48
ENDBRANCH  34  44
ENDBRANCH  32  34
ENDBRANCH  25  30
ENDBRANCH  23  25
ENDBRANCH   2  23
TORSDOF 28
ENDMDL
MODEL 41
REMARK VINA RESULT:    -6.881      4.973      9.433
REMARK INTER + INTRA:         -21.287
REMARK INTER:                 -15.297
REMARK INTRA:                  -5.990
REMARK UNBOUND:                -4.149
REMARK SMILES CCCCCCC[C@H](N)[C@H](O)C(=O)N[C@H](C)C(=O)N(C)[C@H](CC(C)C)C(=O)N[C@@H](Cc1ccc(O)cc1)C(=O)N[C@@H](Cc1ccc(O)cc1)C(=O)O
REMARK SMILES IDX 18 1 17 2 15 3 16 4 14 5 12 6 13 7 10 9 11 10 8 12 9 13 7 16
REMARK SMILES IDX 6 17 5 18 4 19 3 20 2 21 1 22 19 23 20 24 21 25 22 26 23 27
REMARK SMILES IDX 24 28 25 29 26 30 27 31 28 32 29 34 30 35 31 36 32 37 37 38
REMARK SMILES IDX 33 39 36 40 34 41 35 42 38 44 39 45 40 46 41 48 42 49 43 50
REMARK SMILES IDX 44 51 49 52 45 53 48 54 46 55 47 56 50 58 51 59 52 60
REMARK H PARENT 14 8 11 11 9 14 9 15 28 33 35 43 40 47 47 57 52 61
ROOT
ATOM      1  O   UNL     1       0.175  12.177   3.998  1.00  0.00    -0.272 OA
ATOM      2  C   UNL     1       0.556  11.103   4.487  1.00  0.00     0.245 C 
ENDROOT
BRANCH   2   3
ATOM      3  C   UNL     1       0.026   9.781   3.877  1.00  0.00     0.168 C 
ATOM      4  C   UNL     1      -1.421   9.535   4.292  1.00  0.00     0.041 C 
BRANCH   3   5
ATOM      5  N   UNL     1       0.206   9.656   2.439  1.00  0.00    -0.342 N 
ATOM      6  C   UNL     1       0.331   8.428   1.826  1.00  0.00     0.251 C 
ATOM      7  O   UNL     1       0.341   7.364   2.436  1.00  0.00    -0.272 OA
ATOM      8  H   UNL     1       0.249  10.471   1.831  1.00  0.00     0.164 HD
BRANCH   6   9
ATOM      9  C   UNL     1       0.368   8.531   0.292  1.00  0.00     0.219 C 
BRANCH   9  10
ATOM     10  O   UNL     1       1.554   7.957  -0.271  1.00  0.00    -0.382 OA
ATOM     11  H   UNL     1       1.495   8.193  -1.223  1.00  0.00     0.211 HD
ENDBRANCH   9  10
BRANCH   9  12
ATOM     12  C   UNL     1      -0.900   7.952  -0.388  1.00  0.00     0.089 C 
BRANCH  12  13
ATOM     13  N   UNL     1      -2.023   8.032   0.574  1.00  0.00    -0.325 NA
ATOM     14  H   UNL     1      -2.151   9.004   0.862  1.00  0.00     0.119 HD
ATOM     15  H   UNL     1      -1.764   7.532   1.428  1.00  0.00     0.119 HD
ENDBRANCH  12  13
BRANCH  12  16
ATOM     16  C   UNL     1      -1.305   8.603  -1.733  1.00  0.00     0.022 C 
BRANCH  16  17
ATOM     17  C   UNL     1      -0.625   9.909  -2.165  1.00  0.00     0.002 C 
BRANCH  17  18
ATOM     18  C   UNL     1      -1.185  10.536  -3.440  1.00  0.00     0.000 C 
BRANCH  18  19
ATOM     19  C   UNL     1      -0.396  10.184  -4.708  1.00  0.00    -0.000 C 
BRANCH  19  20
ATOM     20  C   UNL     1       0.677  11.200  -5.109  1.00  0.00    -0.000 C 
BRANCH  20  21
ATOM     21  C   UNL     1       2.032  10.555  -5.411  1.00  0.00    -0.003 C 
ATOM     22  C   UNL     1       2.412   9.539  -4.345  1.00  0.00     0.004 C 
ENDBRANCH  20  21
ENDBRANCH  19  20
ENDBRANCH  18  19
ENDBRANCH  17  18
ENDBRANCH  16  17
ENDBRANCH  12  16
ENDBRANCH   9  12
ENDBRANCH   6   9
ENDBRANCH   3   5
ENDBRANCH   2   3
BRANCH   2  23
ATOM     23  N   UNL     1       1.531  11.097   5.479  1.00  0.00    -0.332 N 
ATOM     24  C   UNL     1       1.317  11.534   6.850  1.00  0.00     0.147 C 
BRANCH  23  25
ATOM     25  C   UNL     1       2.869  10.502   5.212  1.00  0.00     0.174 C 
BRANCH  25  26
ATOM     26  C   UNL     1       3.709  10.309   6.497  1.00  0.00     0.038 C 
BRANCH  26  27
ATOM     27  C   UNL     1       5.015   9.493   6.364  1.00  0.00    -0.015 C 
ATOM     28  C   UNL     1       6.056   9.882   7.413  1.00  0.00     0.007 C 
ATOM     29  C   UNL     1       4.789   7.983   6.364  1.00  0.00     0.007 C 
ENDBRANCH  26  27
ENDBRANCH  25  26
BRANCH  25  30
ATOM     30  C   UNL     1       3.597  11.302   4.108  1.00  0.00     0.243 C 
ATOM     31  O   UNL     1       3.989  12.454   4.290  1.00  0.00    -0.273 OA
ATOM     32  N   UNL     1       3.770  10.646   2.916  1.00  0.00    -0.342 N 
ATOM     33  H   UNL     1       3.545   9.648   2.888  1.00  0.00     0.164 HD
BRANCH  32  34
ATOM     34  C   UNL     1       4.413  11.258   1.750  1.00  0.00     0.175 C 
BRANCH  34  35
ATOM     35  C   UNL     1       5.594  10.409   1.254  1.00  0.00     0.070 C 
BRANCH  35  36
ATOM     36  C   UNL     1       6.469   9.910   2.382  1.00  0.00    -0.045 A 
ATOM     37  C   UNL     1       7.204  10.820   3.156  1.00  0.00     0.007 A 
ATOM     38  C   UNL     1       6.577   8.540   2.655  1.00  0.00     0.007 A 
ATOM     39  C   UNL     1       8.025  10.367   4.190  1.00  0.00     0.046 A 
ATOM     40  C   UNL     1       7.400   8.085   3.689  1.00  0.00     0.046 A 
ATOM     41  C   UNL     1       8.116   9.005   4.448  1.00  0.00     0.115 A 
BRANCH  41  42
ATOM     42  O   UNL     1       8.931   8.604   5.465  1.00  0.00    -0.508 OA
ATOM     43  H   UNL     1       9.514   9.346   5.699  1.00  0.00     0.293 HD
ENDBRANCH  41  42
ENDBRANCH  35  36
ENDBRANCH  34  35
BRANCH  34  44
ATOM     44  C   UNL     1       3.339  11.448   0.655  1.00  0.00     0.243 C 
ATOM     45  O   UNL     1       3.027  10.591  -0.167  1.00  0.00    -0.273 OA
ATOM     46  N   UNL     1       2.839  12.731   0.594  1.00  0.00    -0.341 N 
ATOM     47  H   UNL     1       3.214  13.438   1.222  1.00  0.00     0.164 HD
BRANCH  46  48
ATOM     48  C   UNL     1       1.861  13.168  -0.405  1.00  0.00     0.196 C 
BRANCH  48  49
ATOM     49  C   UNL     1       1.980  12.348  -1.701  1.00  0.00     0.072 C 
BRANCH  49  50
ATOM     50  C   UNL     1       2.798  13.050  -2.761  1.00  0.00    -0.045 A 
ATOM     51  C   UNL     1       2.193  14.003  -3.593  1.00  0.00     0.007 A 
ATOM     52  C   UNL     1       4.153  12.747  -2.943  1.00  0.00     0.007 A 
ATOM     53  C   UNL     1       2.934  14.647  -4.584  1.00  0.00     0.046 A 
ATOM     54  C   UNL     1       4.895  13.391  -3.936  1.00  0.00     0.046 A 
ATOM     55  C   UNL     1       4.279  14.338  -4.747  1.00  0.00     0.115 A 
BRANCH  55  56
ATOM     56  O   UNL     1       4.967  14.988  -5.728  1.00  0.00    -0.508 OA
ATOM     57  H   UNL     1       5.198  14.346  -6.418  1.00  0.00     0.293 HD
ENDBRANCH  55  56
ENDBRANCH  49  50
ENDBRANCH  48  49
BRANCH  48  58
ATOM     58  C   UNL     1       0.450  13.012   0.176  1.00  0.00     0.326 C 
ATOM     59  O   UNL     1      -0.053  11.999   0.634  1.00  0.00    -0.250 OA
BRANCH  58  60
ATOM     60  O   UNL     1      -0.270  14.163   0.168  1.00  0.00    -0.480 OA
ATOM     61  H   UNL     1      -1.180  13.858  -0.039  1.00  0.00     0.296 HD
ENDBRANCH  58  60
ENDBRANCH  48  58
ENDBRANCH  46  48
ENDBRANCH  34  44
ENDBRANCH  32  34
ENDBRANCH  25  30
ENDBRANCH  23  25
ENDBRANCH   2  23
TORSDOF 28
ENDMDL
MODEL 42
REMARK VINA RESULT:    -6.861      7.006     10.066
REMARK INTER + INTRA:         -21.238
REMARK INTER:                 -14.869
REMARK INTRA:                  -6.368
REMARK UNBOUND:                -4.149
REMARK SMILES CCCCCCC[C@H](N)[C@H](O)C(=O)N[C@H](C)C(=O)N(C)[C@H](CC(C)C)C(=O)N[C@@H](Cc1ccc(O)cc1)C(=O)N[C@@H](Cc1ccc(O)cc1)C(=O)O
REMARK SMILES IDX 18 1 17 2 15 3 16 4 14 5 12 6 13 7 10 9 11 10 8 12 9 13 7 16
REMARK SMILES IDX 6 17 5 18 4 19 3 20 2 21 1 22 19 23 20 24 21 25 22 26 23 27
REMARK SMILES IDX 24 28 25 29 26 30 27 31 28 32 29 34 30 35 31 36 32 37 37 38
REMARK SMILES IDX 33 39 36 40 34 41 35 42 38 44 39 45 40 46 41 48 42 49 43 50
REMARK SMILES IDX 44 51 49 52 45 53 48 54 46 55 47 56 50 58 51 59 52 60
REMARK H PARENT 14 8 11 11 9 14 9 15 28 33 35 43 40 47 47 57 52 61
ROOT
ATOM      1  O   UNL     1      -1.402  15.051   3.736  1.00  0.00    -0.272 OA
ATOM      2  C   UNL     1      -1.668  13.883   4.060  1.00  0.00     0.245 C 
ENDROOT
BRANCH   2   3
ATOM      3  C   UNL     1      -1.779  13.539   5.566  1.00  0.00     0.168 C 
ATOM      4  C   UNL     1      -3.151  12.958   5.889  1.00  0.00     0.041 C 
BRANCH   3   5
ATOM      5  N   UNL     1      -0.703  12.707   6.083  1.00  0.00    -0.342 N 
ATOM      6  C   UNL     1       0.479  13.249   6.541  1.00  0.00     0.251 C 
ATOM      7  O   UNL     1       0.730  14.449   6.510  1.00  0.00    -0.272 OA
ATOM      8  H   UNL     1      -0.782  11.694   6.126  1.00  0.00     0.164 HD
BRANCH   6   9
ATOM      9  C   UNL     1       1.409  12.199   7.171  1.00  0.00     0.219 C 
BRANCH   9  10
ATOM     10  O   UNL     1       0.781  11.472   8.234  1.00  0.00    -0.382 OA
ATOM     11  H   UNL     1      -0.102  11.895   8.313  1.00  0.00     0.211 HD
ENDBRANCH   9  10
BRANCH   9  12
ATOM     12  C   UNL     1       2.027  11.229   6.130  1.00  0.00     0.089 C 
BRANCH  12  13
ATOM     13  N   UNL     1       2.215  11.966   4.859  1.00  0.00    -0.325 NA
ATOM     14  H   UNL     1       3.023  12.586   4.947  1.00  0.00     0.119 HD
ATOM     15  H   UNL     1       1.416  12.588   4.716  1.00  0.00     0.119 HD
ENDBRANCH  12  13
BRANCH  12  16
ATOM     16  C   UNL     1       3.348  10.540   6.546  1.00  0.00     0.022 C 
BRANCH  16  17
ATOM     17  C   UNL     1       4.678  11.096   6.019  1.00  0.00     0.002 C 
BRANCH  17  18
ATOM     18  C   UNL     1       5.762  10.049   5.771  1.00  0.00     0.000 C 
BRANCH  18  19
ATOM     19  C   UNL     1       5.529   8.723   6.508  1.00  0.00    -0.000 C 
BRANCH  19  20
ATOM     20  C   UNL     1       6.234   7.508   5.898  1.00  0.00    -0.000 C 
BRANCH  20  21
ATOM     21  C   UNL     1       5.349   6.259   5.858  1.00  0.00    -0.003 C 
ATOM     22  C   UNL     1       4.554   6.101   7.145  1.00  0.00     0.004 C 
ENDBRANCH  20  21
ENDBRANCH  19  20
ENDBRANCH  18  19
ENDBRANCH  17  18
ENDBRANCH  16  17
ENDBRANCH  12  16
ENDBRANCH   9  12
ENDBRANCH   6   9
ENDBRANCH   3   5
ENDBRANCH   2   3
BRANCH   2  23
ATOM     23  N   UNL     1      -1.980  12.945   3.082  1.00  0.00    -0.332 N 
ATOM     24  C   UNL     1      -3.332  12.602   2.667  1.00  0.00     0.147 C 
BRANCH  23  25
ATOM     25  C   UNL     1      -0.898  12.303   2.285  1.00  0.00     0.174 C 
BRANCH  25  26
ATOM     26  C   UNL     1      -1.299  12.061   0.811  1.00  0.00     0.038 C 
BRANCH  26  27
ATOM     27  C   UNL     1      -0.613  12.944  -0.255  1.00  0.00    -0.015 C 
ATOM     28  C   UNL     1       0.832  13.285   0.110  1.00  0.00     0.007 C 
ATOM     29  C   UNL     1      -0.688  12.364  -1.665  1.00  0.00     0.007 C 
ENDBRANCH  26  27
ENDBRANCH  25  26
BRANCH  25  30
ATOM     30  C   UNL     1      -0.387  11.035   3.006  1.00  0.00     0.243 C 
ATOM     31  O   UNL     1      -0.824  10.690   4.103  1.00  0.00    -0.273 OA
ATOM     32  N   UNL     1       0.587  10.329   2.347  1.00  0.00    -0.342 N 
ATOM     33  H   UNL     1       0.795  10.598   1.382  1.00  0.00     0.164 HD
BRANCH  32  34
ATOM     34  C   UNL     1       1.207   9.118   2.891  1.00  0.00     0.175 C 
BRANCH  34  35
ATOM     35  C   UNL     1       0.821   7.876   2.073  1.00  0.00     0.070 C 
BRANCH  35  36
ATOM     36  C   UNL     1       0.393   8.215   0.663  1.00  0.00    -0.045 A 
ATOM     37  C   UNL     1      -0.967   8.197   0.319  1.00  0.00     0.007 A 
ATOM     38  C   UNL     1       1.341   8.527  -0.321  1.00  0.00     0.007 A 
ATOM     39  C   UNL     1      -1.370   8.495  -0.983  1.00  0.00     0.046 A 
ATOM     40  C   UNL     1       0.938   8.823  -1.625  1.00  0.00     0.046 A 
ATOM     41  C   UNL     1      -0.416   8.806  -1.944  1.00  0.00     0.115 A 
BRANCH  41  42
ATOM     42  O   UNL     1      -0.851   9.087  -3.205  1.00  0.00    -0.508 OA
ATOM     43  H   UNL     1      -1.648   9.639  -3.136  1.00  0.00     0.293 HD
ENDBRANCH  41  42
ENDBRANCH  35  36
ENDBRANCH  34  35
BRANCH  34  44
ATOM     44  C   UNL     1       2.737   9.337   2.922  1.00  0.00     0.243 C 
ATOM     45  O   UNL     1       3.529   8.608   3.512  1.00  0.00    -0.273 OA
ATOM     46  N   UNL     1       3.135  10.515   2.328  1.00  0.00    -0.341 N 
ATOM     47  H   UNL     1       2.428  11.144   1.956  1.00  0.00     0.164 HD
BRANCH  46  48
ATOM     48  C   UNL     1       4.526  10.971   2.295  1.00  0.00     0.196 C 
BRANCH  48  49
ATOM     49  C   UNL     1       5.304  10.311   1.144  1.00  0.00     0.072 C 
BRANCH  49  50
ATOM     50  C   UNL     1       6.695   9.882   1.552  1.00  0.00    -0.045 A 
ATOM     51  C   UNL     1       7.814  10.510   0.986  1.00  0.00     0.007 A 
ATOM     52  C   UNL     1       6.888   8.847   2.476  1.00  0.00     0.007 A 
ATOM     53  C   UNL     1       9.103  10.114   1.345  1.00  0.00     0.046 A 
ATOM     54  C   UNL     1       8.178   8.449   2.834  1.00  0.00     0.046 A 
ATOM     55  C   UNL     1       9.275   9.088   2.266  1.00  0.00     0.115 A 
BRANCH  55  56
ATOM     56  O   UNL     1      10.551   8.729   2.589  1.00  0.00    -0.508 OA
ATOM     57  H   UNL     1      10.694   7.815   2.298  1.00  0.00     0.293 HD
ENDBRANCH  55  56
ENDBRANCH  49  50
ENDBRANCH  48  49
BRANCH  48  58
ATOM     58  C   UNL     1       4.549  12.496   2.123  1.00  0.00     0.326 C 
ATOM     59  O   UNL     1       4.524  13.122   1.076  1.00  0.00    -0.250 OA
BRANCH  58  60
ATOM     60  O   UNL     1       4.586  13.172   3.299  1.00  0.00    -0.480 OA
ATOM     61  H   UNL     1       3.727  13.648   3.314  1.00  0.00     0.296 HD
ENDBRANCH  58  60
ENDBRANCH  48  58
ENDBRANCH  46  48
ENDBRANCH  34  44
ENDBRANCH  32  34
ENDBRANCH  25  30
ENDBRANCH  23  25
ENDBRANCH   2  23
TORSDOF 28
ENDMDL
MODEL 43
REMARK VINA RESULT:    -6.844      3.925      7.574
REMARK INTER + INTRA:         -21.196
REMARK INTER:                 -15.989
REMARK INTRA:                  -5.207
REMARK UNBOUND:                -4.149
REMARK SMILES CCCCCCC[C@H](N)[C@H](O)C(=O)N[C@H](C)C(=O)N(C)[C@H](CC(C)C)C(=O)N[C@@H](Cc1ccc(O)cc1)C(=O)N[C@@H](Cc1ccc(O)cc1)C(=O)O
REMARK SMILES IDX 18 1 17 2 15 3 16 4 14 5 12 6 13 7 10 9 11 10 8 12 9 13 7 16
REMARK SMILES IDX 6 17 5 18 4 19 3 20 2 21 1 22 19 23 20 24 21 25 22 26 23 27
REMARK SMILES IDX 24 28 25 29 26 30 27 31 28 32 29 34 30 35 31 36 32 37 37 38
REMARK SMILES IDX 33 39 36 40 34 41 35 42 38 44 39 45 40 46 41 48 42 49 43 50
REMARK SMILES IDX 44 51 49 52 45 53 48 54 46 55 47 56 50 58 51 59 52 60
REMARK H PARENT 14 8 11 11 9 14 9 15 28 33 35 43 40 47 47 57 52 61
ROOT
ATOM      1  O   UNL     1       8.300  11.841   2.259  1.00  0.00    -0.272 OA
ATOM      2  C   UNL     1       7.342  11.462   1.568  1.00  0.00     0.245 C 
ENDROOT
BRANCH   2   3
ATOM      3  C   UNL     1       7.184   9.947   1.288  1.00  0.00     0.168 C 
ATOM      4  C   UNL     1       8.460   9.193   1.649  1.00  0.00     0.041 C 
BRANCH   3   5
ATOM      5  N   UNL     1       6.006   9.335   1.882  1.00  0.00    -0.342 N 
ATOM      6  C   UNL     1       5.876   9.180   3.246  1.00  0.00     0.251 C 
ATOM      7  O   UNL     1       6.746   9.501   4.049  1.00  0.00    -0.272 OA
ATOM      8  H   UNL     1       5.233   8.997   1.314  1.00  0.00     0.164 HD
BRANCH   6   9
ATOM      9  C   UNL     1       4.495   8.643   3.655  1.00  0.00     0.219 C 
BRANCH   9  10
ATOM     10  O   UNL     1       4.562   7.728   4.755  1.00  0.00    -0.382 OA
ATOM     11  H   UNL     1       5.160   7.020   4.432  1.00  0.00     0.211 HD
ENDBRANCH   9  10
BRANCH   9  12
ATOM     12  C   UNL     1       3.463   9.766   3.934  1.00  0.00     0.089 C 
BRANCH  12  13
ATOM     13  N   UNL     1       4.149  11.073   3.808  1.00  0.00    -0.325 NA
ATOM     14  H   UNL     1       3.630  11.663   3.155  1.00  0.00     0.119 HD
ATOM     15  H   UNL     1       5.061  10.927   3.369  1.00  0.00     0.119 HD
ENDBRANCH  12  13
BRANCH  12  16
ATOM     16  C   UNL     1       2.188   9.749   3.057  1.00  0.00     0.022 C 
BRANCH  16  17
ATOM     17  C   UNL     1       1.217   8.566   3.174  1.00  0.00     0.002 C 
BRANCH  17  18
ATOM     18  C   UNL     1       1.293   7.554   2.034  1.00  0.00     0.000 C 
BRANCH  18  19
ATOM     19  C   UNL     1       0.295   7.816   0.898  1.00  0.00    -0.000 C 
BRANCH  19  20
ATOM     20  C   UNL     1       0.921   8.250  -0.430  1.00  0.00    -0.000 C 
BRANCH  20  21
ATOM     21  C   UNL     1      -0.037   8.113  -1.617  1.00  0.00    -0.003 C 
ATOM     22  C   UNL     1      -1.298   8.938  -1.410  1.00  0.00     0.004 C 
ENDBRANCH  20  21
ENDBRANCH  19  20
ENDBRANCH  18  19
ENDBRANCH  17  18
ENDBRANCH  16  17
ENDBRANCH  12  16
ENDBRANCH   9  12
ENDBRANCH   6   9
ENDBRANCH   3   5
ENDBRANCH   2   3
BRANCH   2  23
ATOM     23  N   UNL     1       6.372  12.373   1.165  1.00  0.00    -0.332 N 
ATOM     24  C   UNL     1       5.890  13.480   1.978  1.00  0.00     0.147 C 
BRANCH  23  25
ATOM     25  C   UNL     1       5.841  12.339  -0.225  1.00  0.00     0.174 C 
BRANCH  25  26
ATOM     26  C   UNL     1       6.046  13.673  -0.981  1.00  0.00     0.038 C 
BRANCH  26  27
ATOM     27  C   UNL     1       6.965  13.640  -2.222  1.00  0.00    -0.015 C 
ATOM     28  C   UNL     1       6.178  13.578  -3.531  1.00  0.00     0.007 C 
ATOM     29  C   UNL     1       7.978  14.782  -2.258  1.00  0.00     0.007 C 
ENDBRANCH  26  27
ENDBRANCH  25  26
BRANCH  25  30
ATOM     30  C   UNL     1       4.376  11.845  -0.224  1.00  0.00     0.243 C 
ATOM     31  O   UNL     1       3.937  11.117   0.665  1.00  0.00    -0.273 OA
ATOM     32  N   UNL     1       3.606  12.267  -1.277  1.00  0.00    -0.342 N 
ATOM     33  H   UNL     1       4.000  12.981  -1.895  1.00  0.00     0.164 HD
BRANCH  32  34
ATOM     34  C   UNL     1       2.205  11.876  -1.454  1.00  0.00     0.175 C 
BRANCH  34  35
ATOM     35  C   UNL     1       1.253  13.022  -1.078  1.00  0.00     0.070 C 
BRANCH  35  36
ATOM     36  C   UNL     1       0.053  12.551  -0.289  1.00  0.00    -0.045 A 
ATOM     37  C   UNL     1       0.233  11.784   0.872  1.00  0.00     0.007 A 
ATOM     38  C   UNL     1      -1.249  12.850  -0.712  1.00  0.00     0.007 A 
ATOM     39  C   UNL     1      -0.868  11.333   1.599  1.00  0.00     0.046 A 
ATOM     40  C   UNL     1      -2.352  12.398   0.015  1.00  0.00     0.046 A 
ATOM     41  C   UNL     1      -2.152  11.644   1.166  1.00  0.00     0.115 A 
BRANCH  41  42
ATOM     42  O   UNL     1      -3.201  11.181   1.903  1.00  0.00    -0.508 OA
ATOM     43  H   UNL     1      -2.877  10.472   2.483  1.00  0.00     0.293 HD
ENDBRANCH  41  42
ENDBRANCH  35  36
ENDBRANCH  34  35
BRANCH  34  44
ATOM     44  C   UNL     1       2.015  11.424  -2.919  1.00  0.00     0.243 C 
ATOM     45  O   UNL     1       0.991  10.909  -3.359  1.00  0.00    -0.273 OA
ATOM     46  N   UNL     1       3.161  11.530  -3.679  1.00  0.00    -0.341 N 
ATOM     47  H   UNL     1       4.018  11.853  -3.238  1.00  0.00     0.164 HD
BRANCH  46  48
ATOM     48  C   UNL     1       3.243  11.100  -5.076  1.00  0.00     0.196 C 
BRANCH  48  49
ATOM     49  C   UNL     1       3.137   9.570  -5.199  1.00  0.00     0.072 C 
BRANCH  49  50
ATOM     50  C   UNL     1       4.428   8.932  -5.659  1.00  0.00    -0.045 A 
ATOM     51  C   UNL     1       5.554   9.731  -5.905  1.00  0.00     0.007 A 
ATOM     52  C   UNL     1       4.515   7.549  -5.865  1.00  0.00     0.007 A 
ATOM     53  C   UNL     1       6.747   9.156  -6.343  1.00  0.00     0.046 A 
ATOM     54  C   UNL     1       5.709   6.973  -6.304  1.00  0.00     0.046 A 
ATOM     55  C   UNL     1       6.816   7.782  -6.538  1.00  0.00     0.115 A 
BRANCH  55  56
ATOM     56  O   UNL     1       7.999   7.258  -6.968  1.00  0.00    -0.508 OA
ATOM     57  H   UNL     1       8.094   6.368  -6.595  1.00  0.00     0.293 HD
ENDBRANCH  55  56
ENDBRANCH  49  50
ENDBRANCH  48  49
BRANCH  48  58
ATOM     58  C   UNL     1       2.108  11.760  -5.870  1.00  0.00     0.326 C 
ATOM     59  O   UNL     1       2.001  12.939  -6.167  1.00  0.00    -0.250 OA
BRANCH  58  60
ATOM     60  O   UNL     1       1.150  10.887  -6.273  1.00  0.00    -0.480 OA
ATOM     61  H   UNL     1       1.651  10.232  -6.806  1.00  0.00     0.296 HD
ENDBRANCH  58  60
ENDBRANCH  48  58
ENDBRANCH  46  48
ENDBRANCH  34  44
ENDBRANCH  32  34
ENDBRANCH  25  30
ENDBRANCH  23  25
ENDBRANCH   2  23
TORSDOF 28
ENDMDL
MODEL 44
REMARK VINA RESULT:    -6.813      4.509     11.026
REMARK INTER + INTRA:         -21.118
REMARK INTER:                 -17.861
REMARK INTRA:                  -3.257
REMARK UNBOUND:                -4.149
REMARK SMILES CCCCCCC[C@H](N)[C@H](O)C(=O)N[C@H](C)C(=O)N(C)[C@H](CC(C)C)C(=O)N[C@@H](Cc1ccc(O)cc1)C(=O)N[C@@H](Cc1ccc(O)cc1)C(=O)O
REMARK SMILES IDX 18 1 17 2 15 3 16 4 14 5 12 6 13 7 10 9 11 10 8 12 9 13 7 16
REMARK SMILES IDX 6 17 5 18 4 19 3 20 2 21 1 22 19 23 20 24 21 25 22 26 23 27
REMARK SMILES IDX 24 28 25 29 26 30 27 31 28 32 29 34 30 35 31 36 32 37 37 38
REMARK SMILES IDX 33 39 36 40 34 41 35 42 38 44 39 45 40 46 41 48 42 49 43 50
REMARK SMILES IDX 44 51 49 52 45 53 48 54 46 55 47 56 50 58 51 59 52 60
REMARK H PARENT 14 8 11 11 9 14 9 15 28 33 35 43 40 47 47 57 52 61
ROOT
ATOM      1  O   UNL     1      -0.216  11.492   1.247  1.00  0.00    -0.272 OA
ATOM      2  C   UNL     1       0.241  11.918   0.177  1.00  0.00     0.245 C 
ENDROOT
BRANCH   2   3
ATOM      3  C   UNL     1      -0.543  11.636  -1.129  1.00  0.00     0.168 C 
ATOM      4  C   UNL     1      -1.774  12.530  -1.226  1.00  0.00     0.041 C 
BRANCH   3   5
ATOM      5  N   UNL     1       0.257  11.680  -2.344  1.00  0.00    -0.342 N 
ATOM      6  C   UNL     1      -0.113  11.000  -3.484  1.00  0.00     0.251 C 
ATOM      7  O   UNL     1      -1.106  10.283  -3.552  1.00  0.00    -0.272 OA
ATOM      8  H   UNL     1       1.121  12.215  -2.397  1.00  0.00     0.164 HD
BRANCH   6   9
ATOM      9  C   UNL     1       0.800  11.306  -4.682  1.00  0.00     0.219 C 
BRANCH   9  10
ATOM     10  O   UNL     1       1.308  12.646  -4.661  1.00  0.00    -0.382 OA
ATOM     11  H   UNL     1       1.765  12.706  -3.794  1.00  0.00     0.211 HD
ENDBRANCH   9  10
BRANCH   9  12
ATOM     12  C   UNL     1       1.954  10.282  -4.845  1.00  0.00     0.089 C 
BRANCH  12  13
ATOM     13  N   UNL     1       1.364   8.931  -4.984  1.00  0.00    -0.325 NA
ATOM     14  H   UNL     1       1.572   8.386  -4.146  1.00  0.00     0.119 HD
ATOM     15  H   UNL     1       1.836   8.441  -5.747  1.00  0.00     0.119 HD
ENDBRANCH  12  13
BRANCH  12  16
ATOM     16  C   UNL     1       2.942  10.553  -6.005  1.00  0.00     0.022 C 
BRANCH  16  17
ATOM     17  C   UNL     1       4.448  10.390  -5.757  1.00  0.00     0.002 C 
BRANCH  17  18
ATOM     18  C   UNL     1       4.942   8.945  -5.723  1.00  0.00     0.000 C 
BRANCH  18  19
ATOM     19  C   UNL     1       5.929   8.596  -6.844  1.00  0.00    -0.000 C 
BRANCH  19  20
ATOM     20  C   UNL     1       6.899   7.455  -6.525  1.00  0.00    -0.000 C 
BRANCH  20  21
ATOM     21  C   UNL     1       7.892   7.177  -7.657  1.00  0.00    -0.003 C 
ATOM     22  C   UNL     1       8.560   8.457  -8.135  1.00  0.00     0.004 C 
ENDBRANCH  20  21
ENDBRANCH  19  20
ENDBRANCH  18  19
ENDBRANCH  17  18
ENDBRANCH  16  17
ENDBRANCH  12  16
ENDBRANCH   9  12
ENDBRANCH   6   9
ENDBRANCH   3   5
ENDBRANCH   2   3
BRANCH   2  23
ATOM     23  N   UNL     1       1.367  12.735   0.178  1.00  0.00    -0.332 N 
ATOM     24  C   UNL     1       1.389  14.111  -0.298  1.00  0.00     0.147 C 
BRANCH  23  25
ATOM     25  C   UNL     1       2.633  12.269   0.808  1.00  0.00     0.174 C 
BRANCH  25  26
ATOM     26  C   UNL     1       3.579  11.564  -0.192  1.00  0.00     0.038 C 
BRANCH  26  27
ATOM     27  C   UNL     1       4.660  12.437  -0.868  1.00  0.00    -0.015 C 
ATOM     28  C   UNL     1       4.284  12.830  -2.297  1.00  0.00     0.007 C 
ATOM     29  C   UNL     1       5.040  13.671  -0.054  1.00  0.00     0.007 C 
ENDBRANCH  26  27
ENDBRANCH  25  26
BRANCH  25  30
ATOM     30  C   UNL     1       2.322  11.429   2.068  1.00  0.00     0.243 C 
ATOM     31  O   UNL     1       1.987  11.951   3.130  1.00  0.00    -0.273 OA
ATOM     32  N   UNL     1       2.451  10.072   1.922  1.00  0.00    -0.342 N 
ATOM     33  H   UNL     1       2.594   9.708   0.977  1.00  0.00     0.164 HD
BRANCH  32  34
ATOM     34  C   UNL     1       2.224   9.123   3.016  1.00  0.00     0.175 C 
BRANCH  34  35
ATOM     35  C   UNL     1       1.752   7.761   2.485  1.00  0.00     0.070 C 
BRANCH  35  36
ATOM     36  C   UNL     1       0.689   7.886   1.417  1.00  0.00    -0.045 A 
ATOM     37  C   UNL     1       1.049   7.848   0.061  1.00  0.00     0.007 A 
ATOM     38  C   UNL     1      -0.657   8.064   1.759  1.00  0.00     0.007 A 
ATOM     39  C   UNL     1       0.077   7.976  -0.932  1.00  0.00     0.046 A 
ATOM     40  C   UNL     1      -1.631   8.194   0.766  1.00  0.00     0.046 A 
ATOM     41  C   UNL     1      -1.254   8.148  -0.572  1.00  0.00     0.115 A 
BRANCH  41  42
ATOM     42  O   UNL     1      -2.172   8.272  -1.573  1.00  0.00    -0.508 OA
ATOM     43  H   UNL     1      -2.421   7.381  -1.870  1.00  0.00     0.293 HD
ENDBRANCH  41  42
ENDBRANCH  35  36
ENDBRANCH  34  35
BRANCH  34  44
ATOM     44  C   UNL     1       3.534   9.005   3.827  1.00  0.00     0.243 C 
ATOM     45  O   UNL     1       3.864   9.770   4.729  1.00  0.00    -0.273 OA
ATOM     46  N   UNL     1       4.382   8.024   3.358  1.00  0.00    -0.341 N 
ATOM     47  H   UNL     1       4.115   7.492   2.533  1.00  0.00     0.164 HD
BRANCH  46  48
ATOM     48  C   UNL     1       5.710   7.769   3.922  1.00  0.00     0.196 C 
BRANCH  48  49
ATOM     49  C   UNL     1       5.904   6.279   4.246  1.00  0.00     0.072 C 
BRANCH  49  50
ATOM     50  C   UNL     1       5.368   5.905   5.609  1.00  0.00    -0.045 A 
ATOM     51  C   UNL     1       5.220   4.554   5.956  1.00  0.00     0.007 A 
ATOM     52  C   UNL     1       4.992   6.890   6.531  1.00  0.00     0.007 A 
ATOM     53  C   UNL     1       4.713   4.197   7.206  1.00  0.00     0.046 A 
ATOM     54  C   UNL     1       4.484   6.533   7.782  1.00  0.00     0.046 A 
ATOM     55  C   UNL     1       4.350   5.188   8.109  1.00  0.00     0.115 A 
BRANCH  55  56
ATOM     56  O   UNL     1       3.857   4.797   9.319  1.00  0.00    -0.508 OA
ATOM     57  H   UNL     1       2.999   4.367   9.176  1.00  0.00     0.293 HD
ENDBRANCH  55  56
ENDBRANCH  49  50
ENDBRANCH  48  49
BRANCH  48  58
ATOM     58  C   UNL     1       6.776   8.220   2.914  1.00  0.00     0.326 C 
ATOM     59  O   UNL     1       6.673   9.099   2.074  1.00  0.00    -0.250 OA
BRANCH  58  60
ATOM     60  O   UNL     1       7.945   7.541   3.022  1.00  0.00    -0.480 OA
ATOM     61  H   UNL     1       8.178   7.341   2.090  1.00  0.00     0.296 HD
ENDBRANCH  58  60
ENDBRANCH  48  58
ENDBRANCH  46  48
ENDBRANCH  34  44
ENDBRANCH  32  34
ENDBRANCH  25  30
ENDBRANCH  23  25
ENDBRANCH   2  23
TORSDOF 28
ENDMDL
MODEL 45
REMARK VINA RESULT:    -6.809      3.623      7.522
REMARK INTER + INTRA:         -21.108
REMARK INTER:                 -15.933
REMARK INTRA:                  -5.175
REMARK UNBOUND:                -4.149
REMARK SMILES CCCCCCC[C@H](N)[C@H](O)C(=O)N[C@H](C)C(=O)N(C)[C@H](CC(C)C)C(=O)N[C@@H](Cc1ccc(O)cc1)C(=O)N[C@@H](Cc1ccc(O)cc1)C(=O)O
REMARK SMILES IDX 18 1 17 2 15 3 16 4 14 5 12 6 13 7 10 9 11 10 8 12 9 13 7 16
REMARK SMILES IDX 6 17 5 18 4 19 3 20 2 21 1 22 19 23 20 24 21 25 22 26 23 27
REMARK SMILES IDX 24 28 25 29 26 30 27 31 28 32 29 34 30 35 31 36 32 37 37 38
REMARK SMILES IDX 33 39 36 40 34 41 35 42 38 44 39 45 40 46 41 48 42 49 43 50
REMARK SMILES IDX 44 51 49 52 45 53 48 54 46 55 47 56 50 58 51 59 52 60
REMARK H PARENT 14 8 11 11 9 14 9 15 28 33 35 43 40 47 47 57 52 61
ROOT
ATOM      1  O   UNL     1       5.522  10.566   4.695  1.00  0.00    -0.272 OA
ATOM      2  C   UNL     1       4.907  10.310   3.649  1.00  0.00     0.245 C 
ENDROOT
BRANCH   2   3
ATOM      3  C   UNL     1       4.108   8.986   3.564  1.00  0.00     0.168 C 
ATOM      4  C   UNL     1       4.618   7.979   4.589  1.00  0.00     0.041 C 
BRANCH   3   5
ATOM      5  N   UNL     1       2.663   9.139   3.627  1.00  0.00    -0.342 N 
ATOM      6  C   UNL     1       2.048   9.830   4.649  1.00  0.00     0.251 C 
ATOM      7  O   UNL     1       2.657  10.326   5.592  1.00  0.00    -0.272 OA
ATOM      8  H   UNL     1       2.050   8.741   2.919  1.00  0.00     0.164 HD
BRANCH   6   9
ATOM      9  C   UNL     1       0.534   9.986   4.435  1.00  0.00     0.219 C 
BRANCH   9  10
ATOM     10  O   UNL     1      -0.178  10.197   5.660  1.00  0.00    -0.382 OA
ATOM     11  H   UNL     1      -0.266  11.175   5.710  1.00  0.00     0.211 HD
ENDBRANCH   9  10
BRANCH   9  12
ATOM     12  C   UNL     1       0.175  11.078   3.394  1.00  0.00     0.089 C 
BRANCH  12  13
ATOM     13  N   UNL     1       1.382  11.898   3.141  1.00  0.00    -0.325 NA
ATOM     14  H   UNL     1       2.022  11.377   2.539  1.00  0.00     0.119 HD
ATOM     15  H   UNL     1       1.887  12.023   4.022  1.00  0.00     0.119 HD
ENDBRANCH  12  13
BRANCH  12  16
ATOM     16  C   UNL     1      -0.412  10.571   2.055  1.00  0.00     0.022 C 
BRANCH  16  17
ATOM     17  C   UNL     1      -1.602   9.601   2.081  1.00  0.00     0.002 C 
BRANCH  17  18
ATOM     18  C   UNL     1      -1.420   8.335   1.246  1.00  0.00     0.000 C 
BRANCH  18  19
ATOM     19  C   UNL     1      -0.032   7.693   1.379  1.00  0.00    -0.000 C 
BRANCH  19  20
ATOM     20  C   UNL     1       0.707   7.464   0.058  1.00  0.00    -0.000 C 
BRANCH  20  21
ATOM     21  C   UNL     1      -0.058   7.994  -1.158  1.00  0.00    -0.003 C 
ATOM     22  C   UNL     1       0.780   8.983  -1.953  1.00  0.00     0.004 C 
ENDBRANCH  20  21
ENDBRANCH  19  20
ENDBRANCH  18  19
ENDBRANCH  17  18
ENDBRANCH  16  17
ENDBRANCH  12  16
ENDBRANCH   9  12
ENDBRANCH   6   9
ENDBRANCH   3   5
ENDBRANCH   2   3
BRANCH   2  23
ATOM     23  N   UNL     1       4.844  11.255   2.631  1.00  0.00    -0.332 N 
ATOM     24  C   UNL     1       4.787  12.694   2.842  1.00  0.00     0.147 C 
BRANCH  23  25
ATOM     25  C   UNL     1       4.963  10.835   1.207  1.00  0.00     0.174 C 
BRANCH  25  26
ATOM     26  C   UNL     1       6.148  11.510   0.477  1.00  0.00     0.038 C 
BRANCH  26  27
ATOM     27  C   UNL     1       7.554  10.926   0.736  1.00  0.00    -0.015 C 
ATOM     28  C   UNL     1       8.427  11.854   1.581  1.00  0.00     0.007 C 
ATOM     29  C   UNL     1       7.528   9.522   1.335  1.00  0.00     0.007 C 
ENDBRANCH  26  27
ENDBRANCH  25  26
BRANCH  25  30
ATOM     30  C   UNL     1       3.607  11.011   0.486  1.00  0.00     0.243 C 
ATOM     31  O   UNL     1       2.628  10.320   0.765  1.00  0.00    -0.273 OA
ATOM     32  N   UNL     1       3.572  11.978  -0.485  1.00  0.00    -0.342 N 
ATOM     33  H   UNL     1       4.380  12.603  -0.560  1.00  0.00     0.164 HD
BRANCH  32  34
ATOM     34  C   UNL     1       2.382  12.265  -1.290  1.00  0.00     0.175 C 
BRANCH  34  35
ATOM     35  C   UNL     1       1.649  13.515  -0.779  1.00  0.00     0.070 C 
BRANCH  35  36
ATOM     36  C   UNL     1       0.179  13.270  -0.526  1.00  0.00    -0.045 A 
ATOM     37  C   UNL     1      -0.471  13.927   0.530  1.00  0.00     0.007 A 
ATOM     38  C   UNL     1      -0.547  12.372  -1.320  1.00  0.00     0.007 A 
ATOM     39  C   UNL     1      -1.824  13.696   0.779  1.00  0.00     0.046 A 
ATOM     40  C   UNL     1      -1.902  12.140  -1.070  1.00  0.00     0.046 A 
ATOM     41  C   UNL     1      -2.529  12.806  -0.023  1.00  0.00     0.115 A 
BRANCH  41  42
ATOM     42  O   UNL     1      -3.848  12.606   0.256  1.00  0.00    -0.508 OA
ATOM     43  H   UNL     1      -4.014  12.896   1.169  1.00  0.00     0.293 HD
ENDBRANCH  41  42
ENDBRANCH  35  36
ENDBRANCH  34  35
BRANCH  34  44
ATOM     44  C   UNL     1       2.824  12.416  -2.762  1.00  0.00     0.243 C 
ATOM     45  O   UNL     1       2.052  12.485  -3.715  1.00  0.00    -0.273 OA
ATOM     46  N   UNL     1       4.189  12.336  -2.936  1.00  0.00    -0.341 N 
ATOM     47  H   UNL     1       4.781  12.160  -2.128  1.00  0.00     0.164 HD
BRANCH  46  48
ATOM     48  C   UNL     1       4.839  12.384  -4.248  1.00  0.00     0.196 C 
BRANCH  48  49
ATOM     49  C   UNL     1       4.121  11.477  -5.262  1.00  0.00     0.072 C 
BRANCH  49  50
ATOM     50  C   UNL     1       4.884  10.203  -5.545  1.00  0.00    -0.045 A 
ATOM     51  C   UNL     1       4.212   8.972  -5.549  1.00  0.00     0.007 A 
ATOM     52  C   UNL     1       6.264  10.227  -5.784  1.00  0.00     0.007 A 
ATOM     53  C   UNL     1       4.908   7.788  -5.795  1.00  0.00     0.046 A 
ATOM     54  C   UNL     1       6.961   9.042  -6.029  1.00  0.00     0.046 A 
ATOM     55  C   UNL     1       6.276   7.832  -6.034  1.00  0.00     0.115 A 
BRANCH  55  56
ATOM     56  O   UNL     1       6.919   6.653  -6.269  1.00  0.00    -0.508 OA
ATOM     57  H   UNL     1       6.560   6.265  -7.082  1.00  0.00     0.293 HD
ENDBRANCH  55  56
ENDBRANCH  49  50
ENDBRANCH  48  49
BRANCH  48  58
ATOM     58  C   UNL     1       4.830  13.832  -4.757  1.00  0.00     0.326 C 
ATOM     59  O   UNL     1       3.980  14.367  -5.450  1.00  0.00    -0.250 OA
BRANCH  58  60
ATOM     60  O   UNL     1       5.903  14.556  -4.349  1.00  0.00    -0.480 OA
ATOM     61  H   UNL     1       6.661  13.964  -4.543  1.00  0.00     0.296 HD
ENDBRANCH  58  60
ENDBRANCH  48  58
ENDBRANCH  46  48
ENDBRANCH  34  44
ENDBRANCH  32  34
ENDBRANCH  25  30
ENDBRANCH  23  25
ENDBRANCH   2  23
TORSDOF 28
ENDMDL
MODEL 46
REMARK VINA RESULT:    -6.806      3.060     11.212
REMARK INTER + INTRA:         -21.100
REMARK INTER:                 -16.944
REMARK INTRA:                  -4.156
REMARK UNBOUND:                -4.149
REMARK SMILES CCCCCCC[C@H](N)[C@H](O)C(=O)N[C@H](C)C(=O)N(C)[C@H](CC(C)C)C(=O)N[C@@H](Cc1ccc(O)cc1)C(=O)N[C@@H](Cc1ccc(O)cc1)C(=O)O
REMARK SMILES IDX 18 1 17 2 15 3 16 4 14 5 12 6 13 7 10 9 11 10 8 12 9 13 7 16
REMARK SMILES IDX 6 17 5 18 4 19 3 20 2 21 1 22 19 23 20 24 21 25 22 26 23 27
REMARK SMILES IDX 24 28 25 29 26 30 27 31 28 32 29 34 30 35 31 36 32 37 37 38
REMARK SMILES IDX 33 39 36 40 34 41 35 42 38 44 39 45 40 46 41 48 42 49 43 50
REMARK SMILES IDX 44 51 49 52 45 53 48 54 46 55 47 56 50 58 51 59 52 60
REMARK H PARENT 14 8 11 11 9 14 9 15 28 33 35 43 40 47 47 57 52 61
ROOT
ATOM      1  O   UNL     1       2.113  11.147  -2.068  1.00  0.00    -0.272 OA
ATOM      2  C   UNL     1       2.644  12.262  -2.176  1.00  0.00     0.245 C 
ENDROOT
BRANCH   2   3
ATOM      3  C   UNL     1       2.852  12.849  -3.594  1.00  0.00     0.168 C 
ATOM      4  C   UNL     1       4.002  13.851  -3.602  1.00  0.00     0.041 C 
BRANCH   3   5
ATOM      5  N   UNL     1       2.988  11.860  -4.652  1.00  0.00    -0.342 N 
ATOM      6  C   UNL     1       2.401  12.030  -5.888  1.00  0.00     0.251 C 
ATOM      7  O   UNL     1       1.695  12.991  -6.175  1.00  0.00    -0.272 OA
ATOM      8  H   UNL     1       3.522  11.004  -4.520  1.00  0.00     0.164 HD
BRANCH   6   9
ATOM      9  C   UNL     1       2.795  10.932  -6.889  1.00  0.00     0.219 C 
BRANCH   9  10
ATOM     10  O   UNL     1       3.366  11.461  -8.092  1.00  0.00    -0.382 OA
ATOM     11  H   UNL     1       3.442  12.423  -7.908  1.00  0.00     0.211 HD
ENDBRANCH   9  10
BRANCH   9  12
ATOM     12  C   UNL     1       3.717   9.848  -6.273  1.00  0.00     0.089 C 
BRANCH  12  13
ATOM     13  N   UNL     1       2.866   8.756  -5.746  1.00  0.00    -0.325 NA
ATOM     14  H   UNL     1       1.922   9.112  -5.587  1.00  0.00     0.119 HD
ATOM     15  H   UNL     1       3.209   8.485  -4.821  1.00  0.00     0.119 HD
ENDBRANCH  12  13
BRANCH  12  16
ATOM     16  C   UNL     1       4.805   9.270  -7.209  1.00  0.00     0.022 C 
BRANCH  16  17
ATOM     17  C   UNL     1       6.282   9.430  -6.826  1.00  0.00     0.002 C 
BRANCH  17  18
ATOM     18  C   UNL     1       6.928   8.188  -6.216  1.00  0.00     0.000 C 
BRANCH  18  19
ATOM     19  C   UNL     1       6.583   6.883  -6.945  1.00  0.00    -0.000 C 
BRANCH  19  20
ATOM     20  C   UNL     1       7.351   6.642  -8.247  1.00  0.00    -0.000 C 
BRANCH  20  21
ATOM     21  C   UNL     1       6.445   6.613  -9.481  1.00  0.00    -0.003 C 
ATOM     22  C   UNL     1       6.871   7.653 -10.506  1.00  0.00     0.004 C 
ENDBRANCH  20  21
ENDBRANCH  19  20
ENDBRANCH  18  19
ENDBRANCH  17  18
ENDBRANCH  16  17
ENDBRANCH  12  16
ENDBRANCH   9  12
ENDBRANCH   6   9
ENDBRANCH   3   5
ENDBRANCH   2   3
BRANCH   2  23
ATOM     23  N   UNL     1       2.927  13.011  -1.039  1.00  0.00    -0.332 N 
ATOM     24  C   UNL     1       2.132  14.137  -0.572  1.00  0.00     0.147 C 
BRANCH  23  25
ATOM     25  C   UNL     1       4.033  12.605  -0.129  1.00  0.00     0.174 C 
BRANCH  25  26
ATOM     26  C   UNL     1       5.425  12.684  -0.800  1.00  0.00     0.038 C 
BRANCH  26  27
ATOM     27  C   UNL     1       6.478  13.590  -0.124  1.00  0.00    -0.015 C 
ATOM     28  C   UNL     1       7.412  14.255  -1.134  1.00  0.00     0.007 C 
ATOM     29  C   UNL     1       5.871  14.632   0.812  1.00  0.00     0.007 C 
ENDBRANCH  26  27
ENDBRANCH  25  26
BRANCH  25  30
ATOM     30  C   UNL     1       3.725  11.227   0.502  1.00  0.00     0.243 C 
ATOM     31  O   UNL     1       4.613  10.412   0.749  1.00  0.00    -0.273 OA
ATOM     32  N   UNL     1       2.402  10.976   0.760  1.00  0.00    -0.342 N 
ATOM     33  H   UNL     1       1.744  11.753   0.660  1.00  0.00     0.164 HD
BRANCH  32  34
ATOM     34  C   UNL     1       1.923   9.714   1.331  1.00  0.00     0.175 C 
BRANCH  34  35
ATOM     35  C   UNL     1       2.046   9.711   2.863  1.00  0.00     0.070 C 
BRANCH  35  36
ATOM     36  C   UNL     1       0.795  10.209   3.551  1.00  0.00    -0.045 A 
ATOM     37  C   UNL     1       0.533  11.586   3.621  1.00  0.00     0.007 A 
ATOM     38  C   UNL     1      -0.104   9.313   4.145  1.00  0.00     0.007 A 
ATOM     39  C   UNL     1      -0.612  12.055   4.266  1.00  0.00     0.046 A 
ATOM     40  C   UNL     1      -1.249   9.782   4.792  1.00  0.00     0.046 A 
ATOM     41  C   UNL     1      -1.493  11.151   4.845  1.00  0.00     0.115 A 
BRANCH  41  42
ATOM     42  O   UNL     1      -2.598  11.651   5.469  1.00  0.00    -0.508 OA
ATOM     43  H   UNL     1      -2.525  11.459   6.418  1.00  0.00     0.293 HD
ENDBRANCH  41  42
ENDBRANCH  35  36
ENDBRANCH  34  35
BRANCH  34  44
ATOM     44  C   UNL     1       0.463   9.504   0.869  1.00  0.00     0.243 C 
ATOM     45  O   UNL     1      -0.179   8.472   1.046  1.00  0.00    -0.273 OA
ATOM     46  N   UNL     1      -0.028  10.546   0.111  1.00  0.00    -0.341 N 
ATOM     47  H   UNL     1       0.583  11.329  -0.107  1.00  0.00     0.164 HD
BRANCH  46  48
ATOM     48  C   UNL     1      -1.361  10.543  -0.494  1.00  0.00     0.196 C 
BRANCH  48  49
ATOM     49  C   UNL     1      -1.833  11.971  -0.816  1.00  0.00     0.072 C 
BRANCH  49  50
ATOM     50  C   UNL     1      -2.173  12.765   0.425  1.00  0.00    -0.045 A 
ATOM     51  C   UNL     1      -1.391  13.874   0.781  1.00  0.00     0.007 A 
ATOM     52  C   UNL     1      -3.250  12.399   1.242  1.00  0.00     0.007 A 
ATOM     53  C   UNL     1      -1.687  14.606   1.931  1.00  0.00     0.046 A 
ATOM     54  C   UNL     1      -3.545  13.132   2.394  1.00  0.00     0.046 A 
ATOM     55  C   UNL     1      -2.761  14.231   2.728  1.00  0.00     0.115 A 
BRANCH  55  56
ATOM     56  O   UNL     1      -3.016  14.971   3.844  1.00  0.00    -0.508 OA
ATOM     57  H   UNL     1      -3.401  14.388   4.517  1.00  0.00     0.293 HD
ENDBRANCH  55  56
ENDBRANCH  49  50
ENDBRANCH  48  49
BRANCH  48  58
ATOM     58  C   UNL     1      -1.323   9.711  -1.783  1.00  0.00     0.326 C 
ATOM     59  O   UNL     1      -1.141  10.117  -2.920  1.00  0.00    -0.250 OA
BRANCH  58  60
ATOM     60  O   UNL     1      -1.504   8.382  -1.576  1.00  0.00    -0.480 OA
ATOM     61  H   UNL     1      -1.105   8.236  -0.690  1.00  0.00     0.296 HD
ENDBRANCH  58  60
ENDBRANCH  48  58
ENDBRANCH  46  48
ENDBRANCH  34  44
ENDBRANCH  32  34
ENDBRANCH  25  30
ENDBRANCH  23  25
ENDBRANCH   2  23
TORSDOF 28
ENDMDL
MODEL 47
REMARK VINA RESULT:    -6.804      4.533      9.120
REMARK INTER + INTRA:         -21.095
REMARK INTER:                 -17.161
REMARK INTRA:                  -3.935
REMARK UNBOUND:                -4.149
REMARK SMILES CCCCCCC[C@H](N)[C@H](O)C(=O)N[C@H](C)C(=O)N(C)[C@H](CC(C)C)C(=O)N[C@@H](Cc1ccc(O)cc1)C(=O)N[C@@H](Cc1ccc(O)cc1)C(=O)O
REMARK SMILES IDX 18 1 17 2 15 3 16 4 14 5 12 6 13 7 10 9 11 10 8 12 9 13 7 16
REMARK SMILES IDX 6 17 5 18 4 19 3 20 2 21 1 22 19 23 20 24 21 25 22 26 23 27
REMARK SMILES IDX 24 28 25 29 26 30 27 31 28 32 29 34 30 35 31 36 32 37 37 38
REMARK SMILES IDX 33 39 36 40 34 41 35 42 38 44 39 45 40 46 41 48 42 49 43 50
REMARK SMILES IDX 44 51 49 52 45 53 48 54 46 55 47 56 50 58 51 59 52 60
REMARK H PARENT 14 8 11 11 9 14 9 15 28 33 35 43 40 47 47 57 52 61
ROOT
ATOM      1  O   UNL     1       2.810  10.558  -0.016  1.00  0.00    -0.272 OA
ATOM      2  C   UNL     1       3.632  11.426   0.313  1.00  0.00     0.245 C 
ENDROOT
BRANCH   2   3
ATOM      3  C   UNL     1       4.477  11.200   1.591  1.00  0.00     0.168 C 
ATOM      4  C   UNL     1       3.701  11.619   2.835  1.00  0.00     0.041 C 
BRANCH   3   5
ATOM      5  N   UNL     1       5.037   9.864   1.726  1.00  0.00    -0.342 N 
ATOM      6  C   UNL     1       6.088   9.598   2.579  1.00  0.00     0.251 C 
ATOM      7  O   UNL     1       6.651  10.458   3.247  1.00  0.00    -0.272 OA
ATOM      8  H   UNL     1       4.675   9.075   1.196  1.00  0.00     0.164 HD
BRANCH   6   9
ATOM      9  C   UNL     1       6.417   8.099   2.665  1.00  0.00     0.219 C 
BRANCH   9  10
ATOM     10  O   UNL     1       7.798   7.853   2.959  1.00  0.00    -0.382 OA
ATOM     11  H   UNL     1       7.939   6.931   2.651  1.00  0.00     0.211 HD
ENDBRANCH   9  10
BRANCH   9  12
ATOM     12  C   UNL     1       5.499   7.329   3.649  1.00  0.00     0.089 C 
BRANCH  12  13
ATOM     13  N   UNL     1       4.705   6.347   2.876  1.00  0.00    -0.325 NA
ATOM     14  H   UNL     1       4.522   6.722   1.943  1.00  0.00     0.119 HD
ATOM     15  H   UNL     1       3.784   6.251   3.310  1.00  0.00     0.119 HD
ENDBRANCH  12  13
BRANCH  12  16
ATOM     16  C   UNL     1       6.209   6.626   4.831  1.00  0.00     0.022 C 
BRANCH  16  17
ATOM     17  C   UNL     1       5.534   5.420   5.497  1.00  0.00     0.002 C 
BRANCH  17  18
ATOM     18  C   UNL     1       5.519   5.451   7.024  1.00  0.00     0.000 C 
BRANCH  18  19
ATOM     19  C   UNL     1       6.011   6.774   7.626  1.00  0.00    -0.000 C 
BRANCH  19  20
ATOM     20  C   UNL     1       7.374   6.705   8.320  1.00  0.00    -0.000 C 
BRANCH  20  21
ATOM     21  C   UNL     1       8.427   7.604   7.667  1.00  0.00    -0.003 C 
ATOM     22  C   UNL     1       9.754   7.530   8.405  1.00  0.00     0.004 C 
ENDBRANCH  20  21
ENDBRANCH  19  20
ENDBRANCH  18  19
ENDBRANCH  17  18
ENDBRANCH  16  17
ENDBRANCH  12  16
ENDBRANCH   9  12
ENDBRANCH   6   9
ENDBRANCH   3   5
ENDBRANCH   2   3
BRANCH   2  23
ATOM     23  N   UNL     1       3.867  12.513  -0.523  1.00  0.00    -0.332 N 
ATOM     24  C   UNL     1       4.244  13.841  -0.063  1.00  0.00     0.147 C 
BRANCH  23  25
ATOM     25  C   UNL     1       3.869  12.337  -2.001  1.00  0.00     0.174 C 
BRANCH  25  26
ATOM     26  C   UNL     1       5.058  13.047  -2.690  1.00  0.00     0.038 C 
BRANCH  26  27
ATOM     27  C   UNL     1       5.247  12.788  -4.202  1.00  0.00    -0.015 C 
ATOM     28  C   UNL     1       5.229  14.078  -5.022  1.00  0.00     0.007 C 
ATOM     29  C   UNL     1       6.488  11.962  -4.526  1.00  0.00     0.007 C 
ENDBRANCH  26  27
ENDBRANCH  25  26
BRANCH  25  30
ATOM     30  C   UNL     1       2.491  12.724  -2.584  1.00  0.00     0.243 C 
ATOM     31  O   UNL     1       2.215  13.885  -2.884  1.00  0.00    -0.273 OA
ATOM     32  N   UNL     1       1.600  11.693  -2.737  1.00  0.00    -0.342 N 
ATOM     33  H   UNL     1       1.950  10.741  -2.600  1.00  0.00     0.164 HD
BRANCH  32  34
ATOM     34  C   UNL     1       0.240  11.878  -3.249  1.00  0.00     0.175 C 
BRANCH  34  35
ATOM     35  C   UNL     1       0.068  11.222  -4.628  1.00  0.00     0.070 C 
BRANCH  35  36
ATOM     36  C   UNL     1       1.385  10.828  -5.257  1.00  0.00    -0.045 A 
ATOM     37  C   UNL     1       1.948  11.625  -6.265  1.00  0.00     0.007 A 
ATOM     38  C   UNL     1       2.048   9.658  -4.862  1.00  0.00     0.007 A 
ATOM     39  C   UNL     1       3.157  11.261  -6.861  1.00  0.00     0.046 A 
ATOM     40  C   UNL     1       3.258   9.293  -5.459  1.00  0.00     0.046 A 
ATOM     41  C   UNL     1       3.802  10.100  -6.453  1.00  0.00     0.115 A 
BRANCH  41  42
ATOM     42  O   UNL     1       4.979   9.780  -7.062  1.00  0.00    -0.508 OA
ATOM     43  H   UNL     1       4.837   8.980  -7.596  1.00  0.00     0.293 HD
ENDBRANCH  41  42
ENDBRANCH  35  36
ENDBRANCH  34  35
BRANCH  34  44
ATOM     44  C   UNL     1      -0.746  11.301  -2.209  1.00  0.00     0.243 C 
ATOM     45  O   UNL     1      -1.593  10.447  -2.455  1.00  0.00    -0.273 OA
ATOM     46  N   UNL     1      -0.681  11.930  -0.983  1.00  0.00    -0.341 N 
ATOM     47  H   UNL     1      -0.042  12.712  -0.863  1.00  0.00     0.164 HD
BRANCH  46  48
ATOM     48  C   UNL     1      -1.563  11.602   0.139  1.00  0.00     0.196 C 
BRANCH  48  49
ATOM     49  C   UNL     1      -0.768  11.424   1.443  1.00  0.00     0.072 C 
BRANCH  49  50
ATOM     50  C   UNL     1      -0.072  10.084   1.521  1.00  0.00    -0.045 A 
ATOM     51  C   UNL     1      -0.306   9.116   0.534  1.00  0.00     0.007 A 
ATOM     52  C   UNL     1       0.792   9.782   2.581  1.00  0.00     0.007 A 
ATOM     53  C   UNL     1       0.320   7.871   0.603  1.00  0.00     0.046 A 
ATOM     54  C   UNL     1       1.418   8.535   2.651  1.00  0.00     0.046 A 
ATOM     55  C   UNL     1       1.178   7.590   1.660  1.00  0.00     0.115 A 
BRANCH  55  56
ATOM     56  O   UNL     1       1.768   6.362   1.692  1.00  0.00    -0.508 OA
ATOM     57  H   UNL     1       1.126   5.723   2.041  1.00  0.00     0.293 HD
ENDBRANCH  55  56
ENDBRANCH  49  50
ENDBRANCH  48  49
BRANCH  48  58
ATOM     58  C   UNL     1      -2.590  12.730   0.312  1.00  0.00     0.326 C 
ATOM     59  O   UNL     1      -2.420  13.807   0.858  1.00  0.00    -0.250 OA
BRANCH  58  60
ATOM     60  O   UNL     1      -3.800  12.448  -0.234  1.00  0.00    -0.480 OA
ATOM     61  H   UNL     1      -4.314  13.271  -0.083  1.00  0.00     0.296 HD
ENDBRANCH  58  60
ENDBRANCH  48  58
ENDBRANCH  46  48
ENDBRANCH  34  44
ENDBRANCH  32  34
ENDBRANCH  25  30
ENDBRANCH  23  25
ENDBRANCH   2  23
TORSDOF 28
ENDMDL
MODEL 48
REMARK VINA RESULT:    -6.783      4.789      8.938
REMARK INTER + INTRA:         -21.044
REMARK INTER:                 -17.228
REMARK INTRA:                  -3.816
REMARK UNBOUND:                -4.149
REMARK SMILES CCCCCCC[C@H](N)[C@H](O)C(=O)N[C@H](C)C(=O)N(C)[C@H](CC(C)C)C(=O)N[C@@H](Cc1ccc(O)cc1)C(=O)N[C@@H](Cc1ccc(O)cc1)C(=O)O
REMARK SMILES IDX 18 1 17 2 15 3 16 4 14 5 12 6 13 7 10 9 11 10 8 12 9 13 7 16
REMARK SMILES IDX 6 17 5 18 4 19 3 20 2 21 1 22 19 23 20 24 21 25 22 26 23 27
REMARK SMILES IDX 24 28 25 29 26 30 27 31 28 32 29 34 30 35 31 36 32 37 37 38
REMARK SMILES IDX 33 39 36 40 34 41 35 42 38 44 39 45 40 46 41 48 42 49 43 50
REMARK SMILES IDX 44 51 49 52 45 53 48 54 46 55 47 56 50 58 51 59 52 60
REMARK H PARENT 14 8 11 11 9 14 9 15 28 33 35 43 40 47 47 57 52 61
ROOT
ATOM      1  O   UNL     1       8.026  11.860   2.497  1.00  0.00    -0.272 OA
ATOM      2  C   UNL     1       7.046  11.292   1.991  1.00  0.00     0.245 C 
ENDROOT
BRANCH   2   3
ATOM      3  C   UNL     1       7.053   9.745   1.897  1.00  0.00     0.168 C 
ATOM      4  C   UNL     1       8.347   9.247   1.263  1.00  0.00     0.041 C 
BRANCH   3   5
ATOM      5  N   UNL     1       6.760   9.056   3.144  1.00  0.00    -0.342 N 
ATOM      6  C   UNL     1       5.468   8.865   3.584  1.00  0.00     0.251 C 
ATOM      7  O   UNL     1       4.482   9.290   2.991  1.00  0.00    -0.272 OA
ATOM      8  H   UNL     1       7.499   8.690   3.740  1.00  0.00     0.164 HD
BRANCH   6   9
ATOM      9  C   UNL     1       5.392   7.992   4.847  1.00  0.00     0.219 C 
BRANCH   9  10
ATOM     10  O   UNL     1       4.333   8.384   5.727  1.00  0.00    -0.382 OA
ATOM     11  H   UNL     1       4.447   7.793   6.504  1.00  0.00     0.211 HD
ENDBRANCH   9  10
BRANCH   9  12
ATOM     12  C   UNL     1       5.315   6.474   4.534  1.00  0.00     0.089 C 
BRANCH  12  13
ATOM     13  N   UNL     1       5.127   6.307   3.075  1.00  0.00    -0.325 NA
ATOM     14  H   UNL     1       4.659   5.416   2.896  1.00  0.00     0.119 HD
ATOM     15  H   UNL     1       6.044   6.220   2.630  1.00  0.00     0.119 HD
ENDBRANCH  12  13
BRANCH  12  16
ATOM     16  C   UNL     1       6.513   5.621   5.016  1.00  0.00     0.022 C 
BRANCH  16  17
ATOM     17  C   UNL     1       6.740   5.437   6.523  1.00  0.00     0.002 C 
BRANCH  17  18
ATOM     18  C   UNL     1       6.445   4.035   7.053  1.00  0.00     0.000 C 
BRANCH  18  19
ATOM     19  C   UNL     1       4.956   3.666   7.047  1.00  0.00    -0.000 C 
BRANCH  19  20
ATOM     20  C   UNL     1       4.035   4.667   7.751  1.00  0.00    -0.000 C 
BRANCH  20  21
ATOM     21  C   UNL     1       2.900   3.994   8.528  1.00  0.00    -0.003 C 
ATOM     22  C   UNL     1       2.484   2.684   7.878  1.00  0.00     0.004 C 
ENDBRANCH  20  21
ENDBRANCH  19  20
ENDBRANCH  18  19
ENDBRANCH  17  18
ENDBRANCH  16  17
ENDBRANCH  12  16
ENDBRANCH   9  12
ENDBRANCH   6   9
ENDBRANCH   3   5
ENDBRANCH   2   3
BRANCH   2  23
ATOM     23  N   UNL     1       5.923  12.029   1.633  1.00  0.00    -0.332 N 
ATOM     24  C   UNL     1       5.168  12.878   2.543  1.00  0.00     0.147 C 
BRANCH  23  25
ATOM     25  C   UNL     1       5.487  12.092   0.211  1.00  0.00     0.174 C 
BRANCH  25  26
ATOM     26  C   UNL     1       5.806  13.450  -0.457  1.00  0.00     0.038 C 
BRANCH  26  27
ATOM     27  C   UNL     1       6.552  13.407  -1.809  1.00  0.00    -0.015 C 
ATOM     28  C   UNL     1       7.724  12.426  -1.799  1.00  0.00     0.007 C 
ATOM     29  C   UNL     1       5.635  13.137  -3.000  1.00  0.00     0.007 C 
ENDBRANCH  26  27
ENDBRANCH  25  26
BRANCH  25  30
ATOM     30  C   UNL     1       4.004  11.673   0.090  1.00  0.00     0.243 C 
ATOM     31  O   UNL     1       3.617  10.550   0.413  1.00  0.00    -0.273 OA
ATOM     32  N   UNL     1       3.155  12.630  -0.404  1.00  0.00    -0.342 N 
ATOM     33  H   UNL     1       3.523  13.578  -0.515  1.00  0.00     0.164 HD
BRANCH  32  34
ATOM     34  C   UNL     1       1.723  12.401  -0.613  1.00  0.00     0.175 C 
BRANCH  34  35
ATOM     35  C   UNL     1       0.879  13.510   0.035  1.00  0.00     0.070 C 
BRANCH  35  36
ATOM     36  C   UNL     1      -0.431  12.999   0.590  1.00  0.00    -0.045 A 
ATOM     37  C   UNL     1      -0.593  11.633   0.864  1.00  0.00     0.007 A 
ATOM     38  C   UNL     1      -1.505  13.871   0.815  1.00  0.00     0.007 A 
ATOM     39  C   UNL     1      -1.803  11.150   1.363  1.00  0.00     0.046 A 
ATOM     40  C   UNL     1      -2.717  13.388   1.313  1.00  0.00     0.046 A 
ATOM     41  C   UNL     1      -2.855  12.031   1.584  1.00  0.00     0.115 A 
BRANCH  41  42
ATOM     42  O   UNL     1      -4.022  11.519   2.069  1.00  0.00    -0.508 OA
ATOM     43  H   UNL     1      -4.400  10.931   1.394  1.00  0.00     0.293 HD
ENDBRANCH  41  42
ENDBRANCH  35  36
ENDBRANCH  34  35
BRANCH  34  44
ATOM     44  C   UNL     1       1.471  12.298  -2.134  1.00  0.00     0.243 C 
ATOM     45  O   UNL     1       1.651  13.214  -2.931  1.00  0.00    -0.273 OA
ATOM     46  N   UNL     1       0.891  11.106  -2.515  1.00  0.00    -0.341 N 
ATOM     47  H   UNL     1       0.652  10.422  -1.800  1.00  0.00     0.164 HD
BRANCH  46  48
ATOM     48  C   UNL     1       0.497  10.806  -3.893  1.00  0.00     0.196 C 
BRANCH  48  49
ATOM     49  C   UNL     1       1.227   9.561  -4.425  1.00  0.00     0.072 C 
BRANCH  49  50
ATOM     50  C   UNL     1       2.520   9.902  -5.131  1.00  0.00    -0.045 A 
ATOM     51  C   UNL     1       3.526   8.932  -5.253  1.00  0.00     0.007 A 
ATOM     52  C   UNL     1       2.742  11.183  -5.650  1.00  0.00     0.007 A 
ATOM     53  C   UNL     1       4.729   9.239  -5.890  1.00  0.00     0.046 A 
ATOM     54  C   UNL     1       3.946  11.491  -6.287  1.00  0.00     0.046 A 
ATOM     55  C   UNL     1       4.929  10.514  -6.402  1.00  0.00     0.115 A 
BRANCH  55  56
ATOM     56  O   UNL     1       6.119  10.774  -7.016  1.00  0.00    -0.508 OA
ATOM     57  H   UNL     1       6.283  10.078  -7.672  1.00  0.00     0.293 HD
ENDBRANCH  55  56
ENDBRANCH  49  50
ENDBRANCH  48  49
BRANCH  48  58
ATOM     58  C   UNL     1      -1.019  10.573  -3.940  1.00  0.00     0.326 C 
ATOM     59  O   UNL     1      -1.773  10.796  -4.873  1.00  0.00    -0.250 OA
BRANCH  58  60
ATOM     60  O   UNL     1      -1.522  10.047  -2.794  1.00  0.00    -0.480 OA
ATOM     61  H   UNL     1      -2.487  10.203  -2.878  1.00  0.00     0.296 HD
ENDBRANCH  58  60
ENDBRANCH  48  58
ENDBRANCH  46  48
ENDBRANCH  34  44
ENDBRANCH  32  34
ENDBRANCH  25  30
ENDBRANCH  23  25
ENDBRANCH   2  23
TORSDOF 28
ENDMDL
MODEL 49
REMARK VINA RESULT:    -6.733      3.337     10.352
REMARK INTER + INTRA:         -20.919
REMARK INTER:                 -16.883
REMARK INTRA:                  -4.036
REMARK UNBOUND:                -4.149
REMARK SMILES CCCCCCC[C@H](N)[C@H](O)C(=O)N[C@H](C)C(=O)N(C)[C@H](CC(C)C)C(=O)N[C@@H](Cc1ccc(O)cc1)C(=O)N[C@@H](Cc1ccc(O)cc1)C(=O)O
REMARK SMILES IDX 18 1 17 2 15 3 16 4 14 5 12 6 13 7 10 9 11 10 8 12 9 13 7 16
REMARK SMILES IDX 6 17 5 18 4 19 3 20 2 21 1 22 19 23 20 24 21 25 22 26 23 27
REMARK SMILES IDX 24 28 25 29 26 30 27 31 28 32 29 34 30 35 31 36 32 37 37 38
REMARK SMILES IDX 33 39 36 40 34 41 35 42 38 44 39 45 40 46 41 48 42 49 43 50
REMARK SMILES IDX 44 51 49 52 45 53 48 54 46 55 47 56 50 58 51 59 52 60
REMARK H PARENT 14 8 11 11 9 14 9 15 28 33 35 43 40 47 47 57 52 61
ROOT
ATOM      1  O   UNL     1       2.420  14.053  -2.653  1.00  0.00    -0.272 OA
ATOM      2  C   UNL     1       1.985  13.167  -3.403  1.00  0.00     0.245 C 
ENDROOT
BRANCH   2   3
ATOM      3  C   UNL     1       2.723  12.898  -4.738  1.00  0.00     0.168 C 
ATOM      4  C   UNL     1       3.670  14.044  -5.074  1.00  0.00     0.041 C 
BRANCH   3   5
ATOM      5  N   UNL     1       3.386  11.605  -4.819  1.00  0.00    -0.342 N 
ATOM      6  C   UNL     1       3.075  10.688  -5.801  1.00  0.00     0.251 C 
ATOM      7  O   UNL     1       2.201  10.869  -6.642  1.00  0.00    -0.272 OA
ATOM      8  H   UNL     1       4.104  11.328  -4.154  1.00  0.00     0.164 HD
BRANCH   6   9
ATOM      9  C   UNL     1       3.997   9.458  -5.779  1.00  0.00     0.219 C 
BRANCH   9  10
ATOM     10  O   UNL     1       3.336   8.281  -5.298  1.00  0.00    -0.382 OA
ATOM     11  H   UNL     1       3.033   7.835  -6.119  1.00  0.00     0.211 HD
ENDBRANCH   9  10
BRANCH   9  12
ATOM     12  C   UNL     1       4.682   9.187  -7.143  1.00  0.00     0.089 C 
BRANCH  12  13
ATOM     13  N   UNL     1       3.699   8.535  -8.039  1.00  0.00    -0.325 NA
ATOM     14  H   UNL     1       3.929   8.757  -9.009  1.00  0.00     0.119 HD
ATOM     15  H   UNL     1       2.779   8.953  -7.880  1.00  0.00     0.119 HD
ENDBRANCH  12  13
BRANCH  12  16
ATOM     16  C   UNL     1       5.307  10.416  -7.845  1.00  0.00     0.022 C 
BRANCH  16  17
ATOM     17  C   UNL     1       6.648  10.259  -8.574  1.00  0.00     0.002 C 
BRANCH  17  18
ATOM     18  C   UNL     1       6.549   9.715  -9.997  1.00  0.00     0.000 C 
BRANCH  18  19
ATOM     19  C   UNL     1       7.084   8.286 -10.159  1.00  0.00    -0.000 C 
BRANCH  19  20
ATOM     20  C   UNL     1       8.414   8.006  -9.454  1.00  0.00    -0.000 C 
BRANCH  20  21
ATOM     21  C   UNL     1       8.376   6.752  -8.578  1.00  0.00    -0.003 C 
ATOM     22  C   UNL     1       6.984   6.511  -8.014  1.00  0.00     0.004 C 
ENDBRANCH  20  21
ENDBRANCH  19  20
ENDBRANCH  18  19
ENDBRANCH  17  18
ENDBRANCH  16  17
ENDBRANCH  12  16
ENDBRANCH   9  12
ENDBRANCH   6   9
ENDBRANCH   3   5
ENDBRANCH   2   3
BRANCH   2  23
ATOM     23  N   UNL     1       0.932  12.359  -2.986  1.00  0.00    -0.332 N 
ATOM     24  C   UNL     1       0.074  11.596  -3.880  1.00  0.00     0.147 C 
BRANCH  23  25
ATOM     25  C   UNL     1       0.696  12.121  -1.536  1.00  0.00     0.174 C 
BRANCH  25  26
ATOM     26  C   UNL     1       0.288  13.404  -0.774  1.00  0.00     0.038 C 
BRANCH  26  27
ATOM     27  C   UNL     1      -0.976  13.320   0.111  1.00  0.00    -0.015 C 
ATOM     28  C   UNL     1      -2.021  12.357  -0.452  1.00  0.00     0.007 C 
ATOM     29  C   UNL     1      -0.674  12.992   1.571  1.00  0.00     0.007 C 
ENDBRANCH  26  27
ENDBRANCH  25  26
BRANCH  25  30
ATOM     30  C   UNL     1       1.906  11.387  -0.913  1.00  0.00     0.243 C 
ATOM     31  O   UNL     1       2.113  10.191  -1.113  1.00  0.00    -0.273 OA
ATOM     32  N   UNL     1       2.722  12.154  -0.123  1.00  0.00    -0.342 N 
ATOM     33  H   UNL     1       2.566  13.165  -0.120  1.00  0.00     0.164 HD
BRANCH  32  34
ATOM     34  C   UNL     1       3.899  11.621   0.570  1.00  0.00     0.175 C 
BRANCH  34  35
ATOM     35  C   UNL     1       4.961  12.710   0.786  1.00  0.00     0.070 C 
BRANCH  35  36
ATOM     36  C   UNL     1       6.365  12.219   0.513  1.00  0.00    -0.045 A 
ATOM     37  C   UNL     1       7.073  11.529   1.509  1.00  0.00     0.007 A 
ATOM     38  C   UNL     1       6.986  12.463  -0.719  1.00  0.00     0.007 A 
ATOM     39  C   UNL     1       8.374  11.084   1.272  1.00  0.00     0.046 A 
ATOM     40  C   UNL     1       8.289  12.020  -0.957  1.00  0.00     0.046 A 
ATOM     41  C   UNL     1       8.971  11.332   0.042  1.00  0.00     0.115 A 
BRANCH  41  42
ATOM     42  O   UNL     1      10.244  10.884  -0.149  1.00  0.00    -0.508 OA
ATOM     43  H   UNL     1      10.844  11.436   0.380  1.00  0.00     0.293 HD
ENDBRANCH  41  42
ENDBRANCH  35  36
ENDBRANCH  34  35
BRANCH  34  44
ATOM     44  C   UNL     1       3.428  11.001   1.904  1.00  0.00     0.243 C 
ATOM     45  O   UNL     1       3.241  11.637   2.937  1.00  0.00    -0.273 OA
ATOM     46  N   UNL     1       3.358   9.624   1.875  1.00  0.00    -0.341 N 
ATOM     47  H   UNL     1       3.635   9.133   1.029  1.00  0.00     0.164 HD
BRANCH  46  48
ATOM     48  C   UNL     1       3.001   8.810   3.039  1.00  0.00     0.196 C 
BRANCH  48  49
ATOM     49  C   UNL     1       1.890   7.802   2.700  1.00  0.00     0.072 C 
BRANCH  49  50
ATOM     50  C   UNL     1       0.539   8.460   2.534  1.00  0.00    -0.045 A 
ATOM     51  C   UNL     1      -0.019   9.186   3.596  1.00  0.00     0.007 A 
ATOM     52  C   UNL     1      -0.180   8.338   1.339  1.00  0.00     0.007 A 
ATOM     53  C   UNL     1      -1.271   9.786   3.460  1.00  0.00     0.046 A 
ATOM     54  C   UNL     1      -1.434   8.938   1.202  1.00  0.00     0.046 A 
ATOM     55  C   UNL     1      -1.969   9.658   2.265  1.00  0.00     0.115 A 
BRANCH  55  56
ATOM     56  O   UNL     1      -3.190  10.257   2.173  1.00  0.00    -0.508 OA
ATOM     57  H   UNL     1      -3.083  11.202   2.368  1.00  0.00     0.293 HD
ENDBRANCH  55  56
ENDBRANCH  49  50
ENDBRANCH  48  49
BRANCH  48  58
ATOM     58  C   UNL     1       4.249   8.058   3.523  1.00  0.00     0.326 C 
ATOM     59  O   UNL     1       5.119   8.474   4.271  1.00  0.00    -0.250 OA
BRANCH  58  60
ATOM     60  O   UNL     1       4.335   6.790   3.046  1.00  0.00    -0.480 OA
ATOM     61  H   UNL     1       5.293   6.586   3.121  1.00  0.00     0.296 HD
ENDBRANCH  58  60
ENDBRANCH  48  58
ENDBRANCH  46  48
ENDBRANCH  34  44
ENDBRANCH  32  34
ENDBRANCH  25  30
ENDBRANCH  23  25
ENDBRANCH   2  23
TORSDOF 28
ENDMDL
MODEL 50
REMARK VINA RESULT:    -6.720      6.771     10.772
REMARK INTER + INTRA:         -20.886
REMARK INTER:                 -14.599
REMARK INTRA:                  -6.287
REMARK UNBOUND:                -4.149
REMARK SMILES CCCCCCC[C@H](N)[C@H](O)C(=O)N[C@H](C)C(=O)N(C)[C@H](CC(C)C)C(=O)N[C@@H](Cc1ccc(O)cc1)C(=O)N[C@@H](Cc1ccc(O)cc1)C(=O)O
REMARK SMILES IDX 18 1 17 2 15 3 16 4 14 5 12 6 13 7 10 9 11 10 8 12 9 13 7 16
REMARK SMILES IDX 6 17 5 18 4 19 3 20 2 21 1 22 19 23 20 24 21 25 22 26 23 27
REMARK SMILES IDX 24 28 25 29 26 30 27 31 28 32 29 34 30 35 31 36 32 37 37 38
REMARK SMILES IDX 33 39 36 40 34 41 35 42 38 44 39 45 40 46 41 48 42 49 43 50
REMARK SMILES IDX 44 51 49 52 45 53 48 54 46 55 47 56 50 58 51 59 52 60
REMARK H PARENT 14 8 11 11 9 14 9 15 28 33 35 43 40 47 47 57 52 61
ROOT
ATOM      1  O   UNL     1       2.277  11.386   9.759  1.00  0.00    -0.272 OA
ATOM      2  C   UNL     1       2.153  11.983   8.679  1.00  0.00     0.245 C 
ENDROOT
BRANCH   2   3
ATOM      3  C   UNL     1       0.797  12.660   8.358  1.00  0.00     0.168 C 
ATOM      4  C   UNL     1       0.628  13.944   9.163  1.00  0.00     0.041 C 
BRANCH   3   5
ATOM      5  N   UNL     1       0.539  12.870   6.942  1.00  0.00    -0.342 N 
ATOM      6  C   UNL     1      -0.070  11.910   6.162  1.00  0.00     0.251 C 
ATOM      7  O   UNL     1      -0.399  10.806   6.583  1.00  0.00    -0.272 OA
ATOM      8  H   UNL     1       0.799  13.735   6.472  1.00  0.00     0.164 HD
BRANCH   6   9
ATOM      9  C   UNL     1      -0.369  12.404   4.738  1.00  0.00     0.219 C 
BRANCH   9  10
ATOM     10  O   UNL     1       0.780  12.355   3.883  1.00  0.00    -0.382 OA
ATOM     11  H   UNL     1       0.452  12.724   3.034  1.00  0.00     0.211 HD
ENDBRANCH   9  10
BRANCH   9  12
ATOM     12  C   UNL     1      -1.574  11.678   4.082  1.00  0.00     0.089 C 
BRANCH  12  13
ATOM     13  N   UNL     1      -2.769  11.899   4.929  1.00  0.00    -0.325 NA
ATOM     14  H   UNL     1      -2.492  12.394   5.778  1.00  0.00     0.119 HD
ATOM     15  H   UNL     1      -3.118  10.993   5.250  1.00  0.00     0.119 HD
ENDBRANCH  12  13
BRANCH  12  16
ATOM     16  C   UNL     1      -1.882  12.065   2.616  1.00  0.00     0.022 C 
BRANCH  16  17
ATOM     17  C   UNL     1      -1.429  11.131   1.486  1.00  0.00     0.002 C 
BRANCH  17  18
ATOM     18  C   UNL     1      -0.887  11.836   0.245  1.00  0.00     0.000 C 
BRANCH  18  19
ATOM     19  C   UNL     1       0.478  12.506   0.454  1.00  0.00    -0.000 C 
BRANCH  19  20
ATOM     20  C   UNL     1       0.877  13.518  -0.624  1.00  0.00    -0.000 C 
BRANCH  20  21
ATOM     21  C   UNL     1       2.353  13.917  -0.555  1.00  0.00    -0.003 C 
ATOM     22  C   UNL     1       3.149  12.951   0.309  1.00  0.00     0.004 C 
ENDBRANCH  20  21
ENDBRANCH  19  20
ENDBRANCH  18  19
ENDBRANCH  17  18
ENDBRANCH  16  17
ENDBRANCH  12  16
ENDBRANCH   9  12
ENDBRANCH   6   9
ENDBRANCH   3   5
ENDBRANCH   2   3
BRANCH   2  23
ATOM     23  N   UNL     1       3.251  12.139   7.840  1.00  0.00    -0.332 N 
ATOM     24  C   UNL     1       4.085  13.331   7.784  1.00  0.00     0.147 C 
BRANCH  23  25
ATOM     25  C   UNL     1       3.730  11.001   7.009  1.00  0.00     0.174 C 
BRANCH  25  26
ATOM     26  C   UNL     1       5.147  10.522   7.403  1.00  0.00     0.038 C 
BRANCH  26  27
ATOM     27  C   UNL     1       5.253   9.149   8.103  1.00  0.00    -0.015 C 
ATOM     28  C   UNL     1       4.470   8.058   7.373  1.00  0.00     0.007 C 
ATOM     29  C   UNL     1       6.692   8.703   8.351  1.00  0.00     0.007 C 
ENDBRANCH  26  27
ENDBRANCH  25  26
BRANCH  25  30
ATOM     30  C   UNL     1       3.582  11.338   5.508  1.00  0.00     0.243 C 
ATOM     31  O   UNL     1       3.183  12.437   5.125  1.00  0.00    -0.273 OA
ATOM     32  N   UNL     1       3.919  10.333   4.638  1.00  0.00    -0.342 N 
ATOM     33  H   UNL     1       4.375   9.504   5.026  1.00  0.00     0.164 HD
BRANCH  32  34
ATOM     34  C   UNL     1       3.816  10.465   3.182  1.00  0.00     0.175 C 
BRANCH  34  35
ATOM     35  C   UNL     1       5.009   9.802   2.475  1.00  0.00     0.070 C 
BRANCH  35  36
ATOM     36  C   UNL     1       5.756   8.838   3.369  1.00  0.00    -0.045 A 
ATOM     37  C   UNL     1       6.939   9.244   4.005  1.00  0.00     0.007 A 
ATOM     38  C   UNL     1       5.297   7.528   3.556  1.00  0.00     0.007 A 
ATOM     39  C   UNL     1       7.643   8.358   4.820  1.00  0.00     0.046 A 
ATOM     40  C   UNL     1       6.002   6.639   4.371  1.00  0.00     0.046 A 
ATOM     41  C   UNL     1       7.169   7.063   4.997  1.00  0.00     0.115 A 
BRANCH  41  42
ATOM     42  O   UNL     1       7.888   6.228   5.799  1.00  0.00    -0.508 OA
ATOM     43  H   UNL     1       7.708   6.463   6.725  1.00  0.00     0.293 HD
ENDBRANCH  41  42
ENDBRANCH  35  36
ENDBRANCH  34  35
BRANCH  34  44
ATOM     44  C   UNL     1       2.469   9.851   2.740  1.00  0.00     0.243 C 
ATOM     45  O   UNL     1       1.506   9.682   3.483  1.00  0.00    -0.273 OA
ATOM     46  N   UNL     1       2.480   9.379   1.444  1.00  0.00    -0.341 N 
ATOM     47  H   UNL     1       3.340   9.437   0.905  1.00  0.00     0.164 HD
BRANCH  46  48
ATOM     48  C   UNL     1       1.341   8.696   0.826  1.00  0.00     0.196 C 
BRANCH  48  49
ATOM     49  C   UNL     1       1.634   8.335  -0.640  1.00  0.00     0.072 C 
BRANCH  49  50
ATOM     50  C   UNL     1       0.770   9.106  -1.612  1.00  0.00    -0.045 A 
ATOM     51  C   UNL     1      -0.572   8.742  -1.797  1.00  0.00     0.007 A 
ATOM     52  C   UNL     1       1.295  10.173  -2.353  1.00  0.00     0.007 A 
ATOM     53  C   UNL     1      -1.374   9.438  -2.701  1.00  0.00     0.046 A 
ATOM     54  C   UNL     1       0.491  10.869  -3.260  1.00  0.00     0.046 A 
ATOM     55  C   UNL     1      -0.838  10.495  -3.425  1.00  0.00     0.115 A 
BRANCH  55  56
ATOM     56  O   UNL     1      -1.655  11.148  -4.299  1.00  0.00    -0.508 OA
ATOM     57  H   UNL     1      -1.947  10.516  -4.975  1.00  0.00     0.293 HD
ENDBRANCH  55  56
ENDBRANCH  49  50
ENDBRANCH  48  49
BRANCH  48  58
ATOM     58  C   UNL     1       1.035   7.418   1.620  1.00  0.00     0.326 C 
ATOM     59  O   UNL     1      -0.035   7.089   2.105  1.00  0.00    -0.250 OA
BRANCH  58  60
ATOM     60  O   UNL     1       2.105   6.595   1.753  1.00  0.00    -0.480 OA
ATOM     61  H   UNL     1       2.667   6.827   0.983  1.00  0.00     0.296 HD
ENDBRANCH  58  60
ENDBRANCH  48  58
ENDBRANCH  46  48
ENDBRANCH  34  44
ENDBRANCH  32  34
ENDBRANCH  25  30
ENDBRANCH  23  25
ENDBRANCH   2  23
TORSDOF 28
ENDMDL
