MODEL 1
REMARK VINA RESULT:    -7.217      0.000      0.000
REMARK INTER + INTRA:         -18.848
REMARK INTER:                 -14.600
REMARK INTRA:                  -4.249
REMARK UNBOUND:                -4.249
REMARK SMILES CC[C@@H](C)[C@@H](NC(=O)[C@@H](O)Cc1ccc(O)c(Cl)c1)C(=O)N1[C@H](C(=O)NCCCCN=C(N)N)C[C@H]2CC[C@H](OS(=O)(=O)O)C[C@@H]21
REMARK SMILES IDX 22 1 36 2 46 3 35 4 23 5 45 6 37 7 39 8 38 9 20 10 21 11
REMARK SMILES IDX 5 12 6 13 7 14 8 15 9 17 11 18 12 19 17 20 19 21 15 22 14 23
REMARK SMILES IDX 13 24 18 25 16 26 10 28 3 30 4 31 2 32 1 33 24 34 25 35
REMARK SMILES IDX 26 36 27 38 28 39 29 40 30 41 31 42 32 43 33 44 34 45 40 50
REMARK SMILES IDX 41 51 42 52 43 53 44 54
REMARK H PARENT 6 16 16 27 10 29 26 37 33 46 33 47 34 48 34 49 44 55
ROOT
ATOM      1  N   UNL     1      -0.239  -7.231  -6.032  1.00  0.00    -0.326 N 
ATOM      2  C   UNL     1      -2.116  -8.141  -4.941  1.00  0.00     0.014 C 
ATOM      3  C   UNL     1      -0.916  -7.213  -4.732  1.00  0.00     0.091 C 
ATOM      4  C   UNL     1      -1.564  -9.193  -5.890  1.00  0.00     0.041 C 
ATOM      5  C   UNL     1      -0.819  -8.292  -6.892  1.00  0.00     0.175 C 
ATOM      6  C   UNL     1      -1.427  -5.876  -4.199  1.00  0.00     0.059 C 
ATOM      7  C   UNL     1      -2.704  -8.574  -3.612  1.00  0.00     0.008 C 
ATOM      8  C   UNL     1      -2.690  -5.999  -3.319  1.00  0.00     0.143 C 
ATOM      9  C   UNL     1      -2.790  -7.379  -2.640  1.00  0.00     0.034 C 
ENDROOT
BRANCH   1  10
ATOM     10  C   UNL     1       0.919  -6.591  -6.438  1.00  0.00     0.246 C 
ATOM     11  O   UNL     1       0.994  -6.159  -7.593  1.00  0.00    -0.272 OA
BRANCH  10  12
ATOM     12  C   UNL     1       2.082  -6.392  -5.423  1.00  0.00     0.174 C 
BRANCH  12  13
ATOM     13  N   UNL     1       2.064  -5.023  -4.907  1.00  0.00    -0.342 N 
ATOM     14  C   UNL     1       2.311  -4.669  -3.599  1.00  0.00     0.249 C 
ATOM     15  O   UNL     1       2.604  -5.468  -2.719  1.00  0.00    -0.272 OA
ATOM     16  H   UNL     1       1.686  -4.274  -5.480  1.00  0.00     0.164 HD
BRANCH  14  17
ATOM     17  C   UNL     1       2.201  -3.147  -3.364  1.00  0.00     0.207 C 
BRANCH  17  18
ATOM     18  C   UNL     1       0.862  -2.620  -3.892  1.00  0.00     0.077 C 
BRANCH  18  19
ATOM     19  C   UNL     1      -0.116  -2.349  -2.771  1.00  0.00    -0.043 A 
ATOM     20  C   UNL     1      -1.356  -3.115  -0.831  1.00  0.00     0.083 A 
ATOM     21  C   UNL     1      -0.415  -3.352  -1.835  1.00  0.00     0.028 A 
ATOM     22  C   UNL     1      -2.003  -1.881  -0.757  1.00  0.00     0.134 A 
ATOM     23  C   UNL     1      -1.716  -0.880  -1.678  1.00  0.00     0.048 A 
ATOM     24  C   UNL     1      -0.777  -1.114  -2.684  1.00  0.00     0.008 A 
ATOM     25  Cl  UNL     1      -1.710  -4.359   0.309  1.00  0.00    -0.080 Cl
BRANCH  22  26
ATOM     26  O   UNL     1      -2.940  -1.607   0.202  1.00  0.00    -0.506 OA
ATOM     27  H   UNL     1      -2.460  -1.526   1.047  1.00  0.00     0.293 HD
ENDBRANCH  22  26
ENDBRANCH  18  19
ENDBRANCH  17  18
BRANCH  17  28
ATOM     28  O   UNL     1       3.277  -2.445  -4.007  1.00  0.00    -0.383 OA
ATOM     29  H   UNL     1       2.951  -1.528  -4.158  1.00  0.00     0.211 HD
ENDBRANCH  17  28
ENDBRANCH  14  17
ENDBRANCH  12  13
BRANCH  12  30
ATOM     30  C   UNL     1       3.464  -6.786  -6.009  1.00  0.00     0.018 C 
ATOM     31  C   UNL     1       4.221  -7.715  -5.046  1.00  0.00     0.010 C 
BRANCH  30  32
ATOM     32  C   UNL     1       4.350  -5.573  -6.383  1.00  0.00     0.002 C 
ATOM     33  C   UNL     1       4.436  -5.264  -7.872  1.00  0.00     0.004 C 
ENDBRANCH  30  32
ENDBRANCH  12  30
ENDBRANCH  10  12
ENDBRANCH   1  10
BRANCH   5  34
ATOM     34  C   UNL     1      -1.785  -7.683  -7.942  1.00  0.00     0.242 C 
ATOM     35  O   UNL     1      -2.410  -6.643  -7.736  1.00  0.00    -0.273 OA
ATOM     36  N   UNL     1      -1.932  -8.417  -9.098  1.00  0.00    -0.354 N 
ATOM     37  H   UNL     1      -1.480  -9.330  -9.161  1.00  0.00     0.163 HD
BRANCH  36  38
ATOM     38  C   UNL     1      -2.618  -7.897 -10.263  1.00  0.00     0.116 C 
BRANCH  38  39
ATOM     39  C   UNL     1      -3.887  -8.705 -10.520  1.00  0.00     0.023 C 
BRANCH  39  40
ATOM     40  C   UNL     1      -5.091  -8.157  -9.761  1.00  0.00     0.026 C 
BRANCH  40  41
ATOM     41  C   UNL     1      -5.161  -6.635  -9.881  1.00  0.00     0.146 C 
BRANCH  41  42
ATOM     42  N   UNL     1      -6.306  -6.134  -9.132  1.00  0.00    -0.254 NA
ATOM     43  C   UNL     1      -6.136  -5.669  -7.952  1.00  0.00     0.185 C 
ATOM     44  N   UNL     1      -5.011  -5.549  -7.223  1.00  0.00    -0.370 N 
ATOM     45  N   UNL     1      -7.205  -5.217  -7.276  1.00  0.00    -0.370 N 
ATOM     46  H   UNL     1      -5.058  -5.397  -6.230  1.00  0.00     0.159 HD
ATOM     47  H   UNL     1      -4.107  -5.831  -7.588  1.00  0.00     0.159 HD
ATOM     48  H   UNL     1      -8.092  -5.263  -7.758  1.00  0.00     0.159 HD
ATOM     49  H   UNL     1      -7.127  -4.631  -6.463  1.00  0.00     0.159 HD
ENDBRANCH  41  42
ENDBRANCH  40  41
ENDBRANCH  39  40
ENDBRANCH  38  39
ENDBRANCH  36  38
ENDBRANCH   5  34
BRANCH   8  50
ATOM     50  O   UNL     1      -3.861  -5.797  -4.111  1.00  0.00    -0.245 OA
BRANCH  50  51
ATOM     51  S   UNL     1      -5.080  -4.893  -3.527  1.00  0.00     0.397 S 
ATOM     52  O   UNL     1      -5.742  -5.652  -2.490  1.00  0.00    -0.169 OA
ATOM     53  O   UNL     1      -5.818  -4.303  -4.625  1.00  0.00    -0.169 OA
BRANCH  51  54
ATOM     54  O   UNL     1      -4.290  -3.714  -2.771  1.00  0.00    -0.264 OA
ATOM     55  H   UNL     1      -3.610  -3.369  -3.384  1.00  0.00     0.236 HD
ENDBRANCH  51  54
ENDBRANCH  50  51
ENDBRANCH   8  50
TORSDOF 19
ENDMDL
MODEL 2
REMARK VINA RESULT:    -7.135      4.530      6.703
REMARK INTER + INTRA:         -18.684
REMARK INTER:                 -15.049
REMARK INTRA:                  -3.635
REMARK UNBOUND:                -4.249
REMARK SMILES CC[C@@H](C)[C@@H](NC(=O)[C@@H](O)Cc1ccc(O)c(Cl)c1)C(=O)N1[C@H](C(=O)NCCCCN=C(N)N)C[C@H]2CC[C@H](OS(=O)(=O)O)C[C@@H]21
REMARK SMILES IDX 22 1 36 2 46 3 35 4 23 5 45 6 37 7 39 8 38 9 20 10 21 11
REMARK SMILES IDX 5 12 6 13 7 14 8 15 9 17 11 18 12 19 17 20 19 21 15 22 14 23
REMARK SMILES IDX 13 24 18 25 16 26 10 28 3 30 4 31 2 32 1 33 24 34 25 35
REMARK SMILES IDX 26 36 27 38 28 39 29 40 30 41 31 42 32 43 33 44 34 45 40 50
REMARK SMILES IDX 41 51 42 52 43 53 44 54
REMARK H PARENT 6 16 16 27 10 29 26 37 33 46 33 47 34 48 34 49 44 55
ROOT
ATOM      1  N   UNL     1       3.855  -4.660  -5.232  1.00  0.00    -0.326 N 
ATOM      2  C   UNL     1       2.405  -6.073  -4.030  1.00  0.00     0.014 C 
ATOM      3  C   UNL     1       2.452  -5.085  -5.200  1.00  0.00     0.091 C 
ATOM      4  C   UNL     1       3.408  -5.482  -3.052  1.00  0.00     0.041 C 
ATOM      5  C   UNL     1       4.558  -5.137  -4.016  1.00  0.00     0.175 C 
ATOM      6  C   UNL     1       1.875  -5.772  -6.436  1.00  0.00     0.059 C 
ATOM      7  C   UNL     1       0.977  -6.310  -3.579  1.00  0.00     0.008 C 
ATOM      8  C   UNL     1       0.771  -6.803  -6.115  1.00  0.00     0.143 C 
ATOM      9  C   UNL     1       0.043  -6.480  -4.795  1.00  0.00     0.034 C 
ENDROOT
BRANCH   1  10
ATOM     10  C   UNL     1       4.490  -3.758  -6.068  1.00  0.00     0.246 C 
ATOM     11  O   UNL     1       4.723  -4.083  -7.237  1.00  0.00    -0.272 OA
BRANCH  10  12
ATOM     12  C   UNL     1       4.856  -2.343  -5.534  1.00  0.00     0.174 C 
BRANCH  12  13
ATOM     13  N   UNL     1       3.726  -1.781  -4.796  1.00  0.00    -0.342 N 
ATOM     14  C   UNL     1       3.687  -1.594  -3.432  1.00  0.00     0.249 C 
ATOM     15  O   UNL     1       4.618  -1.856  -2.681  1.00  0.00    -0.272 OA
ATOM     16  H   UNL     1       2.830  -1.662  -5.261  1.00  0.00     0.164 HD
BRANCH  14  17
ATOM     17  C   UNL     1       2.348  -0.996  -2.951  1.00  0.00     0.207 C 
BRANCH  17  18
ATOM     18  C   UNL     1       1.173  -1.840  -3.455  1.00  0.00     0.077 C 
BRANCH  18  19
ATOM     19  C   UNL     1       0.113  -2.020  -2.392  1.00  0.00    -0.043 A 
ATOM     20  C   UNL     1      -1.038  -3.428  -0.786  1.00  0.00     0.083 A 
ATOM     21  C   UNL     1      -0.027  -3.250  -1.731  1.00  0.00     0.028 A 
ATOM     22  C   UNL     1      -1.914  -2.382  -0.496  1.00  0.00     0.134 A 
ATOM     23  C   UNL     1      -1.787  -1.158  -1.143  1.00  0.00     0.048 A 
ATOM     24  C   UNL     1      -0.778  -0.977  -2.091  1.00  0.00     0.008 A 
ATOM     25  Cl  UNL     1      -1.193  -4.947   0.015  1.00  0.00    -0.080 Cl
BRANCH  22  26
ATOM     26  O   UNL     1      -2.927  -2.512   0.415  1.00  0.00    -0.506 OA
ATOM     27  H   UNL     1      -3.719  -2.787  -0.084  1.00  0.00     0.293 HD
ENDBRANCH  22  26
ENDBRANCH  18  19
ENDBRANCH  17  18
BRANCH  17  28
ATOM     28  O   UNL     1       2.192   0.358  -3.406  1.00  0.00    -0.383 OA
ATOM     29  H   UNL     1       2.874   0.884  -2.931  1.00  0.00     0.211 HD
ENDBRANCH  17  28
ENDBRANCH  14  17
ENDBRANCH  12  13
BRANCH  12  30
ATOM     30  C   UNL     1       5.366  -1.393  -6.651  1.00  0.00     0.018 C 
ATOM     31  C   UNL     1       6.832  -1.002  -6.408  1.00  0.00     0.010 C 
BRANCH  30  32
ATOM     32  C   UNL     1       4.499  -0.123  -6.830  1.00  0.00     0.002 C 
ATOM     33  C   UNL     1       5.174   1.027  -7.567  1.00  0.00     0.004 C 
ENDBRANCH  30  32
ENDBRANCH  12  30
ENDBRANCH  10  12
ENDBRANCH   1  10
BRANCH   5  34
ATOM     34  C   UNL     1       5.428  -6.382  -4.336  1.00  0.00     0.242 C 
ATOM     35  O   UNL     1       6.135  -6.927  -3.488  1.00  0.00    -0.273 OA
ATOM     36  N   UNL     1       5.394  -6.798  -5.648  1.00  0.00    -0.354 N 
ATOM     37  H   UNL     1       4.885  -6.234  -6.330  1.00  0.00     0.163 HD
BRANCH  36  38
ATOM     38  C   UNL     1       5.968  -8.058  -6.075  1.00  0.00     0.116 C 
BRANCH  38  39
ATOM     39  C   UNL     1       5.189  -8.603  -7.270  1.00  0.00     0.023 C 
BRANCH  39  40
ATOM     40  C   UNL     1       5.594  -7.938  -8.582  1.00  0.00     0.026 C 
BRANCH  40  41
ATOM     41  C   UNL     1       4.471  -7.044  -9.106  1.00  0.00     0.146 C 
BRANCH  41  42
ATOM     42  N   UNL     1       4.785  -6.599 -10.457  1.00  0.00    -0.254 NA
ATOM     43  C   UNL     1       5.503  -5.552 -10.627  1.00  0.00     0.185 C 
ATOM     44  N   UNL     1       6.061  -4.729  -9.721  1.00  0.00    -0.370 N 
ATOM     45  N   UNL     1       5.778  -5.155 -11.880  1.00  0.00    -0.370 N 
ATOM     46  H   UNL     1       6.388  -3.817  -9.990  1.00  0.00     0.159 HD
ATOM     47  H   UNL     1       5.964  -4.890  -8.723  1.00  0.00     0.159 HD
ATOM     48  H   UNL     1       5.402  -5.727 -12.625  1.00  0.00     0.159 HD
ATOM     49  H   UNL     1       6.511  -4.504 -12.096  1.00  0.00     0.159 HD
ENDBRANCH  41  42
ENDBRANCH  40  41
ENDBRANCH  39  40
ENDBRANCH  38  39
ENDBRANCH  36  38
ENDBRANCH   5  34
BRANCH   8  50
ATOM     50  O   UNL     1       1.336  -8.111  -6.013  1.00  0.00    -0.245 OA
BRANCH  50  51
ATOM     51  S   UNL     1       0.833  -9.284  -7.022  1.00  0.00     0.397 S 
ATOM     52  O   UNL     1       1.553  -9.141  -8.267  1.00  0.00    -0.169 OA
ATOM     53  O   UNL     1      -0.612  -9.369  -6.985  1.00  0.00    -0.169 OA
BRANCH  51  54
ATOM     54  O   UNL     1       1.426 -10.605  -6.322  1.00  0.00    -0.264 OA
ATOM     55  H   UNL     1       0.747 -10.944  -5.703  1.00  0.00     0.236 HD
ENDBRANCH  51  54
ENDBRANCH  50  51
ENDBRANCH   8  50
TORSDOF 19
ENDMDL
MODEL 3
REMARK VINA RESULT:    -7.079      6.134     10.477
REMARK INTER + INTRA:         -18.569
REMARK INTER:                 -15.791
REMARK INTRA:                  -2.779
REMARK UNBOUND:                -4.249
REMARK SMILES CC[C@@H](C)[C@@H](NC(=O)[C@@H](O)Cc1ccc(O)c(Cl)c1)C(=O)N1[C@H](C(=O)NCCCCN=C(N)N)C[C@H]2CC[C@H](OS(=O)(=O)O)C[C@@H]21
REMARK SMILES IDX 22 1 36 2 46 3 35 4 23 5 45 6 37 7 39 8 38 9 20 10 21 11
REMARK SMILES IDX 5 12 6 13 7 14 8 15 9 17 11 18 12 19 17 20 19 21 15 22 14 23
REMARK SMILES IDX 13 24 18 25 16 26 10 28 3 30 4 31 2 32 1 33 24 34 25 35
REMARK SMILES IDX 26 36 27 38 28 39 29 40 30 41 31 42 32 43 33 44 34 45 40 50
REMARK SMILES IDX 41 51 42 52 43 53 44 54
REMARK H PARENT 6 16 16 27 10 29 26 37 33 46 33 47 34 48 34 49 44 55
ROOT
ATOM      1  N   UNL     1      -4.910  -6.456  -9.340  1.00  0.00    -0.326 N 
ATOM      2  C   UNL     1      -6.794  -5.387  -8.417  1.00  0.00     0.014 C 
ATOM      3  C   UNL     1      -5.975  -5.516  -9.704  1.00  0.00     0.091 C 
ATOM      4  C   UNL     1      -5.732  -5.495  -7.333  1.00  0.00     0.041 C 
ATOM      5  C   UNL     1      -4.911  -6.680  -7.874  1.00  0.00     0.175 C 
ATOM      6  C   UNL     1      -6.921  -5.899 -10.841  1.00  0.00     0.059 C 
ATOM      7  C   UNL     1      -7.687  -4.162  -8.463  1.00  0.00     0.008 C 
ATOM      8  C   UNL     1      -8.347  -5.328 -10.682  1.00  0.00     0.143 C 
ATOM      9  C   UNL     1      -8.362  -4.034  -9.845  1.00  0.00     0.034 C 
ENDROOT
BRANCH   1  10
ATOM     10  C   UNL     1      -3.856  -6.939 -10.097  1.00  0.00     0.246 C 
ATOM     11  O   UNL     1      -2.773  -6.345 -10.068  1.00  0.00    -0.272 OA
BRANCH  10  12
ATOM     12  C   UNL     1      -4.044  -8.240 -10.931  1.00  0.00     0.174 C 
BRANCH  12  13
ATOM     13  N   UNL     1      -5.390  -8.773 -10.727  1.00  0.00    -0.342 N 
ATOM     14  C   UNL     1      -6.078  -9.550 -11.632  1.00  0.00     0.249 C 
ATOM     15  O   UNL     1      -5.620  -9.907 -12.710  1.00  0.00    -0.272 OA
ATOM     16  H   UNL     1      -5.954  -8.433  -9.952  1.00  0.00     0.164 HD
BRANCH  14  17
ATOM     17  C   UNL     1      -7.485  -9.942 -11.133  1.00  0.00     0.207 C 
BRANCH  17  18
ATOM     18  C   UNL     1      -8.310 -10.542 -12.275  1.00  0.00     0.077 C 
BRANCH  18  19
ATOM     19  C   UNL     1      -9.739 -10.810 -11.856  1.00  0.00    -0.043 A 
ATOM     20  C   UNL     1     -11.342 -11.485 -10.166  1.00  0.00     0.083 A 
ATOM     21  C   UNL     1     -10.030 -11.190 -10.536  1.00  0.00     0.028 A 
ATOM     22  C   UNL     1     -12.369 -11.402 -11.107  1.00  0.00     0.134 A 
ATOM     23  C   UNL     1     -12.095 -11.026 -12.417  1.00  0.00     0.048 A 
ATOM     24  C   UNL     1     -10.782 -10.733 -12.791  1.00  0.00     0.008 A 
ATOM     25  Cl  UNL     1     -11.680 -11.951  -8.540  1.00  0.00    -0.080 Cl
BRANCH  22  26
ATOM     26  O   UNL     1     -13.670 -11.691 -10.793  1.00  0.00    -0.506 OA
ATOM     27  H   UNL     1     -14.130 -11.860 -11.635  1.00  0.00     0.293 HD
ENDBRANCH  22  26
ENDBRANCH  18  19
ENDBRANCH  17  18
BRANCH  17  28
ATOM     28  O   UNL     1      -8.176  -8.806 -10.590  1.00  0.00    -0.383 OA
ATOM     29  H   UNL     1      -9.109  -9.092 -10.459  1.00  0.00     0.211 HD
ENDBRANCH  17  28
ENDBRANCH  14  17
ENDBRANCH  12  13
BRANCH  12  30
ATOM     30  C   UNL     1      -2.940  -9.295 -10.652  1.00  0.00     0.018 C 
ATOM     31  C   UNL     1      -2.307  -9.783 -11.965  1.00  0.00     0.010 C 
BRANCH  30  32
ATOM     32  C   UNL     1      -3.431 -10.503  -9.817  1.00  0.00     0.002 C 
ATOM     33  C   UNL     1      -2.985 -10.512  -8.361  1.00  0.00     0.004 C 
ENDBRANCH  30  32
ENDBRANCH  12  30
ENDBRANCH  10  12
ENDBRANCH   1  10
BRANCH   5  34
ATOM     34  C   UNL     1      -5.571  -8.040  -7.525  1.00  0.00     0.242 C 
ATOM     35  O   UNL     1      -6.128  -8.738  -8.373  1.00  0.00    -0.273 OA
ATOM     36  N   UNL     1      -5.537  -8.383  -6.192  1.00  0.00    -0.354 N 
ATOM     37  H   UNL     1      -5.169  -7.709  -5.520  1.00  0.00     0.163 HD
BRANCH  36  38
ATOM     38  C   UNL     1      -5.910  -9.702  -5.723  1.00  0.00     0.116 C 
BRANCH  38  39
ATOM     39  C   UNL     1      -6.303  -9.636  -4.249  1.00  0.00     0.023 C 
BRANCH  39  40
ATOM     40  C   UNL     1      -6.734  -8.237  -3.823  1.00  0.00     0.026 C 
BRANCH  40  41
ATOM     41  C   UNL     1      -5.766  -7.664  -2.788  1.00  0.00     0.146 C 
BRANCH  41  42
ATOM     42  N   UNL     1      -4.738  -6.877  -3.456  1.00  0.00    -0.254 NA
ATOM     43  C   UNL     1      -4.845  -5.602  -3.501  1.00  0.00     0.185 C 
ATOM     44  N   UNL     1      -5.803  -4.796  -3.007  1.00  0.00    -0.370 N 
ATOM     45  N   UNL     1      -3.889  -4.896  -4.126  1.00  0.00    -0.370 N 
ATOM     46  H   UNL     1      -5.887  -3.846  -3.324  1.00  0.00     0.159 HD
ATOM     47  H   UNL     1      -6.596  -5.165  -2.491  1.00  0.00     0.159 HD
ATOM     48  H   UNL     1      -3.125  -5.427  -4.521  1.00  0.00     0.159 HD
ATOM     49  H   UNL     1      -3.776  -3.906  -4.002  1.00  0.00     0.159 HD
ENDBRANCH  41  42
ENDBRANCH  40  41
ENDBRANCH  39  40
ENDBRANCH  38  39
ENDBRANCH  36  38
ENDBRANCH   5  34
BRANCH   8  50
ATOM     50  O   UNL     1      -9.192  -6.289 -10.048  1.00  0.00    -0.245 OA
BRANCH  50  51
ATOM     51  S   UNL     1     -10.655  -6.612 -10.680  1.00  0.00     0.397 S 
ATOM     52  O   UNL     1     -11.526  -7.025  -9.602  1.00  0.00    -0.169 OA
ATOM     53  O   UNL     1     -10.502  -7.408 -11.880  1.00  0.00    -0.169 OA
BRANCH  51  54
ATOM     54  O   UNL     1     -11.163  -5.149 -11.117  1.00  0.00    -0.264 OA
ATOM     55  H   UNL     1     -12.138  -5.183 -11.196  1.00  0.00     0.236 HD
ENDBRANCH  51  54
ENDBRANCH  50  51
ENDBRANCH   8  50
TORSDOF 19
ENDMDL
MODEL 4
REMARK VINA RESULT:    -6.972      4.243      6.819
REMARK INTER + INTRA:         -18.354
REMARK INTER:                 -15.285
REMARK INTRA:                  -3.069
REMARK UNBOUND:                -4.249
REMARK SMILES CC[C@@H](C)[C@@H](NC(=O)[C@@H](O)Cc1ccc(O)c(Cl)c1)C(=O)N1[C@H](C(=O)NCCCCN=C(N)N)C[C@H]2CC[C@H](OS(=O)(=O)O)C[C@@H]21
REMARK SMILES IDX 22 1 36 2 46 3 35 4 23 5 45 6 37 7 39 8 38 9 20 10 21 11
REMARK SMILES IDX 5 12 6 13 7 14 8 15 9 17 11 18 12 19 17 20 19 21 15 22 14 23
REMARK SMILES IDX 13 24 18 25 16 26 10 28 3 30 4 31 2 32 1 33 24 34 25 35
REMARK SMILES IDX 26 36 27 38 28 39 29 40 30 41 31 42 32 43 33 44 34 45 40 50
REMARK SMILES IDX 41 51 42 52 43 53 44 54
REMARK H PARENT 6 16 16 27 10 29 26 37 33 46 33 47 34 48 34 49 44 55
ROOT
ATOM      1  N   UNL     1       2.656  -7.286  -7.602  1.00  0.00    -0.326 N 
ATOM      2  C   UNL     1       3.421  -5.458  -8.874  1.00  0.00     0.014 C 
ATOM      3  C   UNL     1       3.899  -6.694  -8.105  1.00  0.00     0.091 C 
ATOM      4  C   UNL     1       2.224  -4.998  -8.057  1.00  0.00     0.041 C 
ATOM      5  C   UNL     1       1.525  -6.348  -7.813  1.00  0.00     0.175 C 
ATOM      6  C   UNL     1       4.776  -7.531  -9.034  1.00  0.00     0.059 C 
ATOM      7  C   UNL     1       4.567  -4.497  -9.120  1.00  0.00     0.008 C 
ATOM      8  C   UNL     1       5.568  -6.695 -10.063  1.00  0.00     0.143 C 
ATOM      9  C   UNL     1       5.833  -5.261  -9.561  1.00  0.00     0.034 C 
ENDROOT
BRANCH   1  10
ATOM     10  C   UNL     1       2.462  -8.412  -6.821  1.00  0.00     0.246 C 
ATOM     11  O   UNL     1       2.013  -9.437  -7.345  1.00  0.00    -0.272 OA
BRANCH  10  12
ATOM     12  C   UNL     1       2.852  -8.378  -5.315  1.00  0.00     0.174 C 
BRANCH  12  13
ATOM     13  N   UNL     1       2.606  -7.045  -4.766  1.00  0.00    -0.342 N 
ATOM     14  C   UNL     1       1.584  -6.722  -3.902  1.00  0.00     0.249 C 
ATOM     15  O   UNL     1       0.774  -7.534  -3.470  1.00  0.00    -0.272 OA
ATOM     16  H   UNL     1       3.096  -6.242  -5.154  1.00  0.00     0.164 HD
BRANCH  14  17
ATOM     17  C   UNL     1       1.579  -5.228  -3.516  1.00  0.00     0.207 C 
BRANCH  17  18
ATOM     18  C   UNL     1       3.003  -4.745  -3.225  1.00  0.00     0.077 C 
BRANCH  18  19
ATOM     19  C   UNL     1       3.292  -3.415  -3.885  1.00  0.00    -0.043 A 
ATOM     20  C   UNL     1       4.527  -2.094  -5.501  1.00  0.00     0.083 A 
ATOM     21  C   UNL     1       4.227  -3.330  -4.928  1.00  0.00     0.028 A 
ATOM     22  C   UNL     1       3.899  -0.938  -5.037  1.00  0.00     0.134 A 
ATOM     23  C   UNL     1       2.971  -1.008  -4.004  1.00  0.00     0.048 A 
ATOM     24  C   UNL     1       2.669  -2.244  -3.428  1.00  0.00     0.008 A 
ATOM     25  Cl  UNL     1       5.680  -2.009  -6.781  1.00  0.00    -0.080 Cl
BRANCH  22  26
ATOM     26  O   UNL     1       4.168   0.298  -5.560  1.00  0.00    -0.506 OA
ATOM     27  H   UNL     1       4.158   0.199  -6.530  1.00  0.00     0.293 HD
ENDBRANCH  22  26
ENDBRANCH  18  19
ENDBRANCH  17  18
BRANCH  17  28
ATOM     28  O   UNL     1       0.752  -4.993  -2.366  1.00  0.00    -0.383 OA
ATOM     29  H   UNL     1       1.262  -5.323  -1.592  1.00  0.00     0.211 HD
ENDBRANCH  17  28
ENDBRANCH  14  17
ENDBRANCH  12  13
BRANCH  12  30
ATOM     30  C   UNL     1       4.304  -8.864  -5.060  1.00  0.00     0.018 C 
ATOM     31  C   UNL     1       4.326 -10.362  -4.718  1.00  0.00     0.010 C 
BRANCH  30  32
ATOM     32  C   UNL     1       5.047  -8.058  -3.967  1.00  0.00     0.002 C 
ATOM     33  C   UNL     1       6.208  -7.207  -4.463  1.00  0.00     0.004 C 
ENDBRANCH  30  32
ENDBRANCH  12  30
ENDBRANCH  10  12
ENDBRANCH   1  10
BRANCH   5  34
ATOM     34  C   UNL     1       0.672  -6.780  -9.035  1.00  0.00     0.242 C 
ATOM     35  O   UNL     1       1.120  -7.497  -9.930  1.00  0.00    -0.273 OA
ATOM     36  N   UNL     1      -0.602  -6.260  -9.073  1.00  0.00    -0.354 N 
ATOM     37  H   UNL     1      -0.875  -5.577  -8.366  1.00  0.00     0.163 HD
BRANCH  36  38
ATOM     38  C   UNL     1      -1.599  -6.724 -10.017  1.00  0.00     0.116 C 
BRANCH  38  39
ATOM     39  C   UNL     1      -2.957  -6.115  -9.677  1.00  0.00     0.023 C 
BRANCH  39  40
ATOM     40  C   UNL     1      -3.460  -6.545  -8.303  1.00  0.00     0.026 C 
BRANCH  40  41
ATOM     41  C   UNL     1      -4.907  -6.099  -8.092  1.00  0.00     0.146 C 
BRANCH  41  42
ATOM     42  N   UNL     1      -5.493  -5.708  -9.367  1.00  0.00    -0.254 NA
ATOM     43  C   UNL     1      -6.736  -5.407  -9.427  1.00  0.00     0.185 C 
ATOM     44  N   UNL     1      -7.668  -5.382  -8.457  1.00  0.00    -0.370 N 
ATOM     45  N   UNL     1      -7.258  -5.053 -10.614  1.00  0.00    -0.370 N 
ATOM     46  H   UNL     1      -8.647  -5.365  -8.687  1.00  0.00     0.159 HD
ATOM     47  H   UNL     1      -7.441  -5.609  -7.494  1.00  0.00     0.159 HD
ATOM     48  H   UNL     1      -6.619  -5.038 -11.397  1.00  0.00     0.159 HD
ATOM     49  H   UNL     1      -8.141  -4.583 -10.701  1.00  0.00     0.159 HD
ENDBRANCH  41  42
ENDBRANCH  40  41
ENDBRANCH  39  40
ENDBRANCH  38  39
ENDBRANCH  36  38
ENDBRANCH   5  34
BRANCH   8  50
ATOM     50  O   UNL     1       4.846  -6.619 -11.292  1.00  0.00    -0.245 OA
BRANCH  50  51
ATOM     51  S   UNL     1       5.475  -7.288 -12.635  1.00  0.00     0.397 S 
ATOM     52  O   UNL     1       6.909  -7.362 -12.467  1.00  0.00    -0.169 OA
ATOM     53  O   UNL     1       4.878  -6.680 -13.806  1.00  0.00    -0.169 OA
BRANCH  51  54
ATOM     54  O   UNL     1       4.944  -8.802 -12.536  1.00  0.00    -0.264 OA
ATOM     55  H   UNL     1       5.437  -9.245 -11.816  1.00  0.00     0.236 HD
ENDBRANCH  51  54
ENDBRANCH  50  51
ENDBRANCH   8  50
TORSDOF 19
ENDMDL
MODEL 5
REMARK VINA RESULT:    -6.899      2.735      4.602
REMARK INTER + INTRA:         -18.205
REMARK INTER:                 -14.678
REMARK INTRA:                  -3.527
REMARK UNBOUND:                -4.249
REMARK SMILES CC[C@@H](C)[C@@H](NC(=O)[C@@H](O)Cc1ccc(O)c(Cl)c1)C(=O)N1[C@H](C(=O)NCCCCN=C(N)N)C[C@H]2CC[C@H](OS(=O)(=O)O)C[C@@H]21
REMARK SMILES IDX 22 1 36 2 46 3 35 4 23 5 45 6 37 7 39 8 38 9 20 10 21 11
REMARK SMILES IDX 5 12 6 13 7 14 8 15 9 17 11 18 12 19 17 20 19 21 15 22 14 23
REMARK SMILES IDX 13 24 18 25 16 26 10 28 3 30 4 31 2 32 1 33 24 34 25 35
REMARK SMILES IDX 26 36 27 38 28 39 29 40 30 41 31 42 32 43 33 44 34 45 40 50
REMARK SMILES IDX 41 51 42 52 43 53 44 54
REMARK H PARENT 6 16 16 27 10 29 26 37 33 46 33 47 34 48 34 49 44 55
ROOT
ATOM      1  N   UNL     1      -0.651  -6.729  -3.729  1.00  0.00    -0.326 N 
ATOM      2  C   UNL     1      -1.325  -5.845  -1.654  1.00  0.00     0.014 C 
ATOM      3  C   UNL     1      -0.283  -5.688  -2.765  1.00  0.00     0.091 C 
ATOM      4  C   UNL     1      -1.564  -7.346  -1.629  1.00  0.00     0.041 C 
ATOM      5  C   UNL     1      -1.670  -7.631  -3.138  1.00  0.00     0.175 C 
ATOM      6  C   UNL     1      -0.289  -4.233  -3.231  1.00  0.00     0.059 C 
ATOM      7  C   UNL     1      -0.878  -5.142  -0.388  1.00  0.00     0.008 C 
ATOM      8  C   UNL     1      -0.639  -3.224  -2.116  1.00  0.00     0.143 C 
ATOM      9  C   UNL     1      -0.276  -3.759  -0.716  1.00  0.00     0.034 C 
ENDROOT
BRANCH   1  10
ATOM     10  C   UNL     1      -0.054  -7.078  -4.929  1.00  0.00     0.246 C 
ATOM     11  O   UNL     1      -0.612  -6.773  -5.988  1.00  0.00    -0.272 OA
BRANCH  10  12
ATOM     12  C   UNL     1       1.322  -7.805  -4.918  1.00  0.00     0.174 C 
BRANCH  12  13
ATOM     13  N   UNL     1       2.376  -6.872  -4.523  1.00  0.00    -0.342 N 
ATOM     14  C   UNL     1       3.296  -7.097  -3.523  1.00  0.00     0.249 C 
ATOM     15  O   UNL     1       3.350  -8.129  -2.865  1.00  0.00    -0.272 OA
ATOM     16  H   UNL     1       2.359  -5.917  -4.869  1.00  0.00     0.164 HD
BRANCH  14  17
ATOM     17  C   UNL     1       4.270  -5.915  -3.333  1.00  0.00     0.207 C 
BRANCH  17  18
ATOM     18  C   UNL     1       4.478  -5.174  -4.657  1.00  0.00     0.077 C 
BRANCH  18  19
ATOM     19  C   UNL     1       4.038  -3.729  -4.568  1.00  0.00    -0.043 A 
ATOM     20  C   UNL     1       4.089  -1.460  -5.423  1.00  0.00     0.083 A 
ATOM     21  C   UNL     1       4.455  -2.801  -5.535  1.00  0.00     0.028 A 
ATOM     22  C   UNL     1       3.308  -1.037  -4.347  1.00  0.00     0.134 A 
ATOM     23  C   UNL     1       2.888  -1.945  -3.382  1.00  0.00     0.048 A 
ATOM     24  C   UNL     1       3.255  -3.289  -3.490  1.00  0.00     0.008 A 
ATOM     25  Cl  UNL     1       4.610  -0.334  -6.621  1.00  0.00    -0.080 Cl
BRANCH  22  26
ATOM     26  O   UNL     1       2.932   0.270  -4.188  1.00  0.00    -0.506 OA
ATOM     27  H   UNL     1       3.694   0.815  -4.459  1.00  0.00     0.293 HD
ENDBRANCH  22  26
ENDBRANCH  18  19
ENDBRANCH  17  18
BRANCH  17  28
ATOM     28  O   UNL     1       5.539  -6.365  -2.834  1.00  0.00    -0.383 OA
ATOM     29  H   UNL     1       5.340  -7.090  -2.199  1.00  0.00     0.211 HD
ENDBRANCH  17  28
ENDBRANCH  14  17
ENDBRANCH  12  13
BRANCH  12  30
ATOM     30  C   UNL     1       1.634  -8.517  -6.262  1.00  0.00     0.018 C 
ATOM     31  C   UNL     1       1.654 -10.043  -6.080  1.00  0.00     0.010 C 
BRANCH  30  32
ATOM     32  C   UNL     1       2.950  -8.043  -6.925  1.00  0.00     0.002 C 
ATOM     33  C   UNL     1       4.155  -8.948  -6.701  1.00  0.00     0.004 C 
ENDBRANCH  30  32
ENDBRANCH  12  30
ENDBRANCH  10  12
ENDBRANCH   1  10
BRANCH   5  34
ATOM     34  C   UNL     1      -3.083  -7.298  -3.686  1.00  0.00     0.242 C 
ATOM     35  O   UNL     1      -4.103  -7.823  -3.240  1.00  0.00    -0.273 OA
ATOM     36  N   UNL     1      -3.109  -6.414  -4.742  1.00  0.00    -0.354 N 
ATOM     37  H   UNL     1      -2.224  -6.105  -5.146  1.00  0.00     0.163 HD
BRANCH  36  38
ATOM     38  C   UNL     1      -4.340  -5.830  -5.231  1.00  0.00     0.116 C 
BRANCH  38  39
ATOM     39  C   UNL     1      -4.849  -6.623  -6.432  1.00  0.00     0.023 C 
BRANCH  39  40
ATOM     40  C   UNL     1      -5.246  -5.725  -7.599  1.00  0.00     0.026 C 
BRANCH  40  41
ATOM     41  C   UNL     1      -4.466  -6.097  -8.860  1.00  0.00     0.146 C 
BRANCH  41  42
ATOM     42  N   UNL     1      -3.136  -6.568  -8.495  1.00  0.00    -0.254 NA
ATOM     43  C   UNL     1      -2.157  -6.386  -9.300  1.00  0.00     0.185 C 
ATOM     44  N   UNL     1      -2.129  -5.796 -10.509  1.00  0.00    -0.370 N 
ATOM     45  N   UNL     1      -0.940  -6.832  -8.947  1.00  0.00    -0.370 N 
ATOM     46  H   UNL     1      -1.352  -5.940 -11.131  1.00  0.00     0.159 HD
ATOM     47  H   UNL     1      -2.962  -5.390 -10.923  1.00  0.00     0.159 HD
ATOM     48  H   UNL     1      -0.872  -7.283  -8.044  1.00  0.00     0.159 HD
ATOM     49  H   UNL     1      -0.097  -6.526  -9.399  1.00  0.00     0.159 HD
ENDBRANCH  41  42
ENDBRANCH  40  41
ENDBRANCH  39  40
ENDBRANCH  38  39
ENDBRANCH  36  38
ENDBRANCH   5  34
BRANCH   8  50
ATOM     50  O   UNL     1      -2.037  -2.932  -2.141  1.00  0.00    -0.245 OA
BRANCH  50  51
ATOM     51  S   UNL     1      -2.563  -1.483  -1.621  1.00  0.00     0.397 S 
ATOM     52  O   UNL     1      -1.761  -0.462  -2.257  1.00  0.00    -0.169 OA
ATOM     53  O   UNL     1      -2.747  -1.520  -0.185  1.00  0.00    -0.169 OA
BRANCH  51  54
ATOM     54  O   UNL     1      -4.015  -1.389  -2.305  1.00  0.00    -0.264 OA
ATOM     55  H   UNL     1      -3.957  -0.746  -3.041  1.00  0.00     0.236 HD
ENDBRANCH  51  54
ENDBRANCH  50  51
ENDBRANCH   8  50
TORSDOF 19
ENDMDL
MODEL 6
REMARK VINA RESULT:    -6.899      2.968      4.941
REMARK INTER + INTRA:         -18.205
REMARK INTER:                 -15.665
REMARK INTRA:                  -2.540
REMARK UNBOUND:                -4.249
REMARK SMILES CC[C@@H](C)[C@@H](NC(=O)[C@@H](O)Cc1ccc(O)c(Cl)c1)C(=O)N1[C@H](C(=O)NCCCCN=C(N)N)C[C@H]2CC[C@H](OS(=O)(=O)O)C[C@@H]21
REMARK SMILES IDX 22 1 36 2 46 3 35 4 23 5 45 6 37 7 39 8 38 9 20 10 21 11
REMARK SMILES IDX 5 12 6 13 7 14 8 15 9 17 11 18 12 19 17 20 19 21 15 22 14 23
REMARK SMILES IDX 13 24 18 25 16 26 10 28 3 30 4 31 2 32 1 33 24 34 25 35
REMARK SMILES IDX 26 36 27 38 28 39 29 40 30 41 31 42 32 43 33 44 34 45 40 50
REMARK SMILES IDX 41 51 42 52 43 53 44 54
REMARK H PARENT 6 16 16 27 10 29 26 37 33 46 33 47 34 48 34 49 44 55
ROOT
ATOM      1  N   UNL     1      -0.536  -6.670  -3.636  1.00  0.00    -0.326 N 
ATOM      2  C   UNL     1      -1.295  -5.831  -1.571  1.00  0.00     0.014 C 
ATOM      3  C   UNL     1      -0.246  -5.611  -2.664  1.00  0.00     0.091 C 
ATOM      4  C   UNL     1      -1.446  -7.344  -1.551  1.00  0.00     0.041 C 
ATOM      5  C   UNL     1      -1.511  -7.631  -3.063  1.00  0.00     0.175 C 
ATOM      6  C   UNL     1      -0.329  -4.158  -3.129  1.00  0.00     0.059 C 
ATOM      7  C   UNL     1      -0.910  -5.106  -0.296  1.00  0.00     0.008 C 
ATOM      8  C   UNL     1      -0.756  -3.174  -2.018  1.00  0.00     0.143 C 
ATOM      9  C   UNL     1      -0.384  -3.690  -0.613  1.00  0.00     0.034 C 
ENDROOT
BRANCH   1  10
ATOM     10  C   UNL     1       0.099  -6.981  -4.826  1.00  0.00     0.246 C 
ATOM     11  O   UNL     1      -0.404  -6.608  -5.891  1.00  0.00    -0.272 OA
BRANCH  10  12
ATOM     12  C   UNL     1       1.449  -7.754  -4.795  1.00  0.00     0.174 C 
BRANCH  12  13
ATOM     13  N   UNL     1       2.565  -6.809  -4.818  1.00  0.00    -0.342 N 
ATOM     14  C   UNL     1       3.574  -6.755  -3.882  1.00  0.00     0.249 C 
ATOM     15  O   UNL     1       3.664  -7.522  -2.931  1.00  0.00    -0.272 OA
ATOM     16  H   UNL     1       2.541  -6.016  -5.454  1.00  0.00     0.164 HD
BRANCH  14  17
ATOM     17  C   UNL     1       4.596  -5.636  -4.172  1.00  0.00     0.207 C 
BRANCH  17  18
ATOM     18  C   UNL     1       4.333  -5.013  -5.547  1.00  0.00     0.077 C 
BRANCH  18  19
ATOM     19  C   UNL     1       4.347  -3.502  -5.491  1.00  0.00    -0.043 A 
ATOM     20  C   UNL     1       3.477  -1.422  -4.594  1.00  0.00     0.083 A 
ATOM     21  C   UNL     1       3.497  -2.818  -4.608  1.00  0.00     0.028 A 
ATOM     22  C   UNL     1       4.301  -0.704  -5.460  1.00  0.00     0.134 A 
ATOM     23  C   UNL     1       5.148  -1.368  -6.340  1.00  0.00     0.048 A 
ATOM     24  C   UNL     1       5.169  -2.765  -6.358  1.00  0.00     0.008 A 
ATOM     25  Cl  UNL     1       2.426  -0.600  -3.502  1.00  0.00    -0.080 Cl
BRANCH  22  26
ATOM     26  O   UNL     1       4.309   0.665  -5.491  1.00  0.00    -0.506 OA
ATOM     27  H   UNL     1       5.244   0.940  -5.476  1.00  0.00     0.293 HD
ENDBRANCH  22  26
ENDBRANCH  18  19
ENDBRANCH  17  18
BRANCH  17  28
ATOM     28  O   UNL     1       5.941  -6.138  -4.127  1.00  0.00    -0.383 OA
ATOM     29  H   UNL     1       5.870  -7.115  -4.221  1.00  0.00     0.211 HD
ENDBRANCH  17  28
ENDBRANCH  14  17
ENDBRANCH  12  13
BRANCH  12  30
ATOM     30  C   UNL     1       1.555  -8.821  -5.917  1.00  0.00     0.018 C 
ATOM     31  C   UNL     1       0.262  -9.646  -6.010  1.00  0.00     0.010 C 
BRANCH  30  32
ATOM     32  C   UNL     1       2.776  -9.761  -5.768  1.00  0.00     0.002 C 
ATOM     33  C   UNL     1       2.455 -11.250  -5.767  1.00  0.00     0.004 C 
ENDBRANCH  30  32
ENDBRANCH  12  30
ENDBRANCH  10  12
ENDBRANCH   1  10
BRANCH   5  34
ATOM     34  C   UNL     1      -2.932  -7.380  -3.633  1.00  0.00     0.242 C 
ATOM     35  O   UNL     1      -3.857  -8.175  -3.470  1.00  0.00    -0.273 OA
ATOM     36  N   UNL     1      -3.069  -6.230  -4.379  1.00  0.00    -0.354 N 
ATOM     37  H   UNL     1      -2.238  -5.673  -4.580  1.00  0.00     0.163 HD
BRANCH  36  38
ATOM     38  C   UNL     1      -4.362  -5.732  -4.801  1.00  0.00     0.116 C 
BRANCH  38  39
ATOM     39  C   UNL     1      -4.968  -4.865  -3.700  1.00  0.00     0.023 C 
BRANCH  39  40
ATOM     40  C   UNL     1      -6.386  -5.292  -3.337  1.00  0.00     0.026 C 
BRANCH  40  41
ATOM     41  C   UNL     1      -7.262  -5.381  -4.587  1.00  0.00     0.146 C 
BRANCH  41  42
ATOM     42  N   UNL     1      -7.330  -4.077  -5.235  1.00  0.00    -0.254 NA
ATOM     43  C   UNL     1      -7.609  -4.004  -6.482  1.00  0.00     0.185 C 
ATOM     44  N   UNL     1      -7.872  -4.981  -7.369  1.00  0.00    -0.370 N 
ATOM     45  N   UNL     1      -7.662  -2.793  -7.061  1.00  0.00    -0.370 N 
ATOM     46  H   UNL     1      -7.832  -4.800  -8.357  1.00  0.00     0.159 HD
ATOM     47  H   UNL     1      -7.887  -5.959  -7.096  1.00  0.00     0.159 HD
ATOM     48  H   UNL     1      -7.484  -2.000  -6.460  1.00  0.00     0.159 HD
ATOM     49  H   UNL     1      -8.098  -2.635  -7.952  1.00  0.00     0.159 HD
ENDBRANCH  41  42
ENDBRANCH  40  41
ENDBRANCH  39  40
ENDBRANCH  38  39
ENDBRANCH  36  38
ENDBRANCH   5  34
BRANCH   8  50
ATOM     50  O   UNL     1      -2.167  -2.963  -2.065  1.00  0.00    -0.245 OA
BRANCH  50  51
ATOM     51  S   UNL     1      -2.781  -1.532  -1.598  1.00  0.00     0.397 S 
ATOM     52  O   UNL     1      -2.726  -1.472  -0.154  1.00  0.00    -0.169 OA
ATOM     53  O   UNL     1      -4.007  -1.269  -2.322  1.00  0.00    -0.169 OA
BRANCH  51  54
ATOM     54  O   UNL     1      -1.665  -0.500  -2.122  1.00  0.00    -0.264 OA
ATOM     55  H   UNL     1      -0.916  -0.525  -1.491  1.00  0.00     0.236 HD
ENDBRANCH  51  54
ENDBRANCH  50  51
ENDBRANCH   8  50
TORSDOF 19
ENDMDL
MODEL 7
REMARK VINA RESULT:    -6.894      4.391      6.781
REMARK INTER + INTRA:         -18.196
REMARK INTER:                 -15.432
REMARK INTRA:                  -2.764
REMARK UNBOUND:                -4.249
REMARK SMILES CC[C@@H](C)[C@@H](NC(=O)[C@@H](O)Cc1ccc(O)c(Cl)c1)C(=O)N1[C@H](C(=O)NCCCCN=C(N)N)C[C@H]2CC[C@H](OS(=O)(=O)O)C[C@@H]21
REMARK SMILES IDX 22 1 36 2 46 3 35 4 23 5 45 6 37 7 39 8 38 9 20 10 21 11
REMARK SMILES IDX 5 12 6 13 7 14 8 15 9 17 11 18 12 19 17 20 19 21 15 22 14 23
REMARK SMILES IDX 13 24 18 25 16 26 10 28 3 30 4 31 2 32 1 33 24 34 25 35
REMARK SMILES IDX 26 36 27 38 28 39 29 40 30 41 31 42 32 43 33 44 34 45 40 50
REMARK SMILES IDX 41 51 42 52 43 53 44 54
REMARK H PARENT 6 16 16 27 10 29 26 37 33 46 33 47 34 48 34 49 44 55
ROOT
ATOM      1  N   UNL     1       1.995  -7.749  -7.884  1.00  0.00    -0.326 N 
ATOM      2  C   UNL     1       3.041  -5.955  -8.993  1.00  0.00     0.014 C 
ATOM      3  C   UNL     1       3.329  -7.259  -8.243  1.00  0.00     0.091 C 
ATOM      4  C   UNL     1       1.818  -5.414  -8.268  1.00  0.00     0.041 C 
ATOM      5  C   UNL     1       0.980  -6.701  -8.152  1.00  0.00     0.175 C 
ATOM      6  C   UNL     1       4.211  -8.139  -9.127  1.00  0.00     0.059 C 
ATOM      7  C   UNL     1       4.288  -5.098  -9.088  1.00  0.00     0.008 C 
ATOM      8  C   UNL     1       5.170  -7.343 -10.038  1.00  0.00     0.143 C 
ATOM      9  C   UNL     1       5.516  -5.961  -9.447  1.00  0.00     0.034 C 
ENDROOT
BRANCH   1  10
ATOM     10  C   UNL     1       1.626  -8.881  -7.178  1.00  0.00     0.246 C 
ATOM     11  O   UNL     1       0.883  -9.709  -7.716  1.00  0.00    -0.272 OA
BRANCH  10  12
ATOM     12  C   UNL     1       2.186  -9.107  -5.744  1.00  0.00     0.174 C 
BRANCH  12  13
ATOM     13  N   UNL     1       2.677  -7.844  -5.195  1.00  0.00    -0.342 N 
ATOM     14  C   UNL     1       2.061  -7.124  -4.195  1.00  0.00     0.249 C 
ATOM     15  O   UNL     1       1.036  -7.483  -3.629  1.00  0.00    -0.272 OA
ATOM     16  H   UNL     1       3.426  -7.346  -5.669  1.00  0.00     0.164 HD
BRANCH  14  17
ATOM     17  C   UNL     1       2.814  -5.823  -3.847  1.00  0.00     0.207 C 
BRANCH  17  18
ATOM     18  C   UNL     1       3.640  -5.345  -5.046  1.00  0.00     0.077 C 
BRANCH  18  19
ATOM     19  C   UNL     1       3.775  -3.839  -5.071  1.00  0.00    -0.043 A 
ATOM     20  C   UNL     1       3.138  -1.657  -4.225  1.00  0.00     0.083 A 
ATOM     21  C   UNL     1       3.049  -3.048  -4.167  1.00  0.00     0.028 A 
ATOM     22  C   UNL     1       3.949  -1.048  -5.183  1.00  0.00     0.134 A 
ATOM     23  C   UNL     1       4.674  -1.820  -6.084  1.00  0.00     0.048 A 
ATOM     24  C   UNL     1       4.585  -3.212  -6.030  1.00  0.00     0.008 A 
ATOM     25  Cl  UNL     1       2.238  -0.702  -3.106  1.00  0.00    -0.080 Cl
BRANCH  22  26
ATOM     26  O   UNL     1       4.060   0.312  -5.286  1.00  0.00    -0.506 OA
ATOM     27  H   UNL     1       3.472   0.693  -4.608  1.00  0.00     0.293 HD
ENDBRANCH  22  26
ENDBRANCH  18  19
ENDBRANCH  17  18
BRANCH  17  28
ATOM     28  O   UNL     1       3.681  -6.013  -2.718  1.00  0.00    -0.383 OA
ATOM     29  H   UNL     1       4.083  -6.905  -2.830  1.00  0.00     0.211 HD
ENDBRANCH  17  28
ENDBRANCH  14  17
ENDBRANCH  12  13
BRANCH  12  30
ATOM     30  C   UNL     1       3.255 -10.232  -5.688  1.00  0.00     0.018 C 
ATOM     31  C   UNL     1       2.589 -11.616  -5.641  1.00  0.00     0.010 C 
BRANCH  30  32
ATOM     32  C   UNL     1       4.254 -10.082  -4.514  1.00  0.00     0.002 C 
ATOM     33  C   UNL     1       5.681 -10.521  -4.814  1.00  0.00     0.004 C 
ENDBRANCH  30  32
ENDBRANCH  12  30
ENDBRANCH  10  12
ENDBRANCH   1  10
BRANCH   5  34
ATOM     34  C   UNL     1       0.211  -7.002  -9.467  1.00  0.00     0.242 C 
ATOM     35  O   UNL     1       0.651  -7.767 -10.325  1.00  0.00    -0.273 OA
ATOM     36  N   UNL     1      -0.969  -6.312  -9.626  1.00  0.00    -0.354 N 
ATOM     37  H   UNL     1      -1.221  -5.603  -8.937  1.00  0.00     0.163 HD
BRANCH  36  38
ATOM     38  C   UNL     1      -1.913  -6.627 -10.679  1.00  0.00     0.116 C 
BRANCH  38  39
ATOM     39  C   UNL     1      -3.283  -6.925 -10.074  1.00  0.00     0.023 C 
BRANCH  39  40
ATOM     40  C   UNL     1      -3.511  -6.190  -8.758  1.00  0.00     0.026 C 
BRANCH  40  41
ATOM     41  C   UNL     1      -5.005  -6.060  -8.461  1.00  0.00     0.146 C 
BRANCH  41  42
ATOM     42  N   UNL     1      -5.755  -6.040  -9.710  1.00  0.00    -0.254 NA
ATOM     43  C   UNL     1      -6.717  -5.208  -9.857  1.00  0.00     0.185 C 
ATOM     44  N   UNL     1      -7.198  -4.281  -9.008  1.00  0.00    -0.370 N 
ATOM     45  N   UNL     1      -7.399  -5.209 -11.015  1.00  0.00    -0.370 N 
ATOM     46  H   UNL     1      -8.104  -3.870  -9.157  1.00  0.00     0.159 HD
ATOM     47  H   UNL     1      -6.789  -4.137  -8.090  1.00  0.00     0.159 HD
ATOM     48  H   UNL     1      -7.095  -5.872 -11.714  1.00  0.00     0.159 HD
ATOM     49  H   UNL     1      -7.994  -4.449 -11.296  1.00  0.00     0.159 HD
ENDBRANCH  41  42
ENDBRANCH  40  41
ENDBRANCH  39  40
ENDBRANCH  38  39
ENDBRANCH  36  38
ENDBRANCH   5  34
BRANCH   8  50
ATOM     50  O   UNL     1       4.579  -7.151 -11.324  1.00  0.00    -0.245 OA
BRANCH  50  51
ATOM     51  S   UNL     1       5.533  -6.998 -12.631  1.00  0.00     0.397 S 
ATOM     52  O   UNL     1       4.797  -7.475 -13.780  1.00  0.00    -0.169 OA
ATOM     53  O   UNL     1       6.861  -7.487 -12.324  1.00  0.00    -0.169 OA
BRANCH  51  54
ATOM     54  O   UNL     1       5.619  -5.401 -12.798  1.00  0.00    -0.264 OA
ATOM     55  H   UNL     1       4.777  -5.021 -12.475  1.00  0.00     0.236 HD
ENDBRANCH  51  54
ENDBRANCH  50  51
ENDBRANCH   8  50
TORSDOF 19
ENDMDL
MODEL 8
REMARK VINA RESULT:    -6.859      2.798      4.723
REMARK INTER + INTRA:         -18.125
REMARK INTER:                 -15.212
REMARK INTRA:                  -2.914
REMARK UNBOUND:                -4.249
REMARK SMILES CC[C@@H](C)[C@@H](NC(=O)[C@@H](O)Cc1ccc(O)c(Cl)c1)C(=O)N1[C@H](C(=O)NCCCCN=C(N)N)C[C@H]2CC[C@H](OS(=O)(=O)O)C[C@@H]21
REMARK SMILES IDX 22 1 36 2 46 3 35 4 23 5 45 6 37 7 39 8 38 9 20 10 21 11
REMARK SMILES IDX 5 12 6 13 7 14 8 15 9 17 11 18 12 19 17 20 19 21 15 22 14 23
REMARK SMILES IDX 13 24 18 25 16 26 10 28 3 30 4 31 2 32 1 33 24 34 25 35
REMARK SMILES IDX 26 36 27 38 28 39 29 40 30 41 31 42 32 43 33 44 34 45 40 50
REMARK SMILES IDX 41 51 42 52 43 53 44 54
REMARK H PARENT 6 16 16 27 10 29 26 37 33 46 33 47 34 48 34 49 44 55
ROOT
ATOM      1  N   UNL     1      -2.630  -7.589  -7.709  1.00  0.00    -0.326 N 
ATOM      2  C   UNL     1      -3.161  -8.432  -5.576  1.00  0.00     0.014 C 
ATOM      3  C   UNL     1      -2.387  -7.320  -6.289  1.00  0.00     0.091 C 
ATOM      4  C   UNL     1      -3.004  -9.610  -6.525  1.00  0.00     0.041 C 
ATOM      5  C   UNL     1      -3.278  -8.914  -7.871  1.00  0.00     0.175 C 
ATOM      6  C   UNL     1      -2.837  -5.976  -5.718  1.00  0.00     0.059 C 
ATOM      7  C   UNL     1      -2.707  -8.572  -4.136  1.00  0.00     0.008 C 
ATOM      8  C   UNL     1      -3.245  -6.038  -4.230  1.00  0.00     0.143 C 
ATOM      9  C   UNL     1      -2.536  -7.185  -3.482  1.00  0.00     0.034 C 
ENDROOT
BRANCH   1  10
ATOM     10  C   UNL     1      -2.168  -6.922  -8.830  1.00  0.00     0.246 C 
ATOM     11  O   UNL     1      -2.744  -5.893  -9.198  1.00  0.00    -0.272 OA
BRANCH  10  12
ATOM     12  C   UNL     1      -0.910  -7.456  -9.576  1.00  0.00     0.174 C 
BRANCH  12  13
ATOM     13  N   UNL     1       0.226  -6.566  -9.339  1.00  0.00    -0.342 N 
ATOM     14  C   UNL     1       1.406  -6.934  -8.733  1.00  0.00     0.249 C 
ATOM     15  O   UNL     1       1.647  -8.071  -8.346  1.00  0.00    -0.272 OA
ATOM     16  H   UNL     1       0.114  -5.562  -9.464  1.00  0.00     0.164 HD
BRANCH  14  17
ATOM     17  C   UNL     1       2.404  -5.764  -8.612  1.00  0.00     0.207 C 
BRANCH  17  18
ATOM     18  C   UNL     1       3.285  -5.937  -7.371  1.00  0.00     0.077 C 
BRANCH  18  19
ATOM     19  C   UNL     1       3.559  -4.617  -6.688  1.00  0.00    -0.043 A 
ATOM     20  C   UNL     1       2.996  -2.964  -5.004  1.00  0.00     0.083 A 
ATOM     21  C   UNL     1       2.773  -4.205  -5.601  1.00  0.00     0.028 A 
ATOM     22  C   UNL     1       4.003  -2.127  -5.488  1.00  0.00     0.134 A 
ATOM     23  C   UNL     1       4.790  -2.523  -6.564  1.00  0.00     0.048 A 
ATOM     24  C   UNL     1       4.567  -3.764  -7.164  1.00  0.00     0.008 A 
ATOM     25  Cl  UNL     1       2.019  -2.475  -3.669  1.00  0.00    -0.080 Cl
BRANCH  22  26
ATOM     26  O   UNL     1       4.253  -0.897  -4.942  1.00  0.00    -0.506 OA
ATOM     27  H   UNL     1       3.944  -0.236  -5.589  1.00  0.00     0.293 HD
ENDBRANCH  22  26
ENDBRANCH  18  19
ENDBRANCH  17  18
BRANCH  17  28
ATOM     28  O   UNL     1       1.718  -4.504  -8.538  1.00  0.00    -0.383 OA
ATOM     29  H   UNL     1       2.413  -3.811  -8.609  1.00  0.00     0.211 HD
ENDBRANCH  17  28
ENDBRANCH  14  17
ENDBRANCH  12  13
BRANCH  12  30
ATOM     30  C   UNL     1      -1.168  -7.698 -11.088  1.00  0.00     0.018 C 
ATOM     31  C   UNL     1      -2.463  -8.497 -11.300  1.00  0.00     0.010 C 
BRANCH  30  32
ATOM     32  C   UNL     1       0.010  -8.391 -11.815  1.00  0.00     0.002 C 
ATOM     33  C   UNL     1      -0.321  -9.730 -12.462  1.00  0.00     0.004 C 
ENDBRANCH  30  32
ENDBRANCH  12  30
ENDBRANCH  10  12
ENDBRANCH   1  10
BRANCH   5  34
ATOM     34  C   UNL     1      -4.799  -8.754  -8.134  1.00  0.00     0.242 C 
ATOM     35  O   UNL     1      -5.648  -9.322  -7.447  1.00  0.00    -0.273 OA
ATOM     36  N   UNL     1      -5.127  -7.977  -9.222  1.00  0.00    -0.354 N 
ATOM     37  H   UNL     1      -4.378  -7.632  -9.824  1.00  0.00     0.163 HD
BRANCH  36  38
ATOM     38  C   UNL     1      -6.485  -7.548  -9.485  1.00  0.00     0.116 C 
BRANCH  38  39
ATOM     39  C   UNL     1      -6.509  -6.614 -10.692  1.00  0.00     0.023 C 
BRANCH  39  40
ATOM     40  C   UNL     1      -7.530  -5.491 -10.541  1.00  0.00     0.026 C 
BRANCH  40  41
ATOM     41  C   UNL     1      -7.073  -4.481  -9.489  1.00  0.00     0.146 C 
BRANCH  41  42
ATOM     42  N   UNL     1      -7.923  -4.579  -8.309  1.00  0.00    -0.254 NA
ATOM     43  C   UNL     1      -7.391  -4.757  -7.159  1.00  0.00     0.185 C 
ATOM     44  N   UNL     1      -6.096  -4.877  -6.813  1.00  0.00    -0.370 N 
ATOM     45  N   UNL     1      -8.193  -4.849  -6.085  1.00  0.00    -0.370 N 
ATOM     46  H   UNL     1      -5.838  -5.255  -5.917  1.00  0.00     0.159 HD
ATOM     47  H   UNL     1      -5.353  -4.817  -7.502  1.00  0.00     0.159 HD
ATOM     48  H   UNL     1      -9.185  -4.760  -6.257  1.00  0.00     0.159 HD
ATOM     49  H   UNL     1      -7.855  -4.750  -5.144  1.00  0.00     0.159 HD
ENDBRANCH  41  42
ENDBRANCH  40  41
ENDBRANCH  39  40
ENDBRANCH  38  39
ENDBRANCH  36  38
ENDBRANCH   5  34
BRANCH   8  50
ATOM     50  O   UNL     1      -4.656  -6.227  -4.117  1.00  0.00    -0.245 OA
BRANCH  50  51
ATOM     51  S   UNL     1      -5.505  -5.323  -3.065  1.00  0.00     0.397 S 
ATOM     52  O   UNL     1      -5.596  -6.053  -1.820  1.00  0.00    -0.169 OA
ATOM     53  O   UNL     1      -6.681  -4.790  -3.721  1.00  0.00    -0.169 OA
BRANCH  51  54
ATOM     54  O   UNL     1      -4.498  -4.101  -2.783  1.00  0.00    -0.264 OA
ATOM     55  H   UNL     1      -4.992  -3.416  -2.289  1.00  0.00     0.236 HD
ENDBRANCH  51  54
ENDBRANCH  50  51
ENDBRANCH   8  50
TORSDOF 19
ENDMDL
MODEL 9
REMARK VINA RESULT:    -6.845      3.891      7.228
REMARK INTER + INTRA:         -18.097
REMARK INTER:                 -14.764
REMARK INTRA:                  -3.333
REMARK UNBOUND:                -4.249
REMARK SMILES CC[C@@H](C)[C@@H](NC(=O)[C@@H](O)Cc1ccc(O)c(Cl)c1)C(=O)N1[C@H](C(=O)NCCCCN=C(N)N)C[C@H]2CC[C@H](OS(=O)(=O)O)C[C@@H]21
REMARK SMILES IDX 22 1 36 2 46 3 35 4 23 5 45 6 37 7 39 8 38 9 20 10 21 11
REMARK SMILES IDX 5 12 6 13 7 14 8 15 9 17 11 18 12 19 17 20 19 21 15 22 14 23
REMARK SMILES IDX 13 24 18 25 16 26 10 28 3 30 4 31 2 32 1 33 24 34 25 35
REMARK SMILES IDX 26 36 27 38 28 39 29 40 30 41 31 42 32 43 33 44 34 45 40 50
REMARK SMILES IDX 41 51 42 52 43 53 44 54
REMARK H PARENT 6 16 16 27 10 29 26 37 33 46 33 47 34 48 34 49 44 55
ROOT
ATOM      1  N   UNL     1      -0.739  -6.444  -3.072  1.00  0.00    -0.326 N 
ATOM      2  C   UNL     1      -2.933  -7.220  -2.716  1.00  0.00     0.014 C 
ATOM      3  C   UNL     1      -1.461  -7.595  -2.521  1.00  0.00     0.091 C 
ATOM      4  C   UNL     1      -2.912  -6.447  -4.025  1.00  0.00     0.041 C 
ATOM      5  C   UNL     1      -1.681  -5.552  -3.793  1.00  0.00     0.175 C 
ATOM      6  C   UNL     1      -1.244  -7.950  -1.051  1.00  0.00     0.059 C 
ATOM      7  C   UNL     1      -3.825  -8.440  -2.587  1.00  0.00     0.008 C 
ATOM      8  C   UNL     1      -2.477  -8.589  -0.377  1.00  0.00     0.143 C 
ATOM      9  C   UNL     1      -3.383  -9.313  -1.394  1.00  0.00     0.034 C 
ENDROOT
BRANCH   1  10
ATOM     10  C   UNL     1       0.622  -6.223  -3.188  1.00  0.00     0.246 C 
ATOM     11  O   UNL     1       1.108  -5.194  -2.707  1.00  0.00    -0.272 OA
BRANCH  10  12
ATOM     12  C   UNL     1       1.517  -7.293  -3.880  1.00  0.00     0.174 C 
BRANCH  12  13
ATOM     13  N   UNL     1       2.871  -6.771  -4.057  1.00  0.00    -0.342 N 
ATOM     14  C   UNL     1       3.976  -7.183  -3.347  1.00  0.00     0.249 C 
ATOM     15  O   UNL     1       3.950  -8.064  -2.496  1.00  0.00    -0.272 OA
ATOM     16  H   UNL     1       3.019  -5.932  -4.613  1.00  0.00     0.164 HD
BRANCH  14  17
ATOM     17  C   UNL     1       5.261  -6.429  -3.752  1.00  0.00     0.207 C 
BRANCH  17  18
ATOM     18  C   UNL     1       5.766  -6.925  -5.111  1.00  0.00     0.077 C 
BRANCH  18  19
ATOM     19  C   UNL     1       4.982  -6.324  -6.256  1.00  0.00    -0.043 A 
ATOM     20  C   UNL     1       3.859  -6.568  -8.392  1.00  0.00     0.083 A 
ATOM     21  C   UNL     1       4.539  -7.134  -7.313  1.00  0.00     0.028 A 
ATOM     22  C   UNL     1       3.618  -5.194  -8.422  1.00  0.00     0.134 A 
ATOM     23  C   UNL     1       4.050  -4.381  -7.382  1.00  0.00     0.048 A 
ATOM     24  C   UNL     1       4.733  -4.944  -6.301  1.00  0.00     0.008 A 
ATOM     25  Cl  UNL     1       3.324  -7.580  -9.682  1.00  0.00    -0.080 Cl
BRANCH  22  26
ATOM     26  O   UNL     1       2.964  -4.593  -9.464  1.00  0.00    -0.506 OA
ATOM     27  H   UNL     1       2.826  -5.279 -10.142  1.00  0.00     0.293 HD
ENDBRANCH  22  26
ENDBRANCH  18  19
ENDBRANCH  17  18
BRANCH  17  28
ATOM     28  O   UNL     1       6.293  -6.600  -2.768  1.00  0.00    -0.383 OA
ATOM     29  H   UNL     1       7.139  -6.379  -3.220  1.00  0.00     0.211 HD
ENDBRANCH  17  28
ENDBRANCH  14  17
ENDBRANCH  12  13
BRANCH  12  30
ATOM     30  C   UNL     1       0.906  -7.817  -5.207  1.00  0.00     0.018 C 
ATOM     31  C   UNL     1       1.678  -9.045  -5.716  1.00  0.00     0.010 C 
BRANCH  30  32
ATOM     32  C   UNL     1       0.820  -6.744  -6.319  1.00  0.00     0.002 C 
ATOM     33  C   UNL     1       0.244  -7.224  -7.645  1.00  0.00     0.004 C 
ENDBRANCH  30  32
ENDBRANCH  12  30
ENDBRANCH  10  12
ENDBRANCH   1  10
BRANCH   5  34
ATOM     34  C   UNL     1      -2.031  -4.310  -2.931  1.00  0.00     0.242 C 
ATOM     35  O   UNL     1      -3.053  -4.250  -2.248  1.00  0.00    -0.273 OA
ATOM     36  N   UNL     1      -1.144  -3.261  -3.027  1.00  0.00    -0.354 N 
ATOM     37  H   UNL     1      -0.380  -3.324  -3.701  1.00  0.00     0.163 HD
BRANCH  36  38
ATOM     38  C   UNL     1      -1.196  -2.120  -2.137  1.00  0.00     0.116 C 
BRANCH  38  39
ATOM     39  C   UNL     1      -0.234  -1.038  -2.624  1.00  0.00     0.023 C 
BRANCH  39  40
ATOM     40  C   UNL     1       0.983  -1.619  -3.335  1.00  0.00     0.026 C 
BRANCH  40  41
ATOM     41  C   UNL     1       2.136  -0.615  -3.344  1.00  0.00     0.146 C 
BRANCH  41  42
ATOM     42  N   UNL     1       3.401  -1.319  -3.510  1.00  0.00    -0.254 NA
ATOM     43  C   UNL     1       4.007  -1.274  -4.636  1.00  0.00     0.185 C 
ATOM     44  N   UNL     1       3.667  -0.648  -5.778  1.00  0.00    -0.370 N 
ATOM     45  N   UNL     1       5.170  -1.933  -4.771  1.00  0.00    -0.370 N 
ATOM     46  H   UNL     1       4.104  -0.896  -6.649  1.00  0.00     0.159 HD
ATOM     47  H   UNL     1       2.821  -0.091  -5.848  1.00  0.00     0.159 HD
ATOM     48  H   UNL     1       5.503  -2.425  -3.953  1.00  0.00     0.159 HD
ATOM     49  H   UNL     1       5.811  -1.756  -5.523  1.00  0.00     0.159 HD
ENDBRANCH  41  42
ENDBRANCH  40  41
ENDBRANCH  39  40
ENDBRANCH  38  39
ENDBRANCH  36  38
ENDBRANCH   5  34
BRANCH   8  50
ATOM     50  O   UNL     1      -3.249  -7.585   0.284  1.00  0.00    -0.245 OA
BRANCH  50  51
ATOM     51  S   UNL     1      -3.628  -7.769   1.855  1.00  0.00     0.397 S 
ATOM     52  O   UNL     1      -2.487  -8.352   2.524  1.00  0.00    -0.169 OA
ATOM     53  O   UNL     1      -4.953  -8.343   1.971  1.00  0.00    -0.169 OA
BRANCH  51  54
ATOM     54  O   UNL     1      -3.702  -6.245   2.362  1.00  0.00    -0.264 OA
ATOM     55  H   UNL     1      -4.360  -6.203   3.086  1.00  0.00     0.236 HD
ENDBRANCH  51  54
ENDBRANCH  50  51
ENDBRANCH   8  50
TORSDOF 19
ENDMDL
MODEL 10
REMARK VINA RESULT:    -6.815      3.495      7.458
REMARK INTER + INTRA:         -18.036
REMARK INTER:                 -14.567
REMARK INTRA:                  -3.469
REMARK UNBOUND:                -4.249
REMARK SMILES CC[C@@H](C)[C@@H](NC(=O)[C@@H](O)Cc1ccc(O)c(Cl)c1)C(=O)N1[C@H](C(=O)NCCCCN=C(N)N)C[C@H]2CC[C@H](OS(=O)(=O)O)C[C@@H]21
REMARK SMILES IDX 22 1 36 2 46 3 35 4 23 5 45 6 37 7 39 8 38 9 20 10 21 11
REMARK SMILES IDX 5 12 6 13 7 14 8 15 9 17 11 18 12 19 17 20 19 21 15 22 14 23
REMARK SMILES IDX 13 24 18 25 16 26 10 28 3 30 4 31 2 32 1 33 24 34 25 35
REMARK SMILES IDX 26 36 27 38 28 39 29 40 30 41 31 42 32 43 33 44 34 45 40 50
REMARK SMILES IDX 41 51 42 52 43 53 44 54
REMARK H PARENT 6 16 16 27 10 29 26 37 33 46 33 47 34 48 34 49 44 55
ROOT
ATOM      1  N   UNL     1      -2.149  -7.190  -2.612  1.00  0.00    -0.326 N 
ATOM      2  C   UNL     1      -1.906  -5.760  -0.758  1.00  0.00     0.014 C 
ATOM      3  C   UNL     1      -1.350  -6.050  -2.155  1.00  0.00     0.091 C 
ATOM      4  C   UNL     1      -2.257  -7.147  -0.243  1.00  0.00     0.041 C 
ATOM      5  C   UNL     1      -2.950  -7.732  -1.487  1.00  0.00     0.175 C 
ATOM      6  C   UNL     1      -1.395  -4.759  -2.971  1.00  0.00     0.059 C 
ATOM      7  C   UNL     1      -0.951  -4.891   0.036  1.00  0.00     0.008 C 
ATOM      8  C   UNL     1      -1.204  -3.482  -2.125  1.00  0.00     0.143 C 
ATOM      9  C   UNL     1      -0.391  -3.753  -0.843  1.00  0.00     0.034 C 
ENDROOT
BRANCH   1  10
ATOM     10  C   UNL     1      -2.084  -7.901  -3.798  1.00  0.00     0.246 C 
ATOM     11  O   UNL     1      -2.303  -9.117  -3.783  1.00  0.00    -0.272 OA
BRANCH  10  12
ATOM     12  C   UNL     1      -1.781  -7.150  -5.127  1.00  0.00     0.174 C 
BRANCH  12  13
ATOM     13  N   UNL     1      -2.840  -7.411  -6.101  1.00  0.00    -0.342 N 
ATOM     14  C   UNL     1      -3.933  -6.601  -6.316  1.00  0.00     0.249 C 
ATOM     15  O   UNL     1      -4.126  -5.545  -5.726  1.00  0.00    -0.272 OA
ATOM     16  H   UNL     1      -2.898  -8.321  -6.550  1.00  0.00     0.164 HD
BRANCH  14  17
ATOM     17  C   UNL     1      -4.883  -7.157  -7.398  1.00  0.00     0.207 C 
BRANCH  17  18
ATOM     18  C   UNL     1      -4.669  -6.425  -8.726  1.00  0.00     0.077 C 
BRANCH  18  19
ATOM     19  C   UNL     1      -5.742  -6.765  -9.735  1.00  0.00    -0.043 A 
ATOM     20  C   UNL     1      -6.861  -8.388 -11.148  1.00  0.00     0.083 A 
ATOM     21  C   UNL     1      -5.902  -8.086 -10.181  1.00  0.00     0.028 A 
ATOM     22  C   UNL     1      -7.663  -7.376 -11.677  1.00  0.00     0.134 A 
ATOM     23  C   UNL     1      -7.515  -6.063 -11.244  1.00  0.00     0.048 A 
ATOM     24  C   UNL     1      -6.555  -5.757 -10.277  1.00  0.00     0.008 A 
ATOM     25  Cl  UNL     1      -7.043 -10.018 -11.684  1.00  0.00    -0.080 Cl
BRANCH  22  26
ATOM     26  O   UNL     1      -8.609  -7.622 -12.635  1.00  0.00    -0.506 OA
ATOM     27  H   UNL     1      -8.846  -8.565 -12.559  1.00  0.00     0.293 HD
ENDBRANCH  22  26
ENDBRANCH  18  19
ENDBRANCH  17  18
BRANCH  17  28
ATOM     28  O   UNL     1      -6.256  -7.026  -6.997  1.00  0.00    -0.383 OA
ATOM     29  H   UNL     1      -6.686  -6.462  -7.680  1.00  0.00     0.211 HD
ENDBRANCH  17  28
ENDBRANCH  14  17
ENDBRANCH  12  13
BRANCH  12  30
ATOM     30  C   UNL     1      -0.369  -7.469  -5.688  1.00  0.00     0.018 C 
ATOM     31  C   UNL     1      -0.435  -8.609  -6.717  1.00  0.00     0.010 C 
BRANCH  30  32
ATOM     32  C   UNL     1       0.674  -7.801  -4.594  1.00  0.00     0.002 C 
ATOM     33  C   UNL     1       1.678  -6.695  -4.294  1.00  0.00     0.004 C 
ENDBRANCH  30  32
ENDBRANCH  12  30
ENDBRANCH  10  12
ENDBRANCH   1  10
BRANCH   5  34
ATOM     34  C   UNL     1      -4.428  -7.270  -1.590  1.00  0.00     0.242 C 
ATOM     35  O   UNL     1      -5.285  -7.618  -0.778  1.00  0.00    -0.273 OA
ATOM     36  N   UNL     1      -4.721  -6.487  -2.685  1.00  0.00    -0.354 N 
ATOM     37  H   UNL     1      -3.997  -6.332  -3.386  1.00  0.00     0.163 HD
BRANCH  36  38
ATOM     38  C   UNL     1      -5.986  -5.795  -2.823  1.00  0.00     0.116 C 
BRANCH  38  39
ATOM     39  C   UNL     1      -6.900  -6.570  -3.770  1.00  0.00     0.023 C 
BRANCH  39  40
ATOM     40  C   UNL     1      -8.341  -6.075  -3.722  1.00  0.00     0.026 C 
BRANCH  40  41
ATOM     41  C   UNL     1      -8.441  -4.643  -4.247  1.00  0.00     0.146 C 
BRANCH  41  42
ATOM     42  N   UNL     1      -8.270  -4.635  -5.694  1.00  0.00    -0.254 NA
ATOM     43  C   UNL     1      -7.254  -4.049  -6.208  1.00  0.00     0.185 C 
ATOM     44  N   UNL     1      -6.241  -3.392  -5.613  1.00  0.00    -0.370 N 
ATOM     45  N   UNL     1      -7.117  -4.049  -7.544  1.00  0.00    -0.370 N 
ATOM     46  H   UNL     1      -5.649  -2.776  -6.143  1.00  0.00     0.159 HD
ATOM     47  H   UNL     1      -6.181  -3.307  -4.603  1.00  0.00     0.159 HD
ATOM     48  H   UNL     1      -7.834  -4.531  -8.068  1.00  0.00     0.159 HD
ATOM     49  H   UNL     1      -6.250  -3.828  -8.002  1.00  0.00     0.159 HD
ENDBRANCH  41  42
ENDBRANCH  40  41
ENDBRANCH  39  40
ENDBRANCH  38  39
ENDBRANCH  36  38
ENDBRANCH   5  34
BRANCH   8  50
ATOM     50  O   UNL     1      -2.473  -2.946  -1.752  1.00  0.00    -0.245 OA
BRANCH  50  51
ATOM     51  S   UNL     1      -2.647  -1.337  -1.584  1.00  0.00     0.397 S 
ATOM     52  O   UNL     1      -1.612  -0.692  -2.359  1.00  0.00    -0.169 OA
ATOM     53  O   UNL     1      -2.864  -1.015  -0.188  1.00  0.00    -0.169 OA
BRANCH  51  54
ATOM     54  O   UNL     1      -4.021  -1.064  -2.374  1.00  0.00    -0.264 OA
ATOM     55  H   UNL     1      -4.168  -0.096  -2.390  1.00  0.00     0.236 HD
ENDBRANCH  51  54
ENDBRANCH  50  51
ENDBRANCH   8  50
TORSDOF 19
ENDMDL
MODEL 11
REMARK VINA RESULT:    -6.794      3.230      5.728
REMARK INTER + INTRA:         -17.993
REMARK INTER:                 -14.788
REMARK INTRA:                  -3.204
REMARK UNBOUND:                -4.249
REMARK SMILES CC[C@@H](C)[C@@H](NC(=O)[C@@H](O)Cc1ccc(O)c(Cl)c1)C(=O)N1[C@H](C(=O)NCCCCN=C(N)N)C[C@H]2CC[C@H](OS(=O)(=O)O)C[C@@H]21
REMARK SMILES IDX 22 1 36 2 46 3 35 4 23 5 45 6 37 7 39 8 38 9 20 10 21 11
REMARK SMILES IDX 5 12 6 13 7 14 8 15 9 17 11 18 12 19 17 20 19 21 15 22 14 23
REMARK SMILES IDX 13 24 18 25 16 26 10 28 3 30 4 31 2 32 1 33 24 34 25 35
REMARK SMILES IDX 26 36 27 38 28 39 29 40 30 41 31 42 32 43 33 44 34 45 40 50
REMARK SMILES IDX 41 51 42 52 43 53 44 54
REMARK H PARENT 6 16 16 27 10 29 26 37 33 46 33 47 34 48 34 49 44 55
ROOT
ATOM      1  N   UNL     1      -3.602  -8.510  -1.119  1.00  0.00    -0.326 N 
ATOM      2  C   UNL     1      -5.346  -9.309  -2.484  1.00  0.00     0.014 C 
ATOM      3  C   UNL     1      -5.064  -8.609  -1.151  1.00  0.00     0.091 C 
ATOM      4  C   UNL     1      -4.167 -10.259  -2.619  1.00  0.00     0.041 C 
ATOM      5  C   UNL     1      -3.014  -9.322  -2.212  1.00  0.00     0.175 C 
ATOM      6  C   UNL     1      -5.878  -7.317  -1.102  1.00  0.00     0.059 C 
ATOM      7  C   UNL     1      -6.756  -9.864  -2.516  1.00  0.00     0.008 C 
ATOM      8  C   UNL     1      -7.222  -7.400  -1.859  1.00  0.00     0.143 C 
ATOM      9  C   UNL     1      -7.757  -8.845  -1.932  1.00  0.00     0.034 C 
ENDROOT
BRANCH   1  10
ATOM     10  C   UNL     1      -2.769  -7.985  -0.145  1.00  0.00     0.246 C 
ATOM     11  O   UNL     1      -1.839  -8.674   0.285  1.00  0.00    -0.272 OA
BRANCH  10  12
ATOM     12  C   UNL     1      -2.995  -6.528   0.353  1.00  0.00     0.174 C 
BRANCH  12  13
ATOM     13  N   UNL     1      -1.946  -5.654  -0.170  1.00  0.00    -0.342 N 
ATOM     14  C   UNL     1      -2.084  -4.812  -1.251  1.00  0.00     0.249 C 
ATOM     15  O   UNL     1      -3.124  -4.681  -1.884  1.00  0.00    -0.272 OA
ATOM     16  H   UNL     1      -0.988  -5.768   0.152  1.00  0.00     0.164 HD
BRANCH  14  17
ATOM     17  C   UNL     1      -0.791  -4.032  -1.567  1.00  0.00     0.207 C 
BRANCH  17  18
ATOM     18  C   UNL     1      -0.667  -3.790  -3.075  1.00  0.00     0.077 C 
BRANCH  18  19
ATOM     19  C   UNL     1       0.607  -3.053  -3.423  1.00  0.00    -0.043 A 
ATOM     20  C   UNL     1       2.819  -3.033  -4.418  1.00  0.00     0.083 A 
ATOM     21  C   UNL     1       1.625  -3.699  -4.141  1.00  0.00     0.028 A 
ATOM     22  C   UNL     1       3.005  -1.721  -3.979  1.00  0.00     0.134 A 
ATOM     23  C   UNL     1       2.004  -1.069  -3.268  1.00  0.00     0.048 A 
ATOM     24  C   UNL     1       0.809  -1.734  -2.988  1.00  0.00     0.008 A 
ATOM     25  Cl  UNL     1       4.059  -3.844  -5.301  1.00  0.00    -0.080 Cl
BRANCH  22  26
ATOM     26  O   UNL     1       4.162  -1.030  -4.218  1.00  0.00    -0.506 OA
ATOM     27  H   UNL     1       4.897  -1.630  -3.992  1.00  0.00     0.293 HD
ENDBRANCH  22  26
ENDBRANCH  18  19
ENDBRANCH  17  18
BRANCH  17  28
ATOM     28  O   UNL     1       0.369  -4.742  -1.102  1.00  0.00    -0.383 OA
ATOM     29  H   UNL     1       0.035  -5.580  -0.709  1.00  0.00     0.211 HD
ENDBRANCH  17  28
ENDBRANCH  14  17
ENDBRANCH  12  13
BRANCH  12  30
ATOM     30  C   UNL     1      -3.128  -6.436   1.897  1.00  0.00     0.018 C 
ATOM     31  C   UNL     1      -4.515  -6.914   2.355  1.00  0.00     0.010 C 
BRANCH  30  32
ATOM     32  C   UNL     1      -2.838  -5.024   2.463  1.00  0.00     0.002 C 
ATOM     33  C   UNL     1      -1.875  -4.981   3.642  1.00  0.00     0.004 C 
ENDBRANCH  30  32
ENDBRANCH  12  30
ENDBRANCH  10  12
ENDBRANCH   1  10
BRANCH   5  34
ATOM     34  C   UNL     1      -2.569  -8.417  -3.392  1.00  0.00     0.242 C 
ATOM     35  O   UNL     1      -1.868  -7.419  -3.227  1.00  0.00    -0.273 OA
ATOM     36  N   UNL     1      -3.060  -8.780  -4.626  1.00  0.00    -0.354 N 
ATOM     37  H   UNL     1      -3.734  -9.546  -4.681  1.00  0.00     0.163 HD
BRANCH  36  38
ATOM     38  C   UNL     1      -2.580  -8.184  -5.855  1.00  0.00     0.116 C 
BRANCH  38  39
ATOM     39  C   UNL     1      -3.565  -7.122  -6.337  1.00  0.00     0.023 C 
BRANCH  39  40
ATOM     40  C   UNL     1      -4.192  -7.475  -7.681  1.00  0.00     0.026 C 
BRANCH  40  41
ATOM     41  C   UNL     1      -4.459  -6.214  -8.503  1.00  0.00     0.146 C 
BRANCH  41  42
ATOM     42  N   UNL     1      -5.892  -6.054  -8.709  1.00  0.00    -0.254 NA
ATOM     43  C   UNL     1      -6.566  -5.310  -7.916  1.00  0.00     0.185 C 
ATOM     44  N   UNL     1      -6.165  -4.594  -6.850  1.00  0.00    -0.370 N 
ATOM     45  N   UNL     1      -7.888  -5.179  -8.120  1.00  0.00    -0.370 N 
ATOM     46  H   UNL     1      -6.833  -4.255  -6.178  1.00  0.00     0.159 HD
ATOM     47  H   UNL     1      -5.192  -4.569  -6.561  1.00  0.00     0.159 HD
ATOM     48  H   UNL     1      -8.271  -5.680  -8.910  1.00  0.00     0.159 HD
ATOM     49  H   UNL     1      -8.433  -4.445  -7.703  1.00  0.00     0.159 HD
ENDBRANCH  41  42
ENDBRANCH  40  41
ENDBRANCH  39  40
ENDBRANCH  38  39
ENDBRANCH  36  38
ENDBRANCH   5  34
BRANCH   8  50
ATOM     50  O   UNL     1      -7.066  -6.906  -3.189  1.00  0.00    -0.245 OA
BRANCH  50  51
ATOM     51  S   UNL     1      -7.490  -5.374  -3.532  1.00  0.00     0.397 S 
ATOM     52  O   UNL     1      -6.282  -4.623  -3.790  1.00  0.00    -0.169 OA
ATOM     53  O   UNL     1      -8.478  -4.918  -2.576  1.00  0.00    -0.169 OA
BRANCH  51  54
ATOM     54  O   UNL     1      -8.217  -5.537  -4.957  1.00  0.00    -0.264 OA
ATOM     55  H   UNL     1      -8.866  -4.809  -5.045  1.00  0.00     0.236 HD
ENDBRANCH  51  54
ENDBRANCH  50  51
ENDBRANCH   8  50
TORSDOF 19
ENDMDL
MODEL 12
REMARK VINA RESULT:    -6.772      3.558      8.228
REMARK INTER + INTRA:         -17.950
REMARK INTER:                 -14.836
REMARK INTRA:                  -3.114
REMARK UNBOUND:                -4.249
REMARK SMILES CC[C@@H](C)[C@@H](NC(=O)[C@@H](O)Cc1ccc(O)c(Cl)c1)C(=O)N1[C@H](C(=O)NCCCCN=C(N)N)C[C@H]2CC[C@H](OS(=O)(=O)O)C[C@@H]21
REMARK SMILES IDX 22 1 36 2 46 3 35 4 23 5 45 6 37 7 39 8 38 9 20 10 21 11
REMARK SMILES IDX 5 12 6 13 7 14 8 15 9 17 11 18 12 19 17 20 19 21 15 22 14 23
REMARK SMILES IDX 13 24 18 25 16 26 10 28 3 30 4 31 2 32 1 33 24 34 25 35
REMARK SMILES IDX 26 36 27 38 28 39 29 40 30 41 31 42 32 43 33 44 34 45 40 50
REMARK SMILES IDX 41 51 42 52 43 53 44 54
REMARK H PARENT 6 16 16 27 10 29 26 37 33 46 33 47 34 48 34 49 44 55
ROOT
ATOM      1  N   UNL     1      -2.044  -6.946  -3.649  1.00  0.00    -0.326 N 
ATOM      2  C   UNL     1      -3.660  -6.110  -2.154  1.00  0.00     0.014 C 
ATOM      3  C   UNL     1      -3.083  -7.409  -2.724  1.00  0.00     0.091 C 
ATOM      4  C   UNL     1      -3.572  -5.157  -3.336  1.00  0.00     0.041 C 
ATOM      5  C   UNL     1      -2.152  -5.478  -3.839  1.00  0.00     0.175 C 
ATOM      6  C   UNL     1      -2.667  -8.305  -1.559  1.00  0.00     0.059 C 
ATOM      7  C   UNL     1      -5.003  -6.357  -1.496  1.00  0.00     0.008 C 
ATOM      8  C   UNL     1      -3.544  -8.135  -0.300  1.00  0.00     0.143 C 
ATOM      9  C   UNL     1      -4.965  -7.644  -0.646  1.00  0.00     0.034 C 
ENDROOT
BRANCH   1  10
ATOM     10  C   UNL     1      -1.198  -7.672  -4.469  1.00  0.00     0.246 C 
ATOM     11  O   UNL     1      -0.014  -7.809  -4.140  1.00  0.00    -0.272 OA
BRANCH  10  12
ATOM     12  C   UNL     1      -1.761  -8.334  -5.759  1.00  0.00     0.174 C 
BRANCH  12  13
ATOM     13  N   UNL     1      -1.566  -7.444  -6.903  1.00  0.00    -0.342 N 
ATOM     14  C   UNL     1      -1.030  -7.819  -8.114  1.00  0.00     0.249 C 
ATOM     15  O   UNL     1      -0.678  -8.962  -8.380  1.00  0.00    -0.272 OA
ATOM     16  H   UNL     1      -1.664  -6.439  -6.781  1.00  0.00     0.164 HD
BRANCH  14  17
ATOM     17  C   UNL     1      -0.938  -6.646  -9.114  1.00  0.00     0.207 C 
BRANCH  17  18
ATOM     18  C   UNL     1      -1.574  -7.033 -10.453  1.00  0.00     0.077 C 
BRANCH  18  19
ATOM     19  C   UNL     1      -3.059  -7.284 -10.318  1.00  0.00    -0.043 A 
ATOM     20  C   UNL     1      -5.283  -6.493  -9.761  1.00  0.00     0.083 A 
ATOM     21  C   UNL     1      -3.921  -6.246  -9.933  1.00  0.00     0.028 A 
ATOM     22  C   UNL     1      -5.792  -7.775  -9.972  1.00  0.00     0.134 A 
ATOM     23  C   UNL     1      -4.950  -8.813 -10.354  1.00  0.00     0.048 A 
ATOM     24  C   UNL     1      -3.585  -8.569 -10.524  1.00  0.00     0.008 A 
ATOM     25  Cl  UNL     1      -6.326  -5.204  -9.287  1.00  0.00    -0.080 Cl
BRANCH  22  26
ATOM     26  O   UNL     1      -7.119  -8.068  -9.806  1.00  0.00    -0.506 OA
ATOM     27  H   UNL     1      -7.286  -8.076  -8.845  1.00  0.00     0.293 HD
ENDBRANCH  22  26
ENDBRANCH  18  19
ENDBRANCH  17  18
BRANCH  17  28
ATOM     28  O   UNL     1       0.428  -6.257  -9.330  1.00  0.00    -0.383 OA
ATOM     29  H   UNL     1       0.726  -5.835  -8.492  1.00  0.00     0.211 HD
ENDBRANCH  17  28
ENDBRANCH  14  17
ENDBRANCH  12  13
BRANCH  12  30
ATOM     30  C   UNL     1      -3.238  -8.786  -5.606  1.00  0.00     0.018 C 
ATOM     31  C   UNL     1      -3.355 -10.315  -5.705  1.00  0.00     0.010 C 
BRANCH  30  32
ATOM     32  C   UNL     1      -4.202  -8.113  -6.613  1.00  0.00     0.002 C 
ATOM     33  C   UNL     1      -5.192  -7.127  -6.006  1.00  0.00     0.004 C 
ENDBRANCH  30  32
ENDBRANCH  12  30
ENDBRANCH  10  12
ENDBRANCH   1  10
BRANCH   5  34
ATOM     34  C   UNL     1      -1.070  -4.735  -3.011  1.00  0.00     0.242 C 
ATOM     35  O   UNL     1      -0.325  -5.321  -2.226  1.00  0.00    -0.273 OA
ATOM     36  N   UNL     1      -1.042  -3.368  -3.176  1.00  0.00    -0.354 N 
ATOM     37  H   UNL     1      -1.763  -2.927  -3.748  1.00  0.00     0.163 HD
BRANCH  36  38
ATOM     38  C   UNL     1       0.032  -2.548  -2.653  1.00  0.00     0.116 C 
BRANCH  38  39
ATOM     39  C   UNL     1       1.011  -2.202  -3.772  1.00  0.00     0.023 C 
BRANCH  39  40
ATOM     40  C   UNL     1       2.294  -3.023  -3.698  1.00  0.00     0.026 C 
BRANCH  40  41
ATOM     41  C   UNL     1       3.489  -2.133  -3.358  1.00  0.00     0.146 C 
BRANCH  41  42
ATOM     42  N   UNL     1       3.517  -0.984  -4.254  1.00  0.00    -0.254 NA
ATOM     43  C   UNL     1       4.433  -0.897  -5.144  1.00  0.00     0.185 C 
ATOM     44  N   UNL     1       5.448  -1.734  -5.425  1.00  0.00    -0.370 N 
ATOM     45  N   UNL     1       4.444   0.172  -5.956  1.00  0.00    -0.370 N 
ATOM     46  H   UNL     1       6.228  -1.426  -5.981  1.00  0.00     0.159 HD
ATOM     47  H   UNL     1       5.581  -2.601  -4.915  1.00  0.00     0.159 HD
ATOM     48  H   UNL     1       3.707   0.849  -5.817  1.00  0.00     0.159 HD
ATOM     49  H   UNL     1       4.968   0.199  -6.813  1.00  0.00     0.159 HD
ENDBRANCH  41  42
ENDBRANCH  40  41
ENDBRANCH  39  40
ENDBRANCH  38  39
ENDBRANCH  36  38
ENDBRANCH   5  34
BRANCH   8  50
ATOM     50  O   UNL     1      -2.945  -7.195   0.592  1.00  0.00    -0.245 OA
BRANCH  50  51
ATOM     51  S   UNL     1      -3.156  -7.362   2.196  1.00  0.00     0.397 S 
ATOM     52  O   UNL     1      -2.513  -8.590   2.606  1.00  0.00    -0.169 OA
ATOM     53  O   UNL     1      -4.534  -7.075   2.537  1.00  0.00    -0.169 OA
BRANCH  51  54
ATOM     54  O   UNL     1      -2.243  -6.174   2.781  1.00  0.00    -0.264 OA
ATOM     55  H   UNL     1      -1.307  -6.420   2.638  1.00  0.00     0.236 HD
ENDBRANCH  51  54
ENDBRANCH  50  51
ENDBRANCH   8  50
TORSDOF 19
ENDMDL
MODEL 13
REMARK VINA RESULT:    -6.692      4.314      8.830
REMARK INTER + INTRA:         -17.787
REMARK INTER:                 -14.197
REMARK INTRA:                  -3.591
REMARK UNBOUND:                -4.249
REMARK SMILES CC[C@@H](C)[C@@H](NC(=O)[C@@H](O)Cc1ccc(O)c(Cl)c1)C(=O)N1[C@H](C(=O)NCCCCN=C(N)N)C[C@H]2CC[C@H](OS(=O)(=O)O)C[C@@H]21
REMARK SMILES IDX 22 1 36 2 46 3 35 4 23 5 45 6 37 7 39 8 38 9 20 10 21 11
REMARK SMILES IDX 5 12 6 13 7 14 8 15 9 17 11 18 12 19 17 20 19 21 15 22 14 23
REMARK SMILES IDX 13 24 18 25 16 26 10 28 3 30 4 31 2 32 1 33 24 34 25 35
REMARK SMILES IDX 26 36 27 38 28 39 29 40 30 41 31 42 32 43 33 44 34 45 40 50
REMARK SMILES IDX 41 51 42 52 43 53 44 54
REMARK H PARENT 6 16 16 27 10 29 26 37 33 46 33 47 34 48 34 49 44 55
ROOT
ATOM      1  N   UNL     1      -3.642  -8.638  -6.866  1.00  0.00    -0.326 N 
ATOM      2  C   UNL     1      -1.791  -8.737  -5.414  1.00  0.00     0.014 C 
ATOM      3  C   UNL     1      -2.617  -7.774  -6.273  1.00  0.00     0.091 C 
ATOM      4  C   UNL     1      -1.825 -10.023  -6.226  1.00  0.00     0.041 C 
ATOM      5  C   UNL     1      -3.315 -10.063  -6.611  1.00  0.00     0.175 C 
ATOM      6  C   UNL     1      -3.071  -6.611  -5.394  1.00  0.00     0.059 C 
ATOM      7  C   UNL     1      -0.454  -8.124  -5.047  1.00  0.00     0.008 C 
ATOM      8  C   UNL     1      -2.074  -6.254  -4.270  1.00  0.00     0.143 C 
ATOM      9  C   UNL     1      -0.627  -6.647  -4.634  1.00  0.00     0.034 C 
ENDROOT
BRANCH   1  10
ATOM     10  C   UNL     1      -4.662  -8.328  -7.750  1.00  0.00     0.246 C 
ATOM     11  O   UNL     1      -5.719  -8.966  -7.695  1.00  0.00    -0.272 OA
BRANCH  10  12
ATOM     12  C   UNL     1      -4.472  -7.159  -8.760  1.00  0.00     0.174 C 
BRANCH  12  13
ATOM     13  N   UNL     1      -5.767  -6.766  -9.316  1.00  0.00    -0.342 N 
ATOM     14  C   UNL     1      -6.652  -5.898  -8.718  1.00  0.00     0.249 C 
ATOM     15  O   UNL     1      -6.439  -5.330  -7.655  1.00  0.00    -0.272 OA
ATOM     16  H   UNL     1      -6.148  -7.273 -10.111  1.00  0.00     0.164 HD
BRANCH  14  17
ATOM     17  C   UNL     1      -7.940  -5.698  -9.546  1.00  0.00     0.207 C 
BRANCH  17  18
ATOM     18  C   UNL     1      -7.699  -6.073 -11.011  1.00  0.00     0.077 C 
BRANCH  18  19
ATOM     19  C   UNL     1      -8.660  -7.140 -11.485  1.00  0.00    -0.043 A 
ATOM     20  C   UNL     1     -10.791  -8.283 -11.297  1.00  0.00     0.083 A 
ATOM     21  C   UNL     1      -9.926  -7.267 -10.891  1.00  0.00     0.028 A 
ATOM     22  C   UNL     1     -10.399  -9.178 -12.293  1.00  0.00     0.134 A 
ATOM     23  C   UNL     1      -9.148  -9.064 -12.889  1.00  0.00     0.048 A 
ATOM     24  C   UNL     1      -8.279  -8.048 -12.484  1.00  0.00     0.008 A 
ATOM     25  Cl  UNL     1     -12.342  -8.423 -10.555  1.00  0.00    -0.080 Cl
BRANCH  22  26
ATOM     26  O   UNL     1     -11.208 -10.198 -12.715  1.00  0.00    -0.506 OA
ATOM     27  H   UNL     1     -10.994 -10.355 -13.654  1.00  0.00     0.293 HD
ENDBRANCH  22  26
ENDBRANCH  18  19
ENDBRANCH  17  18
BRANCH  17  28
ATOM     28  O   UNL     1      -8.398  -4.339  -9.470  1.00  0.00    -0.383 OA
ATOM     29  H   UNL     1      -9.119  -4.257 -10.135  1.00  0.00     0.211 HD
ENDBRANCH  17  28
ENDBRANCH  14  17
ENDBRANCH  12  13
BRANCH  12  30
ATOM     30  C   UNL     1      -3.427  -7.482  -9.861  1.00  0.00     0.018 C 
ATOM     31  C   UNL     1      -2.803  -6.192 -10.416  1.00  0.00     0.010 C 
BRANCH  30  32
ATOM     32  C   UNL     1      -3.990  -8.341 -11.020  1.00  0.00     0.002 C 
ATOM     33  C   UNL     1      -3.051  -9.417 -11.548  1.00  0.00     0.004 C 
ENDBRANCH  30  32
ENDBRANCH  12  30
ENDBRANCH  10  12
ENDBRANCH   1  10
BRANCH   5  34
ATOM     34  C   UNL     1      -4.188 -10.630  -5.460  1.00  0.00     0.242 C 
ATOM     35  O   UNL     1      -4.084 -11.791  -5.066  1.00  0.00    -0.273 OA
ATOM     36  N   UNL     1      -5.122  -9.757  -4.949  1.00  0.00    -0.354 N 
ATOM     37  H   UNL     1      -5.242  -8.847  -5.397  1.00  0.00     0.163 HD
BRANCH  36  38
ATOM     38  C   UNL     1      -5.866 -10.042  -3.739  1.00  0.00     0.116 C 
BRANCH  38  39
ATOM     39  C   UNL     1      -5.587  -8.965  -2.693  1.00  0.00     0.023 C 
BRANCH  39  40
ATOM     40  C   UNL     1      -6.699  -7.924  -2.617  1.00  0.00     0.026 C 
BRANCH  40  41
ATOM     41  C   UNL     1      -6.115  -6.517  -2.482  1.00  0.00     0.146 C 
BRANCH  41  42
ATOM     42  N   UNL     1      -6.250  -5.806  -3.746  1.00  0.00    -0.254 NA
ATOM     43  C   UNL     1      -5.643  -4.691  -3.913  1.00  0.00     0.185 C 
ATOM     44  N   UNL     1      -4.844  -4.007  -3.074  1.00  0.00    -0.370 N 
ATOM     45  N   UNL     1      -5.783  -4.048  -5.084  1.00  0.00    -0.370 N 
ATOM     46  H   UNL     1      -4.636  -3.037  -3.241  1.00  0.00     0.159 HD
ATOM     47  H   UNL     1      -4.620  -4.357  -2.147  1.00  0.00     0.159 HD
ATOM     48  H   UNL     1      -6.364  -4.501  -5.777  1.00  0.00     0.159 HD
ATOM     49  H   UNL     1      -5.168  -3.311  -5.377  1.00  0.00     0.159 HD
ENDBRANCH  41  42
ENDBRANCH  40  41
ENDBRANCH  39  40
ENDBRANCH  38  39
ENDBRANCH  36  38
ENDBRANCH   5  34
BRANCH   8  50
ATOM     50  O   UNL     1      -2.435  -6.925  -3.063  1.00  0.00    -0.245 OA
BRANCH  50  51
ATOM     51  S   UNL     1      -2.288  -6.151  -1.640  1.00  0.00     0.397 S 
ATOM     52  O   UNL     1      -3.107  -6.842  -0.669  1.00  0.00    -0.169 OA
ATOM     53  O   UNL     1      -2.401  -4.722  -1.849  1.00  0.00    -0.169 OA
BRANCH  51  54
ATOM     54  O   UNL     1      -0.765  -6.475  -1.237  1.00  0.00    -0.264 OA
ATOM     55  H   UNL     1      -0.742  -7.378  -0.862  1.00  0.00     0.236 HD
ENDBRANCH  51  54
ENDBRANCH  50  51
ENDBRANCH   8  50
TORSDOF 19
ENDMDL
MODEL 14
REMARK VINA RESULT:    -6.663      3.989      6.641
REMARK INTER + INTRA:         -17.729
REMARK INTER:                 -14.557
REMARK INTRA:                  -3.171
REMARK UNBOUND:                -4.249
REMARK SMILES CC[C@@H](C)[C@@H](NC(=O)[C@@H](O)Cc1ccc(O)c(Cl)c1)C(=O)N1[C@H](C(=O)NCCCCN=C(N)N)C[C@H]2CC[C@H](OS(=O)(=O)O)C[C@@H]21
REMARK SMILES IDX 22 1 36 2 46 3 35 4 23 5 45 6 37 7 39 8 38 9 20 10 21 11
REMARK SMILES IDX 5 12 6 13 7 14 8 15 9 17 11 18 12 19 17 20 19 21 15 22 14 23
REMARK SMILES IDX 13 24 18 25 16 26 10 28 3 30 4 31 2 32 1 33 24 34 25 35
REMARK SMILES IDX 26 36 27 38 28 39 29 40 30 41 31 42 32 43 33 44 34 45 40 50
REMARK SMILES IDX 41 51 42 52 43 53 44 54
REMARK H PARENT 6 16 16 27 10 29 26 37 33 46 33 47 34 48 34 49 44 55
ROOT
ATOM      1  N   UNL     1      -4.974  -8.859  -1.453  1.00  0.00    -0.326 N 
ATOM      2  C   UNL     1      -6.416  -9.313  -3.258  1.00  0.00     0.014 C 
ATOM      3  C   UNL     1      -6.387  -9.129  -1.738  1.00  0.00     0.091 C 
ATOM      4  C   UNL     1      -5.079  -9.980  -3.541  1.00  0.00     0.041 C 
ATOM      5  C   UNL     1      -4.154  -9.119  -2.661  1.00  0.00     0.175 C 
ATOM      6  C   UNL     1      -7.418  -8.069  -1.359  1.00  0.00     0.059 C 
ATOM      7  C   UNL     1      -7.696  -9.997  -3.697  1.00  0.00     0.008 C 
ATOM      8  C   UNL     1      -8.650  -8.040  -2.290  1.00  0.00     0.143 C 
ATOM      9  C   UNL     1      -8.911  -9.410  -2.948  1.00  0.00     0.034 C 
ENDROOT
BRANCH   1  10
ATOM     10  C   UNL     1      -4.341  -8.629  -0.244  1.00  0.00     0.246 C 
ATOM     11  O   UNL     1      -3.293  -9.232   0.010  1.00  0.00    -0.272 OA
BRANCH  10  12
ATOM     12  C   UNL     1      -4.937  -7.590   0.749  1.00  0.00     0.174 C 
BRANCH  12  13
ATOM     13  N   UNL     1      -4.212  -6.324   0.640  1.00  0.00    -0.342 N 
ATOM     14  C   UNL     1      -3.022  -6.038   1.271  1.00  0.00     0.249 C 
ATOM     15  O   UNL     1      -2.418  -6.833   1.980  1.00  0.00    -0.272 OA
ATOM     16  H   UNL     1      -4.666  -5.519   0.216  1.00  0.00     0.164 HD
BRANCH  14  17
ATOM     17  C   UNL     1      -2.518  -4.610   0.972  1.00  0.00     0.207 C 
BRANCH  17  18
ATOM     18  C   UNL     1      -1.011  -4.621   0.694  1.00  0.00     0.077 C 
BRANCH  18  19
ATOM     19  C   UNL     1      -0.670  -3.896  -0.588  1.00  0.00    -0.043 A 
ATOM     20  C   UNL     1      -0.903  -1.965  -2.038  1.00  0.00     0.083 A 
ATOM     21  C   UNL     1      -1.179  -2.611  -0.832  1.00  0.00     0.028 A 
ATOM     22  C   UNL     1      -0.121  -2.597  -3.006  1.00  0.00     0.134 A 
ATOM     23  C   UNL     1       0.388  -3.870  -2.777  1.00  0.00     0.048 A 
ATOM     24  C   UNL     1       0.112  -4.520  -1.572  1.00  0.00     0.008 A 
ATOM     25  Cl  UNL     1      -1.536  -0.386  -2.319  1.00  0.00    -0.080 Cl
BRANCH  22  26
ATOM     26  O   UNL     1       0.167  -2.008  -4.207  1.00  0.00    -0.506 OA
ATOM     27  H   UNL     1       0.791  -2.600  -4.666  1.00  0.00     0.293 HD
ENDBRANCH  22  26
ENDBRANCH  18  19
ENDBRANCH  17  18
BRANCH  17  28
ATOM     28  O   UNL     1      -2.794  -3.723   2.068  1.00  0.00    -0.383 OA
ATOM     29  H   UNL     1      -3.639  -4.036   2.465  1.00  0.00     0.211 HD
ENDBRANCH  17  28
ENDBRANCH  14  17
ENDBRANCH  12  13
BRANCH  12  30
ATOM     30  C   UNL     1      -4.992  -8.117   2.208  1.00  0.00     0.018 C 
ATOM     31  C   UNL     1      -5.645  -9.507   2.263  1.00  0.00     0.010 C 
BRANCH  30  32
ATOM     32  C   UNL     1      -5.706  -7.155   3.190  1.00  0.00     0.002 C 
ATOM     33  C   UNL     1      -7.179  -6.903   2.898  1.00  0.00     0.004 C 
ENDBRANCH  30  32
ENDBRANCH  12  30
ENDBRANCH  10  12
ENDBRANCH   1  10
BRANCH   5  34
ATOM     34  C   UNL     1      -3.771  -7.790  -3.364  1.00  0.00     0.242 C 
ATOM     35  O   UNL     1      -4.010  -6.690  -2.866  1.00  0.00    -0.273 OA
ATOM     36  N   UNL     1      -3.194  -7.929  -4.607  1.00  0.00    -0.354 N 
ATOM     37  H   UNL     1      -3.131  -8.861  -5.018  1.00  0.00     0.163 HD
BRANCH  36  38
ATOM     38  C   UNL     1      -2.583  -6.817  -5.304  1.00  0.00     0.116 C 
BRANCH  38  39
ATOM     39  C   UNL     1      -2.782  -6.977  -6.810  1.00  0.00     0.023 C 
BRANCH  39  40
ATOM     40  C   UNL     1      -4.252  -7.114  -7.191  1.00  0.00     0.026 C 
BRANCH  40  41
ATOM     41  C   UNL     1      -5.000  -5.803  -6.949  1.00  0.00     0.146 C 
BRANCH  41  42
ATOM     42  N   UNL     1      -5.535  -5.785  -5.594  1.00  0.00    -0.254 NA
ATOM     43  C   UNL     1      -5.919  -4.677  -5.080  1.00  0.00     0.185 C 
ATOM     44  N   UNL     1      -5.920  -3.436  -5.600  1.00  0.00    -0.370 N 
ATOM     45  N   UNL     1      -6.406  -4.681  -3.828  1.00  0.00    -0.370 N 
ATOM     46  H   UNL     1      -6.018  -2.631  -5.005  1.00  0.00     0.159 HD
ATOM     47  H   UNL     1      -5.596  -3.254  -6.545  1.00  0.00     0.159 HD
ATOM     48  H   UNL     1      -6.448  -5.579  -3.367  1.00  0.00     0.159 HD
ATOM     49  H   UNL     1      -6.937  -3.917  -3.449  1.00  0.00     0.159 HD
ENDBRANCH  41  42
ENDBRANCH  40  41
ENDBRANCH  39  40
ENDBRANCH  38  39
ENDBRANCH  36  38
ENDBRANCH   5  34
BRANCH   8  50
ATOM     50  O   UNL     1      -8.463  -7.069  -3.320  1.00  0.00    -0.245 OA
BRANCH  50  51
ATOM     51  S   UNL     1      -9.525  -5.847  -3.475  1.00  0.00     0.397 S 
ATOM     52  O   UNL     1      -9.035  -4.729  -2.700  1.00  0.00    -0.169 OA
ATOM     53  O   UNL     1     -10.873  -6.351  -3.312  1.00  0.00    -0.169 OA
BRANCH  51  54
ATOM     54  O   UNL     1      -9.335  -5.430  -5.016  1.00  0.00    -0.264 OA
ATOM     55  H   UNL     1      -8.948  -6.196  -5.487  1.00  0.00     0.236 HD
ENDBRANCH  51  54
ENDBRANCH  50  51
ENDBRANCH   8  50
TORSDOF 19
ENDMDL
MODEL 15
REMARK VINA RESULT:    -6.570      2.523      4.798
REMARK INTER + INTRA:         -17.540
REMARK INTER:                 -14.924
REMARK INTRA:                  -2.616
REMARK UNBOUND:                -4.249
REMARK SMILES CC[C@@H](C)[C@@H](NC(=O)[C@@H](O)Cc1ccc(O)c(Cl)c1)C(=O)N1[C@H](C(=O)NCCCCN=C(N)N)C[C@H]2CC[C@H](OS(=O)(=O)O)C[C@@H]21
REMARK SMILES IDX 22 1 36 2 46 3 35 4 23 5 45 6 37 7 39 8 38 9 20 10 21 11
REMARK SMILES IDX 5 12 6 13 7 14 8 15 9 17 11 18 12 19 17 20 19 21 15 22 14 23
REMARK SMILES IDX 13 24 18 25 16 26 10 28 3 30 4 31 2 32 1 33 24 34 25 35
REMARK SMILES IDX 26 36 27 38 28 39 29 40 30 41 31 42 32 43 33 44 34 45 40 50
REMARK SMILES IDX 41 51 42 52 43 53 44 54
REMARK H PARENT 6 16 16 27 10 29 26 37 33 46 33 47 34 48 34 49 44 55
ROOT
ATOM      1  N   UNL     1      -2.605  -7.112  -2.960  1.00  0.00    -0.326 N 
ATOM      2  C   UNL     1      -4.841  -7.701  -3.404  1.00  0.00     0.014 C 
ATOM      3  C   UNL     1      -3.973  -6.657  -2.695  1.00  0.00     0.091 C 
ATOM      4  C   UNL     1      -4.042  -8.982  -3.220  1.00  0.00     0.041 C 
ATOM      5  C   UNL     1      -2.629  -8.472  -3.554  1.00  0.00     0.175 C 
ATOM      6  C   UNL     1      -4.384  -5.271  -3.188  1.00  0.00     0.059 C 
ATOM      7  C   UNL     1      -6.273  -7.640  -2.911  1.00  0.00     0.008 C 
ATOM      8  C   UNL     1      -5.879  -5.161  -3.558  1.00  0.00     0.143 C 
ATOM      9  C   UNL     1      -6.744  -6.175  -2.783  1.00  0.00     0.034 C 
ENDROOT
BRANCH   1  10
ATOM     10  C   UNL     1      -1.396  -6.575  -2.553  1.00  0.00     0.246 C 
ATOM     11  O   UNL     1      -0.673  -7.228  -1.792  1.00  0.00    -0.272 OA
BRANCH  10  12
ATOM     12  C   UNL     1      -0.955  -5.184  -3.093  1.00  0.00     0.174 C 
BRANCH  12  13
ATOM     13  N   UNL     1       0.480  -5.192  -3.379  1.00  0.00    -0.342 N 
ATOM     14  C   UNL     1       1.063  -5.787  -4.475  1.00  0.00     0.249 C 
ATOM     15  O   UNL     1       0.434  -6.358  -5.357  1.00  0.00    -0.272 OA
ATOM     16  H   UNL     1       1.138  -4.896  -2.663  1.00  0.00     0.164 HD
BRANCH  14  17
ATOM     17  C   UNL     1       2.600  -5.638  -4.485  1.00  0.00     0.207 C 
BRANCH  17  18
ATOM     18  C   UNL     1       3.069  -5.024  -5.808  1.00  0.00     0.077 C 
BRANCH  18  19
ATOM     19  C   UNL     1       3.444  -3.568  -5.650  1.00  0.00    -0.043 A 
ATOM     20  C   UNL     1       3.072  -1.401  -4.626  1.00  0.00     0.083 A 
ATOM     21  C   UNL     1       2.757  -2.756  -4.734  1.00  0.00     0.028 A 
ATOM     22  C   UNL     1       4.069  -0.849  -5.430  1.00  0.00     0.134 A 
ATOM     23  C   UNL     1       4.757  -1.642  -6.342  1.00  0.00     0.048 A 
ATOM     24  C   UNL     1       4.443  -2.998  -6.454  1.00  0.00     0.008 A 
ATOM     25  Cl  UNL     1       2.217  -0.419  -3.495  1.00  0.00    -0.080 Cl
BRANCH  22  26
ATOM     26  O   UNL     1       4.405   0.476  -5.368  1.00  0.00    -0.506 OA
ATOM     27  H   UNL     1       4.779   0.712  -6.237  1.00  0.00     0.293 HD
ENDBRANCH  22  26
ENDBRANCH  18  19
ENDBRANCH  17  18
BRANCH  17  28
ATOM     28  O   UNL     1       3.243  -6.908  -4.294  1.00  0.00    -0.383 OA
ATOM     29  H   UNL     1       2.520  -7.573  -4.234  1.00  0.00     0.211 HD
ENDBRANCH  17  28
ENDBRANCH  14  17
ENDBRANCH  12  13
BRANCH  12  30
ATOM     30  C   UNL     1      -1.364  -4.018  -2.153  1.00  0.00     0.018 C 
ATOM     31  C   UNL     1      -0.776  -2.686  -2.646  1.00  0.00     0.010 C 
BRANCH  30  32
ATOM     32  C   UNL     1      -0.984  -4.251  -0.670  1.00  0.00     0.002 C 
ATOM     33  C   UNL     1      -2.158  -4.360   0.294  1.00  0.00     0.004 C 
ENDBRANCH  30  32
ENDBRANCH  12  30
ENDBRANCH  10  12
ENDBRANCH   1  10
BRANCH   5  34
ATOM     34  C   UNL     1      -2.391  -8.407  -5.086  1.00  0.00     0.242 C 
ATOM     35  O   UNL     1      -1.999  -9.377  -5.733  1.00  0.00    -0.273 OA
ATOM     36  N   UNL     1      -2.600  -7.172  -5.659  1.00  0.00    -0.354 N 
ATOM     37  H   UNL     1      -2.808  -6.378  -5.053  1.00  0.00     0.163 HD
BRANCH  36  38
ATOM     38  C   UNL     1      -2.636  -6.982  -7.095  1.00  0.00     0.116 C 
BRANCH  38  39
ATOM     39  C   UNL     1      -4.078  -6.789  -7.556  1.00  0.00     0.023 C 
BRANCH  39  40
ATOM     40  C   UNL     1      -4.548  -7.907  -8.482  1.00  0.00     0.026 C 
BRANCH  40  41
ATOM     41  C   UNL     1      -5.328  -7.337  -9.667  1.00  0.00     0.146 C 
BRANCH  41  42
ATOM     42  N   UNL     1      -6.732  -7.188  -9.305  1.00  0.00    -0.254 NA
ATOM     43  C   UNL     1      -7.459  -6.337  -9.927  1.00  0.00     0.185 C 
ATOM     44  N   UNL     1      -7.141  -5.495 -10.927  1.00  0.00    -0.370 N 
ATOM     45  N   UNL     1      -8.749  -6.212  -9.576  1.00  0.00    -0.370 N 
ATOM     46  H   UNL     1      -7.739  -4.718 -11.152  1.00  0.00     0.159 HD
ATOM     47  H   UNL     1      -6.208  -5.468 -11.325  1.00  0.00     0.159 HD
ATOM     48  H   UNL     1      -9.073  -6.817  -8.834  1.00  0.00     0.159 HD
ATOM     49  H   UNL     1      -9.429  -5.754 -10.157  1.00  0.00     0.159 HD
ENDBRANCH  41  42
ENDBRANCH  40  41
ENDBRANCH  39  40
ENDBRANCH  38  39
ENDBRANCH  36  38
ENDBRANCH   5  34
BRANCH   8  50
ATOM     50  O   UNL     1      -6.055  -5.389  -4.957  1.00  0.00    -0.245 OA
BRANCH  50  51
ATOM     51  S   UNL     1      -6.937  -4.343  -5.836  1.00  0.00     0.397 S 
ATOM     52  O   UNL     1      -8.187  -4.121  -5.145  1.00  0.00    -0.169 OA
ATOM     53  O   UNL     1      -6.898  -4.727  -7.232  1.00  0.00    -0.169 OA
BRANCH  51  54
ATOM     54  O   UNL     1      -6.099  -2.980  -5.674  1.00  0.00    -0.264 OA
ATOM     55  H   UNL     1      -5.241  -3.101  -6.129  1.00  0.00     0.236 HD
ENDBRANCH  51  54
ENDBRANCH  50  51
ENDBRANCH   8  50
TORSDOF 19
ENDMDL
MODEL 16
REMARK VINA RESULT:    -6.536      3.577      6.821
REMARK INTER + INTRA:         -17.471
REMARK INTER:                 -14.189
REMARK INTRA:                  -3.282
REMARK UNBOUND:                -4.249
REMARK SMILES CC[C@@H](C)[C@@H](NC(=O)[C@@H](O)Cc1ccc(O)c(Cl)c1)C(=O)N1[C@H](C(=O)NCCCCN=C(N)N)C[C@H]2CC[C@H](OS(=O)(=O)O)C[C@@H]21
REMARK SMILES IDX 22 1 36 2 46 3 35 4 23 5 45 6 37 7 39 8 38 9 20 10 21 11
REMARK SMILES IDX 5 12 6 13 7 14 8 15 9 17 11 18 12 19 17 20 19 21 15 22 14 23
REMARK SMILES IDX 13 24 18 25 16 26 10 28 3 30 4 31 2 32 1 33 24 34 25 35
REMARK SMILES IDX 26 36 27 38 28 39 29 40 30 41 31 42 32 43 33 44 34 45 40 50
REMARK SMILES IDX 41 51 42 52 43 53 44 54
REMARK H PARENT 6 16 16 27 10 29 26 37 33 46 33 47 34 48 34 49 44 55
ROOT
ATOM      1  N   UNL     1      -3.939  -7.889  -1.674  1.00  0.00    -0.326 N 
ATOM      2  C   UNL     1      -5.980  -8.314  -2.767  1.00  0.00     0.014 C 
ATOM      3  C   UNL     1      -5.261  -7.292  -1.881  1.00  0.00     0.091 C 
ATOM      4  C   UNL     1      -5.426  -9.639  -2.266  1.00  0.00     0.041 C 
ATOM      5  C   UNL     1      -3.930  -9.289  -2.166  1.00  0.00     0.175 C 
ATOM      6  C   UNL     1      -5.341  -5.925  -2.558  1.00  0.00     0.059 C 
ATOM      7  C   UNL     1      -7.478  -8.082  -2.755  1.00  0.00     0.008 C 
ATOM      8  C   UNL     1      -6.627  -5.717  -3.387  1.00  0.00     0.143 C 
ATOM      9  C   UNL     1      -7.797  -6.577  -2.868  1.00  0.00     0.034 C 
ENDROOT
BRANCH   1  10
ATOM     10  C   UNL     1      -2.861  -7.426  -0.938  1.00  0.00     0.246 C 
ATOM     11  O   UNL     1      -1.870  -8.151  -0.803  1.00  0.00    -0.272 OA
BRANCH  10  12
ATOM     12  C   UNL     1      -2.904  -5.992  -0.334  1.00  0.00     0.174 C 
BRANCH  12  13
ATOM     13  N   UNL     1      -1.706  -5.250  -0.726  1.00  0.00    -0.342 N 
ATOM     14  C   UNL     1      -1.571  -4.525  -1.888  1.00  0.00     0.249 C 
ATOM     15  O   UNL     1      -2.461  -4.396  -2.719  1.00  0.00    -0.272 OA
ATOM     16  H   UNL     1      -0.838  -5.391  -0.216  1.00  0.00     0.164 HD
BRANCH  14  17
ATOM     17  C   UNL     1      -0.180  -3.869  -2.022  1.00  0.00     0.207 C 
BRANCH  17  18
ATOM     18  C   UNL     1       0.035  -3.357  -3.450  1.00  0.00     0.077 C 
BRANCH  18  19
ATOM     19  C   UNL     1       1.465  -2.924  -3.682  1.00  0.00    -0.043 A 
ATOM     20  C   UNL     1       3.610  -3.246  -4.769  1.00  0.00     0.083 A 
ATOM     21  C   UNL     1       2.276  -3.618  -4.593  1.00  0.00     0.028 A 
ATOM     22  C   UNL     1       4.141  -2.184  -4.037  1.00  0.00     0.134 A 
ATOM     23  C   UNL     1       3.349  -1.488  -3.131  1.00  0.00     0.048 A 
ATOM     24  C   UNL     1       2.014  -1.858  -2.952  1.00  0.00     0.008 A 
ATOM     25  Cl  UNL     1       4.591  -4.112  -5.893  1.00  0.00    -0.080 Cl
BRANCH  22  26
ATOM     26  O   UNL     1       5.445  -1.790  -4.167  1.00  0.00    -0.506 OA
ATOM     27  H   UNL     1       5.789  -1.658  -3.264  1.00  0.00     0.293 HD
ENDBRANCH  22  26
ENDBRANCH  18  19
ENDBRANCH  17  18
BRANCH  17  28
ATOM     28  O   UNL     1       0.864  -4.798  -1.687  1.00  0.00    -0.383 OA
ATOM     29  H   UNL     1       0.441  -5.494  -1.134  1.00  0.00     0.211 HD
ENDBRANCH  17  28
ENDBRANCH  14  17
ENDBRANCH  12  13
BRANCH  12  30
ATOM     30  C   UNL     1      -3.123  -5.995   1.203  1.00  0.00     0.018 C 
ATOM     31  C   UNL     1      -4.606  -6.212   1.543  1.00  0.00     0.010 C 
BRANCH  30  32
ATOM     32  C   UNL     1      -2.597  -4.721   1.908  1.00  0.00     0.002 C 
ATOM     33  C   UNL     1      -1.967  -4.947   3.275  1.00  0.00     0.004 C 
ENDBRANCH  30  32
ENDBRANCH  12  30
ENDBRANCH  10  12
ENDBRANCH   1  10
BRANCH   5  34
ATOM     34  C   UNL     1      -3.227  -9.383  -3.547  1.00  0.00     0.242 C 
ATOM     35  O   UNL     1      -3.343 -10.366  -4.278  1.00  0.00    -0.273 OA
ATOM     36  N   UNL     1      -2.423  -8.313  -3.868  1.00  0.00    -0.354 N 
ATOM     37  H   UNL     1      -2.272  -7.584  -3.169  1.00  0.00     0.163 HD
BRANCH  36  38
ATOM     38  C   UNL     1      -1.867  -8.134  -5.193  1.00  0.00     0.116 C 
BRANCH  38  39
ATOM     39  C   UNL     1      -0.691  -7.162  -5.136  1.00  0.00     0.023 C 
BRANCH  39  40
ATOM     40  C   UNL     1       0.167  -7.358  -3.890  1.00  0.00     0.026 C 
BRANCH  40  41
ATOM     41  C   UNL     1       1.631  -7.581  -4.270  1.00  0.00     0.146 C 
BRANCH  41  42
ATOM     42  N   UNL     1       2.494  -6.844  -3.356  1.00  0.00    -0.254 NA
ATOM     43  C   UNL     1       3.760  -6.844  -3.544  1.00  0.00     0.185 C 
ATOM     44  N   UNL     1       4.494  -7.442  -4.500  1.00  0.00    -0.370 N 
ATOM     45  N   UNL     1       4.539  -6.162  -2.688  1.00  0.00    -0.370 N 
ATOM     46  H   UNL     1       5.486  -7.560  -4.387  1.00  0.00     0.159 HD
ATOM     47  H   UNL     1       4.062  -7.989  -5.239  1.00  0.00     0.159 HD
ATOM     48  H   UNL     1       4.064  -5.674  -1.941  1.00  0.00     0.159 HD
ATOM     49  H   UNL     1       5.491  -5.918  -2.895  1.00  0.00     0.159 HD
ENDBRANCH  41  42
ENDBRANCH  40  41
ENDBRANCH  39  40
ENDBRANCH  38  39
ENDBRANCH  36  38
ENDBRANCH   5  34
BRANCH   8  50
ATOM     50  O   UNL     1      -6.389  -6.053  -4.754  1.00  0.00    -0.245 OA
BRANCH  50  51
ATOM     51  S   UNL     1      -6.580  -4.920  -5.905  1.00  0.00     0.397 S 
ATOM     52  O   UNL     1      -5.983  -5.416  -7.124  1.00  0.00    -0.169 OA
ATOM     53  O   UNL     1      -6.241  -3.619  -5.367  1.00  0.00    -0.169 OA
BRANCH  51  54
ATOM     54  O   UNL     1      -8.169  -4.956  -6.150  1.00  0.00    -0.264 OA
ATOM     55  H   UNL     1      -8.583  -4.336  -5.515  1.00  0.00     0.236 HD
ENDBRANCH  51  54
ENDBRANCH  50  51
ENDBRANCH   8  50
TORSDOF 19
ENDMDL
MODEL 17
REMARK VINA RESULT:    -6.485      2.731      3.659
REMARK INTER + INTRA:         -17.367
REMARK INTER:                 -14.315
REMARK INTRA:                  -3.052
REMARK UNBOUND:                -4.249
REMARK SMILES CC[C@@H](C)[C@@H](NC(=O)[C@@H](O)Cc1ccc(O)c(Cl)c1)C(=O)N1[C@H](C(=O)NCCCCN=C(N)N)C[C@H]2CC[C@H](OS(=O)(=O)O)C[C@@H]21
REMARK SMILES IDX 22 1 36 2 46 3 35 4 23 5 45 6 37 7 39 8 38 9 20 10 21 11
REMARK SMILES IDX 5 12 6 13 7 14 8 15 9 17 11 18 12 19 17 20 19 21 15 22 14 23
REMARK SMILES IDX 13 24 18 25 16 26 10 28 3 30 4 31 2 32 1 33 24 34 25 35
REMARK SMILES IDX 26 36 27 38 28 39 29 40 30 41 31 42 32 43 33 44 34 45 40 50
REMARK SMILES IDX 41 51 42 52 43 53 44 54
REMARK H PARENT 6 16 16 27 10 29 26 37 33 46 33 47 34 48 34 49 44 55
ROOT
ATOM      1  N   UNL     1      -1.527  -7.917  -6.712  1.00  0.00    -0.326 N 
ATOM      2  C   UNL     1      -3.559  -8.596  -5.737  1.00  0.00     0.014 C 
ATOM      3  C   UNL     1      -2.273  -7.814  -5.455  1.00  0.00     0.091 C 
ATOM      4  C   UNL     1      -3.079  -9.710  -6.655  1.00  0.00     0.041 C 
ATOM      5  C   UNL     1      -2.174  -8.906  -7.608  1.00  0.00     0.175 C 
ATOM      6  C   UNL     1      -2.654  -6.424  -4.950  1.00  0.00     0.059 C 
ATOM      7  C   UNL     1      -4.272  -8.952  -4.447  1.00  0.00     0.008 C 
ATOM      8  C   UNL     1      -3.973  -6.394  -4.147  1.00  0.00     0.143 C 
ATOM      9  C   UNL     1      -4.274  -7.751  -3.478  1.00  0.00     0.034 C 
ENDROOT
BRANCH   1  10
ATOM     10  C   UNL     1      -0.279  -7.419  -7.047  1.00  0.00     0.246 C 
ATOM     11  O   UNL     1      -0.130  -6.853  -8.135  1.00  0.00    -0.272 OA
BRANCH  10  12
ATOM     12  C   UNL     1       0.894  -7.543  -6.032  1.00  0.00     0.174 C 
BRANCH  12  13
ATOM     13  N   UNL     1       0.962  -6.343  -5.199  1.00  0.00    -0.342 N 
ATOM     14  C   UNL     1       0.933  -6.334  -3.822  1.00  0.00     0.249 C 
ATOM     15  O   UNL     1       0.875  -7.346  -3.135  1.00  0.00    -0.272 OA
ATOM     16  H   UNL     1       0.856  -5.426  -5.626  1.00  0.00     0.164 HD
BRANCH  14  17
ATOM     17  C   UNL     1       1.004  -4.908  -3.234  1.00  0.00     0.207 C 
BRANCH  17  18
ATOM     18  C   UNL     1       2.462  -4.487  -3.026  1.00  0.00     0.077 C 
BRANCH  18  19
ATOM     19  C   UNL     1       2.861  -3.363  -3.955  1.00  0.00    -0.043 A 
ATOM     20  C   UNL     1       4.186  -2.541  -5.813  1.00  0.00     0.083 A 
ATOM     21  C   UNL     1       3.783  -3.592  -4.988  1.00  0.00     0.028 A 
ATOM     22  C   UNL     1       3.674  -1.259  -5.612  1.00  0.00     0.134 A 
ATOM     23  C   UNL     1       2.760  -1.019  -4.593  1.00  0.00     0.048 A 
ATOM     24  C   UNL     1       2.356  -2.068  -3.764  1.00  0.00     0.008 A 
ATOM     25  Cl  UNL     1       5.321  -2.842  -7.077  1.00  0.00    -0.080 Cl
BRANCH  22  26
ATOM     26  O   UNL     1       4.047  -0.196  -6.389  1.00  0.00    -0.506 OA
ATOM     27  H   UNL     1       3.225   0.218  -6.712  1.00  0.00     0.293 HD
ENDBRANCH  22  26
ENDBRANCH  18  19
ENDBRANCH  17  18
BRANCH  17  28
ATOM     28  O   UNL     1       0.301  -4.829  -1.984  1.00  0.00    -0.383 OA
ATOM     29  H   UNL     1       0.182  -3.870  -1.799  1.00  0.00     0.211 HD
ENDBRANCH  17  28
ENDBRANCH  14  17
ENDBRANCH  12  13
BRANCH  12  30
ATOM     30  C   UNL     1       2.249  -7.865  -6.717  1.00  0.00     0.018 C 
ATOM     31  C   UNL     1       3.041  -8.900  -5.903  1.00  0.00     0.010 C 
BRANCH  30  32
ATOM     32  C   UNL     1       3.124  -6.616  -6.984  1.00  0.00     0.002 C 
ATOM     33  C   UNL     1       4.611  -6.791  -6.705  1.00  0.00     0.004 C 
ENDBRANCH  30  32
ENDBRANCH  12  30
ENDBRANCH  10  12
ENDBRANCH   1  10
BRANCH   5  34
ATOM     34  C   UNL     1      -2.998  -8.192  -8.712  1.00  0.00     0.242 C 
ATOM     35  O   UNL     1      -3.451  -8.792  -9.687  1.00  0.00    -0.273 OA
ATOM     36  N   UNL     1      -3.139  -6.832  -8.551  1.00  0.00    -0.354 N 
ATOM     37  H   UNL     1      -2.640  -6.374  -7.787  1.00  0.00     0.163 HD
BRANCH  36  38
ATOM     38  C   UNL     1      -4.049  -6.048  -9.360  1.00  0.00     0.116 C 
BRANCH  38  39
ATOM     39  C   UNL     1      -5.361  -5.838  -8.609  1.00  0.00     0.023 C 
BRANCH  39  40
ATOM     40  C   UNL     1      -6.472  -6.756  -9.109  1.00  0.00     0.026 C 
BRANCH  40  41
ATOM     41  C   UNL     1      -6.842  -6.422 -10.554  1.00  0.00     0.146 C 
BRANCH  41  42
ATOM     42  N   UNL     1      -8.291  -6.423 -10.704  1.00  0.00    -0.254 NA
ATOM     43  C   UNL     1      -8.928  -5.312 -10.703  1.00  0.00     0.185 C 
ATOM     44  N   UNL     1      -8.472  -4.053 -10.581  1.00  0.00    -0.370 N 
ATOM     45  N   UNL     1     -10.265  -5.335 -10.838  1.00  0.00    -0.370 N 
ATOM     46  H   UNL     1      -9.098  -3.300 -10.352  1.00  0.00     0.159 HD
ATOM     47  H   UNL     1      -7.481  -3.852 -10.484  1.00  0.00     0.159 HD
ATOM     48  H   UNL     1     -10.689  -6.246 -10.944  1.00  0.00     0.159 HD
ATOM     49  H   UNL     1     -10.800  -4.521 -11.082  1.00  0.00     0.159 HD
ENDBRANCH  41  42
ENDBRANCH  40  41
ENDBRANCH  39  40
ENDBRANCH  38  39
ENDBRANCH  36  38
ENDBRANCH   5  34
BRANCH   8  50
ATOM     50  O   UNL     1      -5.063  -6.060  -5.006  1.00  0.00    -0.245 OA
BRANCH  50  51
ATOM     51  S   UNL     1      -6.120  -4.910  -4.553  1.00  0.00     0.397 S 
ATOM     52  O   UNL     1      -5.772  -4.487  -3.215  1.00  0.00    -0.169 OA
ATOM     53  O   UNL     1      -7.465  -5.324  -4.893  1.00  0.00    -0.169 OA
BRANCH  51  54
ATOM     54  O   UNL     1      -5.719  -3.687  -5.517  1.00  0.00    -0.264 OA
ATOM     55  H   UNL     1      -5.919  -3.955  -6.437  1.00  0.00     0.236 HD
ENDBRANCH  51  54
ENDBRANCH  50  51
ENDBRANCH   8  50
TORSDOF 19
ENDMDL
MODEL 18
REMARK VINA RESULT:    -6.471      2.495      3.482
REMARK INTER + INTRA:         -17.341
REMARK INTER:                 -14.394
REMARK INTRA:                  -2.947
REMARK UNBOUND:                -4.249
REMARK SMILES CC[C@@H](C)[C@@H](NC(=O)[C@@H](O)Cc1ccc(O)c(Cl)c1)C(=O)N1[C@H](C(=O)NCCCCN=C(N)N)C[C@H]2CC[C@H](OS(=O)(=O)O)C[C@@H]21
REMARK SMILES IDX 22 1 36 2 46 3 35 4 23 5 45 6 37 7 39 8 38 9 20 10 21 11
REMARK SMILES IDX 5 12 6 13 7 14 8 15 9 17 11 18 12 19 17 20 19 21 15 22 14 23
REMARK SMILES IDX 13 24 18 25 16 26 10 28 3 30 4 31 2 32 1 33 24 34 25 35
REMARK SMILES IDX 26 36 27 38 28 39 29 40 30 41 31 42 32 43 33 44 34 45 40 50
REMARK SMILES IDX 41 51 42 52 43 53 44 54
REMARK H PARENT 6 16 16 27 10 29 26 37 33 46 33 47 34 48 34 49 44 55
ROOT
ATOM      1  N   UNL     1      -1.613  -8.304  -6.021  1.00  0.00    -0.326 N 
ATOM      2  C   UNL     1      -3.683  -8.792  -5.010  1.00  0.00     0.014 C 
ATOM      3  C   UNL     1      -2.319  -8.148  -4.745  1.00  0.00     0.091 C 
ATOM      4  C   UNL     1      -3.337  -9.932  -5.955  1.00  0.00     0.041 C 
ATOM      5  C   UNL     1      -2.376  -9.208  -6.916  1.00  0.00     0.175 C 
ATOM      6  C   UNL     1      -2.547  -6.735  -4.212  1.00  0.00     0.059 C 
ATOM      7  C   UNL     1      -4.401  -9.095  -3.710  1.00  0.00     0.008 C 
ATOM      8  C   UNL     1      -3.839  -6.586  -3.379  1.00  0.00     0.143 C 
ATOM      9  C   UNL     1      -4.262  -7.917  -2.724  1.00  0.00     0.034 C 
ENDROOT
BRANCH   1  10
ATOM     10  C   UNL     1      -0.329  -7.928  -6.376  1.00  0.00     0.246 C 
ATOM     11  O   UNL     1      -0.168  -7.187  -7.352  1.00  0.00    -0.272 OA
BRANCH  10  12
ATOM     12  C   UNL     1       0.876  -8.409  -5.517  1.00  0.00     0.174 C 
BRANCH  12  13
ATOM     13  N   UNL     1       1.660  -7.259  -5.069  1.00  0.00    -0.342 N 
ATOM     14  C   UNL     1       1.481  -6.597  -3.875  1.00  0.00     0.249 C 
ATOM     15  O   UNL     1       0.652  -6.921  -3.034  1.00  0.00    -0.272 OA
ATOM     16  H   UNL     1       2.275  -6.782  -5.724  1.00  0.00     0.164 HD
BRANCH  14  17
ATOM     17  C   UNL     1       2.454  -5.411  -3.699  1.00  0.00     0.207 C 
BRANCH  17  18
ATOM     18  C   UNL     1       3.068  -5.019  -5.046  1.00  0.00     0.077 C 
BRANCH  18  19
ATOM     19  C   UNL     1       3.422  -3.549  -5.096  1.00  0.00    -0.043 A 
ATOM     20  C   UNL     1       3.032  -1.267  -4.371  1.00  0.00     0.083 A 
ATOM     21  C   UNL     1       2.737  -2.628  -4.287  1.00  0.00     0.028 A 
ATOM     22  C   UNL     1       4.008  -0.818  -5.261  1.00  0.00     0.134 A 
ATOM     23  C   UNL     1       4.694  -1.719  -6.068  1.00  0.00     0.048 A 
ATOM     24  C   UNL     1       4.400  -3.082  -5.987  1.00  0.00     0.008 A 
ATOM     25  Cl  UNL     1       2.180  -0.151  -3.370  1.00  0.00    -0.080 Cl
BRANCH  22  26
ATOM     26  O   UNL     1       4.324   0.508  -5.386  1.00  0.00    -0.506 OA
ATOM     27  H   UNL     1       3.719   0.878  -6.056  1.00  0.00     0.293 HD
ENDBRANCH  22  26
ENDBRANCH  18  19
ENDBRANCH  17  18
BRANCH  17  28
ATOM     28  O   UNL     1       3.503  -5.736  -2.773  1.00  0.00    -0.383 OA
ATOM     29  H   UNL     1       3.086  -6.288  -2.073  1.00  0.00     0.211 HD
ENDBRANCH  17  28
ENDBRANCH  14  17
ENDBRANCH  12  13
BRANCH  12  30
ATOM     30  C   UNL     1       1.745  -9.471  -6.244  1.00  0.00     0.018 C 
ATOM     31  C   UNL     1       0.934 -10.748  -6.515  1.00  0.00     0.010 C 
BRANCH  30  32
ATOM     32  C   UNL     1       3.054  -9.821  -5.496  1.00  0.00     0.002 C 
ATOM     33  C   UNL     1       4.339  -9.427  -6.213  1.00  0.00     0.004 C 
ENDBRANCH  30  32
ENDBRANCH  12  30
ENDBRANCH  10  12
ENDBRANCH   1  10
BRANCH   5  34
ATOM     34  C   UNL     1      -3.147  -8.396  -7.991  1.00  0.00     0.242 C 
ATOM     35  O   UNL     1      -3.364  -7.190  -7.875  1.00  0.00    -0.273 OA
ATOM     36  N   UNL     1      -3.615  -9.132  -9.057  1.00  0.00    -0.354 N 
ATOM     37  H   UNL     1      -3.507 -10.147  -9.038  1.00  0.00     0.163 HD
BRANCH  36  38
ATOM     38  C   UNL     1      -4.161  -8.511 -10.245  1.00  0.00     0.116 C 
BRANCH  38  39
ATOM     39  C   UNL     1      -5.676  -8.695 -10.277  1.00  0.00     0.023 C 
BRANCH  39  40
ATOM     40  C   UNL     1      -6.409  -7.427 -10.701  1.00  0.00     0.026 C 
BRANCH  40  41
ATOM     41  C   UNL     1      -5.818  -6.201 -10.006  1.00  0.00     0.146 C 
BRANCH  41  42
ATOM     42  N   UNL     1      -6.508  -5.970  -8.744  1.00  0.00    -0.254 NA
ATOM     43  C   UNL     1      -7.207  -4.909  -8.590  1.00  0.00     0.185 C 
ATOM     44  N   UNL     1      -7.439  -3.894  -9.442  1.00  0.00    -0.370 N 
ATOM     45  N   UNL     1      -7.832  -4.712  -7.417  1.00  0.00    -0.370 N 
ATOM     46  H   UNL     1      -7.801  -3.016  -9.109  1.00  0.00     0.159 HD
ATOM     47  H   UNL     1      -7.053  -3.887 -10.381  1.00  0.00     0.159 HD
ATOM     48  H   UNL     1      -7.717  -5.435  -6.721  1.00  0.00     0.159 HD
ATOM     49  H   UNL     1      -8.574  -4.044  -7.301  1.00  0.00     0.159 HD
ENDBRANCH  41  42
ENDBRANCH  40  41
ENDBRANCH  39  40
ENDBRANCH  38  39
ENDBRANCH  36  38
ENDBRANCH   5  34
BRANCH   8  50
ATOM     50  O   UNL     1      -4.908  -6.130  -4.209  1.00  0.00    -0.245 OA
BRANCH  50  51
ATOM     51  S   UNL     1      -5.665  -4.736  -3.849  1.00  0.00     0.397 S 
ATOM     52  O   UNL     1      -6.695  -5.026  -2.878  1.00  0.00    -0.169 OA
ATOM     53  O   UNL     1      -5.953  -4.011  -5.069  1.00  0.00    -0.169 OA
BRANCH  51  54
ATOM     54  O   UNL     1      -4.524  -3.931  -3.051  1.00  0.00    -0.264 OA
ATOM     55  H   UNL     1      -4.605  -2.985  -3.289  1.00  0.00     0.236 HD
ENDBRANCH  51  54
ENDBRANCH  50  51
ENDBRANCH   8  50
TORSDOF 19
ENDMDL
MODEL 19
REMARK VINA RESULT:    -6.460      3.759      7.309
REMARK INTER + INTRA:         -17.318
REMARK INTER:                 -13.700
REMARK INTRA:                  -3.618
REMARK UNBOUND:                -4.249
REMARK SMILES CC[C@@H](C)[C@@H](NC(=O)[C@@H](O)Cc1ccc(O)c(Cl)c1)C(=O)N1[C@H](C(=O)NCCCCN=C(N)N)C[C@H]2CC[C@H](OS(=O)(=O)O)C[C@@H]21
REMARK SMILES IDX 22 1 36 2 46 3 35 4 23 5 45 6 37 7 39 8 38 9 20 10 21 11
REMARK SMILES IDX 5 12 6 13 7 14 8 15 9 17 11 18 12 19 17 20 19 21 15 22 14 23
REMARK SMILES IDX 13 24 18 25 16 26 10 28 3 30 4 31 2 32 1 33 24 34 25 35
REMARK SMILES IDX 26 36 27 38 28 39 29 40 30 41 31 42 32 43 33 44 34 45 40 50
REMARK SMILES IDX 41 51 42 52 43 53 44 54
REMARK H PARENT 6 16 16 27 10 29 26 37 33 46 33 47 34 48 34 49 44 55
ROOT
ATOM      1  N   UNL     1      -4.815  -6.716  -9.502  1.00  0.00    -0.326 N 
ATOM      2  C   UNL     1      -7.169  -6.727  -9.445  1.00  0.00     0.014 C 
ATOM      3  C   UNL     1      -5.972  -6.779 -10.399  1.00  0.00     0.091 C 
ATOM      4  C   UNL     1      -6.673  -5.810  -8.337  1.00  0.00     0.041 C 
ATOM      5  C   UNL     1      -5.258  -6.379  -8.126  1.00  0.00     0.175 C 
ATOM      6  C   UNL     1      -6.125  -8.005 -11.298  1.00  0.00     0.059 C 
ATOM      7  C   UNL     1      -8.441  -6.372 -10.190  1.00  0.00     0.008 C 
ATOM      8  C   UNL     1      -7.593  -8.373 -11.604  1.00  0.00     0.143 C 
ATOM      9  C   UNL     1      -8.526  -7.147 -11.522  1.00  0.00     0.034 C 
ENDROOT
BRANCH   1  10
ATOM     10  C   UNL     1      -3.462  -6.707  -9.796  1.00  0.00     0.246 C 
ATOM     11  O   UNL     1      -2.874  -5.624  -9.889  1.00  0.00    -0.272 OA
BRANCH  10  12
ATOM     12  C   UNL     1      -2.705  -8.056  -9.960  1.00  0.00     0.174 C 
BRANCH  12  13
ATOM     13  N   UNL     1      -1.719  -8.208  -8.891  1.00  0.00    -0.342 N 
ATOM     14  C   UNL     1      -1.767  -9.164  -7.902  1.00  0.00     0.249 C 
ATOM     15  O   UNL     1      -2.638 -10.021  -7.823  1.00  0.00    -0.272 OA
ATOM     16  H   UNL     1      -1.029  -7.477  -8.735  1.00  0.00     0.164 HD
BRANCH  14  17
ATOM     17  C   UNL     1      -0.590  -9.054  -6.909  1.00  0.00     0.207 C 
BRANCH  17  18
ATOM     18  C   UNL     1       0.341  -7.904  -7.307  1.00  0.00     0.077 C 
BRANCH  18  19
ATOM     19  C   UNL     1       0.704  -7.039  -6.121  1.00  0.00    -0.043 A 
ATOM     20  C   UNL     1       2.185  -5.434  -5.065  1.00  0.00     0.083 A 
ATOM     21  C   UNL     1       1.824  -6.194  -6.178  1.00  0.00     0.028 A 
ATOM     22  C   UNL     1       1.435  -5.514  -3.891  1.00  0.00     0.134 A 
ATOM     23  C   UNL     1       0.324  -6.347  -3.821  1.00  0.00     0.048 A 
ATOM     24  C   UNL     1      -0.039  -7.110  -4.933  1.00  0.00     0.008 A 
ATOM     25  Cl  UNL     1       3.564  -4.402  -5.154  1.00  0.00    -0.080 Cl
BRANCH  22  26
ATOM     26  O   UNL     1       1.757  -4.797  -2.771  1.00  0.00    -0.506 OA
ATOM     27  H   UNL     1       1.224  -3.981  -2.798  1.00  0.00     0.293 HD
ENDBRANCH  22  26
ENDBRANCH  18  19
ENDBRANCH  17  18
BRANCH  17  28
ATOM     28  O   UNL     1       0.160 -10.278  -6.858  1.00  0.00    -0.383 OA
ATOM     29  H   UNL     1      -0.074 -10.775  -7.674  1.00  0.00     0.211 HD
ENDBRANCH  17  28
ENDBRANCH  14  17
ENDBRANCH  12  13
BRANCH  12  30
ATOM     30  C   UNL     1      -2.079  -8.225 -11.371  1.00  0.00     0.018 C 
ATOM     31  C   UNL     1      -2.283  -9.657 -11.892  1.00  0.00     0.010 C 
BRANCH  30  32
ATOM     32  C   UNL     1      -0.580  -7.844 -11.436  1.00  0.00     0.002 C 
ATOM     33  C   UNL     1       0.346  -8.933 -11.960  1.00  0.00     0.004 C 
ENDBRANCH  30  32
ENDBRANCH  12  30
ENDBRANCH  10  12
ENDBRANCH   1  10
BRANCH   5  34
ATOM     34  C   UNL     1      -5.278  -7.645  -7.229  1.00  0.00     0.242 C 
ATOM     35  O   UNL     1      -5.819  -8.693  -7.582  1.00  0.00    -0.273 OA
ATOM     36  N   UNL     1      -4.695  -7.495  -5.991  1.00  0.00    -0.354 N 
ATOM     37  H   UNL     1      -4.371  -6.569  -5.709  1.00  0.00     0.163 HD
BRANCH  36  38
ATOM     38  C   UNL     1      -4.435  -8.620  -5.117  1.00  0.00     0.116 C 
BRANCH  38  39
ATOM     39  C   UNL     1      -4.561  -8.185  -3.659  1.00  0.00     0.023 C 
BRANCH  39  40
ATOM     40  C   UNL     1      -3.318  -7.457  -3.159  1.00  0.00     0.026 C 
BRANCH  40  41
ATOM     41  C   UNL     1      -3.660  -6.029  -2.734  1.00  0.00     0.146 C 
BRANCH  41  42
ATOM     42  N   UNL     1      -4.066  -5.253  -3.898  1.00  0.00    -0.254 NA
ATOM     43  C   UNL     1      -5.237  -4.736  -3.937  1.00  0.00     0.185 C 
ATOM     44  N   UNL     1      -6.233  -4.780  -3.034  1.00  0.00    -0.370 N 
ATOM     45  N   UNL     1      -5.594  -4.028  -5.021  1.00  0.00    -0.370 N 
ATOM     46  H   UNL     1      -7.174  -4.541  -3.296  1.00  0.00     0.159 HD
ATOM     47  H   UNL     1      -6.127  -5.264  -2.147  1.00  0.00     0.159 HD
ATOM     48  H   UNL     1      -4.896  -3.938  -5.748  1.00  0.00     0.159 HD
ATOM     49  H   UNL     1      -6.382  -3.405  -5.029  1.00  0.00     0.159 HD
ENDBRANCH  41  42
ENDBRANCH  40  41
ENDBRANCH  39  40
ENDBRANCH  38  39
ENDBRANCH  36  38
ENDBRANCH   5  34
BRANCH   8  50
ATOM     50  O   UNL     1      -8.055  -9.357 -10.679  1.00  0.00    -0.245 OA
BRANCH  50  51
ATOM     51  S   UNL     1      -8.701 -10.742 -11.236  1.00  0.00     0.397 S 
ATOM     52  O   UNL     1      -9.907 -10.412 -11.961  1.00  0.00    -0.169 OA
ATOM     53  O   UNL     1      -8.695 -11.739 -10.186  1.00  0.00    -0.169 OA
BRANCH  51  54
ATOM     54  O   UNL     1      -7.630 -11.188 -12.349  1.00  0.00    -0.264 OA
ATOM     55  H   UNL     1      -7.315 -12.086 -12.118  1.00  0.00     0.236 HD
ENDBRANCH  51  54
ENDBRANCH  50  51
ENDBRANCH   8  50
TORSDOF 19
ENDMDL
MODEL 20
REMARK VINA RESULT:    -6.443     19.950     23.549
REMARK INTER + INTRA:         -17.283
REMARK INTER:                 -14.929
REMARK INTRA:                  -2.355
REMARK UNBOUND:                -4.249
REMARK SMILES CC[C@@H](C)[C@@H](NC(=O)[C@@H](O)Cc1ccc(O)c(Cl)c1)C(=O)N1[C@H](C(=O)NCCCCN=C(N)N)C[C@H]2CC[C@H](OS(=O)(=O)O)C[C@@H]21
REMARK SMILES IDX 22 1 36 2 46 3 35 4 23 5 45 6 37 7 39 8 38 9 20 10 21 11
REMARK SMILES IDX 5 12 6 13 7 14 8 15 9 17 11 18 12 19 17 20 19 21 15 22 14 23
REMARK SMILES IDX 13 24 18 25 16 26 10 28 3 30 4 31 2 32 1 33 24 34 25 35
REMARK SMILES IDX 26 36 27 38 28 39 29 40 30 41 31 42 32 43 33 44 34 45 40 50
REMARK SMILES IDX 41 51 42 52 43 53 44 54
REMARK H PARENT 6 16 16 27 10 29 26 37 33 46 33 47 34 48 34 49 44 55
ROOT
ATOM      1  N   UNL     1     -17.678  10.989  -1.324  1.00  0.00    -0.326 N 
ATOM      2  C   UNL     1     -19.805   9.979  -1.323  1.00  0.00     0.014 C 
ATOM      3  C   UNL     1     -18.706  10.504  -2.251  1.00  0.00     0.091 C 
ATOM      4  C   UNL     1     -19.736  10.938  -0.145  1.00  0.00     0.041 C 
ATOM      5  C   UNL     1     -18.212  11.009   0.060  1.00  0.00     0.175 C 
ATOM      6  C   UNL     1     -18.331   9.396  -3.232  1.00  0.00     0.059 C 
ATOM      7  C   UNL     1     -21.113   9.813  -2.072  1.00  0.00     0.008 C 
ATOM      8  C   UNL     1     -19.507   8.464  -3.596  1.00  0.00     0.143 C 
ATOM      9  C   UNL     1     -20.871   9.170  -3.454  1.00  0.00     0.034 C 
ENDROOT
BRANCH   1  10
ATOM     10  C   UNL     1     -16.459  11.590  -1.586  1.00  0.00     0.246 C 
ATOM     11  O   UNL     1     -15.419  10.965  -1.355  1.00  0.00    -0.272 OA
BRANCH  10  12
ATOM     12  C   UNL     1     -16.425  13.018  -2.204  1.00  0.00     0.174 C 
BRANCH  12  13
ATOM     13  N   UNL     1     -15.054  13.369  -2.572  1.00  0.00    -0.342 N 
ATOM     14  C   UNL     1     -14.596  13.522  -3.861  1.00  0.00     0.249 C 
ATOM     15  O   UNL     1     -15.303  13.407  -4.854  1.00  0.00    -0.272 OA
ATOM     16  H   UNL     1     -14.321  13.344  -1.867  1.00  0.00     0.164 HD
BRANCH  14  17
ATOM     17  C   UNL     1     -13.095  13.878  -3.922  1.00  0.00     0.207 C 
BRANCH  17  18
ATOM     18  C   UNL     1     -12.239  12.627  -3.702  1.00  0.00     0.077 C 
BRANCH  18  19
ATOM     19  C   UNL     1     -12.313  11.680  -4.879  1.00  0.00    -0.043 A 
ATOM     20  C   UNL     1     -12.893   9.513  -5.801  1.00  0.00     0.083 A 
ATOM     21  C   UNL     1     -12.871  10.401  -4.725  1.00  0.00     0.028 A 
ATOM     22  C   UNL     1     -12.359   9.894  -7.032  1.00  0.00     0.134 A 
ATOM     23  C   UNL     1     -11.804  11.157  -7.198  1.00  0.00     0.048 A 
ATOM     24  C   UNL     1     -11.778  12.048  -6.123  1.00  0.00     0.008 A 
ATOM     25  Cl  UNL     1     -13.582   7.946  -5.592  1.00  0.00    -0.080 Cl
BRANCH  22  26
ATOM     26  O   UNL     1     -12.348   9.053  -8.112  1.00  0.00    -0.506 OA
ATOM     27  H   UNL     1     -11.685   8.364  -7.924  1.00  0.00     0.293 HD
ENDBRANCH  22  26
ENDBRANCH  18  19
ENDBRANCH  17  18
BRANCH  17  28
ATOM     28  O   UNL     1     -12.757  14.867  -2.936  1.00  0.00    -0.383 OA
ATOM     29  H   UNL     1     -13.584  15.371  -2.762  1.00  0.00     0.211 HD
ENDBRANCH  17  28
ENDBRANCH  14  17
ENDBRANCH  12  13
BRANCH  12  30
ATOM     30  C   UNL     1     -17.084  14.084  -1.288  1.00  0.00     0.018 C 
ATOM     31  C   UNL     1     -18.525  14.374  -1.737  1.00  0.00     0.010 C 
BRANCH  30  32
ATOM     32  C   UNL     1     -16.281  15.404  -1.192  1.00  0.00     0.002 C 
ATOM     33  C   UNL     1     -16.785  16.538  -2.076  1.00  0.00     0.004 C 
ENDBRANCH  30  32
ENDBRANCH  12  30
ENDBRANCH  10  12
ENDBRANCH   1  10
BRANCH   5  34
ATOM     34  C   UNL     1     -17.687   9.793   0.870  1.00  0.00     0.242 C 
ATOM     35  O   UNL     1     -17.279   8.767   0.326  1.00  0.00    -0.273 OA
ATOM     36  N   UNL     1     -17.761   9.925   2.239  1.00  0.00    -0.354 N 
ATOM     37  H   UNL     1     -18.219  10.749   2.629  1.00  0.00     0.163 HD
BRANCH  36  38
ATOM     38  C   UNL     1     -17.123   8.989   3.141  1.00  0.00     0.116 C 
BRANCH  38  39
ATOM     39  C   UNL     1     -17.219   9.505   4.575  1.00  0.00     0.023 C 
BRANCH  39  40
ATOM     40  C   UNL     1     -17.161   8.381   5.604  1.00  0.00     0.026 C 
BRANCH  40  41
ATOM     41  C   UNL     1     -16.431   8.839   6.867  1.00  0.00     0.146 C 
BRANCH  41  42
ATOM     42  N   UNL     1     -15.189   8.091   7.016  1.00  0.00    -0.254 NA
ATOM     43  C   UNL     1     -14.069   8.679   6.820  1.00  0.00     0.185 C 
ATOM     44  N   UNL     1     -13.809   9.954   6.477  1.00  0.00    -0.370 N 
ATOM     45  N   UNL     1     -12.936   7.972   6.959  1.00  0.00    -0.370 N 
ATOM     46  H   UNL     1     -12.906  10.215   6.120  1.00  0.00     0.159 HD
ATOM     47  H   UNL     1     -14.553  10.632   6.344  1.00  0.00     0.159 HD
ATOM     48  H   UNL     1     -13.042   7.002   7.225  1.00  0.00     0.159 HD
ATOM     49  H   UNL     1     -12.034   8.403   7.056  1.00  0.00     0.159 HD
ENDBRANCH  41  42
ENDBRANCH  40  41
ENDBRANCH  39  40
ENDBRANCH  38  39
ENDBRANCH  36  38
ENDBRANCH   5  34
BRANCH   8  50
ATOM     50  O   UNL     1     -19.502   7.314  -2.750  1.00  0.00    -0.245 OA
BRANCH  50  51
ATOM     51  S   UNL     1     -18.918   5.905  -3.314  1.00  0.00     0.397 S 
ATOM     52  O   UNL     1     -19.148   4.892  -2.309  1.00  0.00    -0.169 OA
ATOM     53  O   UNL     1     -17.607   6.118  -3.892  1.00  0.00    -0.169 OA
BRANCH  51  54
ATOM     54  O   UNL     1     -19.939   5.574  -4.511  1.00  0.00    -0.264 OA
ATOM     55  H   UNL     1     -19.409   5.342  -5.301  1.00  0.00     0.236 HD
ENDBRANCH  51  54
ENDBRANCH  50  51
ENDBRANCH   8  50
TORSDOF 19
ENDMDL
MODEL 21
REMARK VINA RESULT:    -6.434      4.369      7.811
REMARK INTER + INTRA:         -17.264
REMARK INTER:                 -13.953
REMARK INTRA:                  -3.312
REMARK UNBOUND:                -4.249
REMARK SMILES CC[C@@H](C)[C@@H](NC(=O)[C@@H](O)Cc1ccc(O)c(Cl)c1)C(=O)N1[C@H](C(=O)NCCCCN=C(N)N)C[C@H]2CC[C@H](OS(=O)(=O)O)C[C@@H]21
REMARK SMILES IDX 22 1 36 2 46 3 35 4 23 5 45 6 37 7 39 8 38 9 20 10 21 11
REMARK SMILES IDX 5 12 6 13 7 14 8 15 9 17 11 18 12 19 17 20 19 21 15 22 14 23
REMARK SMILES IDX 13 24 18 25 16 26 10 28 3 30 4 31 2 32 1 33 24 34 25 35
REMARK SMILES IDX 26 36 27 38 28 39 29 40 30 41 31 42 32 43 33 44 34 45 40 50
REMARK SMILES IDX 41 51 42 52 43 53 44 54
REMARK H PARENT 6 16 16 27 10 29 26 37 33 46 33 47 34 48 34 49 44 55
ROOT
ATOM      1  N   UNL     1       2.698  -2.954  -3.541  1.00  0.00    -0.326 N 
ATOM      2  C   UNL     1       4.659  -4.187  -3.118  1.00  0.00     0.014 C 
ATOM      3  C   UNL     1       3.131  -4.294  -3.132  1.00  0.00     0.091 C 
ATOM      4  C   UNL     1       4.890  -2.756  -2.656  1.00  0.00     0.041 C 
ATOM      5  C   UNL     1       3.850  -2.019  -3.520  1.00  0.00     0.175 C 
ATOM      6  C   UNL     1       2.738  -5.481  -4.009  1.00  0.00     0.059 C 
ATOM      7  C   UNL     1       5.275  -5.330  -2.336  1.00  0.00     0.008 C 
ATOM      8  C   UNL     1       3.765  -6.634  -3.991  1.00  0.00     0.143 C 
ATOM      9  C   UNL     1       4.579  -6.663  -2.682  1.00  0.00     0.034 C 
ENDROOT
BRANCH   1  10
ATOM     10  C   UNL     1       1.421  -2.447  -3.709  1.00  0.00     0.246 C 
ATOM     11  O   UNL     1       1.099  -1.980  -4.807  1.00  0.00    -0.272 OA
BRANCH  10  12
ATOM     12  C   UNL     1       0.407  -2.515  -2.529  1.00  0.00     0.174 C 
BRANCH  12  13
ATOM     13  N   UNL     1      -0.436  -3.701  -2.664  1.00  0.00    -0.342 N 
ATOM     14  C   UNL     1      -0.446  -4.767  -1.793  1.00  0.00     0.249 C 
ATOM     15  O   UNL     1       0.241  -4.827  -0.781  1.00  0.00    -0.272 OA
ATOM     16  H   UNL     1      -0.941  -3.865  -3.532  1.00  0.00     0.164 HD
BRANCH  14  17
ATOM     17  C   UNL     1      -1.433  -5.875  -2.217  1.00  0.00     0.207 C 
BRANCH  17  18
ATOM     18  C   UNL     1      -1.502  -6.970  -1.148  1.00  0.00     0.077 C 
BRANCH  18  19
ATOM     19  C   UNL     1      -2.701  -6.795  -0.242  1.00  0.00    -0.043 A 
ATOM     20  C   UNL     1      -5.058  -7.136   0.216  1.00  0.00     0.083 A 
ATOM     21  C   UNL     1      -3.943  -7.342  -0.598  1.00  0.00     0.028 A 
ATOM     22  C   UNL     1      -4.940  -6.385   1.386  1.00  0.00     0.134 A 
ATOM     23  C   UNL     1      -3.715  -5.838   1.750  1.00  0.00     0.048 A 
ATOM     24  C   UNL     1      -2.598  -6.040   0.937  1.00  0.00     0.008 A 
ATOM     25  Cl  UNL     1      -6.577  -7.816  -0.238  1.00  0.00    -0.080 Cl
BRANCH  22  26
ATOM     26  O   UNL     1      -6.007  -6.148   2.210  1.00  0.00    -0.506 OA
ATOM     27  H   UNL     1      -5.710  -6.348   3.117  1.00  0.00     0.293 HD
ENDBRANCH  22  26
ENDBRANCH  18  19
ENDBRANCH  17  18
BRANCH  17  28
ATOM     28  O   UNL     1      -1.047  -6.459  -3.472  1.00  0.00    -0.383 OA
ATOM     29  H   UNL     1      -0.148  -6.112  -3.669  1.00  0.00     0.211 HD
ENDBRANCH  17  28
ENDBRANCH  14  17
ENDBRANCH  12  13
BRANCH  12  30
ATOM     30  C   UNL     1      -0.423  -1.212  -2.377  1.00  0.00     0.018 C 
ATOM     31  C   UNL     1       0.439   0.024  -2.678  1.00  0.00     0.010 C 
BRANCH  30  32
ATOM     32  C   UNL     1      -1.098  -1.064  -0.992  1.00  0.00     0.002 C 
ATOM     33  C   UNL     1      -2.557  -1.497  -0.929  1.00  0.00     0.004 C 
ENDBRANCH  30  32
ENDBRANCH  12  30
ENDBRANCH  10  12
ENDBRANCH   1  10
BRANCH   5  34
ATOM     34  C   UNL     1       4.377  -1.764  -4.957  1.00  0.00     0.242 C 
ATOM     35  O   UNL     1       5.187  -0.872  -5.212  1.00  0.00    -0.273 OA
ATOM     36  N   UNL     1       3.834  -2.570  -5.932  1.00  0.00    -0.354 N 
ATOM     37  H   UNL     1       3.080  -3.208  -5.678  1.00  0.00     0.163 HD
BRANCH  36  38
ATOM     38  C   UNL     1       4.363  -2.616  -7.280  1.00  0.00     0.116 C 
BRANCH  38  39
ATOM     39  C   UNL     1       4.921  -4.007  -7.570  1.00  0.00     0.023 C 
BRANCH  39  40
ATOM     40  C   UNL     1       4.261  -4.659  -8.780  1.00  0.00     0.026 C 
BRANCH  40  41
ATOM     41  C   UNL     1       2.742  -4.702  -8.612  1.00  0.00     0.146 C 
BRANCH  41  42
ATOM     42  N   UNL     1       2.392  -5.620  -7.536  1.00  0.00    -0.254 NA
ATOM     43  C   UNL     1       1.990  -6.802  -7.819  1.00  0.00     0.185 C 
ATOM     44  N   UNL     1       1.820  -7.397  -9.014  1.00  0.00    -0.370 N 
ATOM     45  N   UNL     1       1.667  -7.632  -6.813  1.00  0.00    -0.370 N 
ATOM     46  H   UNL     1       1.271  -8.235  -9.097  1.00  0.00     0.159 HD
ATOM     47  H   UNL     1       2.031  -6.915  -9.883  1.00  0.00     0.159 HD
ATOM     48  H   UNL     1       1.775  -7.265  -5.877  1.00  0.00     0.159 HD
ATOM     49  H   UNL     1       1.576  -8.625  -6.934  1.00  0.00     0.159 HD
ENDBRANCH  41  42
ENDBRANCH  40  41
ENDBRANCH  39  40
ENDBRANCH  38  39
ENDBRANCH  36  38
ENDBRANCH   5  34
BRANCH   8  50
ATOM     50  O   UNL     1       4.671  -6.501  -5.086  1.00  0.00    -0.245 OA
BRANCH  50  51
ATOM     51  S   UNL     1       5.187  -7.831  -5.868  1.00  0.00     0.397 S 
ATOM     52  O   UNL     1       5.488  -7.458  -7.232  1.00  0.00    -0.169 OA
ATOM     53  O   UNL     1       4.315  -8.945  -5.559  1.00  0.00    -0.169 OA
BRANCH  51  54
ATOM     54  O   UNL     1       6.607  -8.103  -5.164  1.00  0.00    -0.264 OA
ATOM     55  H   UNL     1       7.174  -8.572  -5.810  1.00  0.00     0.236 HD
ENDBRANCH  51  54
ENDBRANCH  50  51
ENDBRANCH   8  50
TORSDOF 19
ENDMDL
MODEL 22
REMARK VINA RESULT:    -6.428      3.283      6.194
REMARK INTER + INTRA:         -17.254
REMARK INTER:                 -14.822
REMARK INTRA:                  -2.431
REMARK UNBOUND:                -4.249
REMARK SMILES CC[C@@H](C)[C@@H](NC(=O)[C@@H](O)Cc1ccc(O)c(Cl)c1)C(=O)N1[C@H](C(=O)NCCCCN=C(N)N)C[C@H]2CC[C@H](OS(=O)(=O)O)C[C@@H]21
REMARK SMILES IDX 22 1 36 2 46 3 35 4 23 5 45 6 37 7 39 8 38 9 20 10 21 11
REMARK SMILES IDX 5 12 6 13 7 14 8 15 9 17 11 18 12 19 17 20 19 21 15 22 14 23
REMARK SMILES IDX 13 24 18 25 16 26 10 28 3 30 4 31 2 32 1 33 24 34 25 35
REMARK SMILES IDX 26 36 27 38 28 39 29 40 30 41 31 42 32 43 33 44 34 45 40 50
REMARK SMILES IDX 41 51 42 52 43 53 44 54
REMARK H PARENT 6 16 16 27 10 29 26 37 33 46 33 47 34 48 34 49 44 55
ROOT
ATOM      1  N   UNL     1      -2.774  -7.477  -2.567  1.00  0.00    -0.326 N 
ATOM      2  C   UNL     1      -4.313  -7.962  -4.282  1.00  0.00     0.014 C 
ATOM      3  C   UNL     1      -4.214  -7.462  -2.838  1.00  0.00     0.091 C 
ATOM      4  C   UNL     1      -3.179  -8.973  -4.364  1.00  0.00     0.041 C 
ATOM      5  C   UNL     1      -2.060  -8.184  -3.659  1.00  0.00     0.175 C 
ATOM      6  C   UNL     1      -4.956  -6.130  -2.737  1.00  0.00     0.059 C 
ATOM      7  C   UNL     1      -5.726  -8.403  -4.608  1.00  0.00     0.008 C 
ATOM      8  C   UNL     1      -6.161  -6.015  -3.696  1.00  0.00     0.143 C 
ATOM      9  C   UNL     1      -6.753  -7.394  -4.050  1.00  0.00     0.034 C 
ENDROOT
BRANCH   1  10
ATOM     10  C   UNL     1      -2.084  -7.144  -1.414  1.00  0.00     0.246 C 
ATOM     11  O   UNL     1      -1.108  -7.825  -1.080  1.00  0.00    -0.272 OA
BRANCH  10  12
ATOM     12  C   UNL     1      -2.523  -5.900  -0.589  1.00  0.00     0.174 C 
BRANCH  12  13
ATOM     13  N   UNL     1      -1.647  -4.768  -0.889  1.00  0.00    -0.342 N 
ATOM     14  C   UNL     1      -2.010  -3.659  -1.619  1.00  0.00     0.249 C 
ATOM     15  O   UNL     1      -3.131  -3.483  -2.080  1.00  0.00    -0.272 OA
ATOM     16  H   UNL     1      -0.649  -4.842  -0.708  1.00  0.00     0.164 HD
BRANCH  14  17
ATOM     17  C   UNL     1      -0.857  -2.646  -1.777  1.00  0.00     0.207 C 
BRANCH  17  18
ATOM     18  C   UNL     1       0.445  -3.368  -2.141  1.00  0.00     0.077 C 
BRANCH  18  19
ATOM     19  C   UNL     1       1.334  -2.517  -3.018  1.00  0.00    -0.043 A 
ATOM     20  C   UNL     1       2.874  -2.312  -4.881  1.00  0.00     0.083 A 
ATOM     21  C   UNL     1       2.015  -3.090  -4.104  1.00  0.00     0.028 A 
ATOM     22  C   UNL     1       3.058  -0.962  -4.581  1.00  0.00     0.134 A 
ATOM     23  C   UNL     1       2.390  -0.382  -3.509  1.00  0.00     0.048 A 
ATOM     24  C   UNL     1       1.531  -1.158  -2.727  1.00  0.00     0.008 A 
ATOM     25  Cl  UNL     1       3.703  -3.034  -6.210  1.00  0.00    -0.080 Cl
BRANCH  22  26
ATOM     26  O   UNL     1       3.898  -0.162  -5.308  1.00  0.00    -0.506 OA
ATOM     27  H   UNL     1       3.746  -0.377  -6.247  1.00  0.00     0.293 HD
ENDBRANCH  22  26
ENDBRANCH  18  19
ENDBRANCH  17  18
BRANCH  17  28
ATOM     28  O   UNL     1      -0.662  -1.891  -0.571  1.00  0.00    -0.383 OA
ATOM     29  H   UNL     1       0.046  -1.237  -0.770  1.00  0.00     0.211 HD
ENDBRANCH  17  28
ENDBRANCH  14  17
ENDBRANCH  12  13
BRANCH  12  30
ATOM     30  C   UNL     1      -2.615  -6.191   0.933  1.00  0.00     0.018 C 
ATOM     31  C   UNL     1      -3.836  -7.070   1.248  1.00  0.00     0.010 C 
BRANCH  30  32
ATOM     32  C   UNL     1      -2.637  -4.915   1.809  1.00  0.00     0.002 C 
ATOM     33  C   UNL     1      -1.883  -5.018   3.128  1.00  0.00     0.004 C 
ENDBRANCH  30  32
ENDBRANCH  12  30
ENDBRANCH  10  12
ENDBRANCH   1  10
BRANCH   5  34
ATOM     34  C   UNL     1      -1.382  -7.171  -4.619  1.00  0.00     0.242 C 
ATOM     35  O   UNL     1      -1.489  -5.954  -4.474  1.00  0.00    -0.273 OA
ATOM     36  N   UNL     1      -0.698  -7.732  -5.675  1.00  0.00    -0.354 N 
ATOM     37  H   UNL     1      -0.746  -8.743  -5.810  1.00  0.00     0.163 HD
BRANCH  36  38
ATOM     38  C   UNL     1       0.166  -6.954  -6.538  1.00  0.00     0.116 C 
BRANCH  38  39
ATOM     39  C   UNL     1      -0.098  -7.314  -7.998  1.00  0.00     0.023 C 
BRANCH  39  40
ATOM     40  C   UNL     1       0.849  -6.598  -8.955  1.00  0.00     0.026 C 
BRANCH  40  41
ATOM     41  C   UNL     1       1.848  -5.734  -8.185  1.00  0.00     0.146 C 
BRANCH  41  42
ATOM     42  N   UNL     1       2.807  -5.147  -9.111  1.00  0.00    -0.254 NA
ATOM     43  C   UNL     1       4.046  -5.455  -9.019  1.00  0.00     0.185 C 
ATOM     44  N   UNL     1       4.671  -6.283  -8.162  1.00  0.00    -0.370 N 
ATOM     45  N   UNL     1       4.915  -4.898  -9.879  1.00  0.00    -0.370 N 
ATOM     46  H   UNL     1       5.669  -6.243  -8.045  1.00  0.00     0.159 HD
ATOM     47  H   UNL     1       4.160  -6.798  -7.451  1.00  0.00     0.159 HD
ATOM     48  H   UNL     1       4.525  -4.267 -10.565  1.00  0.00     0.159 HD
ATOM     49  H   UNL     1       5.841  -5.259 -10.026  1.00  0.00     0.159 HD
ENDBRANCH  41  42
ENDBRANCH  40  41
ENDBRANCH  39  40
ENDBRANCH  38  39
ENDBRANCH  36  38
ENDBRANCH   5  34
BRANCH   8  50
ATOM     50  O   UNL     1      -5.765  -5.368  -4.905  1.00  0.00    -0.245 OA
BRANCH  50  51
ATOM     51  S   UNL     1      -6.823  -4.414  -5.690  1.00  0.00     0.397 S 
ATOM     52  O   UNL     1      -7.978  -4.236  -4.839  1.00  0.00    -0.169 OA
ATOM     53  O   UNL     1      -6.952  -4.857  -7.063  1.00  0.00    -0.169 OA
BRANCH  51  54
ATOM     54  O   UNL     1      -6.060  -2.999  -5.694  1.00  0.00    -0.264 OA
ATOM     55  H   UNL     1      -5.799  -2.798  -4.773  1.00  0.00     0.236 HD
ENDBRANCH  51  54
ENDBRANCH  50  51
ENDBRANCH   8  50
TORSDOF 19
ENDMDL
MODEL 23
REMARK VINA RESULT:    -6.428      3.784      7.826
REMARK INTER + INTRA:         -17.252
REMARK INTER:                 -13.261
REMARK INTRA:                  -3.991
REMARK UNBOUND:                -4.249
REMARK SMILES CC[C@@H](C)[C@@H](NC(=O)[C@@H](O)Cc1ccc(O)c(Cl)c1)C(=O)N1[C@H](C(=O)NCCCCN=C(N)N)C[C@H]2CC[C@H](OS(=O)(=O)O)C[C@@H]21
REMARK SMILES IDX 22 1 36 2 46 3 35 4 23 5 45 6 37 7 39 8 38 9 20 10 21 11
REMARK SMILES IDX 5 12 6 13 7 14 8 15 9 17 11 18 12 19 17 20 19 21 15 22 14 23
REMARK SMILES IDX 13 24 18 25 16 26 10 28 3 30 4 31 2 32 1 33 24 34 25 35
REMARK SMILES IDX 26 36 27 38 28 39 29 40 30 41 31 42 32 43 33 44 34 45 40 50
REMARK SMILES IDX 41 51 42 52 43 53 44 54
REMARK H PARENT 6 16 16 27 10 29 26 37 33 46 33 47 34 48 34 49 44 55
ROOT
ATOM      1  N   UNL     1       2.254  -2.874  -3.452  1.00  0.00    -0.326 N 
ATOM      2  C   UNL     1       4.362  -3.892  -3.198  1.00  0.00     0.014 C 
ATOM      3  C   UNL     1       2.863  -4.124  -2.987  1.00  0.00     0.091 C 
ATOM      4  C   UNL     1       4.515  -2.407  -2.906  1.00  0.00     0.041 C 
ATOM      5  C   UNL     1       3.305  -1.851  -3.679  1.00  0.00     0.175 C 
ATOM      6  C   UNL     1       2.472  -5.424  -3.688  1.00  0.00     0.059 C 
ATOM      7  C   UNL     1       5.181  -4.893  -2.408  1.00  0.00     0.008 C 
ATOM      8  C   UNL     1       3.597  -6.481  -3.708  1.00  0.00     0.143 C 
ATOM      9  C   UNL     1       4.577  -6.308  -2.530  1.00  0.00     0.034 C 
ENDROOT
BRANCH   1  10
ATOM     10  C   UNL     1       0.923  -2.493  -3.485  1.00  0.00     0.246 C 
ATOM     11  O   UNL     1       0.421  -2.155  -4.562  1.00  0.00    -0.272 OA
BRANCH  10  12
ATOM     12  C   UNL     1       0.080  -2.540  -2.178  1.00  0.00     0.174 C 
BRANCH  12  13
ATOM     13  N   UNL     1      -0.648  -3.806  -2.099  1.00  0.00    -0.342 N 
ATOM     14  C   UNL     1      -0.593  -4.684  -1.039  1.00  0.00     0.249 C 
ATOM     15  O   UNL     1       0.058  -4.484  -0.021  1.00  0.00    -0.272 OA
ATOM     16  H   UNL     1      -1.103  -4.178  -2.928  1.00  0.00     0.164 HD
BRANCH  14  17
ATOM     17  C   UNL     1      -1.460  -5.941  -1.263  1.00  0.00     0.207 C 
BRANCH  17  18
ATOM     18  C   UNL     1      -2.359  -5.761  -2.490  1.00  0.00     0.077 C 
BRANCH  18  19
ATOM     19  C   UNL     1      -2.047  -6.775  -3.568  1.00  0.00    -0.043 A 
ATOM     20  C   UNL     1      -2.548  -8.860  -4.702  1.00  0.00     0.083 A 
ATOM     21  C   UNL     1      -2.867  -7.901  -3.739  1.00  0.00     0.028 A 
ATOM     22  C   UNL     1      -1.413  -8.700  -5.497  1.00  0.00     0.134 A 
ATOM     23  C   UNL     1      -0.593  -7.589  -5.339  1.00  0.00     0.048 A 
ATOM     24  C   UNL     1      -0.908  -6.629  -4.374  1.00  0.00     0.008 A 
ATOM     25  Cl  UNL     1      -3.567 -10.238  -4.897  1.00  0.00    -0.080 Cl
BRANCH  22  26
ATOM     26  O   UNL     1      -1.054  -9.619  -6.447  1.00  0.00    -0.506 OA
ATOM     27  H   UNL     1      -0.501  -9.147  -7.097  1.00  0.00     0.293 HD
ENDBRANCH  22  26
ENDBRANCH  18  19
ENDBRANCH  17  18
BRANCH  17  28
ATOM     28  O   UNL     1      -2.275  -6.219  -0.112  1.00  0.00    -0.383 OA
ATOM     29  H   UNL     1      -3.075  -6.681  -0.451  1.00  0.00     0.211 HD
ENDBRANCH  17  28
ENDBRANCH  14  17
ENDBRANCH  12  13
BRANCH  12  30
ATOM     30  C   UNL     1      -0.854  -1.309  -2.022  1.00  0.00     0.018 C 
ATOM     31  C   UNL     1      -0.162  -0.032  -2.523  1.00  0.00     0.010 C 
BRANCH  30  32
ATOM     32  C   UNL     1      -1.374  -1.102  -0.579  1.00  0.00     0.002 C 
ATOM     33  C   UNL     1      -2.843  -1.438  -0.361  1.00  0.00     0.004 C 
ENDBRANCH  30  32
ENDBRANCH  12  30
ENDBRANCH  10  12
ENDBRANCH   1  10
BRANCH   5  34
ATOM     34  C   UNL     1       3.611  -1.703  -5.193  1.00  0.00     0.242 C 
ATOM     35  O   UNL     1       4.259  -0.759  -5.644  1.00  0.00    -0.273 OA
ATOM     36  N   UNL     1       3.062  -2.675  -5.999  1.00  0.00    -0.354 N 
ATOM     37  H   UNL     1       2.436  -3.364  -5.581  1.00  0.00     0.163 HD
BRANCH  36  38
ATOM     38  C   UNL     1       3.421  -2.815  -7.395  1.00  0.00     0.116 C 
BRANCH  38  39
ATOM     39  C   UNL     1       4.358  -4.008  -7.572  1.00  0.00     0.023 C 
BRANCH  39  40
ATOM     40  C   UNL     1       3.953  -4.898  -8.742  1.00  0.00     0.026 C 
BRANCH  40  41
ATOM     41  C   UNL     1       2.443  -5.138  -8.744  1.00  0.00     0.146 C 
BRANCH  41  42
ATOM     42  N   UNL     1       2.168  -6.551  -8.518  1.00  0.00    -0.254 NA
ATOM     43  C   UNL     1       0.996  -7.012  -8.744  1.00  0.00     0.185 C 
ATOM     44  N   UNL     1      -0.110  -6.385  -9.186  1.00  0.00    -0.370 N 
ATOM     45  N   UNL     1       0.762  -8.316  -8.526  1.00  0.00    -0.370 N 
ATOM     46  H   UNL     1      -1.016  -6.811  -9.084  1.00  0.00     0.159 HD
ATOM     47  H   UNL     1      -0.107  -5.396  -9.414  1.00  0.00     0.159 HD
ATOM     48  H   UNL     1       1.546  -8.864  -8.199  1.00  0.00     0.159 HD
ATOM     49  H   UNL     1      -0.040  -8.794  -8.896  1.00  0.00     0.159 HD
ENDBRANCH  41  42
ENDBRANCH  40  41
ENDBRANCH  39  40
ENDBRANCH  38  39
ENDBRANCH  36  38
ENDBRANCH   5  34
BRANCH   8  50
ATOM     50  O   UNL     1       4.335  -6.389  -4.928  1.00  0.00    -0.245 OA
BRANCH  50  51
ATOM     51  S   UNL     1       4.593  -7.728  -5.813  1.00  0.00     0.397 S 
ATOM     52  O   UNL     1       5.047  -8.772  -4.922  1.00  0.00    -0.169 OA
ATOM     53  O   UNL     1       5.324  -7.383  -7.015  1.00  0.00    -0.169 OA
BRANCH  51  54
ATOM     54  O   UNL     1       3.099  -8.139  -6.243  1.00  0.00    -0.264 OA
ATOM     55  H   UNL     1       2.629  -7.322  -6.507  1.00  0.00     0.236 HD
ENDBRANCH  51  54
ENDBRANCH  50  51
ENDBRANCH   8  50
TORSDOF 19
ENDMDL
MODEL 24
REMARK VINA RESULT:    -6.423      3.618      6.367
REMARK INTER + INTRA:         -17.243
REMARK INTER:                 -14.771
REMARK INTRA:                  -2.472
REMARK UNBOUND:                -4.249
REMARK SMILES CC[C@@H](C)[C@@H](NC(=O)[C@@H](O)Cc1ccc(O)c(Cl)c1)C(=O)N1[C@H](C(=O)NCCCCN=C(N)N)C[C@H]2CC[C@H](OS(=O)(=O)O)C[C@@H]21
REMARK SMILES IDX 22 1 36 2 46 3 35 4 23 5 45 6 37 7 39 8 38 9 20 10 21 11
REMARK SMILES IDX 5 12 6 13 7 14 8 15 9 17 11 18 12 19 17 20 19 21 15 22 14 23
REMARK SMILES IDX 13 24 18 25 16 26 10 28 3 30 4 31 2 32 1 33 24 34 25 35
REMARK SMILES IDX 26 36 27 38 28 39 29 40 30 41 31 42 32 43 33 44 34 45 40 50
REMARK SMILES IDX 41 51 42 52 43 53 44 54
REMARK H PARENT 6 16 16 27 10 29 26 37 33 46 33 47 34 48 34 49 44 55
ROOT
ATOM      1  N   UNL     1       3.056  -7.262  -7.784  1.00  0.00    -0.326 N 
ATOM      2  C   UNL     1       3.627  -5.416  -9.129  1.00  0.00     0.014 C 
ATOM      3  C   UNL     1       4.225  -6.612  -8.384  1.00  0.00     0.091 C 
ATOM      4  C   UNL     1       2.469  -5.007  -8.231  1.00  0.00     0.041 C 
ATOM      5  C   UNL     1       1.864  -6.388  -7.921  1.00  0.00     0.175 C 
ATOM      6  C   UNL     1       5.076  -7.416  -9.366  1.00  0.00     0.059 C 
ATOM      7  C   UNL     1       4.698  -4.399  -9.470  1.00  0.00     0.008 C 
ATOM      8  C   UNL     1       5.744  -6.555 -10.459  1.00  0.00     0.143 C 
ATOM      9  C   UNL     1       5.968  -5.101  -9.994  1.00  0.00     0.034 C 
ENDROOT
BRANCH   1  10
ATOM     10  C   UNL     1       2.980  -8.385  -6.978  1.00  0.00     0.246 C 
ATOM     11  O   UNL     1       2.551  -9.440  -7.457  1.00  0.00    -0.272 OA
BRANCH  10  12
ATOM     12  C   UNL     1       3.476  -8.307  -5.505  1.00  0.00     0.174 C 
BRANCH  12  13
ATOM     13  N   UNL     1       3.344  -6.939  -5.007  1.00  0.00    -0.342 N 
ATOM     14  C   UNL     1       2.599  -6.565  -3.911  1.00  0.00     0.249 C 
ATOM     15  O   UNL     1       1.978  -7.353  -3.208  1.00  0.00    -0.272 OA
ATOM     16  H   UNL     1       3.673  -6.162  -5.575  1.00  0.00     0.164 HD
BRANCH  14  17
ATOM     17  C   UNL     1       2.646  -5.045  -3.649  1.00  0.00     0.207 C 
BRANCH  17  18
ATOM     18  C   UNL     1       1.429  -4.356  -4.274  1.00  0.00     0.077 C 
BRANCH  18  19
ATOM     19  C   UNL     1       0.536  -3.731  -3.225  1.00  0.00    -0.043 A 
ATOM     20  C   UNL     1      -0.652  -1.805  -2.352  1.00  0.00     0.083 A 
ATOM     21  C   UNL     1       0.130  -2.393  -3.347  1.00  0.00     0.028 A 
ATOM     22  C   UNL     1      -1.032  -2.547  -1.233  1.00  0.00     0.134 A 
ATOM     23  C   UNL     1      -0.638  -3.873  -1.101  1.00  0.00     0.048 A 
ATOM     24  C   UNL     1       0.147  -4.464  -2.093  1.00  0.00     0.008 A 
ATOM     25  Cl  UNL     1      -1.141  -0.160  -2.519  1.00  0.00    -0.080 Cl
BRANCH  22  26
ATOM     26  O   UNL     1      -1.791  -2.011  -0.228  1.00  0.00    -0.506 OA
ATOM     27  H   UNL     1      -2.711  -1.992  -0.550  1.00  0.00     0.293 HD
ENDBRANCH  22  26
ENDBRANCH  18  19
ENDBRANCH  17  18
BRANCH  17  28
ATOM     28  O   UNL     1       3.848  -4.465  -4.181  1.00  0.00    -0.383 OA
ATOM     29  H   UNL     1       3.938  -3.584  -3.752  1.00  0.00     0.211 HD
ENDBRANCH  17  28
ENDBRANCH  14  17
ENDBRANCH  12  13
BRANCH  12  30
ATOM     30  C   UNL     1       4.912  -8.868  -5.325  1.00  0.00     0.018 C 
ATOM     31  C   UNL     1       4.988  -9.794  -4.101  1.00  0.00     0.010 C 
BRANCH  30  32
ATOM     32  C   UNL     1       6.000  -7.771  -5.231  1.00  0.00     0.002 C 
ATOM     33  C   UNL     1       6.736  -7.697  -3.899  1.00  0.00     0.004 C 
ENDBRANCH  30  32
ENDBRANCH  12  30
ENDBRANCH  10  12
ENDBRANCH   1  10
BRANCH   5  34
ATOM     34  C   UNL     1       0.949  -6.883  -9.072  1.00  0.00     0.242 C 
ATOM     35  O   UNL     1       1.332  -7.694  -9.915  1.00  0.00    -0.273 OA
ATOM     36  N   UNL     1      -0.302  -6.309  -9.114  1.00  0.00    -0.354 N 
ATOM     37  H   UNL     1      -0.519  -5.556  -8.461  1.00  0.00     0.163 HD
BRANCH  36  38
ATOM     38  C   UNL     1      -1.352  -6.805  -9.980  1.00  0.00     0.116 C 
BRANCH  38  39
ATOM     39  C   UNL     1      -2.644  -6.032  -9.723  1.00  0.00     0.023 C 
BRANCH  39  40
ATOM     40  C   UNL     1      -3.388  -6.535  -8.491  1.00  0.00     0.026 C 
BRANCH  40  41
ATOM     41  C   UNL     1      -4.779  -5.906  -8.404  1.00  0.00     0.146 C 
BRANCH  41  42
ATOM     42  N   UNL     1      -5.488  -6.438  -7.248  1.00  0.00    -0.254 NA
ATOM     43  C   UNL     1      -5.795  -5.659  -6.280  1.00  0.00     0.185 C 
ATOM     44  N   UNL     1      -5.566  -4.343  -6.122  1.00  0.00    -0.370 N 
ATOM     45  N   UNL     1      -6.445  -6.170  -5.221  1.00  0.00    -0.370 N 
ATOM     46  H   UNL     1      -5.641  -3.914  -5.216  1.00  0.00     0.159 HD
ATOM     47  H   UNL     1      -5.095  -3.795  -6.836  1.00  0.00     0.159 HD
ATOM     48  H   UNL     1      -6.664  -7.156  -5.263  1.00  0.00     0.159 HD
ATOM     49  H   UNL     1      -6.921  -5.598  -4.547  1.00  0.00     0.159 HD
ENDBRANCH  41  42
ENDBRANCH  40  41
ENDBRANCH  39  40
ENDBRANCH  38  39
ENDBRANCH  36  38
ENDBRANCH   5  34
BRANCH   8  50
ATOM     50  O   UNL     1       4.932  -6.535 -11.633  1.00  0.00    -0.245 OA
BRANCH  50  51
ATOM     51  S   UNL     1       5.430  -7.323 -12.966  1.00  0.00     0.397 S 
ATOM     52  O   UNL     1       5.000  -8.699 -12.858  1.00  0.00    -0.169 OA
ATOM     53  O   UNL     1       6.807  -6.977 -13.250  1.00  0.00    -0.169 OA
BRANCH  51  54
ATOM     54  O   UNL     1       4.508  -6.665 -14.108  1.00  0.00    -0.264 OA
ATOM     55  H   UNL     1       3.701  -6.318 -13.677  1.00  0.00     0.236 HD
ENDBRANCH  51  54
ENDBRANCH  50  51
ENDBRANCH   8  50
TORSDOF 19
ENDMDL
MODEL 25
REMARK VINA RESULT:    -6.412      3.311      5.711
REMARK INTER + INTRA:         -17.221
REMARK INTER:                 -13.969
REMARK INTRA:                  -3.252
REMARK UNBOUND:                -4.249
REMARK SMILES CC[C@@H](C)[C@@H](NC(=O)[C@@H](O)Cc1ccc(O)c(Cl)c1)C(=O)N1[C@H](C(=O)NCCCCN=C(N)N)C[C@H]2CC[C@H](OS(=O)(=O)O)C[C@@H]21
REMARK SMILES IDX 22 1 36 2 46 3 35 4 23 5 45 6 37 7 39 8 38 9 20 10 21 11
REMARK SMILES IDX 5 12 6 13 7 14 8 15 9 17 11 18 12 19 17 20 19 21 15 22 14 23
REMARK SMILES IDX 13 24 18 25 16 26 10 28 3 30 4 31 2 32 1 33 24 34 25 35
REMARK SMILES IDX 26 36 27 38 28 39 29 40 30 41 31 42 32 43 33 44 34 45 40 50
REMARK SMILES IDX 41 51 42 52 43 53 44 54
REMARK H PARENT 6 16 16 27 10 29 26 37 33 46 33 47 34 48 34 49 44 55
ROOT
ATOM      1  N   UNL     1      -5.395  -7.643  -2.925  1.00  0.00    -0.326 N 
ATOM      2  C   UNL     1      -7.676  -7.620  -3.507  1.00  0.00     0.014 C 
ATOM      3  C   UNL     1      -6.602  -6.828  -2.756  1.00  0.00     0.091 C 
ATOM      4  C   UNL     1      -7.267  -9.063  -3.255  1.00  0.00     0.041 C 
ATOM      5  C   UNL     1      -5.750  -8.963  -3.502  1.00  0.00     0.175 C 
ATOM      6  C   UNL     1      -6.592  -5.398  -3.292  1.00  0.00     0.059 C 
ATOM      7  C   UNL     1      -9.066  -7.161  -3.110  1.00  0.00     0.008 C 
ATOM      8  C   UNL     1      -7.976  -4.900  -3.761  1.00  0.00     0.143 C 
ATOM      9  C   UNL     1      -9.128  -5.620  -3.032  1.00  0.00     0.034 C 
ENDROOT
BRANCH   1  10
ATOM     10  C   UNL     1      -4.113  -7.439  -2.445  1.00  0.00     0.246 C 
ATOM     11  O   UNL     1      -3.214  -7.142  -3.240  1.00  0.00    -0.272 OA
BRANCH  10  12
ATOM     12  C   UNL     1      -3.839  -7.545  -0.917  1.00  0.00     0.174 C 
BRANCH  12  13
ATOM     13  N   UNL     1      -3.234  -6.305  -0.432  1.00  0.00    -0.342 N 
ATOM     14  C   UNL     1      -3.415  -5.777   0.827  1.00  0.00     0.249 C 
ATOM     15  O   UNL     1      -4.090  -6.310   1.699  1.00  0.00    -0.272 OA
ATOM     16  H   UNL     1      -2.779  -5.676  -1.088  1.00  0.00     0.164 HD
BRANCH  14  17
ATOM     17  C   UNL     1      -2.658  -4.448   1.030  1.00  0.00     0.207 C 
BRANCH  17  18
ATOM     18  C   UNL     1      -1.196  -4.592   0.593  1.00  0.00     0.077 C 
BRANCH  18  19
ATOM     19  C   UNL     1      -0.928  -3.879  -0.714  1.00  0.00    -0.043 A 
ATOM     20  C   UNL     1       0.211  -3.767  -2.853  1.00  0.00     0.083 A 
ATOM     21  C   UNL     1      -0.074  -4.450  -1.670  1.00  0.00     0.028 A 
ATOM     22  C   UNL     1      -0.353  -2.512  -3.087  1.00  0.00     0.134 A 
ATOM     23  C   UNL     1      -1.201  -1.935  -2.149  1.00  0.00     0.048 A 
ATOM     24  C   UNL     1      -1.486  -2.615  -0.963  1.00  0.00     0.008 A 
ATOM     25  Cl  UNL     1       1.263  -4.485  -4.015  1.00  0.00    -0.080 Cl
BRANCH  22  26
ATOM     26  O   UNL     1      -0.095  -1.800  -4.227  1.00  0.00    -0.506 OA
ATOM     27  H   UNL     1      -0.765  -1.093  -4.273  1.00  0.00     0.293 HD
ENDBRANCH  22  26
ENDBRANCH  18  19
ENDBRANCH  17  18
BRANCH  17  28
ATOM     28  O   UNL     1      -2.705  -4.030   2.404  1.00  0.00    -0.383 OA
ATOM     29  H   UNL     1      -2.583  -4.846   2.941  1.00  0.00     0.211 HD
ENDBRANCH  17  28
ENDBRANCH  14  17
ENDBRANCH  12  13
BRANCH  12  30
ATOM     30  C   UNL     1      -3.002  -8.798  -0.543  1.00  0.00     0.018 C 
ATOM     31  C   UNL     1      -1.498  -8.508  -0.669  1.00  0.00     0.010 C 
BRANCH  30  32
ATOM     32  C   UNL     1      -3.372 -10.059  -1.361  1.00  0.00     0.002 C 
ATOM     33  C   UNL     1      -4.478 -10.920  -0.766  1.00  0.00     0.004 C 
ENDBRANCH  30  32
ENDBRANCH  12  30
ENDBRANCH  10  12
ENDBRANCH   1  10
BRANCH   5  34
ATOM     34  C   UNL     1      -5.413  -9.009  -5.016  1.00  0.00     0.242 C 
ATOM     35  O   UNL     1      -6.243  -8.738  -5.884  1.00  0.00    -0.273 OA
ATOM     36  N   UNL     1      -4.137  -9.429  -5.319  1.00  0.00    -0.354 N 
ATOM     37  H   UNL     1      -3.534  -9.755  -4.563  1.00  0.00     0.163 HD
BRANCH  36  38
ATOM     38  C   UNL     1      -3.587  -9.327  -6.655  1.00  0.00     0.116 C 
BRANCH  38  39
ATOM     39  C   UNL     1      -2.346  -8.437  -6.638  1.00  0.00     0.023 C 
BRANCH  39  40
ATOM     40  C   UNL     1      -2.662  -6.989  -6.994  1.00  0.00     0.026 C 
BRANCH  40  41
ATOM     41  C   UNL     1      -2.685  -6.795  -8.510  1.00  0.00     0.146 C 
BRANCH  41  42
ATOM     42  N   UNL     1      -3.727  -5.843  -8.870  1.00  0.00    -0.254 NA
ATOM     43  C   UNL     1      -4.887  -6.269  -9.201  1.00  0.00     0.185 C 
ATOM     44  N   UNL     1      -5.356  -7.527  -9.282  1.00  0.00    -0.370 N 
ATOM     45  N   UNL     1      -5.833  -5.374  -9.533  1.00  0.00    -0.370 N 
ATOM     46  H   UNL     1      -6.203  -7.727  -9.787  1.00  0.00     0.159 HD
ATOM     47  H   UNL     1      -4.776  -8.328  -9.052  1.00  0.00     0.159 HD
ATOM     48  H   UNL     1      -5.564  -4.401  -9.489  1.00  0.00     0.159 HD
ATOM     49  H   UNL     1      -6.810  -5.604  -9.571  1.00  0.00     0.159 HD
ENDBRANCH  41  42
ENDBRANCH  40  41
ENDBRANCH  39  40
ENDBRANCH  38  39
ENDBRANCH  36  38
ENDBRANCH   5  34
BRANCH   8  50
ATOM     50  O   UNL     1      -8.124  -5.114  -5.166  1.00  0.00    -0.245 OA
BRANCH  50  51
ATOM     51  S   UNL     1      -7.122  -4.361  -6.202  1.00  0.00     0.397 S 
ATOM     52  O   UNL     1      -5.915  -5.148  -6.308  1.00  0.00    -0.169 OA
ATOM     53  O   UNL     1      -7.082  -2.945  -5.898  1.00  0.00    -0.169 OA
BRANCH  51  54
ATOM     54  O   UNL     1      -7.890  -4.544  -7.603  1.00  0.00    -0.264 OA
ATOM     55  H   UNL     1      -7.379  -5.183  -8.142  1.00  0.00     0.236 HD
ENDBRANCH  51  54
ENDBRANCH  50  51
ENDBRANCH   8  50
TORSDOF 19
ENDMDL
MODEL 26
REMARK VINA RESULT:    -6.361      3.131      5.418
REMARK INTER + INTRA:         -17.118
REMARK INTER:                 -14.930
REMARK INTRA:                  -2.188
REMARK UNBOUND:                -4.249
REMARK SMILES CC[C@@H](C)[C@@H](NC(=O)[C@@H](O)Cc1ccc(O)c(Cl)c1)C(=O)N1[C@H](C(=O)NCCCCN=C(N)N)C[C@H]2CC[C@H](OS(=O)(=O)O)C[C@@H]21
REMARK SMILES IDX 22 1 36 2 46 3 35 4 23 5 45 6 37 7 39 8 38 9 20 10 21 11
REMARK SMILES IDX 5 12 6 13 7 14 8 15 9 17 11 18 12 19 17 20 19 21 15 22 14 23
REMARK SMILES IDX 13 24 18 25 16 26 10 28 3 30 4 31 2 32 1 33 24 34 25 35
REMARK SMILES IDX 26 36 27 38 28 39 29 40 30 41 31 42 32 43 33 44 34 45 40 50
REMARK SMILES IDX 41 51 42 52 43 53 44 54
REMARK H PARENT 6 16 16 27 10 29 26 37 33 46 33 47 34 48 34 49 44 55
ROOT
ATOM      1  N   UNL     1      -3.894  -7.904  -2.381  1.00  0.00    -0.326 N 
ATOM      2  C   UNL     1      -5.776  -8.768  -3.501  1.00  0.00     0.014 C 
ATOM      3  C   UNL     1      -5.284  -8.295  -2.130  1.00  0.00     0.091 C 
ATOM      4  C   UNL     1      -4.533  -9.409  -4.100  1.00  0.00     0.041 C 
ATOM      5  C   UNL     1      -3.477  -8.350  -3.733  1.00  0.00     0.175 C 
ATOM      6  C   UNL     1      -6.253  -7.235  -1.609  1.00  0.00     0.059 C 
ATOM      7  C   UNL     1      -7.045  -9.587  -3.370  1.00  0.00     0.008 C 
ATOM      8  C   UNL     1      -7.712  -7.447  -2.067  1.00  0.00     0.143 C 
ATOM      9  C   UNL     1      -8.015  -8.929  -2.367  1.00  0.00     0.034 C 
ENDROOT
BRANCH   1  10
ATOM     10  C   UNL     1      -2.938  -7.416  -1.506  1.00  0.00     0.246 C 
ATOM     11  O   UNL     1      -1.835  -7.970  -1.451  1.00  0.00    -0.272 OA
BRANCH  10  12
ATOM     12  C   UNL     1      -3.256  -6.158  -0.646  1.00  0.00     0.174 C 
BRANCH  12  13
ATOM     13  N   UNL     1      -2.847  -4.949  -1.361  1.00  0.00    -0.342 N 
ATOM     14  C   UNL     1      -1.552  -4.494  -1.468  1.00  0.00     0.249 C 
ATOM     15  O   UNL     1      -0.584  -5.075  -0.993  1.00  0.00    -0.272 OA
ATOM     16  H   UNL     1      -3.552  -4.285  -1.670  1.00  0.00     0.164 HD
BRANCH  14  17
ATOM     17  C   UNL     1      -1.447  -3.180  -2.271  1.00  0.00     0.207 C 
BRANCH  17  18
ATOM     18  C   UNL     1      -0.260  -2.346  -1.779  1.00  0.00     0.077 C 
BRANCH  18  19
ATOM     19  C   UNL     1       0.833  -2.256  -2.821  1.00  0.00    -0.043 A 
ATOM     20  C   UNL     1       2.214  -3.307  -4.516  1.00  0.00     0.083 A 
ATOM     21  C   UNL     1       1.172  -3.380  -3.590  1.00  0.00     0.028 A 
ATOM     22  C   UNL     1       2.923  -2.116  -4.676  1.00  0.00     0.134 A 
ATOM     23  C   UNL     1       2.598  -0.996  -3.921  1.00  0.00     0.048 A 
ATOM     24  C   UNL     1       1.557  -1.066  -2.993  1.00  0.00     0.008 A 
ATOM     25  Cl  UNL     1       2.616  -4.699  -5.452  1.00  0.00    -0.080 Cl
BRANCH  22  26
ATOM     26  O   UNL     1       3.959  -2.000  -5.563  1.00  0.00    -0.506 OA
ATOM     27  H   UNL     1       4.345  -1.115  -5.429  1.00  0.00     0.293 HD
ENDBRANCH  22  26
ENDBRANCH  18  19
ENDBRANCH  17  18
BRANCH  17  28
ATOM     28  O   UNL     1      -2.653  -2.407  -2.157  1.00  0.00    -0.383 OA
ATOM     29  H   UNL     1      -2.964  -2.523  -1.231  1.00  0.00     0.211 HD
ENDBRANCH  17  28
ENDBRANCH  14  17
ENDBRANCH  12  13
BRANCH  12  30
ATOM     30  C   UNL     1      -2.648  -6.237   0.780  1.00  0.00     0.018 C 
ATOM     31  C   UNL     1      -3.095  -7.523   1.493  1.00  0.00     0.010 C 
BRANCH  30  32
ATOM     32  C   UNL     1      -2.965  -5.003   1.660  1.00  0.00     0.002 C 
ATOM     33  C   UNL     1      -2.186  -4.917   2.965  1.00  0.00     0.004 C 
ENDBRANCH  30  32
ENDBRANCH  12  30
ENDBRANCH  10  12
ENDBRANCH   1  10
BRANCH   5  34
ATOM     34  C   UNL     1      -3.487  -7.162  -4.731  1.00  0.00     0.242 C 
ATOM     35  O   UNL     1      -3.407  -5.991  -4.361  1.00  0.00    -0.273 OA
ATOM     36  N   UNL     1      -3.645  -7.510  -6.054  1.00  0.00    -0.354 N 
ATOM     37  H   UNL     1      -3.827  -8.487  -6.287  1.00  0.00     0.163 HD
BRANCH  36  38
ATOM     38  C   UNL     1      -3.463  -6.559  -7.131  1.00  0.00     0.116 C 
BRANCH  38  39
ATOM     39  C   UNL     1      -3.827  -7.209  -8.464  1.00  0.00     0.023 C 
BRANCH  39  40
ATOM     40  C   UNL     1      -4.220  -6.186  -9.524  1.00  0.00     0.026 C 
BRANCH  40  41
ATOM     41  C   UNL     1      -5.687  -6.351  -9.918  1.00  0.00     0.146 C 
BRANCH  41  42
ATOM     42  N   UNL     1      -6.536  -6.163  -8.749  1.00  0.00    -0.254 NA
ATOM     43  C   UNL     1      -7.178  -5.065  -8.602  1.00  0.00     0.185 C 
ATOM     44  N   UNL     1      -7.217  -3.973  -9.388  1.00  0.00    -0.370 N 
ATOM     45  N   UNL     1      -7.951  -4.910  -7.515  1.00  0.00    -0.370 N 
ATOM     46  H   UNL     1      -7.564  -3.099  -9.034  1.00  0.00     0.159 HD
ATOM     47  H   UNL     1      -6.699  -3.926 -10.260  1.00  0.00     0.159 HD
ATOM     48  H   UNL     1      -7.986  -5.691  -6.874  1.00  0.00     0.159 HD
ATOM     49  H   UNL     1      -8.656  -4.197  -7.446  1.00  0.00     0.159 HD
ENDBRANCH  41  42
ENDBRANCH  40  41
ENDBRANCH  39  40
ENDBRANCH  38  39
ENDBRANCH  36  38
ENDBRANCH   5  34
BRANCH   8  50
ATOM     50  O   UNL     1      -7.971  -6.684  -3.246  1.00  0.00    -0.245 OA
BRANCH  50  51
ATOM     51  S   UNL     1      -9.352  -5.833  -3.364  1.00  0.00     0.397 S 
ATOM     52  O   UNL     1     -10.431  -6.662  -2.875  1.00  0.00    -0.169 OA
ATOM     53  O   UNL     1      -9.417  -5.188  -4.659  1.00  0.00    -0.169 OA
BRANCH  51  54
ATOM     54  O   UNL     1      -9.139  -4.691  -2.252  1.00  0.00    -0.264 OA
ATOM     55  H   UNL     1      -9.233  -3.823  -2.694  1.00  0.00     0.236 HD
ENDBRANCH  51  54
ENDBRANCH  50  51
ENDBRANCH   8  50
TORSDOF 19
ENDMDL
MODEL 27
REMARK VINA RESULT:    -6.350      1.718      2.165
REMARK INTER + INTRA:         -17.095
REMARK INTER:                 -13.924
REMARK INTRA:                  -3.171
REMARK UNBOUND:                -4.249
REMARK SMILES CC[C@@H](C)[C@@H](NC(=O)[C@@H](O)Cc1ccc(O)c(Cl)c1)C(=O)N1[C@H](C(=O)NCCCCN=C(N)N)C[C@H]2CC[C@H](OS(=O)(=O)O)C[C@@H]21
REMARK SMILES IDX 22 1 36 2 46 3 35 4 23 5 45 6 37 7 39 8 38 9 20 10 21 11
REMARK SMILES IDX 5 12 6 13 7 14 8 15 9 17 11 18 12 19 17 20 19 21 15 22 14 23
REMARK SMILES IDX 13 24 18 25 16 26 10 28 3 30 4 31 2 32 1 33 24 34 25 35
REMARK SMILES IDX 26 36 27 38 28 39 29 40 30 41 31 42 32 43 33 44 34 45 40 50
REMARK SMILES IDX 41 51 42 52 43 53 44 54
REMARK H PARENT 6 16 16 27 10 29 26 37 33 46 33 47 34 48 34 49 44 55
ROOT
ATOM      1  N   UNL     1      -1.061  -7.848  -6.331  1.00  0.00    -0.326 N 
ATOM      2  C   UNL     1      -3.020  -8.454  -5.173  1.00  0.00     0.014 C 
ATOM      3  C   UNL     1      -1.737  -7.627  -5.049  1.00  0.00     0.091 C 
ATOM      4  C   UNL     1      -2.569  -9.649  -5.998  1.00  0.00     0.041 C 
ATOM      5  C   UNL     1      -1.738  -8.936  -7.080  1.00  0.00     0.175 C 
ATOM      6  C   UNL     1      -2.118  -6.197  -4.669  1.00  0.00     0.059 C 
ATOM      7  C   UNL     1      -3.650  -8.684  -3.813  1.00  0.00     0.008 C 
ATOM      8  C   UNL     1      -3.389  -6.104  -3.797  1.00  0.00     0.143 C 
ATOM      9  C   UNL     1      -3.623  -7.388  -2.975  1.00  0.00     0.034 C 
ENDROOT
BRANCH   1  10
ATOM     10  C   UNL     1       0.154  -7.369  -6.788  1.00  0.00     0.246 C 
ATOM     11  O   UNL     1       0.208  -6.829  -7.899  1.00  0.00    -0.272 OA
BRANCH  10  12
ATOM     12  C   UNL     1       1.413  -7.480  -5.880  1.00  0.00     0.174 C 
BRANCH  12  13
ATOM     13  N   UNL     1       1.564  -6.261  -5.086  1.00  0.00    -0.342 N 
ATOM     14  C   UNL     1       2.047  -6.212  -3.798  1.00  0.00     0.249 C 
ATOM     15  O   UNL     1       2.434  -7.194  -3.177  1.00  0.00    -0.272 OA
ATOM     16  H   UNL     1       1.141  -5.394  -5.409  1.00  0.00     0.164 HD
BRANCH  14  17
ATOM     17  C   UNL     1       2.069  -4.779  -3.224  1.00  0.00     0.207 C 
BRANCH  17  18
ATOM     18  C   UNL     1       0.820  -4.008  -3.662  1.00  0.00     0.077 C 
BRANCH  18  19
ATOM     19  C   UNL     1      -0.140  -3.793  -2.514  1.00  0.00    -0.043 A 
ATOM     20  C   UNL     1      -2.011  -2.602  -1.532  1.00  0.00     0.083 A 
ATOM     21  C   UNL     1      -1.158  -2.832  -2.612  1.00  0.00     0.028 A 
ATOM     22  C   UNL     1      -1.853  -3.326  -0.350  1.00  0.00     0.134 A 
ATOM     23  C   UNL     1      -0.849  -4.281  -0.240  1.00  0.00     0.048 A 
ATOM     24  C   UNL     1       0.008  -4.513  -1.318  1.00  0.00     0.008 A 
ATOM     25  Cl  UNL     1      -3.256  -1.416  -1.672  1.00  0.00    -0.080 Cl
BRANCH  22  26
ATOM     26  O   UNL     1      -2.658  -3.128   0.738  1.00  0.00    -0.506 OA
ATOM     27  H   UNL     1      -2.503  -3.878   1.342  1.00  0.00     0.293 HD
ENDBRANCH  22  26
ENDBRANCH  18  19
ENDBRANCH  17  18
BRANCH  17  28
ATOM     28  O   UNL     1       3.242  -4.069  -3.650  1.00  0.00    -0.383 OA
ATOM     29  H   UNL     1       3.950  -4.746  -3.748  1.00  0.00     0.211 HD
ENDBRANCH  17  28
ENDBRANCH  14  17
ENDBRANCH  12  13
BRANCH  12  30
ATOM     30  C   UNL     1       2.699  -7.831  -6.677  1.00  0.00     0.018 C 
ATOM     31  C   UNL     1       3.451  -8.995  -6.015  1.00  0.00     0.010 C 
BRANCH  30  32
ATOM     32  C   UNL     1       3.652  -6.628  -6.880  1.00  0.00     0.002 C 
ATOM     33  C   UNL     1       4.972  -6.709  -6.125  1.00  0.00     0.004 C 
ENDBRANCH  30  32
ENDBRANCH  12  30
ENDBRANCH  10  12
ENDBRANCH   1  10
BRANCH   5  34
ATOM     34  C   UNL     1      -2.638  -8.354  -8.202  1.00  0.00     0.242 C 
ATOM     35  O   UNL     1      -3.246  -9.071  -8.997  1.00  0.00    -0.273 OA
ATOM     36  N   UNL     1      -2.665  -6.979  -8.277  1.00  0.00    -0.354 N 
ATOM     37  H   UNL     1      -2.047  -6.441  -7.668  1.00  0.00     0.163 HD
BRANCH  36  38
ATOM     38  C   UNL     1      -3.610  -6.269  -9.114  1.00  0.00     0.116 C 
BRANCH  38  39
ATOM     39  C   UNL     1      -4.826  -5.857  -8.289  1.00  0.00     0.023 C 
BRANCH  39  40
ATOM     40  C   UNL     1      -6.128  -6.426  -8.844  1.00  0.00     0.026 C 
BRANCH  40  41
ATOM     41  C   UNL     1      -6.539  -5.691 -10.120  1.00  0.00     0.146 C 
BRANCH  41  42
ATOM     42  N   UNL     1      -7.936  -5.974 -10.422  1.00  0.00    -0.254 NA
ATOM     43  C   UNL     1      -8.768  -5.008 -10.534  1.00  0.00     0.185 C 
ATOM     44  N   UNL     1      -8.575  -3.681 -10.415  1.00  0.00    -0.370 N 
ATOM     45  N   UNL     1     -10.052  -5.290 -10.808  1.00  0.00    -0.370 N 
ATOM     46  H   UNL     1      -9.355  -3.059 -10.285  1.00  0.00     0.159 HD
ATOM     47  H   UNL     1      -7.658  -3.292 -10.222  1.00  0.00     0.159 HD
ATOM     48  H   UNL     1     -10.282  -6.268 -10.922  1.00  0.00     0.159 HD
ATOM     49  H   UNL     1     -10.702  -4.600 -11.141  1.00  0.00     0.159 HD
ENDBRANCH  41  42
ENDBRANCH  40  41
ENDBRANCH  39  40
ENDBRANCH  38  39
ENDBRANCH  36  38
ENDBRANCH   5  34
BRANCH   8  50
ATOM     50  O   UNL     1      -4.533  -5.879  -4.620  1.00  0.00    -0.245 OA
BRANCH  50  51
ATOM     51  S   UNL     1      -5.855  -5.177  -3.984  1.00  0.00     0.397 S 
ATOM     52  O   UNL     1      -5.456  -4.483  -2.780  1.00  0.00    -0.169 OA
ATOM     53  O   UNL     1      -6.956  -6.118  -3.989  1.00  0.00    -0.169 OA
BRANCH  51  54
ATOM     54  O   UNL     1      -6.179  -4.029  -5.063  1.00  0.00    -0.264 OA
ATOM     55  H   UNL     1      -5.335  -3.588  -5.291  1.00  0.00     0.236 HD
ENDBRANCH  51  54
ENDBRANCH  50  51
ENDBRANCH   8  50
TORSDOF 19
ENDMDL
MODEL 28
REMARK VINA RESULT:    -6.348      5.073      9.552
REMARK INTER + INTRA:         -17.090
REMARK INTER:                 -13.851
REMARK INTRA:                  -3.239
REMARK UNBOUND:                -4.249
REMARK SMILES CC[C@@H](C)[C@@H](NC(=O)[C@@H](O)Cc1ccc(O)c(Cl)c1)C(=O)N1[C@H](C(=O)NCCCCN=C(N)N)C[C@H]2CC[C@H](OS(=O)(=O)O)C[C@@H]21
REMARK SMILES IDX 22 1 36 2 46 3 35 4 23 5 45 6 37 7 39 8 38 9 20 10 21 11
REMARK SMILES IDX 5 12 6 13 7 14 8 15 9 17 11 18 12 19 17 20 19 21 15 22 14 23
REMARK SMILES IDX 13 24 18 25 16 26 10 28 3 30 4 31 2 32 1 33 24 34 25 35
REMARK SMILES IDX 26 36 27 38 28 39 29 40 30 41 31 42 32 43 33 44 34 45 40 50
REMARK SMILES IDX 41 51 42 52 43 53 44 54
REMARK H PARENT 6 16 16 27 10 29 26 37 33 46 33 47 34 48 34 49 44 55
ROOT
ATOM      1  N   UNL     1      -4.467  -8.596  -7.586  1.00  0.00    -0.326 N 
ATOM      2  C   UNL     1      -3.085  -8.474  -5.684  1.00  0.00     0.014 C 
ATOM      3  C   UNL     1      -3.687  -7.628  -6.809  1.00  0.00     0.091 C 
ATOM      4  C   UNL     1      -2.833  -9.810  -6.366  1.00  0.00     0.041 C 
ATOM      5  C   UNL     1      -4.156  -9.976  -7.136  1.00  0.00     0.175 C 
ATOM      6  C   UNL     1      -4.420  -6.443  -6.184  1.00  0.00     0.059 C 
ATOM      7  C   UNL     1      -1.931  -7.750  -5.019  1.00  0.00     0.008 C 
ATOM      8  C   UNL     1      -3.788  -5.947  -4.865  1.00  0.00     0.143 C 
ATOM      9  C   UNL     1      -2.280  -6.264  -4.790  1.00  0.00     0.034 C 
ENDROOT
BRANCH   1  10
ATOM     10  C   UNL     1      -5.218  -8.414  -8.735  1.00  0.00     0.246 C 
ATOM     11  O   UNL     1      -6.010  -9.297  -9.081  1.00  0.00    -0.272 OA
BRANCH  10  12
ATOM     12  C   UNL     1      -5.080  -7.089  -9.539  1.00  0.00     0.174 C 
BRANCH  12  13
ATOM     13  N   UNL     1      -6.314  -6.822 -10.276  1.00  0.00    -0.342 N 
ATOM     14  C   UNL     1      -7.359  -6.053  -9.816  1.00  0.00     0.249 C 
ATOM     15  O   UNL     1      -7.357  -5.477  -8.735  1.00  0.00    -0.272 OA
ATOM     16  H   UNL     1      -6.525  -7.357 -11.116  1.00  0.00     0.164 HD
BRANCH  14  17
ATOM     17  C   UNL     1      -8.529  -5.976 -10.820  1.00  0.00     0.207 C 
BRANCH  17  18
ATOM     18  C   UNL     1      -8.509  -7.185 -11.760  1.00  0.00     0.077 C 
BRANCH  18  19
ATOM     19  C   UNL     1      -9.824  -7.931 -11.744  1.00  0.00    -0.043 A 
ATOM     20  C   UNL     1     -11.313  -9.589 -12.702  1.00  0.00     0.083 A 
ATOM     21  C   UNL     1     -10.079  -8.937 -12.689  1.00  0.00     0.028 A 
ATOM     22  C   UNL     1     -12.297  -9.241 -11.777  1.00  0.00     0.134 A 
ATOM     23  C   UNL     1     -12.058  -8.246 -10.836  1.00  0.00     0.048 A 
ATOM     24  C   UNL     1     -10.825  -7.590 -10.821  1.00  0.00     0.008 A 
ATOM     25  Cl  UNL     1     -11.607 -10.823 -13.871  1.00  0.00    -0.080 Cl
BRANCH  22  26
ATOM     26  O   UNL     1     -13.525  -9.844 -11.758  1.00  0.00    -0.506 OA
ATOM     27  H   UNL     1     -14.184  -9.145 -11.927  1.00  0.00     0.293 HD
ENDBRANCH  22  26
ENDBRANCH  18  19
ENDBRANCH  17  18
BRANCH  17  28
ATOM     28  O   UNL     1      -8.466  -4.768 -11.595  1.00  0.00    -0.383 OA
ATOM     29  H   UNL     1      -8.475  -4.028 -10.947  1.00  0.00     0.211 HD
ENDBRANCH  17  28
ENDBRANCH  14  17
ENDBRANCH  12  13
BRANCH  12  30
ATOM     30  C   UNL     1      -3.827  -7.072 -10.456  1.00  0.00     0.018 C 
ATOM     31  C   UNL     1      -3.323  -8.499 -10.721  1.00  0.00     0.010 C 
BRANCH  30  32
ATOM     32  C   UNL     1      -2.673  -6.193  -9.914  1.00  0.00     0.002 C 
ATOM     33  C   UNL     1      -1.391  -6.941  -9.569  1.00  0.00     0.004 C 
ENDBRANCH  30  32
ENDBRANCH  12  30
ENDBRANCH  10  12
ENDBRANCH   1  10
BRANCH   5  34
ATOM     34  C   UNL     1      -5.285 -10.524  -6.222  1.00  0.00     0.242 C 
ATOM     35  O   UNL     1      -6.371  -9.956  -6.105  1.00  0.00    -0.273 OA
ATOM     36  N   UNL     1      -4.964 -11.658  -5.511  1.00  0.00    -0.354 N 
ATOM     37  H   UNL     1      -4.008 -12.014  -5.558  1.00  0.00     0.163 HD
BRANCH  36  38
ATOM     38  C   UNL     1      -5.956 -12.422  -4.783  1.00  0.00     0.116 C 
BRANCH  38  39
ATOM     39  C   UNL     1      -5.872 -12.095  -3.294  1.00  0.00     0.023 C 
BRANCH  39  40
ATOM     40  C   UNL     1      -4.484 -11.618  -2.880  1.00  0.00     0.026 C 
BRANCH  40  41
ATOM     41  C   UNL     1      -4.579 -10.570  -1.771  1.00  0.00     0.146 C 
BRANCH  41  42
ATOM     42  N   UNL     1      -3.727  -9.433  -2.094  1.00  0.00    -0.254 NA
ATOM     43  C   UNL     1      -3.227  -8.729  -1.149  1.00  0.00     0.185 C 
ATOM     44  N   UNL     1      -3.352  -8.856   0.185  1.00  0.00    -0.370 N 
ATOM     45  N   UNL     1      -2.448  -7.682  -1.467  1.00  0.00    -0.370 N 
ATOM     46  H   UNL     1      -3.109  -8.096   0.797  1.00  0.00     0.159 HD
ATOM     47  H   UNL     1      -3.897  -9.605   0.600  1.00  0.00     0.159 HD
ATOM     48  H   UNL     1      -2.294  -7.521  -2.454  1.00  0.00     0.159 HD
ATOM     49  H   UNL     1      -1.838  -7.236  -0.805  1.00  0.00     0.159 HD
ENDBRANCH  41  42
ENDBRANCH  40  41
ENDBRANCH  39  40
ENDBRANCH  38  39
ENDBRANCH  36  38
ENDBRANCH   5  34
BRANCH   8  50
ATOM     50  O   UNL     1      -4.436  -6.560  -3.750  1.00  0.00    -0.245 OA
BRANCH  50  51
ATOM     51  S   UNL     1      -5.254  -5.636  -2.691  1.00  0.00     0.397 S 
ATOM     52  O   UNL     1      -6.133  -6.498  -1.933  1.00  0.00    -0.169 OA
ATOM     53  O   UNL     1      -5.745  -4.449  -3.358  1.00  0.00    -0.169 OA
BRANCH  51  54
ATOM     54  O   UNL     1      -4.095  -5.188  -1.671  1.00  0.00    -0.264 OA
ATOM     55  H   UNL     1      -3.955  -4.225  -1.783  1.00  0.00     0.236 HD
ENDBRANCH  51  54
ENDBRANCH  50  51
ENDBRANCH   8  50
TORSDOF 19
ENDMDL
MODEL 29
REMARK VINA RESULT:    -6.347      3.432      6.766
REMARK INTER + INTRA:         -17.089
REMARK INTER:                 -13.983
REMARK INTRA:                  -3.106
REMARK UNBOUND:                -4.249
REMARK SMILES CC[C@@H](C)[C@@H](NC(=O)[C@@H](O)Cc1ccc(O)c(Cl)c1)C(=O)N1[C@H](C(=O)NCCCCN=C(N)N)C[C@H]2CC[C@H](OS(=O)(=O)O)C[C@@H]21
REMARK SMILES IDX 22 1 36 2 46 3 35 4 23 5 45 6 37 7 39 8 38 9 20 10 21 11
REMARK SMILES IDX 5 12 6 13 7 14 8 15 9 17 11 18 12 19 17 20 19 21 15 22 14 23
REMARK SMILES IDX 13 24 18 25 16 26 10 28 3 30 4 31 2 32 1 33 24 34 25 35
REMARK SMILES IDX 26 36 27 38 28 39 29 40 30 41 31 42 32 43 33 44 34 45 40 50
REMARK SMILES IDX 41 51 42 52 43 53 44 54
REMARK H PARENT 6 16 16 27 10 29 26 37 33 46 33 47 34 48 34 49 44 55
ROOT
ATOM      1  N   UNL     1      -2.940  -6.534  -2.061  1.00  0.00    -0.326 N 
ATOM      2  C   UNL     1      -4.542  -7.626  -3.396  1.00  0.00     0.014 C 
ATOM      3  C   UNL     1      -4.389  -6.598  -2.272  1.00  0.00     0.091 C 
ATOM      4  C   UNL     1      -3.419  -8.609  -3.106  1.00  0.00     0.041 C 
ATOM      5  C   UNL     1      -2.270  -7.629  -2.805  1.00  0.00     0.175 C 
ATOM      6  C   UNL     1      -5.118  -5.320  -2.684  1.00  0.00     0.059 C 
ATOM      7  C   UNL     1      -5.970  -8.131  -3.479  1.00  0.00     0.008 C 
ATOM      8  C   UNL     1      -6.356  -5.569  -3.573  1.00  0.00     0.143 C 
ATOM      9  C   UNL     1      -6.969  -6.964  -3.334  1.00  0.00     0.034 C 
ENDROOT
BRANCH   1  10
ATOM     10  C   UNL     1      -2.207  -5.787  -1.156  1.00  0.00     0.246 C 
ATOM     11  O   UNL     1      -1.002  -6.023  -1.018  1.00  0.00    -0.272 OA
BRANCH  10  12
ATOM     12  C   UNL     1      -2.903  -4.641  -0.365  1.00  0.00     0.174 C 
BRANCH  12  13
ATOM     13  N   UNL     1      -2.145  -3.400  -0.514  1.00  0.00    -0.342 N 
ATOM     14  C   UNL     1      -2.528  -2.327  -1.287  1.00  0.00     0.249 C 
ATOM     15  O   UNL     1      -3.575  -2.284  -1.922  1.00  0.00    -0.272 OA
ATOM     16  H   UNL     1      -1.187  -3.351  -0.175  1.00  0.00     0.164 HD
BRANCH  14  17
ATOM     17  C   UNL     1      -1.506  -1.172  -1.253  1.00  0.00     0.207 C 
BRANCH  17  18
ATOM     18  C   UNL     1      -0.964  -0.894  -2.658  1.00  0.00     0.077 C 
BRANCH  18  19
ATOM     19  C   UNL     1       0.141  -1.854  -3.035  1.00  0.00    -0.043 A 
ATOM     20  C   UNL     1       2.491  -2.303  -3.434  1.00  0.00     0.083 A 
ATOM     21  C   UNL     1       1.479  -1.429  -3.038  1.00  0.00     0.028 A 
ATOM     22  C   UNL     1       2.176  -3.604  -3.829  1.00  0.00     0.134 A 
ATOM     23  C   UNL     1       0.856  -4.038  -3.831  1.00  0.00     0.048 A 
ATOM     24  C   UNL     1      -0.161  -3.165  -3.437  1.00  0.00     0.008 A 
ATOM     25  Cl  UNL     1       4.129  -1.762  -3.432  1.00  0.00    -0.080 Cl
BRANCH  22  26
ATOM     26  O   UNL     1       3.133  -4.494  -4.235  1.00  0.00    -0.506 OA
ATOM     27  H   UNL     1       2.729  -5.380  -4.191  1.00  0.00     0.293 HD
ENDBRANCH  22  26
ENDBRANCH  18  19
ENDBRANCH  17  18
BRANCH  17  28
ATOM     28  O   UNL     1      -0.412  -1.475  -0.372  1.00  0.00    -0.383 OA
ATOM     29  H   UNL     1       0.201  -2.049  -0.886  1.00  0.00     0.211 HD
ENDBRANCH  17  28
ENDBRANCH  14  17
ENDBRANCH  12  13
BRANCH  12  30
ATOM     30  C   UNL     1      -3.155  -5.007   1.123  1.00  0.00     0.018 C 
ATOM     31  C   UNL     1      -1.869  -4.850   1.949  1.00  0.00     0.010 C 
BRANCH  30  32
ATOM     32  C   UNL     1      -3.747  -6.423   1.323  1.00  0.00     0.002 C 
ATOM     33  C   UNL     1      -2.863  -7.395   2.094  1.00  0.00     0.004 C 
ENDBRANCH  30  32
ENDBRANCH  12  30
ENDBRANCH  10  12
ENDBRANCH   1  10
BRANCH   5  34
ATOM     34  C   UNL     1      -1.620  -7.092  -4.108  1.00  0.00     0.242 C 
ATOM     35  O   UNL     1      -2.039  -6.090  -4.688  1.00  0.00    -0.273 OA
ATOM     36  N   UNL     1      -0.578  -7.848  -4.597  1.00  0.00    -0.354 N 
ATOM     37  H   UNL     1      -0.355  -8.732  -4.139  1.00  0.00     0.163 HD
BRANCH  36  38
ATOM     38  C   UNL     1       0.276  -7.384  -5.671  1.00  0.00     0.116 C 
BRANCH  38  39
ATOM     39  C   UNL     1       1.731  -7.374  -5.209  1.00  0.00     0.023 C 
BRANCH  39  40
ATOM     40  C   UNL     1       2.337  -8.772  -5.162  1.00  0.00     0.026 C 
BRANCH  40  41
ATOM     41  C   UNL     1       3.535  -8.812  -4.213  1.00  0.00     0.146 C 
BRANCH  41  42
ATOM     42  N   UNL     1       3.570  -7.595  -3.413  1.00  0.00    -0.254 NA
ATOM     43  C   UNL     1       4.691  -7.157  -2.977  1.00  0.00     0.185 C 
ATOM     44  N   UNL     1       5.933  -7.649  -3.133  1.00  0.00    -0.370 N 
ATOM     45  N   UNL     1       4.702  -6.035  -2.237  1.00  0.00    -0.370 N 
ATOM     46  H   UNL     1       6.685  -7.345  -2.538  1.00  0.00     0.159 HD
ATOM     47  H   UNL     1       6.109  -8.488  -3.678  1.00  0.00     0.159 HD
ATOM     48  H   UNL     1       3.806  -5.594  -2.079  1.00  0.00     0.159 HD
ATOM     49  H   UNL     1       5.538  -5.506  -2.064  1.00  0.00     0.159 HD
ENDBRANCH  41  42
ENDBRANCH  40  41
ENDBRANCH  39  40
ENDBRANCH  38  39
ENDBRANCH  36  38
ENDBRANCH   5  34
BRANCH   8  50
ATOM     50  O   UNL     1      -5.999  -5.461  -4.951  1.00  0.00    -0.245 OA
BRANCH  50  51
ATOM     51  S   UNL     1      -6.842  -4.465  -5.923  1.00  0.00     0.397 S 
ATOM     52  O   UNL     1      -8.152  -4.279  -5.342  1.00  0.00    -0.169 OA
ATOM     53  O   UNL     1      -6.673  -4.874  -7.302  1.00  0.00    -0.169 OA
BRANCH  51  54
ATOM     54  O   UNL     1      -6.071  -3.068  -5.722  1.00  0.00    -0.264 OA
ATOM     55  H   UNL     1      -6.667  -2.467  -5.230  1.00  0.00     0.236 HD
ENDBRANCH  51  54
ENDBRANCH  50  51
ENDBRANCH   8  50
TORSDOF 19
ENDMDL
MODEL 30
REMARK VINA RESULT:    -6.324      4.874      9.874
REMARK INTER + INTRA:         -17.042
REMARK INTER:                 -13.373
REMARK INTRA:                  -3.669
REMARK UNBOUND:                -4.249
REMARK SMILES CC[C@@H](C)[C@@H](NC(=O)[C@@H](O)Cc1ccc(O)c(Cl)c1)C(=O)N1[C@H](C(=O)NCCCCN=C(N)N)C[C@H]2CC[C@H](OS(=O)(=O)O)C[C@@H]21
REMARK SMILES IDX 22 1 36 2 46 3 35 4 23 5 45 6 37 7 39 8 38 9 20 10 21 11
REMARK SMILES IDX 5 12 6 13 7 14 8 15 9 17 11 18 12 19 17 20 19 21 15 22 14 23
REMARK SMILES IDX 13 24 18 25 16 26 10 28 3 30 4 31 2 32 1 33 24 34 25 35
REMARK SMILES IDX 26 36 27 38 28 39 29 40 30 41 31 42 32 43 33 44 34 45 40 50
REMARK SMILES IDX 41 51 42 52 43 53 44 54
REMARK H PARENT 6 16 16 27 10 29 26 37 33 46 33 47 34 48 34 49 44 55
ROOT
ATOM      1  N   UNL     1      -5.085  -7.337  -6.126  1.00  0.00    -0.326 N 
ATOM      2  C   UNL     1      -4.995  -6.460  -3.943  1.00  0.00     0.014 C 
ATOM      3  C   UNL     1      -5.890  -7.247  -4.904  1.00  0.00     0.091 C 
ATOM      4  C   UNL     1      -4.275  -5.494  -4.871  1.00  0.00     0.041 C 
ATOM      5  C   UNL     1      -3.901  -6.448  -6.021  1.00  0.00     0.175 C 
ATOM      6  C   UNL     1      -6.312  -8.545  -4.217  1.00  0.00     0.059 C 
ATOM      7  C   UNL     1      -5.798  -5.913  -2.779  1.00  0.00     0.008 C 
ATOM      8  C   UNL     1      -6.453  -8.419  -2.685  1.00  0.00     0.143 C 
ATOM      9  C   UNL     1      -6.782  -6.977  -2.249  1.00  0.00     0.034 C 
ENDROOT
BRANCH   1  10
ATOM     10  C   UNL     1      -5.383  -7.922  -7.344  1.00  0.00     0.246 C 
ATOM     11  O   UNL     1      -5.709  -9.114  -7.376  1.00  0.00    -0.272 OA
BRANCH  10  12
ATOM     12  C   UNL     1      -5.345  -7.059  -8.639  1.00  0.00     0.174 C 
BRANCH  12  13
ATOM     13  N   UNL     1      -6.665  -7.044  -9.268  1.00  0.00    -0.342 N 
ATOM     14  C   UNL     1      -7.382  -5.909  -9.575  1.00  0.00     0.249 C 
ATOM     15  O   UNL     1      -6.974  -4.771  -9.378  1.00  0.00    -0.272 OA
ATOM     16  H   UNL     1      -7.196  -7.909  -9.346  1.00  0.00     0.164 HD
BRANCH  14  17
ATOM     17  C   UNL     1      -8.750  -6.224 -10.216  1.00  0.00     0.207 C 
BRANCH  17  18
ATOM     18  C   UNL     1      -8.561  -6.856 -11.598  1.00  0.00     0.077 C 
BRANCH  18  19
ATOM     19  C   UNL     1      -9.528  -7.995 -11.832  1.00  0.00    -0.043 A 
ATOM     20  C   UNL     1     -11.498  -9.249 -11.176  1.00  0.00     0.083 A 
ATOM     21  C   UNL     1     -10.635  -8.169 -10.987  1.00  0.00     0.028 A 
ATOM     22  C   UNL     1     -11.260 -10.161 -12.205  1.00  0.00     0.134 A 
ATOM     23  C   UNL     1     -10.168 -10.000 -13.050  1.00  0.00     0.048 A 
ATOM     24  C   UNL     1      -9.302  -8.921 -12.862  1.00  0.00     0.008 A 
ATOM     25  Cl  UNL     1     -12.852  -9.447 -10.127  1.00  0.00    -0.080 Cl
BRANCH  22  26
ATOM     26  O   UNL     1     -12.072 -11.241 -12.423  1.00  0.00    -0.506 OA
ATOM     27  H   UNL     1     -11.580 -12.027 -12.120  1.00  0.00     0.293 HD
ENDBRANCH  22  26
ENDBRANCH  18  19
ENDBRANCH  17  18
BRANCH  17  28
ATOM     28  O   UNL     1      -9.548  -5.036 -10.340  1.00  0.00    -0.383 OA
ATOM     29  H   UNL     1      -8.914  -4.292 -10.450  1.00  0.00     0.211 HD
ENDBRANCH  17  28
ENDBRANCH  14  17
ENDBRANCH  12  13
BRANCH  12  30
ATOM     30  C   UNL     1      -4.226  -7.500  -9.621  1.00  0.00     0.018 C 
ATOM     31  C   UNL     1      -3.344  -6.306 -10.017  1.00  0.00     0.010 C 
BRANCH  30  32
ATOM     32  C   UNL     1      -4.758  -8.212 -10.889  1.00  0.00     0.002 C 
ATOM     33  C   UNL     1      -4.397  -9.687 -11.007  1.00  0.00     0.004 C 
ENDBRANCH  30  32
ENDBRANCH  12  30
ENDBRANCH  10  12
ENDBRANCH   1  10
BRANCH   5  34
ATOM     34  C   UNL     1      -2.625  -7.267  -5.693  1.00  0.00     0.242 C 
ATOM     35  O   UNL     1      -2.556  -8.482  -5.881  1.00  0.00    -0.273 OA
ATOM     36  N   UNL     1      -1.597  -6.547  -5.126  1.00  0.00    -0.354 N 
ATOM     37  H   UNL     1      -1.757  -5.569  -4.884  1.00  0.00     0.163 HD
BRANCH  36  38
ATOM     38  C   UNL     1      -0.268  -7.099  -4.957  1.00  0.00     0.116 C 
BRANCH  38  39
ATOM     39  C   UNL     1       0.256  -6.768  -3.562  1.00  0.00     0.023 C 
BRANCH  39  40
ATOM     40  C   UNL     1      -0.385  -5.512  -2.981  1.00  0.00     0.026 C 
BRANCH  40  41
ATOM     41  C   UNL     1      -1.150  -5.838  -1.699  1.00  0.00     0.146 C 
BRANCH  41  42
ATOM     42  N   UNL     1      -1.017  -7.256  -1.392  1.00  0.00    -0.254 NA
ATOM     43  C   UNL     1      -1.979  -7.872  -0.816  1.00  0.00     0.185 C 
ATOM     44  N   UNL     1      -3.180  -7.418  -0.413  1.00  0.00    -0.370 N 
ATOM     45  N   UNL     1      -1.834  -9.179  -0.537  1.00  0.00    -0.370 N 
ATOM     46  H   UNL     1      -3.736  -7.945   0.239  1.00  0.00     0.159 HD
ATOM     47  H   UNL     1      -3.461  -6.454  -0.559  1.00  0.00     0.159 HD
ATOM     48  H   UNL     1      -0.960  -9.602  -0.816  1.00  0.00     0.159 HD
ATOM     49  H   UNL     1      -2.610  -9.776  -0.312  1.00  0.00     0.159 HD
ENDBRANCH  41  42
ENDBRANCH  40  41
ENDBRANCH  39  40
ENDBRANCH  38  39
ENDBRANCH  36  38
ENDBRANCH   5  34
BRANCH   8  50
ATOM     50  O   UNL     1      -5.240  -8.820  -2.047  1.00  0.00    -0.245 OA
BRANCH  50  51
ATOM     51  S   UNL     1      -4.967 -10.397  -1.759  1.00  0.00     0.397 S 
ATOM     52  O   UNL     1      -3.802 -10.794  -2.516  1.00  0.00    -0.169 OA
ATOM     53  O   UNL     1      -6.214 -11.130  -1.844  1.00  0.00    -0.169 OA
BRANCH  51  54
ATOM     54  O   UNL     1      -4.505 -10.383  -0.219  1.00  0.00    -0.264 OA
ATOM     55  H   UNL     1      -4.872 -11.182   0.210  1.00  0.00     0.236 HD
ENDBRANCH  51  54
ENDBRANCH  50  51
ENDBRANCH   8  50
TORSDOF 19
ENDMDL
MODEL 31
REMARK VINA RESULT:    -6.320      4.110      6.904
REMARK INTER + INTRA:         -17.035
REMARK INTER:                 -13.005
REMARK INTRA:                  -4.030
REMARK UNBOUND:                -4.249
REMARK SMILES CC[C@@H](C)[C@@H](NC(=O)[C@@H](O)Cc1ccc(O)c(Cl)c1)C(=O)N1[C@H](C(=O)NCCCCN=C(N)N)C[C@H]2CC[C@H](OS(=O)(=O)O)C[C@@H]21
REMARK SMILES IDX 22 1 36 2 46 3 35 4 23 5 45 6 37 7 39 8 38 9 20 10 21 11
REMARK SMILES IDX 5 12 6 13 7 14 8 15 9 17 11 18 12 19 17 20 19 21 15 22 14 23
REMARK SMILES IDX 13 24 18 25 16 26 10 28 3 30 4 31 2 32 1 33 24 34 25 35
REMARK SMILES IDX 26 36 27 38 28 39 29 40 30 41 31 42 32 43 33 44 34 45 40 50
REMARK SMILES IDX 41 51 42 52 43 53 44 54
REMARK H PARENT 6 16 16 27 10 29 26 37 33 46 33 47 34 48 34 49 44 55
ROOT
ATOM      1  N   UNL     1       2.799  -5.960  -5.627  1.00  0.00    -0.326 N 
ATOM      2  C   UNL     1       1.349  -7.810  -5.756  1.00  0.00     0.014 C 
ATOM      3  C   UNL     1       1.504  -6.350  -6.191  1.00  0.00     0.091 C 
ATOM      4  C   UNL     1       2.013  -7.824  -4.387  1.00  0.00     0.041 C 
ATOM      5  C   UNL     1       3.282  -7.007  -4.692  1.00  0.00     0.175 C 
ATOM      6  C   UNL     1       1.322  -6.276  -7.706  1.00  0.00     0.059 C 
ATOM      7  C   UNL     1      -0.091  -8.265  -5.888  1.00  0.00     0.008 C 
ATOM      8  C   UNL     1       0.342  -7.329  -8.266  1.00  0.00     0.143 C 
ATOM      9  C   UNL     1      -0.699  -7.768  -7.217  1.00  0.00     0.034 C 
ENDROOT
BRANCH   1  10
ATOM     10  C   UNL     1       3.460  -4.745  -5.679  1.00  0.00     0.246 C 
ATOM     11  O   UNL     1       4.069  -4.435  -6.708  1.00  0.00    -0.272 OA
BRANCH  10  12
ATOM     12  C   UNL     1       3.388  -3.780  -4.460  1.00  0.00     0.174 C 
BRANCH  12  13
ATOM     13  N   UNL     1       1.992  -3.538  -4.098  1.00  0.00    -0.342 N 
ATOM     14  C   UNL     1       1.326  -4.154  -3.061  1.00  0.00     0.249 C 
ATOM     15  O   UNL     1       1.846  -4.961  -2.302  1.00  0.00    -0.272 OA
ATOM     16  H   UNL     1       1.391  -3.015  -4.729  1.00  0.00     0.164 HD
BRANCH  14  17
ATOM     17  C   UNL     1      -0.145  -3.700  -2.945  1.00  0.00     0.207 C 
BRANCH  17  18
ATOM     18  C   UNL     1      -1.086  -4.799  -3.449  1.00  0.00     0.077 C 
BRANCH  18  19
ATOM     19  C   UNL     1      -1.426  -5.790  -2.359  1.00  0.00    -0.043 A 
ATOM     20  C   UNL     1      -2.238  -6.260  -0.122  1.00  0.00     0.083 A 
ATOM     21  C   UNL     1      -1.971  -5.348  -1.144  1.00  0.00     0.028 A 
ATOM     22  C   UNL     1      -1.962  -7.615  -0.307  1.00  0.00     0.134 A 
ATOM     23  C   UNL     1      -1.422  -8.067  -1.505  1.00  0.00     0.048 A 
ATOM     24  C   UNL     1      -1.152  -7.156  -2.529  1.00  0.00     0.008 A 
ATOM     25  Cl  UNL     1      -2.907  -5.697   1.364  1.00  0.00    -0.080 Cl
BRANCH  22  26
ATOM     26  O   UNL     1      -2.196  -8.545   0.670  1.00  0.00    -0.506 OA
ATOM     27  H   UNL     1      -2.617  -8.072   1.412  1.00  0.00     0.293 HD
ENDBRANCH  22  26
ENDBRANCH  18  19
ENDBRANCH  17  18
BRANCH  17  28
ATOM     28  O   UNL     1      -0.375  -2.495  -3.693  1.00  0.00    -0.383 OA
ATOM     29  H   UNL     1       0.329  -2.463  -4.380  1.00  0.00     0.211 HD
ENDBRANCH  17  28
ENDBRANCH  14  17
ENDBRANCH  12  13
BRANCH  12  30
ATOM     30  C   UNL     1       4.177  -2.463  -4.690  1.00  0.00     0.018 C 
ATOM     31  C   UNL     1       5.042  -2.124  -3.466  1.00  0.00     0.010 C 
BRANCH  30  32
ATOM     32  C   UNL     1       3.278  -1.256  -5.057  1.00  0.00     0.002 C 
ATOM     33  C   UNL     1       2.997  -1.082  -6.543  1.00  0.00     0.004 C 
ENDBRANCH  30  32
ENDBRANCH  12  30
ENDBRANCH  10  12
ENDBRANCH   1  10
BRANCH   5  34
ATOM     34  C   UNL     1       4.377  -7.880  -5.361  1.00  0.00     0.242 C 
ATOM     35  O   UNL     1       4.863  -8.865  -4.806  1.00  0.00    -0.273 OA
ATOM     36  N   UNL     1       4.803  -7.441  -6.595  1.00  0.00    -0.354 N 
ATOM     37  H   UNL     1       4.449  -6.552  -6.949  1.00  0.00     0.163 HD
BRANCH  36  38
ATOM     38  C   UNL     1       5.653  -8.244  -7.449  1.00  0.00     0.116 C 
BRANCH  38  39
ATOM     39  C   UNL     1       4.806  -8.963  -8.496  1.00  0.00     0.023 C 
BRANCH  39  40
ATOM     40  C   UNL     1       5.215  -8.608  -9.921  1.00  0.00     0.026 C 
BRANCH  40  41
ATOM     41  C   UNL     1       6.422  -7.670  -9.921  1.00  0.00     0.146 C 
BRANCH  41  42
ATOM     42  N   UNL     1       6.222  -6.609 -10.899  1.00  0.00    -0.254 NA
ATOM     43  C   UNL     1       5.773  -5.472 -10.517  1.00  0.00     0.185 C 
ATOM     44  N   UNL     1       5.428  -5.047  -9.288  1.00  0.00    -0.370 N 
ATOM     45  N   UNL     1       5.590  -4.509 -11.435  1.00  0.00    -0.370 N 
ATOM     46  H   UNL     1       4.865  -4.222  -9.171  1.00  0.00     0.159 HD
ATOM     47  H   UNL     1       5.516  -5.645  -8.473  1.00  0.00     0.159 HD
ATOM     48  H   UNL     1       5.835  -4.745 -12.387  1.00  0.00     0.159 HD
ATOM     49  H   UNL     1       5.474  -3.541 -11.192  1.00  0.00     0.159 HD
ENDBRANCH  41  42
ENDBRANCH  40  41
ENDBRANCH  39  40
ENDBRANCH  38  39
ENDBRANCH  36  38
ENDBRANCH   5  34
BRANCH   8  50
ATOM     50  O   UNL     1       1.059  -8.484  -8.704  1.00  0.00    -0.245 OA
BRANCH  50  51
ATOM     51  S   UNL     1       0.555  -9.291 -10.023  1.00  0.00     0.397 S 
ATOM     52  O   UNL     1       0.631  -8.392 -11.152  1.00  0.00    -0.169 OA
ATOM     53  O   UNL     1      -0.656 -10.021  -9.713  1.00  0.00    -0.169 OA
BRANCH  51  54
ATOM     54  O   UNL     1       1.738 -10.360 -10.234  1.00  0.00    -0.264 OA
ATOM     55  H   UNL     1       2.077 -10.254 -11.146  1.00  0.00     0.236 HD
ENDBRANCH  51  54
ENDBRANCH  50  51
ENDBRANCH   8  50
TORSDOF 19
ENDMDL
MODEL 32
REMARK VINA RESULT:    -6.313      4.438      9.204
REMARK INTER + INTRA:         -17.020
REMARK INTER:                 -14.792
REMARK INTRA:                  -2.228
REMARK UNBOUND:                -4.249
REMARK SMILES CC[C@@H](C)[C@@H](NC(=O)[C@@H](O)Cc1ccc(O)c(Cl)c1)C(=O)N1[C@H](C(=O)NCCCCN=C(N)N)C[C@H]2CC[C@H](OS(=O)(=O)O)C[C@@H]21
REMARK SMILES IDX 22 1 36 2 46 3 35 4 23 5 45 6 37 7 39 8 38 9 20 10 21 11
REMARK SMILES IDX 5 12 6 13 7 14 8 15 9 17 11 18 12 19 17 20 19 21 15 22 14 23
REMARK SMILES IDX 13 24 18 25 16 26 10 28 3 30 4 31 2 32 1 33 24 34 25 35
REMARK SMILES IDX 26 36 27 38 28 39 29 40 30 41 31 42 32 43 33 44 34 45 40 50
REMARK SMILES IDX 41 51 42 52 43 53 44 54
REMARK H PARENT 6 16 16 27 10 29 26 37 33 46 33 47 34 48 34 49 44 55
ROOT
ATOM      1  N   UNL     1      -3.916  -7.864  -4.529  1.00  0.00    -0.326 N 
ATOM      2  C   UNL     1      -2.380  -7.599  -2.765  1.00  0.00     0.014 C 
ATOM      3  C   UNL     1      -2.650  -7.194  -4.217  1.00  0.00     0.091 C 
ATOM      4  C   UNL     1      -2.931  -9.015  -2.704  1.00  0.00     0.041 C 
ATOM      5  C   UNL     1      -4.264  -8.821  -3.450  1.00  0.00     0.175 C 
ATOM      6  C   UNL     1      -2.594  -5.671  -4.313  1.00  0.00     0.059 C 
ATOM      7  C   UNL     1      -0.932  -7.347  -2.393  1.00  0.00     0.008 C 
ATOM      8  C   UNL     1      -1.604  -5.022  -3.321  1.00  0.00     0.143 C 
ATOM      9  C   UNL     1      -0.460  -5.981  -2.933  1.00  0.00     0.034 C 
ENDROOT
BRANCH   1  10
ATOM     10  C   UNL     1      -4.646  -7.880  -5.706  1.00  0.00     0.246 C 
ATOM     11  O   UNL     1      -5.689  -8.540  -5.758  1.00  0.00    -0.272 OA
BRANCH  10  12
ATOM     12  C   UNL     1      -4.162  -7.034  -6.919  1.00  0.00     0.174 C 
BRANCH  12  13
ATOM     13  N   UNL     1      -5.313  -6.478  -7.630  1.00  0.00    -0.342 N 
ATOM     14  C   UNL     1      -6.058  -5.401  -7.207  1.00  0.00     0.249 C 
ATOM     15  O   UNL     1      -5.819  -4.763  -6.189  1.00  0.00    -0.272 OA
ATOM     16  H   UNL     1      -5.724  -6.995  -8.404  1.00  0.00     0.164 HD
BRANCH  14  17
ATOM     17  C   UNL     1      -7.220  -5.067  -8.167  1.00  0.00     0.207 C 
BRANCH  17  18
ATOM     18  C   UNL     1      -6.832  -5.395  -9.612  1.00  0.00     0.077 C 
BRANCH  18  19
ATOM     19  C   UNL     1      -7.704  -6.486 -10.194  1.00  0.00    -0.043 A 
ATOM     20  C   UNL     1      -9.904  -7.384 -10.680  1.00  0.00     0.083 A 
ATOM     21  C   UNL     1      -9.101  -6.354 -10.188  1.00  0.00     0.028 A 
ATOM     22  C   UNL     1      -9.318  -8.548 -11.179  1.00  0.00     0.134 A 
ATOM     23  C   UNL     1      -7.936  -8.691 -11.192  1.00  0.00     0.048 A 
ATOM     24  C   UNL     1      -7.129  -7.663 -10.698  1.00  0.00     0.008 A 
ATOM     25  Cl  UNL     1     -11.619  -7.205 -10.664  1.00  0.00    -0.080 Cl
BRANCH  22  26
ATOM     26  O   UNL     1     -10.064  -9.589 -11.663  1.00  0.00    -0.506 OA
ATOM     27  H   UNL     1      -9.442 -10.203 -12.094  1.00  0.00     0.293 HD
ENDBRANCH  22  26
ENDBRANCH  18  19
ENDBRANCH  17  18
BRANCH  17  28
ATOM     28  O   UNL     1      -7.585  -3.680  -8.075  1.00  0.00    -0.383 OA
ATOM     29  H   UNL     1      -8.128  -3.595  -7.259  1.00  0.00     0.211 HD
ENDBRANCH  17  28
ENDBRANCH  14  17
ENDBRANCH  12  13
BRANCH  12  30
ATOM     30  C   UNL     1      -3.210  -7.822  -7.858  1.00  0.00     0.018 C 
ATOM     31  C   UNL     1      -2.193  -6.880  -8.522  1.00  0.00     0.010 C 
BRANCH  30  32
ATOM     32  C   UNL     1      -3.947  -8.653  -8.937  1.00  0.00     0.002 C 
ATOM     33  C   UNL     1      -3.049  -9.467  -9.859  1.00  0.00     0.004 C 
ENDBRANCH  30  32
ENDBRANCH  12  30
ENDBRANCH  10  12
ENDBRANCH   1  10
BRANCH   5  34
ATOM     34  C   UNL     1      -5.358  -8.231  -2.522  1.00  0.00     0.242 C 
ATOM     35  O   UNL     1      -6.547  -8.201  -2.842  1.00  0.00    -0.273 OA
ATOM     36  N   UNL     1      -4.898  -7.695  -1.340  1.00  0.00    -0.354 N 
ATOM     37  H   UNL     1      -3.890  -7.640  -1.185  1.00  0.00     0.163 HD
BRANCH  36  38
ATOM     38  C   UNL     1      -5.790  -7.300  -0.270  1.00  0.00     0.116 C 
BRANCH  38  39
ATOM     39  C   UNL     1      -5.142  -7.593   1.080  1.00  0.00     0.023 C 
BRANCH  39  40
ATOM     40  C   UNL     1      -4.338  -6.410   1.609  1.00  0.00     0.026 C 
BRANCH  40  41
ATOM     41  C   UNL     1      -2.983  -6.872   2.146  1.00  0.00     0.146 C 
BRANCH  41  42
ATOM     42  N   UNL     1      -2.589  -6.036   3.273  1.00  0.00    -0.254 NA
ATOM     43  C   UNL     1      -1.838  -5.019   3.073  1.00  0.00     0.185 C 
ATOM     44  N   UNL     1      -1.309  -4.544   1.931  1.00  0.00    -0.370 N 
ATOM     45  N   UNL     1      -1.482  -4.263   4.125  1.00  0.00    -0.370 N 
ATOM     46  H   UNL     1      -0.546  -3.888   1.953  1.00  0.00     0.159 HD
ATOM     47  H   UNL     1      -1.488  -4.988   1.036  1.00  0.00     0.159 HD
ATOM     48  H   UNL     1      -1.846  -4.547   5.025  1.00  0.00     0.159 HD
ATOM     49  H   UNL     1      -1.105  -3.337   4.028  1.00  0.00     0.159 HD
ENDBRANCH  41  42
ENDBRANCH  40  41
ENDBRANCH  39  40
ENDBRANCH  38  39
ENDBRANCH  36  38
ENDBRANCH   5  34
BRANCH   8  50
ATOM     50  O   UNL     1      -2.289  -4.629  -2.131  1.00  0.00    -0.245 OA
BRANCH  50  51
ATOM     51  S   UNL     1      -2.266  -3.070  -1.669  1.00  0.00     0.397 S 
ATOM     52  O   UNL     1      -1.227  -2.398  -2.417  1.00  0.00    -0.169 OA
ATOM     53  O   UNL     1      -2.335  -2.990  -0.225  1.00  0.00    -0.169 OA
BRANCH  51  54
ATOM     54  O   UNL     1      -3.656  -2.523  -2.263  1.00  0.00    -0.264 OA
ATOM     55  H   UNL     1      -3.740  -1.582  -2.007  1.00  0.00     0.236 HD
ENDBRANCH  51  54
ENDBRANCH  50  51
ENDBRANCH   8  50
TORSDOF 19
ENDMDL
MODEL 33
REMARK VINA RESULT:    -6.293      3.595      7.913
REMARK INTER + INTRA:         -16.980
REMARK INTER:                 -14.934
REMARK INTRA:                  -2.046
REMARK UNBOUND:                -4.249
REMARK SMILES CC[C@@H](C)[C@@H](NC(=O)[C@@H](O)Cc1ccc(O)c(Cl)c1)C(=O)N1[C@H](C(=O)NCCCCN=C(N)N)C[C@H]2CC[C@H](OS(=O)(=O)O)C[C@@H]21
REMARK SMILES IDX 22 1 36 2 46 3 35 4 23 5 45 6 37 7 39 8 38 9 20 10 21 11
REMARK SMILES IDX 5 12 6 13 7 14 8 15 9 17 11 18 12 19 17 20 19 21 15 22 14 23
REMARK SMILES IDX 13 24 18 25 16 26 10 28 3 30 4 31 2 32 1 33 24 34 25 35
REMARK SMILES IDX 26 36 27 38 28 39 29 40 30 41 31 42 32 43 33 44 34 45 40 50
REMARK SMILES IDX 41 51 42 52 43 53 44 54
REMARK H PARENT 6 16 16 27 10 29 26 37 33 46 33 47 34 48 34 49 44 55
ROOT
ATOM      1  N   UNL     1      -2.636  -6.681  -2.816  1.00  0.00    -0.326 N 
ATOM      2  C   UNL     1      -4.726  -6.434  -1.761  1.00  0.00     0.014 C 
ATOM      3  C   UNL     1      -3.689  -7.479  -2.182  1.00  0.00     0.091 C 
ATOM      4  C   UNL     1      -4.633  -5.402  -2.875  1.00  0.00     0.041 C 
ATOM      5  C   UNL     1      -3.104  -5.287  -3.012  1.00  0.00     0.175 C 
ATOM      6  C   UNL     1      -3.325  -8.319  -0.959  1.00  0.00     0.059 C 
ATOM      7  C   UNL     1      -6.061  -7.085  -1.460  1.00  0.00     0.008 C 
ATOM      8  C   UNL     1      -4.487  -8.491   0.044  1.00  0.00     0.143 C 
ATOM      9  C   UNL     1      -5.864  -8.377  -0.639  1.00  0.00     0.034 C 
ENDROOT
BRANCH   1  10
ATOM     10  C   UNL     1      -1.450  -7.084  -3.406  1.00  0.00     0.246 C 
ATOM     11  O   UNL     1      -0.580  -7.614  -2.707  1.00  0.00    -0.272 OA
BRANCH  10  12
ATOM     12  C   UNL     1      -1.257  -6.902  -4.940  1.00  0.00     0.174 C 
BRANCH  12  13
ATOM     13  N   UNL     1      -2.553  -6.947  -5.615  1.00  0.00    -0.342 N 
ATOM     14  C   UNL     1      -3.351  -8.064  -5.720  1.00  0.00     0.249 C 
ATOM     15  O   UNL     1      -3.072  -9.150  -5.228  1.00  0.00    -0.272 OA
ATOM     16  H   UNL     1      -2.842  -6.168  -6.202  1.00  0.00     0.164 HD
BRANCH  14  17
ATOM     17  C   UNL     1      -4.651  -7.795  -6.508  1.00  0.00     0.207 C 
BRANCH  17  18
ATOM     18  C   UNL     1      -4.813  -6.296  -6.779  1.00  0.00     0.077 C 
BRANCH  18  19
ATOM     19  C   UNL     1      -5.496  -6.034  -8.102  1.00  0.00    -0.043 A 
ATOM     20  C   UNL     1      -7.142  -4.832  -9.418  1.00  0.00     0.083 A 
ATOM     21  C   UNL     1      -6.478  -5.037  -8.207  1.00  0.00     0.028 A 
ATOM     22  C   UNL     1      -6.831  -5.620 -10.527  1.00  0.00     0.134 A 
ATOM     23  C   UNL     1      -5.861  -6.610 -10.437  1.00  0.00     0.048 A 
ATOM     24  C   UNL     1      -5.196  -6.819  -9.226  1.00  0.00     0.008 A 
ATOM     25  Cl  UNL     1      -8.346  -3.602  -9.527  1.00  0.00    -0.080 Cl
BRANCH  22  26
ATOM     26  O   UNL     1      -7.463  -5.463 -11.731  1.00  0.00    -0.506 OA
ATOM     27  H   UNL     1      -6.818  -5.046 -12.333  1.00  0.00     0.293 HD
ENDBRANCH  22  26
ENDBRANCH  18  19
ENDBRANCH  17  18
BRANCH  17  28
ATOM     28  O   UNL     1      -5.800  -8.276  -5.791  1.00  0.00    -0.383 OA
ATOM     29  H   UNL     1      -5.490  -8.465  -4.877  1.00  0.00     0.211 HD
ENDBRANCH  17  28
ENDBRANCH  14  17
ENDBRANCH  12  13
BRANCH  12  30
ATOM     30  C   UNL     1      -0.241  -7.911  -5.540  1.00  0.00     0.018 C 
ATOM     31  C   UNL     1       1.189  -7.584  -5.082  1.00  0.00     0.010 C 
BRANCH  30  32
ATOM     32  C   UNL     1      -0.297  -8.005  -7.084  1.00  0.00     0.002 C 
ATOM     33  C   UNL     1      -0.331  -9.419  -7.650  1.00  0.00     0.004 C 
ENDBRANCH  30  32
ENDBRANCH  12  30
ENDBRANCH  10  12
ENDBRANCH   1  10
BRANCH   5  34
ATOM     34  C   UNL     1      -2.502  -4.347  -1.934  1.00  0.00     0.242 C 
ATOM     35  O   UNL     1      -1.707  -4.746  -1.083  1.00  0.00    -0.273 OA
ATOM     36  N   UNL     1      -2.962  -3.049  -1.965  1.00  0.00    -0.354 N 
ATOM     37  H   UNL     1      -3.709  -2.809  -2.617  1.00  0.00     0.163 HD
BRANCH  36  38
ATOM     38  C   UNL     1      -2.355  -1.995  -1.180  1.00  0.00     0.116 C 
BRANCH  38  39
ATOM     39  C   UNL     1      -2.277  -0.713  -2.006  1.00  0.00     0.023 C 
BRANCH  39  40
ATOM     40  C   UNL     1      -0.873  -0.449  -2.541  1.00  0.00     0.026 C 
BRANCH  40  41
ATOM     41  C   UNL     1       0.063  -1.610  -2.204  1.00  0.00     0.146 C 
BRANCH  41  42
ATOM     42  N   UNL     1       0.581  -2.197  -3.433  1.00  0.00    -0.254 NA
ATOM     43  C   UNL     1       0.955  -3.421  -3.441  1.00  0.00     0.185 C 
ATOM     44  N   UNL     1       0.957  -4.332  -2.451  1.00  0.00    -0.370 N 
ATOM     45  N   UNL     1       1.434  -3.942  -4.583  1.00  0.00    -0.370 N 
ATOM     46  H   UNL     1       1.502  -5.174  -2.530  1.00  0.00     0.159 HD
ATOM     47  H   UNL     1       0.615  -4.109  -1.521  1.00  0.00     0.159 HD
ATOM     48  H   UNL     1       1.458  -3.324  -5.382  1.00  0.00     0.159 HD
ATOM     49  H   UNL     1       1.521  -4.931  -4.735  1.00  0.00     0.159 HD
ENDBRANCH  41  42
ENDBRANCH  40  41
ENDBRANCH  39  40
ENDBRANCH  38  39
ENDBRANCH  36  38
ENDBRANCH   5  34
BRANCH   8  50
ATOM     50  O   UNL     1      -4.403  -7.498   1.066  1.00  0.00    -0.245 OA
BRANCH  50  51
ATOM     51  S   UNL     1      -3.828  -7.901   2.533  1.00  0.00     0.397 S 
ATOM     52  O   UNL     1      -2.467  -8.360   2.368  1.00  0.00    -0.169 OA
ATOM     53  O   UNL     1      -4.815  -8.688   3.243  1.00  0.00    -0.169 OA
BRANCH  51  54
ATOM     54  O   UNL     1      -3.722  -6.469   3.257  1.00  0.00    -0.264 OA
ATOM     55  H   UNL     1      -3.240  -6.595   4.100  1.00  0.00     0.236 HD
ENDBRANCH  51  54
ENDBRANCH  50  51
ENDBRANCH   8  50
TORSDOF 19
ENDMDL
MODEL 34
REMARK VINA RESULT:    -6.283      3.519      6.372
REMARK INTER + INTRA:         -16.960
REMARK INTER:                 -13.642
REMARK INTRA:                  -3.317
REMARK UNBOUND:                -4.249
REMARK SMILES CC[C@@H](C)[C@@H](NC(=O)[C@@H](O)Cc1ccc(O)c(Cl)c1)C(=O)N1[C@H](C(=O)NCCCCN=C(N)N)C[C@H]2CC[C@H](OS(=O)(=O)O)C[C@@H]21
REMARK SMILES IDX 22 1 36 2 46 3 35 4 23 5 45 6 37 7 39 8 38 9 20 10 21 11
REMARK SMILES IDX 5 12 6 13 7 14 8 15 9 17 11 18 12 19 17 20 19 21 15 22 14 23
REMARK SMILES IDX 13 24 18 25 16 26 10 28 3 30 4 31 2 32 1 33 24 34 25 35
REMARK SMILES IDX 26 36 27 38 28 39 29 40 30 41 31 42 32 43 33 44 34 45 40 50
REMARK SMILES IDX 41 51 42 52 43 53 44 54
REMARK H PARENT 6 16 16 27 10 29 26 37 33 46 33 47 34 48 34 49 44 55
ROOT
ATOM      1  N   UNL     1      -1.349  -6.902  -3.522  1.00  0.00    -0.326 N 
ATOM      2  C   UNL     1      -3.542  -7.753  -3.432  1.00  0.00     0.014 C 
ATOM      3  C   UNL     1      -2.079  -8.125  -3.177  1.00  0.00     0.091 C 
ATOM      4  C   UNL     1      -3.446  -6.818  -4.627  1.00  0.00     0.041 C 
ATOM      5  C   UNL     1      -2.258  -5.940  -4.192  1.00  0.00     0.175 C 
ATOM      6  C   UNL     1      -1.958  -8.663  -1.752  1.00  0.00     0.059 C 
ATOM      7  C   UNL     1      -4.409  -8.993  -3.526  1.00  0.00     0.008 C 
ATOM      8  C   UNL     1      -3.220  -9.403  -1.259  1.00  0.00     0.143 C 
ATOM      9  C   UNL     1      -4.032 -10.006  -2.424  1.00  0.00     0.034 C 
ENDROOT
BRANCH   1  10
ATOM     10  C   UNL     1       0.012  -6.646  -3.507  1.00  0.00     0.246 C 
ATOM     11  O   UNL     1       0.460  -5.826  -2.699  1.00  0.00    -0.272 OA
BRANCH  10  12
ATOM     12  C   UNL     1       0.950  -7.425  -4.474  1.00  0.00     0.174 C 
BRANCH  12  13
ATOM     13  N   UNL     1       2.194  -6.681  -4.668  1.00  0.00    -0.342 N 
ATOM     14  C   UNL     1       3.348  -6.868  -3.941  1.00  0.00     0.249 C 
ATOM     15  O   UNL     1       3.469  -7.707  -3.057  1.00  0.00    -0.272 OA
ATOM     16  H   UNL     1       2.198  -5.851  -5.255  1.00  0.00     0.164 HD
BRANCH  14  17
ATOM     17  C   UNL     1       4.484  -5.917  -4.372  1.00  0.00     0.207 C 
BRANCH  17  18
ATOM     18  C   UNL     1       4.128  -5.219  -5.689  1.00  0.00     0.077 C 
BRANCH  18  19
ATOM     19  C   UNL     1       4.154  -3.713  -5.551  1.00  0.00    -0.043 A 
ATOM     20  C   UNL     1       3.406  -1.689  -4.443  1.00  0.00     0.083 A 
ATOM     21  C   UNL     1       3.419  -3.081  -4.536  1.00  0.00     0.028 A 
ATOM     22  C   UNL     1       4.124  -0.921  -5.360  1.00  0.00     0.134 A 
ATOM     23  C   UNL     1       4.857  -1.534  -6.370  1.00  0.00     0.048 A 
ATOM     24  C   UNL     1       4.870  -2.927  -6.468  1.00  0.00     0.008 A 
ATOM     25  Cl  UNL     1       2.497  -0.931  -3.189  1.00  0.00    -0.080 Cl
BRANCH  22  26
ATOM     26  O   UNL     1       4.134   0.447  -5.315  1.00  0.00    -0.506 OA
ATOM     27  H   UNL     1       3.921   0.758  -6.215  1.00  0.00     0.293 HD
ENDBRANCH  22  26
ENDBRANCH  18  19
ENDBRANCH  17  18
BRANCH  17  28
ATOM     28  O   UNL     1       5.722  -6.629  -4.531  1.00  0.00    -0.383 OA
ATOM     29  H   UNL     1       5.981  -6.518  -5.474  1.00  0.00     0.211 HD
ENDBRANCH  17  28
ENDBRANCH  14  17
ENDBRANCH  12  13
BRANCH  12  30
ATOM     30  C   UNL     1       0.260  -7.786  -5.817  1.00  0.00     0.018 C 
ATOM     31  C   UNL     1       0.305  -9.302  -6.064  1.00  0.00     0.010 C 
BRANCH  30  32
ATOM     32  C   UNL     1       0.840  -7.031  -7.037  1.00  0.00     0.002 C 
ATOM     33  C   UNL     1      -0.014  -7.076  -8.298  1.00  0.00     0.004 C 
ENDBRANCH  30  32
ENDBRANCH  12  30
ENDBRANCH  10  12
ENDBRANCH   1  10
BRANCH   5  34
ATOM     34  C   UNL     1      -2.701  -4.825  -3.207  1.00  0.00     0.242 C 
ATOM     35  O   UNL     1      -3.850  -4.751  -2.771  1.00  0.00    -0.273 OA
ATOM     36  N   UNL     1      -1.733  -3.896  -2.900  1.00  0.00    -0.354 N 
ATOM     37  H   UNL     1      -0.836  -3.941  -3.386  1.00  0.00     0.163 HD
BRANCH  36  38
ATOM     38  C   UNL     1      -1.903  -2.921  -1.843  1.00  0.00     0.116 C 
BRANCH  38  39
ATOM     39  C   UNL     1      -0.808  -3.097  -0.794  1.00  0.00     0.023 C 
BRANCH  39  40
ATOM     40  C   UNL     1      -0.802  -4.496  -0.187  1.00  0.00     0.026 C 
BRANCH  40  41
ATOM     41  C   UNL     1      -1.190  -4.447   1.291  1.00  0.00     0.146 C 
BRANCH  41  42
ATOM     42  N   UNL     1      -2.641  -4.469   1.421  1.00  0.00    -0.254 NA
ATOM     43  C   UNL     1      -3.238  -5.574   1.664  1.00  0.00     0.185 C 
ATOM     44  N   UNL     1      -2.735  -6.811   1.835  1.00  0.00    -0.370 N 
ATOM     45  N   UNL     1      -4.577  -5.574   1.775  1.00  0.00    -0.370 N 
ATOM     46  H   UNL     1      -3.330  -7.619   1.776  1.00  0.00     0.159 HD
ATOM     47  H   UNL     1      -1.736  -6.990   1.797  1.00  0.00     0.159 HD
ATOM     48  H   UNL     1      -5.035  -4.679   1.667  1.00  0.00     0.159 HD
ATOM     49  H   UNL     1      -5.088  -6.332   2.191  1.00  0.00     0.159 HD
ENDBRANCH  41  42
ENDBRANCH  40  41
ENDBRANCH  39  40
ENDBRANCH  38  39
ENDBRANCH  36  38
ENDBRANCH   5  34
BRANCH   8  50
ATOM     50  O   UNL     1      -4.063  -8.506  -0.535  1.00  0.00    -0.245 OA
BRANCH  50  51
ATOM     51  S   UNL     1      -5.223  -9.102   0.438  1.00  0.00     0.397 S 
ATOM     52  O   UNL     1      -6.473  -9.068  -0.286  1.00  0.00    -0.169 OA
ATOM     53  O   UNL     1      -5.094  -8.522   1.759  1.00  0.00    -0.169 OA
BRANCH  51  54
ATOM     54  O   UNL     1      -4.814 -10.654   0.535  1.00  0.00    -0.264 OA
ATOM     55  H   UNL     1      -4.010 -10.785  -0.008  1.00  0.00     0.236 HD
ENDBRANCH  51  54
ENDBRANCH  50  51
ENDBRANCH   8  50
TORSDOF 19
ENDMDL
MODEL 35
REMARK VINA RESULT:    -6.263      3.819      7.887
REMARK INTER + INTRA:         -16.919
REMARK INTER:                 -13.476
REMARK INTRA:                  -3.443
REMARK UNBOUND:                -4.249
REMARK SMILES CC[C@@H](C)[C@@H](NC(=O)[C@@H](O)Cc1ccc(O)c(Cl)c1)C(=O)N1[C@H](C(=O)NCCCCN=C(N)N)C[C@H]2CC[C@H](OS(=O)(=O)O)C[C@@H]21
REMARK SMILES IDX 22 1 36 2 46 3 35 4 23 5 45 6 37 7 39 8 38 9 20 10 21 11
REMARK SMILES IDX 5 12 6 13 7 14 8 15 9 17 11 18 12 19 17 20 19 21 15 22 14 23
REMARK SMILES IDX 13 24 18 25 16 26 10 28 3 30 4 31 2 32 1 33 24 34 25 35
REMARK SMILES IDX 26 36 27 38 28 39 29 40 30 41 31 42 32 43 33 44 34 45 40 50
REMARK SMILES IDX 41 51 42 52 43 53 44 54
REMARK H PARENT 6 16 16 27 10 29 26 37 33 46 33 47 34 48 34 49 44 55
ROOT
ATOM      1  N   UNL     1       2.450  -2.813  -3.798  1.00  0.00    -0.326 N 
ATOM      2  C   UNL     1       4.586  -3.703  -3.367  1.00  0.00     0.014 C 
ATOM      3  C   UNL     1       3.101  -3.890  -3.047  1.00  0.00     0.091 C 
ATOM      4  C   UNL     1       4.717  -2.192  -3.478  1.00  0.00     0.041 C 
ATOM      5  C   UNL     1       3.470  -1.872  -4.323  1.00  0.00     0.175 C 
ATOM      6  C   UNL     1       2.715  -5.333  -3.369  1.00  0.00     0.059 C 
ATOM      7  C   UNL     1       5.453  -4.453  -2.375  1.00  0.00     0.008 C 
ATOM      8  C   UNL     1       3.862  -6.345  -3.156  1.00  0.00     0.143 C 
ATOM      9  C   UNL     1       4.876  -5.857  -2.101  1.00  0.00     0.034 C 
ENDROOT
BRANCH   1  10
ATOM     10  C   UNL     1       1.111  -2.471  -3.879  1.00  0.00     0.246 C 
ATOM     11  O   UNL     1       0.731  -1.745  -4.804  1.00  0.00    -0.272 OA
BRANCH  10  12
ATOM     12  C   UNL     1       0.109  -3.040  -2.833  1.00  0.00     0.174 C 
BRANCH  12  13
ATOM     13  N   UNL     1      -0.701  -4.095  -3.441  1.00  0.00    -0.342 N 
ATOM     14  C   UNL     1      -0.871  -5.359  -2.922  1.00  0.00     0.249 C 
ATOM     15  O   UNL     1      -0.378  -5.735  -1.866  1.00  0.00    -0.272 OA
ATOM     16  H   UNL     1      -1.042  -3.983  -4.393  1.00  0.00     0.164 HD
BRANCH  14  17
ATOM     17  C   UNL     1      -1.770  -6.250  -3.806  1.00  0.00     0.207 C 
BRANCH  17  18
ATOM     18  C   UNL     1      -3.126  -6.478  -3.131  1.00  0.00     0.077 C 
BRANCH  18  19
ATOM     19  C   UNL     1      -4.273  -6.023  -4.006  1.00  0.00    -0.043 A 
ATOM     20  C   UNL     1      -6.600  -5.388  -4.260  1.00  0.00     0.083 A 
ATOM     21  C   UNL     1      -5.532  -5.760  -3.444  1.00  0.00     0.028 A 
ATOM     22  C   UNL     1      -6.419  -5.278  -5.640  1.00  0.00     0.134 A 
ATOM     23  C   UNL     1      -5.178  -5.536  -6.210  1.00  0.00     0.048 A 
ATOM     24  C   UNL     1      -4.107  -5.910  -5.395  1.00  0.00     0.008 A 
ATOM     25  Cl  UNL     1      -8.139  -5.068  -3.551  1.00  0.00    -0.080 Cl
BRANCH  22  26
ATOM     26  O   UNL     1      -7.440  -4.926  -6.482  1.00  0.00    -0.506 OA
ATOM     27  H   UNL     1      -8.038  -4.350  -5.971  1.00  0.00     0.293 HD
ENDBRANCH  22  26
ENDBRANCH  18  19
ENDBRANCH  17  18
BRANCH  17  28
ATOM     28  O   UNL     1      -1.147  -7.518  -4.065  1.00  0.00    -0.383 OA
ATOM     29  H   UNL     1      -1.554  -8.155  -3.435  1.00  0.00     0.211 HD
ENDBRANCH  17  28
ENDBRANCH  14  17
ENDBRANCH  12  13
BRANCH  12  30
ATOM     30  C   UNL     1      -0.758  -1.936  -2.170  1.00  0.00     0.018 C 
ATOM     31  C   UNL     1       0.115  -0.756  -1.715  1.00  0.00     0.010 C 
BRANCH  30  32
ATOM     32  C   UNL     1      -1.618  -2.447  -0.988  1.00  0.00     0.002 C 
ATOM     33  C   UNL     1      -2.643  -1.456  -0.452  1.00  0.00     0.004 C 
ENDBRANCH  30  32
ENDBRANCH  12  30
ENDBRANCH  10  12
ENDBRANCH   1  10
BRANCH   5  34
ATOM     34  C   UNL     1       3.723  -2.122  -5.834  1.00  0.00     0.242 C 
ATOM     35  O   UNL     1       4.487  -1.421  -6.497  1.00  0.00    -0.273 OA
ATOM     36  N   UNL     1       2.991  -3.147  -6.389  1.00  0.00    -0.354 N 
ATOM     37  H   UNL     1       2.285  -3.613  -5.817  1.00  0.00     0.163 HD
BRANCH  36  38
ATOM     38  C   UNL     1       3.256  -3.655  -7.719  1.00  0.00     0.116 C 
BRANCH  38  39
ATOM     39  C   UNL     1       4.302  -4.766  -7.651  1.00  0.00     0.023 C 
BRANCH  39  40
ATOM     40  C   UNL     1       4.092  -5.830  -8.722  1.00  0.00     0.026 C 
BRANCH  40  41
ATOM     41  C   UNL     1       2.742  -6.524  -8.540  1.00  0.00     0.146 C 
BRANCH  41  42
ATOM     42  N   UNL     1       2.849  -7.547  -7.508  1.00  0.00    -0.254 NA
ATOM     43  C   UNL     1       2.056  -7.519  -6.503  1.00  0.00     0.185 C 
ATOM     44  N   UNL     1       1.068  -6.655  -6.205  1.00  0.00    -0.370 N 
ATOM     45  N   UNL     1       2.175  -8.468  -5.561  1.00  0.00    -0.370 N 
ATOM     46  H   UNL     1       0.693  -6.608  -5.273  1.00  0.00     0.159 HD
ATOM     47  H   UNL     1       0.833  -5.881  -6.819  1.00  0.00     0.159 HD
ATOM     48  H   UNL     1       2.891  -9.165  -5.713  1.00  0.00     0.159 HD
ATOM     49  H   UNL     1       1.457  -8.654  -4.883  1.00  0.00     0.159 HD
ENDBRANCH  41  42
ENDBRANCH  40  41
ENDBRANCH  39  40
ENDBRANCH  38  39
ENDBRANCH  36  38
ENDBRANCH   5  34
BRANCH   8  50
ATOM     50  O   UNL     1       4.556  -6.565  -4.384  1.00  0.00    -0.245 OA
BRANCH  50  51
ATOM     51  S   UNL     1       5.583  -7.820  -4.512  1.00  0.00     0.397 S 
ATOM     52  O   UNL     1       5.594  -8.249  -5.892  1.00  0.00    -0.169 OA
ATOM     53  O   UNL     1       5.349  -8.752  -3.428  1.00  0.00    -0.169 OA
BRANCH  51  54
ATOM     54  O   UNL     1       7.007  -7.116  -4.261  1.00  0.00    -0.264 OA
ATOM     55  H   UNL     1       7.143  -7.054  -3.294  1.00  0.00     0.236 HD
ENDBRANCH  51  54
ENDBRANCH  50  51
ENDBRANCH   8  50
TORSDOF 19
ENDMDL
MODEL 36
REMARK VINA RESULT:    -6.245      2.619      5.424
REMARK INTER + INTRA:         -16.883
REMARK INTER:                 -14.289
REMARK INTRA:                  -2.595
REMARK UNBOUND:                -4.249
REMARK SMILES CC[C@@H](C)[C@@H](NC(=O)[C@@H](O)Cc1ccc(O)c(Cl)c1)C(=O)N1[C@H](C(=O)NCCCCN=C(N)N)C[C@H]2CC[C@H](OS(=O)(=O)O)C[C@@H]21
REMARK SMILES IDX 22 1 36 2 46 3 35 4 23 5 45 6 37 7 39 8 38 9 20 10 21 11
REMARK SMILES IDX 5 12 6 13 7 14 8 15 9 17 11 18 12 19 17 20 19 21 15 22 14 23
REMARK SMILES IDX 13 24 18 25 16 26 10 28 3 30 4 31 2 32 1 33 24 34 25 35
REMARK SMILES IDX 26 36 27 38 28 39 29 40 30 41 31 42 32 43 33 44 34 45 40 50
REMARK SMILES IDX 41 51 42 52 43 53 44 54
REMARK H PARENT 6 16 16 27 10 29 26 37 33 46 33 47 34 48 34 49 44 55
ROOT
ATOM      1  N   UNL     1      -2.670  -6.865  -4.147  1.00  0.00    -0.326 N 
ATOM      2  C   UNL     1      -2.385  -6.319  -1.875  1.00  0.00     0.014 C 
ATOM      3  C   UNL     1      -1.771  -6.117  -3.263  1.00  0.00     0.091 C 
ATOM      4  C   UNL     1      -2.939  -7.733  -1.955  1.00  0.00     0.041 C 
ATOM      5  C   UNL     1      -3.609  -7.685  -3.341  1.00  0.00     0.175 C 
ATOM      6  C   UNL     1      -1.601  -4.619  -3.503  1.00  0.00     0.059 C 
ATOM      7  C   UNL     1      -1.389  -5.971  -0.786  1.00  0.00     0.008 C 
ATOM      8  C   UNL     1      -1.314  -3.812  -2.219  1.00  0.00     0.143 C 
ATOM      9  C   UNL     1      -0.633  -4.672  -1.135  1.00  0.00     0.034 C 
ENDROOT
BRANCH   1  10
ATOM     10  C   UNL     1      -2.610  -7.060  -5.516  1.00  0.00     0.246 C 
ATOM     11  O   UNL     1      -3.419  -6.473  -6.243  1.00  0.00    -0.272 OA
BRANCH  10  12
ATOM     12  C   UNL     1      -1.502  -7.976  -6.112  1.00  0.00     0.174 C 
BRANCH  12  13
ATOM     13  N   UNL     1      -0.289  -7.196  -6.357  1.00  0.00    -0.342 N 
ATOM     14  C   UNL     1       0.973  -7.543  -5.928  1.00  0.00     0.249 C 
ATOM     15  O   UNL     1       1.225  -8.569  -5.310  1.00  0.00    -0.272 OA
ATOM     16  H   UNL     1      -0.363  -6.248  -6.718  1.00  0.00     0.164 HD
BRANCH  14  17
ATOM     17  C   UNL     1       2.044  -6.505  -6.329  1.00  0.00     0.207 C 
BRANCH  17  18
ATOM     18  C   UNL     1       2.011  -5.307  -5.375  1.00  0.00     0.077 C 
BRANCH  18  19
ATOM     19  C   UNL     1       3.233  -5.264  -4.485  1.00  0.00    -0.043 A 
ATOM     20  C   UNL     1       5.141  -6.373  -3.478  1.00  0.00     0.083 A 
ATOM     21  C   UNL     1       4.043  -6.401  -4.339  1.00  0.00     0.028 A 
ATOM     22  C   UNL     1       5.435  -5.214  -2.758  1.00  0.00     0.134 A 
ATOM     23  C   UNL     1       4.641  -4.081  -2.893  1.00  0.00     0.048 A 
ATOM     24  C   UNL     1       3.540  -4.107  -3.753  1.00  0.00     0.008 A 
ATOM     25  Cl  UNL     1       6.125  -7.780  -3.313  1.00  0.00    -0.080 Cl
BRANCH  22  26
ATOM     26  O   UNL     1       6.494  -5.143  -1.895  1.00  0.00    -0.506 OA
ATOM     27  H   UNL     1       7.174  -5.754  -2.234  1.00  0.00     0.293 HD
ENDBRANCH  22  26
ENDBRANCH  18  19
ENDBRANCH  17  18
BRANCH  17  28
ATOM     28  O   UNL     1       1.843  -6.048  -7.676  1.00  0.00    -0.383 OA
ATOM     29  H   UNL     1       2.723  -6.096  -8.114  1.00  0.00     0.211 HD
ENDBRANCH  17  28
ENDBRANCH  14  17
ENDBRANCH  12  13
BRANCH  12  30
ATOM     30  C   UNL     1      -1.975  -8.746  -7.374  1.00  0.00     0.018 C 
ATOM     31  C   UNL     1      -1.466 -10.196  -7.352  1.00  0.00     0.010 C 
BRANCH  30  32
ATOM     32  C   UNL     1      -1.578  -8.063  -8.705  1.00  0.00     0.002 C 
ATOM     33  C   UNL     1      -2.548  -8.274  -9.861  1.00  0.00     0.004 C 
ENDBRANCH  30  32
ENDBRANCH  12  30
ENDBRANCH  10  12
ENDBRANCH   1  10
BRANCH   5  34
ATOM     34  C   UNL     1      -5.008  -7.016  -3.277  1.00  0.00     0.242 C 
ATOM     35  O   UNL     1      -5.953  -7.524  -2.673  1.00  0.00    -0.273 OA
ATOM     36  N   UNL     1      -5.129  -5.843  -3.988  1.00  0.00    -0.354 N 
ATOM     37  H   UNL     1      -4.346  -5.536  -4.566  1.00  0.00     0.163 HD
BRANCH  36  38
ATOM     38  C   UNL     1      -6.287  -4.981  -3.866  1.00  0.00     0.116 C 
BRANCH  38  39
ATOM     39  C   UNL     1      -7.330  -5.362  -4.913  1.00  0.00     0.023 C 
BRANCH  39  40
ATOM     40  C   UNL     1      -7.631  -4.220  -5.878  1.00  0.00     0.026 C 
BRANCH  40  41
ATOM     41  C   UNL     1      -7.204  -4.585  -7.300  1.00  0.00     0.146 C 
BRANCH  41  42
ATOM     42  N   UNL     1      -8.057  -3.899  -8.262  1.00  0.00    -0.254 NA
ATOM     43  C   UNL     1      -7.903  -4.118  -9.513  1.00  0.00     0.185 C 
ATOM     44  N   UNL     1      -7.036  -4.926 -10.151  1.00  0.00    -0.370 N 
ATOM     45  N   UNL     1      -8.696  -3.472 -10.384  1.00  0.00    -0.370 N 
ATOM     46  H   UNL     1      -6.862  -4.816 -11.135  1.00  0.00     0.159 HD
ATOM     47  H   UNL     1      -6.371  -5.500  -9.642  1.00  0.00     0.159 HD
ATOM     48  H   UNL     1      -9.386  -2.849  -9.985  1.00  0.00     0.159 HD
ATOM     49  H   UNL     1      -8.801  -3.759 -11.341  1.00  0.00     0.159 HD
ENDBRANCH  41  42
ENDBRANCH  40  41
ENDBRANCH  39  40
ENDBRANCH  38  39
ENDBRANCH  36  38
ENDBRANCH   5  34
BRANCH   8  50
ATOM     50  O   UNL     1      -2.532  -3.290  -1.685  1.00  0.00    -0.245 OA
BRANCH  50  51
ATOM     51  S   UNL     1      -2.657  -1.698  -1.379  1.00  0.00     0.397 S 
ATOM     52  O   UNL     1      -3.877  -1.221  -1.992  1.00  0.00    -0.169 OA
ATOM     53  O   UNL     1      -1.383  -1.054  -1.622  1.00  0.00    -0.169 OA
BRANCH  51  54
ATOM     54  O   UNL     1      -2.928  -1.681   0.206  1.00  0.00    -0.264 OA
ATOM     55  H   UNL     1      -3.891  -1.781   0.345  1.00  0.00     0.236 HD
ENDBRANCH  51  54
ENDBRANCH  50  51
ENDBRANCH   8  50
TORSDOF 19
ENDMDL
MODEL 37
REMARK VINA RESULT:    -6.240      3.686      5.909
REMARK INTER + INTRA:         -16.872
REMARK INTER:                 -12.937
REMARK INTRA:                  -3.935
REMARK UNBOUND:                -4.249
REMARK SMILES CC[C@@H](C)[C@@H](NC(=O)[C@@H](O)Cc1ccc(O)c(Cl)c1)C(=O)N1[C@H](C(=O)NCCCCN=C(N)N)C[C@H]2CC[C@H](OS(=O)(=O)O)C[C@@H]21
REMARK SMILES IDX 22 1 36 2 46 3 35 4 23 5 45 6 37 7 39 8 38 9 20 10 21 11
REMARK SMILES IDX 5 12 6 13 7 14 8 15 9 17 11 18 12 19 17 20 19 21 15 22 14 23
REMARK SMILES IDX 13 24 18 25 16 26 10 28 3 30 4 31 2 32 1 33 24 34 25 35
REMARK SMILES IDX 26 36 27 38 28 39 29 40 30 41 31 42 32 43 33 44 34 45 40 50
REMARK SMILES IDX 41 51 42 52 43 53 44 54
REMARK H PARENT 6 16 16 27 10 29 26 37 33 46 33 47 34 48 34 49 44 55
ROOT
ATOM      1  N   UNL     1      -6.302  -8.419  -2.040  1.00  0.00    -0.326 N 
ATOM      2  C   UNL     1      -8.208  -7.614  -3.164  1.00  0.00     0.014 C 
ATOM      3  C   UNL     1      -7.071  -7.186  -2.233  1.00  0.00     0.091 C 
ATOM      4  C   UNL     1      -8.491  -9.039  -2.714  1.00  0.00     0.041 C 
ATOM      5  C   UNL     1      -7.053  -9.576  -2.588  1.00  0.00     0.175 C 
ATOM      6  C   UNL     1      -6.365  -5.982  -2.855  1.00  0.00     0.059 C 
ATOM      7  C   UNL     1      -9.330  -6.595  -3.155  1.00  0.00     0.008 C 
ATOM      8  C   UNL     1      -7.298  -5.074  -3.684  1.00  0.00     0.143 C 
ATOM      9  C   UNL     1      -8.763  -5.161  -3.209  1.00  0.00     0.034 C 
ENDROOT
BRANCH   1  10
ATOM     10  C   UNL     1      -5.170  -8.649  -1.278  1.00  0.00     0.246 C 
ATOM     11  O   UNL     1      -5.262  -9.342  -0.259  1.00  0.00    -0.272 OA
BRANCH  10  12
ATOM     12  C   UNL     1      -3.802  -8.070  -1.741  1.00  0.00     0.174 C 
BRANCH  12  13
ATOM     13  N   UNL     1      -3.586  -6.756  -1.135  1.00  0.00    -0.342 N 
ATOM     14  C   UNL     1      -3.049  -6.542   0.115  1.00  0.00     0.249 C 
ATOM     15  O   UNL     1      -2.662  -7.438   0.854  1.00  0.00    -0.272 OA
ATOM     16  H   UNL     1      -3.999  -5.931  -1.561  1.00  0.00     0.164 HD
BRANCH  14  17
ATOM     17  C   UNL     1      -2.965  -5.044   0.478  1.00  0.00     0.207 C 
BRANCH  17  18
ATOM     18  C   UNL     1      -1.503  -4.606   0.613  1.00  0.00     0.077 C 
BRANCH  18  19
ATOM     19  C   UNL     1      -1.000  -3.933  -0.645  1.00  0.00    -0.043 A 
ATOM     20  C   UNL     1      -0.874  -1.979  -2.077  1.00  0.00     0.083 A 
ATOM     21  C   UNL     1      -1.298  -2.584  -0.893  1.00  0.00     0.028 A 
ATOM     22  C   UNL     1      -0.154  -2.716  -3.018  1.00  0.00     0.134 A 
ATOM     23  C   UNL     1       0.148  -4.052  -2.785  1.00  0.00     0.048 A 
ATOM     24  C   UNL     1      -0.276  -4.661  -1.601  1.00  0.00     0.008 A 
ATOM     25  Cl  UNL     1      -1.250  -0.321  -2.365  1.00  0.00    -0.080 Cl
BRANCH  22  26
ATOM     26  O   UNL     1       0.274  -2.170  -4.198  1.00  0.00    -0.506 OA
ATOM     27  H   UNL     1       0.007  -1.232  -4.185  1.00  0.00     0.293 HD
ENDBRANCH  22  26
ENDBRANCH  18  19
ENDBRANCH  17  18
BRANCH  17  28
ATOM     28  O   UNL     1      -3.660  -4.770   1.705  1.00  0.00    -0.383 OA
ATOM     29  H   UNL     1      -3.480  -5.535   2.296  1.00  0.00     0.211 HD
ENDBRANCH  17  28
ENDBRANCH  14  17
ENDBRANCH  12  13
BRANCH  12  30
ATOM     30  C   UNL     1      -3.656  -8.040  -3.287  1.00  0.00     0.018 C 
ATOM     31  C   UNL     1      -2.979  -9.322  -3.796  1.00  0.00     0.010 C 
BRANCH  30  32
ATOM     32  C   UNL     1      -2.903  -6.794  -3.816  1.00  0.00     0.002 C 
ATOM     33  C   UNL     1      -1.495  -7.056  -4.333  1.00  0.00     0.004 C 
ENDBRANCH  30  32
ENDBRANCH  12  30
ENDBRANCH  10  12
ENDBRANCH   1  10
BRANCH   5  34
ATOM     34  C   UNL     1      -6.479 -10.002  -3.966  1.00  0.00     0.242 C 
ATOM     35  O   UNL     1      -6.434  -9.233  -4.926  1.00  0.00    -0.273 OA
ATOM     36  N   UNL     1      -6.074 -11.315  -4.051  1.00  0.00    -0.354 N 
ATOM     37  H   UNL     1      -6.248 -11.935  -3.258  1.00  0.00     0.163 HD
BRANCH  36  38
ATOM     38  C   UNL     1      -5.323 -11.821  -5.181  1.00  0.00     0.116 C 
BRANCH  38  39
ATOM     39  C   UNL     1      -6.271 -12.476  -6.182  1.00  0.00     0.023 C 
BRANCH  39  40
ATOM     40  C   UNL     1      -6.047 -11.980  -7.607  1.00  0.00     0.026 C 
BRANCH  40  41
ATOM     41  C   UNL     1      -5.118 -10.766  -7.619  1.00  0.00     0.146 C 
BRANCH  41  42
ATOM     42  N   UNL     1      -5.783  -9.644  -8.267  1.00  0.00    -0.254 NA
ATOM     43  C   UNL     1      -5.508  -8.448  -7.902  1.00  0.00     0.185 C 
ATOM     44  N   UNL     1      -4.654  -8.005  -6.960  1.00  0.00    -0.370 N 
ATOM     45  N   UNL     1      -6.135  -7.427  -8.509  1.00  0.00    -0.370 N 
ATOM     46  H   UNL     1      -4.719  -7.064  -6.612  1.00  0.00     0.159 HD
ATOM     47  H   UNL     1      -4.087  -8.645  -6.413  1.00  0.00     0.159 HD
ATOM     48  H   UNL     1      -6.790  -7.674  -9.239  1.00  0.00     0.159 HD
ATOM     49  H   UNL     1      -5.810  -6.478  -8.452  1.00  0.00     0.159 HD
ENDBRANCH  41  42
ENDBRANCH  40  41
ENDBRANCH  39  40
ENDBRANCH  38  39
ENDBRANCH  36  38
ENDBRANCH   5  34
BRANCH   8  50
ATOM     50  O   UNL     1      -7.246  -5.446  -5.062  1.00  0.00    -0.245 OA
BRANCH  50  51
ATOM     51  S   UNL     1      -6.821  -4.340  -6.177  1.00  0.00     0.397 S 
ATOM     52  O   UNL     1      -6.392  -3.148  -5.481  1.00  0.00    -0.169 OA
ATOM     53  O   UNL     1      -7.823  -4.292  -7.221  1.00  0.00    -0.169 OA
BRANCH  51  54
ATOM     54  O   UNL     1      -5.487  -4.988  -6.799  1.00  0.00    -0.264 OA
ATOM     55  H   UNL     1      -5.544  -5.958  -6.682  1.00  0.00     0.236 HD
ENDBRANCH  51  54
ENDBRANCH  50  51
ENDBRANCH   8  50
TORSDOF 19
ENDMDL
MODEL 38
REMARK VINA RESULT:    -6.217      4.204      8.893
REMARK INTER + INTRA:         -16.825
REMARK INTER:                 -14.384
REMARK INTRA:                  -2.441
REMARK UNBOUND:                -4.249
REMARK SMILES CC[C@@H](C)[C@@H](NC(=O)[C@@H](O)Cc1ccc(O)c(Cl)c1)C(=O)N1[C@H](C(=O)NCCCCN=C(N)N)C[C@H]2CC[C@H](OS(=O)(=O)O)C[C@@H]21
REMARK SMILES IDX 22 1 36 2 46 3 35 4 23 5 45 6 37 7 39 8 38 9 20 10 21 11
REMARK SMILES IDX 5 12 6 13 7 14 8 15 9 17 11 18 12 19 17 20 19 21 15 22 14 23
REMARK SMILES IDX 13 24 18 25 16 26 10 28 3 30 4 31 2 32 1 33 24 34 25 35
REMARK SMILES IDX 26 36 27 38 28 39 29 40 30 41 31 42 32 43 33 44 34 45 40 50
REMARK SMILES IDX 41 51 42 52 43 53 44 54
REMARK H PARENT 6 16 16 27 10 29 26 37 33 46 33 47 34 48 34 49 44 55
ROOT
ATOM      1  N   UNL     1      -3.963  -7.957  -4.030  1.00  0.00    -0.326 N 
ATOM      2  C   UNL     1      -2.217  -7.567  -2.499  1.00  0.00     0.014 C 
ATOM      3  C   UNL     1      -2.733  -7.172  -3.885  1.00  0.00     0.091 C 
ATOM      4  C   UNL     1      -2.617  -9.031  -2.397  1.00  0.00     0.041 C 
ATOM      5  C   UNL     1      -4.057  -8.958  -2.939  1.00  0.00     0.175 C 
ATOM      6  C   UNL     1      -2.835  -5.649  -3.946  1.00  0.00     0.059 C 
ATOM      7  C   UNL     1      -0.760  -7.182  -2.332  1.00  0.00     0.008 C 
ATOM      8  C   UNL     1      -1.777  -4.920  -3.089  1.00  0.00     0.143 C 
ATOM      9  C   UNL     1      -0.504  -5.769  -2.897  1.00  0.00     0.034 C 
ENDROOT
BRANCH   1  10
ATOM     10  C   UNL     1      -4.851  -8.027  -5.089  1.00  0.00     0.246 C 
ATOM     11  O   UNL     1      -5.962  -7.496  -4.978  1.00  0.00    -0.272 OA
BRANCH  10  12
ATOM     12  C   UNL     1      -4.419  -8.733  -6.407  1.00  0.00     0.174 C 
BRANCH  12  13
ATOM     13  N   UNL     1      -4.471  -7.786  -7.520  1.00  0.00    -0.342 N 
ATOM     14  C   UNL     1      -3.405  -7.042  -7.974  1.00  0.00     0.249 C 
ATOM     15  O   UNL     1      -2.275  -7.113  -7.507  1.00  0.00    -0.272 OA
ATOM     16  H   UNL     1      -5.371  -7.505  -7.902  1.00  0.00     0.164 HD
BRANCH  14  17
ATOM     17  C   UNL     1      -3.782  -6.120  -9.153  1.00  0.00     0.207 C 
BRANCH  17  18
ATOM     18  C   UNL     1      -4.565  -6.900 -10.214  1.00  0.00     0.077 C 
BRANCH  18  19
ATOM     19  C   UNL     1      -5.985  -6.395 -10.348  1.00  0.00    -0.043 A 
ATOM     20  C   UNL     1      -7.687  -4.744  -9.836  1.00  0.00     0.083 A 
ATOM     21  C   UNL     1      -6.364  -5.182  -9.752  1.00  0.00     0.028 A 
ATOM     22  C   UNL     1      -8.635  -5.513 -10.512  1.00  0.00     0.134 A 
ATOM     23  C   UNL     1      -8.273  -6.715 -11.107  1.00  0.00     0.048 A 
ATOM     24  C   UNL     1      -6.950  -7.158 -11.023  1.00  0.00     0.008 A 
ATOM     25  Cl  UNL     1      -8.134  -3.252  -9.097  1.00  0.00    -0.080 Cl
BRANCH  22  26
ATOM     26  O   UNL     1      -9.945  -5.129 -10.611  1.00  0.00    -0.506 OA
ATOM     27  H   UNL     1     -10.465  -5.770 -10.091  1.00  0.00     0.293 HD
ENDBRANCH  22  26
ENDBRANCH  18  19
ENDBRANCH  17  18
BRANCH  17  28
ATOM     28  O   UNL     1      -2.611  -5.543  -9.754  1.00  0.00    -0.383 OA
ATOM     29  H   UNL     1      -2.938  -4.900 -10.423  1.00  0.00     0.211 HD
ENDBRANCH  17  28
ENDBRANCH  14  17
ENDBRANCH  12  13
BRANCH  12  30
ATOM     30  C   UNL     1      -5.233 -10.024  -6.690  1.00  0.00     0.018 C 
ATOM     31  C   UNL     1      -4.672 -11.210  -5.889  1.00  0.00     0.010 C 
BRANCH  30  32
ATOM     32  C   UNL     1      -5.317 -10.390  -8.192  1.00  0.00     0.002 C 
ATOM     33  C   UNL     1      -4.886 -11.808  -8.543  1.00  0.00     0.004 C 
ENDBRANCH  30  32
ENDBRANCH  12  30
ENDBRANCH  10  12
ENDBRANCH   1  10
BRANCH   5  34
ATOM     34  C   UNL     1      -5.055  -8.489  -1.847  1.00  0.00     0.242 C 
ATOM     35  O   UNL     1      -6.060  -9.136  -1.552  1.00  0.00    -0.273 OA
ATOM     36  N   UNL     1      -4.765  -7.272  -1.272  1.00  0.00    -0.354 N 
ATOM     37  H   UNL     1      -3.986  -6.727  -1.642  1.00  0.00     0.163 HD
BRANCH  36  38
ATOM     38  C   UNL     1      -5.460  -6.787  -0.097  1.00  0.00     0.116 C 
BRANCH  38  39
ATOM     39  C   UNL     1      -4.676  -7.159   1.159  1.00  0.00     0.023 C 
BRANCH  39  40
ATOM     40  C   UNL     1      -3.579  -6.151   1.483  1.00  0.00     0.026 C 
BRANCH  40  41
ATOM     41  C   UNL     1      -2.589  -6.732   2.492  1.00  0.00     0.146 C 
BRANCH  41  42
ATOM     42  N   UNL     1      -2.428  -5.811   3.610  1.00  0.00    -0.254 NA
ATOM     43  C   UNL     1      -1.546  -4.885   3.545  1.00  0.00     0.185 C 
ATOM     44  N   UNL     1      -0.678  -4.584   2.562  1.00  0.00    -0.370 N 
ATOM     45  N   UNL     1      -1.410  -4.049   4.588  1.00  0.00    -0.370 N 
ATOM     46  H   UNL     1       0.116  -3.993   2.742  1.00  0.00     0.159 HD
ATOM     47  H   UNL     1      -0.654  -5.109   1.693  1.00  0.00     0.159 HD
ATOM     48  H   UNL     1      -2.033  -4.202   5.369  1.00  0.00     0.159 HD
ATOM     49  H   UNL     1      -0.923  -3.173   4.522  1.00  0.00     0.159 HD
ENDBRANCH  41  42
ENDBRANCH  40  41
ENDBRANCH  39  40
ENDBRANCH  38  39
ENDBRANCH  36  38
ENDBRANCH   5  34
BRANCH   8  50
ATOM     50  O   UNL     1      -2.315  -4.612  -1.803  1.00  0.00    -0.245 OA
BRANCH  50  51
ATOM     51  S   UNL     1      -1.549  -3.541  -0.848  1.00  0.00     0.397 S 
ATOM     52  O   UNL     1      -1.434  -2.297  -1.576  1.00  0.00    -0.169 OA
ATOM     53  O   UNL     1      -0.399  -4.171  -0.235  1.00  0.00    -0.169 OA
BRANCH  51  54
ATOM     54  O   UNL     1      -2.641  -3.276   0.302  1.00  0.00    -0.264 OA
ATOM     55  H   UNL     1      -2.810  -2.312   0.337  1.00  0.00     0.236 HD
ENDBRANCH  51  54
ENDBRANCH  50  51
ENDBRANCH   8  50
TORSDOF 19
ENDMDL
MODEL 39
REMARK VINA RESULT:    -6.195      4.354      7.230
REMARK INTER + INTRA:         -16.782
REMARK INTER:                 -14.444
REMARK INTRA:                  -2.338
REMARK UNBOUND:                -4.249
REMARK SMILES CC[C@@H](C)[C@@H](NC(=O)[C@@H](O)Cc1ccc(O)c(Cl)c1)C(=O)N1[C@H](C(=O)NCCCCN=C(N)N)C[C@H]2CC[C@H](OS(=O)(=O)O)C[C@@H]21
REMARK SMILES IDX 22 1 36 2 46 3 35 4 23 5 45 6 37 7 39 8 38 9 20 10 21 11
REMARK SMILES IDX 5 12 6 13 7 14 8 15 9 17 11 18 12 19 17 20 19 21 15 22 14 23
REMARK SMILES IDX 13 24 18 25 16 26 10 28 3 30 4 31 2 32 1 33 24 34 25 35
REMARK SMILES IDX 26 36 27 38 28 39 29 40 30 41 31 42 32 43 33 44 34 45 40 50
REMARK SMILES IDX 41 51 42 52 43 53 44 54
REMARK H PARENT 6 16 16 27 10 29 26 37 33 46 33 47 34 48 34 49 44 55
ROOT
ATOM      1  N   UNL     1       3.078  -5.976  -7.787  1.00  0.00    -0.326 N 
ATOM      2  C   UNL     1       2.973  -8.316  -8.019  1.00  0.00     0.014 C 
ATOM      3  C   UNL     1       2.112  -7.078  -7.752  1.00  0.00     0.091 C 
ATOM      4  C   UNL     1       4.284  -7.967  -7.332  1.00  0.00     0.041 C 
ATOM      5  C   UNL     1       4.461  -6.513  -7.806  1.00  0.00     0.175 C 
ATOM      6  C   UNL     1       0.961  -7.065  -8.756  1.00  0.00     0.059 C 
ATOM      7  C   UNL     1       2.240  -9.582  -7.622  1.00  0.00     0.008 C 
ATOM      8  C   UNL     1       0.485  -8.473  -9.175  1.00  0.00     0.143 C 
ATOM      9  C   UNL     1       0.769  -9.527  -8.086  1.00  0.00     0.034 C 
ENDROOT
BRANCH   1  10
ATOM     10  C   UNL     1       2.883  -4.619  -7.594  1.00  0.00     0.246 C 
ATOM     11  O   UNL     1       2.231  -3.980  -8.426  1.00  0.00    -0.272 OA
BRANCH  10  12
ATOM     12  C   UNL     1       3.451  -3.937  -6.315  1.00  0.00     0.174 C 
BRANCH  12  13
ATOM     13  N   UNL     1       2.355  -3.542  -5.432  1.00  0.00    -0.342 N 
ATOM     14  C   UNL     1       2.235  -3.906  -4.109  1.00  0.00     0.249 C 
ATOM     15  O   UNL     1       3.059  -4.587  -3.512  1.00  0.00    -0.272 OA
ATOM     16  H   UNL     1       1.522  -3.110  -5.825  1.00  0.00     0.164 HD
BRANCH  14  17
ATOM     17  C   UNL     1       0.957  -3.344  -3.451  1.00  0.00     0.207 C 
BRANCH  17  18
ATOM     18  C   UNL     1      -0.071  -4.461  -3.239  1.00  0.00     0.077 C 
BRANCH  18  19
ATOM     19  C   UNL     1      -0.901  -4.232  -1.995  1.00  0.00    -0.043 A 
ATOM     20  C   UNL     1      -2.115  -2.734  -0.524  1.00  0.00     0.083 A 
ATOM     21  C   UNL     1      -1.392  -2.952  -1.697  1.00  0.00     0.028 A 
ATOM     22  C   UNL     1      -2.350  -3.790   0.357  1.00  0.00     0.134 A 
ATOM     23  C   UNL     1      -1.869  -5.063   0.074  1.00  0.00     0.048 A 
ATOM     24  C   UNL     1      -1.144  -5.284  -1.099  1.00  0.00     0.008 A 
ATOM     25  Cl  UNL     1      -2.710  -1.154  -0.174  1.00  0.00    -0.080 Cl
BRANCH  22  26
ATOM     26  O   UNL     1      -3.044  -3.624   1.525  1.00  0.00    -0.506 OA
ATOM     27  H   UNL     1      -2.601  -4.175   2.196  1.00  0.00     0.293 HD
ENDBRANCH  22  26
ENDBRANCH  18  19
ENDBRANCH  17  18
BRANCH  17  28
ATOM     28  O   UNL     1       0.374  -2.306  -4.254  1.00  0.00    -0.383 OA
ATOM     29  H   UNL     1      -0.582  -2.288  -4.024  1.00  0.00     0.211 HD
ENDBRANCH  17  28
ENDBRANCH  14  17
ENDBRANCH  12  13
BRANCH  12  30
ATOM     30  C   UNL     1       4.406  -2.757  -6.638  1.00  0.00     0.018 C 
ATOM     31  C   UNL     1       5.684  -3.261  -7.327  1.00  0.00     0.010 C 
BRANCH  30  32
ATOM     32  C   UNL     1       4.771  -1.897  -5.404  1.00  0.00     0.002 C 
ATOM     33  C   UNL     1       4.163  -0.501  -5.380  1.00  0.00     0.004 C 
ENDBRANCH  30  32
ENDBRANCH  12  30
ENDBRANCH  10  12
ENDBRANCH   1  10
BRANCH   5  34
ATOM     34  C   UNL     1       5.058  -6.446  -9.237  1.00  0.00     0.242 C 
ATOM     35  O   UNL     1       4.463  -5.915 -10.174  1.00  0.00    -0.273 OA
ATOM     36  N   UNL     1       6.276  -7.069  -9.393  1.00  0.00    -0.354 N 
ATOM     37  H   UNL     1       6.663  -7.595  -8.608  1.00  0.00     0.163 HD
BRANCH  36  38
ATOM     38  C   UNL     1       7.073  -6.921 -10.593  1.00  0.00     0.116 C 
BRANCH  38  39
ATOM     39  C   UNL     1       7.052  -8.221 -11.393  1.00  0.00     0.023 C 
BRANCH  39  40
ATOM     40  C   UNL     1       6.928  -7.980 -12.894  1.00  0.00     0.026 C 
BRANCH  40  41
ATOM     41  C   UNL     1       6.210  -6.660 -13.174  1.00  0.00     0.146 C 
BRANCH  41  42
ATOM     42  N   UNL     1       4.797  -6.911 -13.423  1.00  0.00    -0.254 NA
ATOM     43  C   UNL     1       4.432  -7.423 -14.538  1.00  0.00     0.185 C 
ATOM     44  N   UNL     1       5.168  -7.800 -15.599  1.00  0.00    -0.370 N 
ATOM     45  N   UNL     1       3.124  -7.643 -14.750  1.00  0.00    -0.370 N 
ATOM     46  H   UNL     1       4.735  -7.956 -16.494  1.00  0.00     0.159 HD
ATOM     47  H   UNL     1       6.180  -7.716 -15.603  1.00  0.00     0.159 HD
ATOM     48  H   UNL     1       2.499  -7.394 -13.994  1.00  0.00     0.159 HD
ATOM     49  H   UNL     1       2.784  -8.245 -15.478  1.00  0.00     0.159 HD
ENDBRANCH  41  42
ENDBRANCH  40  41
ENDBRANCH  39  40
ENDBRANCH  38  39
ENDBRANCH  36  38
ENDBRANCH   5  34
BRANCH   8  50
ATOM     50  O   UNL     1       1.141  -8.874 -10.377  1.00  0.00    -0.245 OA
BRANCH  50  51
ATOM     51  S   UNL     1       0.266  -9.117 -11.727  1.00  0.00     0.397 S 
ATOM     52  O   UNL     1      -0.522 -10.314 -11.538  1.00  0.00    -0.169 OA
ATOM     53  O   UNL     1       1.109  -8.938 -12.891  1.00  0.00    -0.169 OA
BRANCH  51  54
ATOM     54  O   UNL     1      -0.775  -7.893 -11.676  1.00  0.00    -0.264 OA
ATOM     55  H   UNL     1      -0.285  -7.096 -11.390  1.00  0.00     0.236 HD
ENDBRANCH  51  54
ENDBRANCH  50  51
ENDBRANCH   8  50
TORSDOF 19
ENDMDL
MODEL 40
REMARK VINA RESULT:    -6.169      3.593      6.469
REMARK INTER + INTRA:         -16.728
REMARK INTER:                 -14.030
REMARK INTRA:                  -2.699
REMARK UNBOUND:                -4.249
REMARK SMILES CC[C@@H](C)[C@@H](NC(=O)[C@@H](O)Cc1ccc(O)c(Cl)c1)C(=O)N1[C@H](C(=O)NCCCCN=C(N)N)C[C@H]2CC[C@H](OS(=O)(=O)O)C[C@@H]21
REMARK SMILES IDX 22 1 36 2 46 3 35 4 23 5 45 6 37 7 39 8 38 9 20 10 21 11
REMARK SMILES IDX 5 12 6 13 7 14 8 15 9 17 11 18 12 19 17 20 19 21 15 22 14 23
REMARK SMILES IDX 13 24 18 25 16 26 10 28 3 30 4 31 2 32 1 33 24 34 25 35
REMARK SMILES IDX 26 36 27 38 28 39 29 40 30 41 31 42 32 43 33 44 34 45 40 50
REMARK SMILES IDX 41 51 42 52 43 53 44 54
REMARK H PARENT 6 16 16 27 10 29 26 37 33 46 33 47 34 48 34 49 44 55
ROOT
ATOM      1  N   UNL     1      -3.840  -8.194  -1.505  1.00  0.00    -0.326 N 
ATOM      2  C   UNL     1      -5.163  -8.979  -3.286  1.00  0.00     0.014 C 
ATOM      3  C   UNL     1      -5.226  -8.555  -1.816  1.00  0.00     0.091 C 
ATOM      4  C   UNL     1      -3.796  -9.637  -3.387  1.00  0.00     0.041 C 
ATOM      5  C   UNL     1      -2.944  -8.616  -2.610  1.00  0.00     0.175 C 
ATOM      6  C   UNL     1      -6.304  -7.483  -1.669  1.00  0.00     0.059 C 
ATOM      7  C   UNL     1      -6.398  -9.768  -3.676  1.00  0.00     0.008 C 
ATOM      8  C   UNL     1      -7.481  -7.645  -2.655  1.00  0.00     0.143 C 
ATOM      9  C   UNL     1      -7.669  -9.110  -3.097  1.00  0.00     0.034 C 
ENDROOT
BRANCH   1  10
ATOM     10  C   UNL     1      -3.283  -7.753  -0.316  1.00  0.00     0.246 C 
ATOM     11  O   UNL     1      -2.650  -8.550   0.384  1.00  0.00    -0.272 OA
BRANCH  10  12
ATOM     12  C   UNL     1      -3.428  -6.257   0.091  1.00  0.00     0.174 C 
BRANCH  12  13
ATOM     13  N   UNL     1      -2.147  -5.571  -0.066  1.00  0.00    -0.342 N 
ATOM     14  C   UNL     1      -1.934  -4.466  -0.859  1.00  0.00     0.249 C 
ATOM     15  O   UNL     1      -2.813  -3.912  -1.507  1.00  0.00    -0.272 OA
ATOM     16  H   UNL     1      -1.297  -6.006   0.284  1.00  0.00     0.164 HD
BRANCH  14  17
ATOM     17  C   UNL     1      -0.468  -3.984  -0.827  1.00  0.00     0.207 C 
BRANCH  17  18
ATOM     18  C   UNL     1       0.257  -4.388  -2.115  1.00  0.00     0.077 C 
BRANCH  18  19
ATOM     19  C   UNL     1       1.013  -3.228  -2.723  1.00  0.00    -0.043 A 
ATOM     20  C   UNL     1       3.061  -2.296  -3.628  1.00  0.00     0.083 A 
ATOM     21  C   UNL     1       2.352  -3.382  -3.114  1.00  0.00     0.028 A 
ATOM     22  C   UNL     1       2.440  -1.053  -3.754  1.00  0.00     0.134 A 
ATOM     23  C   UNL     1       1.115  -0.886  -3.370  1.00  0.00     0.048 A 
ATOM     24  C   UNL     1       0.403  -1.971  -2.853  1.00  0.00     0.008 A 
ATOM     25  Cl  UNL     1       4.706  -2.505  -4.103  1.00  0.00    -0.080 Cl
BRANCH  22  26
ATOM     26  O   UNL     1       3.098   0.044  -4.243  1.00  0.00    -0.506 OA
ATOM     27  H   UNL     1       3.633  -0.265  -4.997  1.00  0.00     0.293 HD
ENDBRANCH  22  26
ENDBRANCH  18  19
ENDBRANCH  17  18
BRANCH  17  28
ATOM     28  O   UNL     1       0.231  -4.527   0.304  1.00  0.00    -0.383 OA
ATOM     29  H   UNL     1      -0.449  -4.980   0.852  1.00  0.00     0.211 HD
ENDBRANCH  17  28
ENDBRANCH  14  17
ENDBRANCH  12  13
BRANCH  12  30
ATOM     30  C   UNL     1      -4.027  -6.078   1.512  1.00  0.00     0.018 C 
ATOM     31  C   UNL     1      -2.953  -6.301   2.589  1.00  0.00     0.010 C 
BRANCH  30  32
ATOM     32  C   UNL     1      -5.254  -6.981   1.788  1.00  0.00     0.002 C 
ATOM     33  C   UNL     1      -5.082  -7.982   2.923  1.00  0.00     0.004 C 
ENDBRANCH  30  32
ENDBRANCH  12  30
ENDBRANCH  10  12
ENDBRANCH   1  10
BRANCH   5  34
ATOM     34  C   UNL     1      -2.555  -7.403  -3.497  1.00  0.00     0.242 C 
ATOM     35  O   UNL     1      -3.282  -6.417  -3.619  1.00  0.00    -0.273 OA
ATOM     36  N   UNL     1      -1.366  -7.534  -4.178  1.00  0.00    -0.354 N 
ATOM     37  H   UNL     1      -0.867  -8.423  -4.130  1.00  0.00     0.163 HD
BRANCH  36  38
ATOM     38  C   UNL     1      -0.748  -6.424  -4.874  1.00  0.00     0.116 C 
BRANCH  38  39
ATOM     39  C   UNL     1       0.744  -6.695  -5.060  1.00  0.00     0.023 C 
BRANCH  39  40
ATOM     40  C   UNL     1       1.017  -8.080  -5.635  1.00  0.00     0.026 C 
BRANCH  40  41
ATOM     41  C   UNL     1       1.625  -7.976  -7.034  1.00  0.00     0.146 C 
BRANCH  41  42
ATOM     42  N   UNL     1       2.105  -6.620  -7.262  1.00  0.00    -0.254 NA
ATOM     43  C   UNL     1       1.600  -5.921  -8.208  1.00  0.00     0.185 C 
ATOM     44  N   UNL     1       0.637  -6.231  -9.095  1.00  0.00    -0.370 N 
ATOM     45  N   UNL     1       2.060  -4.674  -8.406  1.00  0.00    -0.370 N 
ATOM     46  H   UNL     1       0.512  -5.684  -9.929  1.00  0.00     0.159 HD
ATOM     47  H   UNL     1       0.169  -7.132  -9.080  1.00  0.00     0.159 HD
ATOM     48  H   UNL     1       2.783  -4.357  -7.774  1.00  0.00     0.159 HD
ATOM     49  H   UNL     1       1.566  -3.993  -8.955  1.00  0.00     0.159 HD
ENDBRANCH  41  42
ENDBRANCH  40  41
ENDBRANCH  39  40
ENDBRANCH  38  39
ENDBRANCH  36  38
ENDBRANCH   5  34
BRANCH   8  50
ATOM     50  O   UNL     1      -7.259  -6.846  -3.818  1.00  0.00    -0.245 OA
BRANCH  50  51
ATOM     51  S   UNL     1      -7.447  -5.232  -3.731  1.00  0.00     0.397 S 
ATOM     52  O   UNL     1      -8.419  -4.951  -2.699  1.00  0.00    -0.169 OA
ATOM     53  O   UNL     1      -7.576  -4.685  -5.065  1.00  0.00    -0.169 OA
BRANCH  51  54
ATOM     54  O   UNL     1      -6.028  -4.762  -3.137  1.00  0.00    -0.264 OA
ATOM     55  H   UNL     1      -5.893  -3.827  -3.394  1.00  0.00     0.236 HD
ENDBRANCH  51  54
ENDBRANCH  50  51
ENDBRANCH   8  50
TORSDOF 19
ENDMDL
MODEL 41
REMARK VINA RESULT:    -6.155      4.690     10.281
REMARK INTER + INTRA:         -16.700
REMARK INTER:                 -13.517
REMARK INTRA:                  -3.183
REMARK UNBOUND:                -4.249
REMARK SMILES CC[C@@H](C)[C@@H](NC(=O)[C@@H](O)Cc1ccc(O)c(Cl)c1)C(=O)N1[C@H](C(=O)NCCCCN=C(N)N)C[C@H]2CC[C@H](OS(=O)(=O)O)C[C@@H]21
REMARK SMILES IDX 22 1 36 2 46 3 35 4 23 5 45 6 37 7 39 8 38 9 20 10 21 11
REMARK SMILES IDX 5 12 6 13 7 14 8 15 9 17 11 18 12 19 17 20 19 21 15 22 14 23
REMARK SMILES IDX 13 24 18 25 16 26 10 28 3 30 4 31 2 32 1 33 24 34 25 35
REMARK SMILES IDX 26 36 27 38 28 39 29 40 30 41 31 42 32 43 33 44 34 45 40 50
REMARK SMILES IDX 41 51 42 52 43 53 44 54
REMARK H PARENT 6 16 16 27 10 29 26 37 33 46 33 47 34 48 34 49 44 55
ROOT
ATOM      1  N   UNL     1      -4.284  -7.547  -7.920  1.00  0.00    -0.326 N 
ATOM      2  C   UNL     1      -3.272  -8.628  -6.089  1.00  0.00     0.014 C 
ATOM      3  C   UNL     1      -3.030  -8.205  -7.541  1.00  0.00     0.091 C 
ATOM      4  C   UNL     1      -4.753  -8.974  -6.083  1.00  0.00     0.041 C 
ATOM      5  C   UNL     1      -5.314  -7.781  -6.878  1.00  0.00     0.175 C 
ATOM      6  C   UNL     1      -1.738  -7.391  -7.598  1.00  0.00     0.059 C 
ATOM      7  C   UNL     1      -2.263  -9.671  -5.652  1.00  0.00     0.008 C 
ATOM      8  C   UNL     1      -0.687  -7.820  -6.552  1.00  0.00     0.143 C 
ATOM      9  C   UNL     1      -0.847  -9.298  -6.141  1.00  0.00     0.034 C 
ENDROOT
BRANCH   1  10
ATOM     10  C   UNL     1      -4.659  -6.978  -9.125  1.00  0.00     0.246 C 
ATOM     11  O   UNL     1      -3.784  -6.547  -9.884  1.00  0.00    -0.272 OA
BRANCH  10  12
ATOM     12  C   UNL     1      -6.164  -6.933  -9.516  1.00  0.00     0.174 C 
BRANCH  12  13
ATOM     13  N   UNL     1      -6.413  -7.829 -10.645  1.00  0.00    -0.342 N 
ATOM     14  C   UNL     1      -6.501  -9.201 -10.561  1.00  0.00     0.249 C 
ATOM     15  O   UNL     1      -6.408  -9.827  -9.512  1.00  0.00    -0.272 OA
ATOM     16  H   UNL     1      -6.356  -7.471 -11.595  1.00  0.00     0.164 HD
BRANCH  14  17
ATOM     17  C   UNL     1      -6.753  -9.867 -11.930  1.00  0.00     0.207 C 
BRANCH  17  18
ATOM     18  C   UNL     1      -7.828 -10.952 -11.808  1.00  0.00     0.077 C 
BRANCH  18  19
ATOM     19  C   UNL     1      -9.193 -10.439 -12.208  1.00  0.00    -0.043 A 
ATOM     20  C   UNL     1     -11.119  -9.030 -11.773  1.00  0.00     0.083 A 
ATOM     21  C   UNL     1      -9.839  -9.465 -11.430  1.00  0.00     0.028 A 
ATOM     22  C   UNL     1     -11.761  -9.564 -12.891  1.00  0.00     0.134 A 
ATOM     23  C   UNL     1     -11.133 -10.528 -13.670  1.00  0.00     0.048 A 
ATOM     24  C   UNL     1      -9.852 -10.967 -13.328  1.00  0.00     0.008 A 
ATOM     25  Cl  UNL     1     -11.897  -7.833 -10.805  1.00  0.00    -0.080 Cl
BRANCH  22  26
ATOM     26  O   UNL     1     -13.021  -9.176 -13.261  1.00  0.00    -0.506 OA
ATOM     27  H   UNL     1     -13.514  -9.004 -12.438  1.00  0.00     0.293 HD
ENDBRANCH  22  26
ENDBRANCH  18  19
ENDBRANCH  17  18
BRANCH  17  28
ATOM     28  O   UNL     1      -5.547 -10.446 -12.453  1.00  0.00    -0.383 OA
ATOM     29  H   UNL     1      -4.819 -10.127 -11.873  1.00  0.00     0.211 HD
ENDBRANCH  17  28
ENDBRANCH  14  17
ENDBRANCH  12  13
BRANCH  12  30
ATOM     30  C   UNL     1      -6.672  -5.491  -9.782  1.00  0.00     0.018 C 
ATOM     31  C   UNL     1      -7.447  -4.952  -8.569  1.00  0.00     0.010 C 
BRANCH  30  32
ATOM     32  C   UNL     1      -7.532  -5.360 -11.063  1.00  0.00     0.002 C 
ATOM     33  C   UNL     1      -9.035  -5.496 -10.855  1.00  0.00     0.004 C 
ENDBRANCH  30  32
ENDBRANCH  12  30
ENDBRANCH  10  12
ENDBRANCH   1  10
BRANCH   5  34
ATOM     34  C   UNL     1      -5.485  -6.526  -5.982  1.00  0.00     0.242 C 
ATOM     35  O   UNL     1      -4.880  -5.476  -6.197  1.00  0.00    -0.273 OA
ATOM     36  N   UNL     1      -6.320  -6.689  -4.899  1.00  0.00    -0.354 N 
ATOM     37  H   UNL     1      -6.698  -7.617  -4.705  1.00  0.00     0.163 HD
BRANCH  36  38
ATOM     38  C   UNL     1      -6.760  -5.573  -4.087  1.00  0.00     0.116 C 
BRANCH  38  39
ATOM     39  C   UNL     1      -5.630  -5.125  -3.164  1.00  0.00     0.023 C 
BRANCH  39  40
ATOM     40  C   UNL     1      -5.126  -6.253  -2.270  1.00  0.00     0.026 C 
BRANCH  40  41
ATOM     41  C   UNL     1      -3.762  -5.905  -1.674  1.00  0.00     0.146 C 
BRANCH  41  42
ATOM     42  N   UNL     1      -3.189  -4.770  -2.387  1.00  0.00    -0.254 NA
ATOM     43  C   UNL     1      -1.928  -4.555  -2.325  1.00  0.00     0.185 C 
ATOM     44  N   UNL     1      -0.965  -5.235  -1.677  1.00  0.00    -0.370 N 
ATOM     45  N   UNL     1      -1.420  -3.501  -2.985  1.00  0.00    -0.370 N 
ATOM     46  H   UNL     1      -0.064  -4.819  -1.514  1.00  0.00     0.159 HD
ATOM     47  H   UNL     1      -1.173  -6.070  -1.137  1.00  0.00     0.159 HD
ATOM     48  H   UNL     1      -2.079  -2.940  -3.508  1.00  0.00     0.159 HD
ATOM     49  H   UNL     1      -0.440  -3.403  -3.181  1.00  0.00     0.159 HD
ENDBRANCH  41  42
ENDBRANCH  40  41
ENDBRANCH  39  40
ENDBRANCH  38  39
ENDBRANCH  36  38
ENDBRANCH   5  34
BRANCH   8  50
ATOM     50  O   UNL     1      -0.800  -7.009  -5.382  1.00  0.00    -0.245 OA
BRANCH  50  51
ATOM     51  S   UNL     1       0.534  -6.642  -4.527  1.00  0.00     0.397 S 
ATOM     52  O   UNL     1       0.547  -7.472  -3.343  1.00  0.00    -0.169 OA
ATOM     53  O   UNL     1       0.680  -5.204  -4.448  1.00  0.00    -0.169 OA
BRANCH  51  54
ATOM     54  O   UNL     1       1.705  -7.209  -5.472  1.00  0.00    -0.264 OA
ATOM     55  H   UNL     1       1.715  -6.672  -6.289  1.00  0.00     0.236 HD
ENDBRANCH  51  54
ENDBRANCH  50  51
ENDBRANCH   8  50
TORSDOF 19
ENDMDL
MODEL 42
REMARK VINA RESULT:    -6.134      4.327      9.357
REMARK INTER + INTRA:         -16.657
REMARK INTER:                 -14.799
REMARK INTRA:                  -1.858
REMARK UNBOUND:                -4.249
REMARK SMILES CC[C@@H](C)[C@@H](NC(=O)[C@@H](O)Cc1ccc(O)c(Cl)c1)C(=O)N1[C@H](C(=O)NCCCCN=C(N)N)C[C@H]2CC[C@H](OS(=O)(=O)O)C[C@@H]21
REMARK SMILES IDX 22 1 36 2 46 3 35 4 23 5 45 6 37 7 39 8 38 9 20 10 21 11
REMARK SMILES IDX 5 12 6 13 7 14 8 15 9 17 11 18 12 19 17 20 19 21 15 22 14 23
REMARK SMILES IDX 13 24 18 25 16 26 10 28 3 30 4 31 2 32 1 33 24 34 25 35
REMARK SMILES IDX 26 36 27 38 28 39 29 40 30 41 31 42 32 43 33 44 34 45 40 50
REMARK SMILES IDX 41 51 42 52 43 53 44 54
REMARK H PARENT 6 16 16 27 10 29 26 37 33 46 33 47 34 48 34 49 44 55
ROOT
ATOM      1  N   UNL     1      -5.102  -6.847  -4.761  1.00  0.00    -0.326 N 
ATOM      2  C   UNL     1      -6.637  -5.485  -3.606  1.00  0.00     0.014 C 
ATOM      3  C   UNL     1      -6.501  -6.832  -4.322  1.00  0.00     0.091 C 
ATOM      4  C   UNL     1      -5.717  -4.582  -4.414  1.00  0.00     0.041 C 
ATOM      5  C   UNL     1      -4.496  -5.506  -4.570  1.00  0.00     0.175 C 
ATOM      6  C   UNL     1      -6.974  -7.932  -3.374  1.00  0.00     0.059 C 
ATOM      7  C   UNL     1      -8.095  -5.104  -3.439  1.00  0.00     0.008 C 
ATOM      8  C   UNL     1      -8.095  -7.484  -2.411  1.00  0.00     0.143 C 
ATOM      9  C   UNL     1      -8.928  -6.324  -2.993  1.00  0.00     0.034 C 
ENDROOT
BRANCH   1  10
ATOM     10  C   UNL     1      -4.407  -7.806  -5.478  1.00  0.00     0.246 C 
ATOM     11  O   UNL     1      -3.496  -8.428  -4.922  1.00  0.00    -0.272 OA
BRANCH  10  12
ATOM     12  C   UNL     1      -4.815  -8.110  -6.949  1.00  0.00     0.174 C 
BRANCH  12  13
ATOM     13  N   UNL     1      -5.892  -7.211  -7.363  1.00  0.00    -0.342 N 
ATOM     14  C   UNL     1      -5.736  -6.117  -8.183  1.00  0.00     0.249 C 
ATOM     15  O   UNL     1      -4.669  -5.786  -8.685  1.00  0.00    -0.272 OA
ATOM     16  H   UNL     1      -6.798  -7.266  -6.904  1.00  0.00     0.164 HD
BRANCH  14  17
ATOM     17  C   UNL     1      -7.059  -5.358  -8.422  1.00  0.00     0.207 C 
BRANCH  17  18
ATOM     18  C   UNL     1      -7.227  -5.029  -9.909  1.00  0.00     0.077 C 
BRANCH  18  19
ATOM     19  C   UNL     1      -7.992  -6.109 -10.641  1.00  0.00    -0.043 A 
ATOM     20  C   UNL     1     -10.089  -7.202 -11.182  1.00  0.00     0.083 A 
ATOM     21  C   UNL     1      -9.391  -6.175 -10.546  1.00  0.00     0.028 A 
ATOM     22  C   UNL     1      -9.397  -8.168 -11.913  1.00  0.00     0.134 A 
ATOM     23  C   UNL     1      -8.012  -8.115 -12.015  1.00  0.00     0.048 A 
ATOM     24  C   UNL     1      -7.310  -7.090 -11.378  1.00  0.00     0.008 A 
ATOM     25  Cl  UNL     1     -11.808  -7.265 -11.054  1.00  0.00    -0.080 Cl
BRANCH  22  26
ATOM     26  O   UNL     1     -10.037  -9.200 -12.545  1.00  0.00    -0.506 OA
ATOM     27  H   UNL     1     -10.573  -8.803 -13.256  1.00  0.00     0.293 HD
ENDBRANCH  22  26
ENDBRANCH  18  19
ENDBRANCH  17  18
BRANCH  17  28
ATOM     28  O   UNL     1      -7.104  -4.143  -7.657  1.00  0.00    -0.383 OA
ATOM     29  H   UNL     1      -6.573  -4.313  -6.846  1.00  0.00     0.211 HD
ENDBRANCH  17  28
ENDBRANCH  14  17
ENDBRANCH  12  13
BRANCH  12  30
ATOM     30  C   UNL     1      -5.168  -9.604  -7.177  1.00  0.00     0.018 C 
ATOM     31  C   UNL     1      -5.736 -10.233  -5.895  1.00  0.00     0.010 C 
BRANCH  30  32
ATOM     32  C   UNL     1      -3.984 -10.449  -7.705  1.00  0.00     0.002 C 
ATOM     33  C   UNL     1      -3.284  -9.891  -8.937  1.00  0.00     0.004 C 
ENDBRANCH  30  32
ENDBRANCH  12  30
ENDBRANCH  10  12
ENDBRANCH   1  10
BRANCH   5  34
ATOM     34  C   UNL     1      -3.597  -5.484  -3.305  1.00  0.00     0.242 C 
ATOM     35  O   UNL     1      -3.687  -6.334  -2.419  1.00  0.00    -0.273 OA
ATOM     36  N   UNL     1      -2.731  -4.417  -3.220  1.00  0.00    -0.354 N 
ATOM     37  H   UNL     1      -2.787  -3.682  -3.926  1.00  0.00     0.163 HD
BRANCH  36  38
ATOM     38  C   UNL     1      -1.679  -4.352  -2.227  1.00  0.00     0.116 C 
BRANCH  38  39
ATOM     39  C   UNL     1      -0.781  -3.149  -2.501  1.00  0.00     0.023 C 
BRANCH  39  40
ATOM     40  C   UNL     1       0.621  -3.556  -2.944  1.00  0.00     0.026 C 
BRANCH  40  41
ATOM     41  C   UNL     1       1.451  -2.327  -3.314  1.00  0.00     0.146 C 
BRANCH  41  42
ATOM     42  N   UNL     1       1.532  -2.205  -4.763  1.00  0.00    -0.254 NA
ATOM     43  C   UNL     1       2.290  -1.314  -5.283  1.00  0.00     0.185 C 
ATOM     44  N   UNL     1       3.086  -0.404  -4.692  1.00  0.00    -0.370 N 
ATOM     45  N   UNL     1       2.347  -1.215  -6.621  1.00  0.00    -0.370 N 
ATOM     46  H   UNL     1       3.433   0.386  -5.209  1.00  0.00     0.159 HD
ATOM     47  H   UNL     1       3.174  -0.348  -3.682  1.00  0.00     0.159 HD
ATOM     48  H   UNL     1       1.783  -1.871  -7.143  1.00  0.00     0.159 HD
ATOM     49  H   UNL     1       3.078  -0.719  -7.099  1.00  0.00     0.159 HD
ENDBRANCH  41  42
ENDBRANCH  40  41
ENDBRANCH  39  40
ENDBRANCH  38  39
ENDBRANCH  36  38
ENDBRANCH   5  34
BRANCH   8  50
ATOM     50  O   UNL     1      -7.533  -7.061  -1.169  1.00  0.00    -0.245 OA
BRANCH  50  51
ATOM     51  S   UNL     1      -7.653  -8.025   0.136  1.00  0.00     0.397 S 
ATOM     52  O   UNL     1      -6.393  -8.714   0.299  1.00  0.00    -0.169 OA
ATOM     53  O   UNL     1      -8.911  -8.741   0.098  1.00  0.00    -0.169 OA
BRANCH  51  54
ATOM     54  O   UNL     1      -7.727  -6.957   1.336  1.00  0.00    -0.264 OA
ATOM     55  H   UNL     1      -7.278  -6.140   1.037  1.00  0.00     0.236 HD
ENDBRANCH  51  54
ENDBRANCH  50  51
ENDBRANCH   8  50
TORSDOF 19
ENDMDL
MODEL 43
REMARK VINA RESULT:    -6.124      2.647      5.314
REMARK INTER + INTRA:         -16.639
REMARK INTER:                 -13.569
REMARK INTRA:                  -3.069
REMARK UNBOUND:                -4.249
REMARK SMILES CC[C@@H](C)[C@@H](NC(=O)[C@@H](O)Cc1ccc(O)c(Cl)c1)C(=O)N1[C@H](C(=O)NCCCCN=C(N)N)C[C@H]2CC[C@H](OS(=O)(=O)O)C[C@@H]21
REMARK SMILES IDX 22 1 36 2 46 3 35 4 23 5 45 6 37 7 39 8 38 9 20 10 21 11
REMARK SMILES IDX 5 12 6 13 7 14 8 15 9 17 11 18 12 19 17 20 19 21 15 22 14 23
REMARK SMILES IDX 13 24 18 25 16 26 10 28 3 30 4 31 2 32 1 33 24 34 25 35
REMARK SMILES IDX 26 36 27 38 28 39 29 40 30 41 31 42 32 43 33 44 34 45 40 50
REMARK SMILES IDX 41 51 42 52 43 53 44 54
REMARK H PARENT 6 16 16 27 10 29 26 37 33 46 33 47 34 48 34 49 44 55
ROOT
ATOM      1  N   UNL     1      -1.881  -6.848  -3.483  1.00  0.00    -0.326 N 
ATOM      2  C   UNL     1      -1.302  -5.774  -1.469  1.00  0.00     0.014 C 
ATOM      3  C   UNL     1      -1.089  -5.719  -2.985  1.00  0.00     0.091 C 
ATOM      4  C   UNL     1      -1.398  -7.267  -1.198  1.00  0.00     0.041 C 
ATOM      5  C   UNL     1      -2.328  -7.694  -2.349  1.00  0.00     0.175 C 
ATOM      6  C   UNL     1      -1.443  -4.315  -3.472  1.00  0.00     0.059 C 
ATOM      7  C   UNL     1      -0.254  -4.952  -0.744  1.00  0.00     0.008 C 
ATOM      8  C   UNL     1      -1.153  -3.207  -2.437  1.00  0.00     0.143 C 
ATOM      9  C   UNL     1      -0.027  -3.605  -1.462  1.00  0.00     0.034 C 
ENDROOT
BRANCH   1  10
ATOM     10  C   UNL     1      -2.055  -7.307  -4.777  1.00  0.00     0.246 C 
ATOM     11  O   UNL     1      -3.066  -6.972  -5.403  1.00  0.00    -0.272 OA
BRANCH  10  12
ATOM     12  C   UNL     1      -0.957  -8.197  -5.430  1.00  0.00     0.174 C 
BRANCH  12  13
ATOM     13  N   UNL     1       0.196  -7.377  -5.797  1.00  0.00    -0.342 N 
ATOM     14  C   UNL     1       1.493  -7.615  -5.401  1.00  0.00     0.249 C 
ATOM     15  O   UNL     1       1.831  -8.568  -4.710  1.00  0.00    -0.272 OA
ATOM     16  H   UNL     1       0.051  -6.470  -6.233  1.00  0.00     0.164 HD
BRANCH  14  17
ATOM     17  C   UNL     1       2.483  -6.560  -5.938  1.00  0.00     0.207 C 
BRANCH  17  18
ATOM     18  C   UNL     1       1.898  -5.152  -5.792  1.00  0.00     0.077 C 
BRANCH  18  19
ATOM     19  C   UNL     1       2.748  -4.280  -4.894  1.00  0.00    -0.043 A 
ATOM     20  C   UNL     1       4.482  -4.053  -3.214  1.00  0.00     0.083 A 
ATOM     21  C   UNL     1       3.733  -4.855  -4.077  1.00  0.00     0.028 A 
ATOM     22  C   UNL     1       4.251  -2.678  -3.161  1.00  0.00     0.134 A 
ATOM     23  C   UNL     1       3.278  -2.097  -3.965  1.00  0.00     0.048 A 
ATOM     24  C   UNL     1       2.526  -2.896  -4.829  1.00  0.00     0.008 A 
ATOM     25  Cl  UNL     1       5.688  -4.777  -2.216  1.00  0.00    -0.080 Cl
BRANCH  22  26
ATOM     26  O   UNL     1       4.952  -1.854  -2.323  1.00  0.00    -0.506 OA
ATOM     27  H   UNL     1       4.829  -2.202  -1.420  1.00  0.00     0.293 HD
ENDBRANCH  22  26
ENDBRANCH  18  19
ENDBRANCH  17  18
BRANCH  17  28
ATOM     28  O   UNL     1       2.800  -6.803  -7.318  1.00  0.00    -0.383 OA
ATOM     29  H   UNL     1       3.749  -7.064  -7.338  1.00  0.00     0.211 HD
ENDBRANCH  17  28
ENDBRANCH  14  17
ENDBRANCH  12  13
BRANCH  12  30
ATOM     30  C   UNL     1      -1.494  -9.033  -6.623  1.00  0.00     0.018 C 
ATOM     31  C   UNL     1      -0.854 -10.430  -6.642  1.00  0.00     0.010 C 
BRANCH  30  32
ATOM     32  C   UNL     1      -1.309  -8.344  -7.997  1.00  0.00     0.002 C 
ATOM     33  C   UNL     1      -2.185  -8.885  -9.119  1.00  0.00     0.004 C 
ENDBRANCH  30  32
ENDBRANCH  12  30
ENDBRANCH  10  12
ENDBRANCH   1  10
BRANCH   5  34
ATOM     34  C   UNL     1      -3.818  -7.419  -2.012  1.00  0.00     0.242 C 
ATOM     35  O   UNL     1      -4.396  -7.978  -1.080  1.00  0.00    -0.273 OA
ATOM     36  N   UNL     1      -4.460  -6.548  -2.863  1.00  0.00    -0.354 N 
ATOM     37  H   UNL     1      -3.962  -6.210  -3.688  1.00  0.00     0.163 HD
BRANCH  36  38
ATOM     38  C   UNL     1      -5.776  -6.015  -2.577  1.00  0.00     0.116 C 
BRANCH  38  39
ATOM     39  C   UNL     1      -6.828  -6.768  -3.387  1.00  0.00     0.023 C 
BRANCH  39  40
ATOM     40  C   UNL     1      -8.240  -6.251  -3.133  1.00  0.00     0.026 C 
BRANCH  40  41
ATOM     41  C   UNL     1      -8.749  -5.452  -4.332  1.00  0.00     0.146 C 
BRANCH  41  42
ATOM     42  N   UNL     1      -7.819  -4.371  -4.634  1.00  0.00    -0.254 NA
ATOM     43  C   UNL     1      -7.447  -4.175  -5.843  1.00  0.00     0.185 C 
ATOM     44  N   UNL     1      -7.783  -4.831  -6.969  1.00  0.00    -0.370 N 
ATOM     45  N   UNL     1      -6.587  -3.176  -6.100  1.00  0.00    -0.370 N 
ATOM     46  H   UNL     1      -7.233  -4.730  -7.805  1.00  0.00     0.159 HD
ATOM     47  H   UNL     1      -8.436  -5.608  -6.958  1.00  0.00     0.159 HD
ATOM     48  H   UNL     1      -6.290  -2.625  -5.306  1.00  0.00     0.159 HD
ATOM     49  H   UNL     1      -6.436  -2.812  -7.024  1.00  0.00     0.159 HD
ENDBRANCH  41  42
ENDBRANCH  40  41
ENDBRANCH  39  40
ENDBRANCH  38  39
ENDBRANCH  36  38
ENDBRANCH   5  34
BRANCH   8  50
ATOM     50  O   UNL     1      -2.329  -2.923  -1.680  1.00  0.00    -0.245 OA
BRANCH  50  51
ATOM     51  S   UNL     1      -2.808  -1.380  -1.488  1.00  0.00     0.397 S 
ATOM     52  O   UNL     1      -2.610  -1.020  -0.102  1.00  0.00    -0.169 OA
ATOM     53  O   UNL     1      -4.080  -1.180  -2.151  1.00  0.00    -0.169 OA
BRANCH  51  54
ATOM     54  O   UNL     1      -1.687  -0.576  -2.314  1.00  0.00    -0.264 OA
ATOM     55  H   UNL     1      -1.502  -1.079  -3.133  1.00  0.00     0.236 HD
ENDBRANCH  51  54
ENDBRANCH  50  51
ENDBRANCH   8  50
TORSDOF 19
ENDMDL
MODEL 44
REMARK VINA RESULT:    -6.124      3.951      7.791
REMARK INTER + INTRA:         -16.638
REMARK INTER:                 -12.904
REMARK INTRA:                  -3.734
REMARK UNBOUND:                -4.249
REMARK SMILES CC[C@@H](C)[C@@H](NC(=O)[C@@H](O)Cc1ccc(O)c(Cl)c1)C(=O)N1[C@H](C(=O)NCCCCN=C(N)N)C[C@H]2CC[C@H](OS(=O)(=O)O)C[C@@H]21
REMARK SMILES IDX 22 1 36 2 46 3 35 4 23 5 45 6 37 7 39 8 38 9 20 10 21 11
REMARK SMILES IDX 5 12 6 13 7 14 8 15 9 17 11 18 12 19 17 20 19 21 15 22 14 23
REMARK SMILES IDX 13 24 18 25 16 26 10 28 3 30 4 31 2 32 1 33 24 34 25 35
REMARK SMILES IDX 26 36 27 38 28 39 29 40 30 41 31 42 32 43 33 44 34 45 40 50
REMARK SMILES IDX 41 51 42 52 43 53 44 54
REMARK H PARENT 6 16 16 27 10 29 26 37 33 46 33 47 34 48 34 49 44 55
ROOT
ATOM      1  N   UNL     1       1.458  -6.110  -4.493  1.00  0.00    -0.326 N 
ATOM      2  C   UNL     1       2.970  -7.619  -5.484  1.00  0.00     0.014 C 
ATOM      3  C   UNL     1       1.662  -6.862  -5.735  1.00  0.00     0.091 C 
ATOM      4  C   UNL     1       2.896  -7.931  -3.997  1.00  0.00     0.041 C 
ATOM      5  C   UNL     1       2.415  -6.571  -3.457  1.00  0.00     0.175 C 
ATOM      6  C   UNL     1       1.800  -6.081  -7.040  1.00  0.00     0.059 C 
ATOM      7  C   UNL     1       3.137  -8.754  -6.474  1.00  0.00     0.008 C 
ATOM      8  C   UNL     1       2.708  -6.768  -8.083  1.00  0.00     0.143 C 
ATOM      9  C   UNL     1       2.750  -8.298  -7.896  1.00  0.00     0.034 C 
ENDROOT
BRANCH   1  10
ATOM     10  C   UNL     1       0.428  -5.260  -4.130  1.00  0.00     0.246 C 
ATOM     11  O   UNL     1       0.564  -4.043  -4.297  1.00  0.00    -0.272 OA
BRANCH  10  12
ATOM     12  C   UNL     1      -0.893  -5.855  -3.561  1.00  0.00     0.174 C 
BRANCH  12  13
ATOM     13  N   UNL     1      -0.891  -5.767  -2.101  1.00  0.00    -0.342 N 
ATOM     14  C   UNL     1      -1.551  -4.809  -1.366  1.00  0.00     0.249 C 
ATOM     15  O   UNL     1      -2.245  -3.928  -1.860  1.00  0.00    -0.272 OA
ATOM     16  H   UNL     1      -0.237  -6.331  -1.563  1.00  0.00     0.164 HD
BRANCH  14  17
ATOM     17  C   UNL     1      -1.341  -4.974   0.154  1.00  0.00     0.207 C 
BRANCH  17  18
ATOM     18  C   UNL     1      -2.667  -4.794   0.901  1.00  0.00     0.077 C 
BRANCH  18  19
ATOM     19  C   UNL     1      -3.419  -6.099   1.033  1.00  0.00    -0.043 A 
ATOM     20  C   UNL     1      -5.125  -7.632   0.243  1.00  0.00     0.083 A 
ATOM     21  C   UNL     1      -4.398  -6.451   0.091  1.00  0.00     0.028 A 
ATOM     22  C   UNL     1      -4.881  -8.467   1.334  1.00  0.00     0.134 A 
ATOM     23  C   UNL     1      -3.914  -8.131   2.275  1.00  0.00     0.048 A 
ATOM     24  C   UNL     1      -3.186  -6.948   2.126  1.00  0.00     0.008 A 
ATOM     25  Cl  UNL     1      -6.324  -8.047  -0.925  1.00  0.00    -0.080 Cl
BRANCH  22  26
ATOM     26  O   UNL     1      -5.575  -9.630   1.531  1.00  0.00    -0.506 OA
ATOM     27  H   UNL     1      -5.168 -10.300   0.952  1.00  0.00     0.293 HD
ENDBRANCH  22  26
ENDBRANCH  18  19
ENDBRANCH  17  18
BRANCH  17  28
ATOM     28  O   UNL     1      -0.382  -4.026   0.650  1.00  0.00    -0.383 OA
ATOM     29  H   UNL     1       0.218  -4.532   1.244  1.00  0.00     0.211 HD
ENDBRANCH  17  28
ENDBRANCH  14  17
ENDBRANCH  12  13
BRANCH  12  30
ATOM     30  C   UNL     1      -1.169  -7.296  -4.067  1.00  0.00     0.018 C 
ATOM     31  C   UNL     1      -1.932  -7.270  -5.401  1.00  0.00     0.010 C 
BRANCH  30  32
ATOM     32  C   UNL     1      -1.919  -8.182  -3.043  1.00  0.00     0.002 C 
ATOM     33  C   UNL     1      -3.435  -8.200  -3.184  1.00  0.00     0.004 C 
ENDBRANCH  30  32
ENDBRANCH  12  30
ENDBRANCH  10  12
ENDBRANCH   1  10
BRANCH   5  34
ATOM     34  C   UNL     1       3.589  -5.567  -3.307  1.00  0.00     0.242 C 
ATOM     35  O   UNL     1       4.604  -5.834  -2.664  1.00  0.00    -0.273 OA
ATOM     36  N   UNL     1       3.390  -4.340  -3.898  1.00  0.00    -0.354 N 
ATOM     37  H   UNL     1       2.479  -4.136  -4.313  1.00  0.00     0.163 HD
BRANCH  36  38
ATOM     38  C   UNL     1       4.454  -3.369  -4.041  1.00  0.00     0.116 C 
BRANCH  38  39
ATOM     39  C   UNL     1       4.115  -2.107  -3.251  1.00  0.00     0.023 C 
BRANCH  39  40
ATOM     40  C   UNL     1       2.815  -1.460  -3.715  1.00  0.00     0.026 C 
BRANCH  40  41
ATOM     41  C   UNL     1       1.891  -1.187  -2.529  1.00  0.00     0.146 C 
BRANCH  41  42
ATOM     42  N   UNL     1       0.521  -1.025  -2.999  1.00  0.00    -0.254 NA
ATOM     43  C   UNL     1      -0.449  -1.131  -2.170  1.00  0.00     0.185 C 
ATOM     44  N   UNL     1      -0.435  -1.382  -0.848  1.00  0.00    -0.370 N 
ATOM     45  N   UNL     1      -1.704  -0.983  -2.624  1.00  0.00    -0.370 N 
ATOM     46  H   UNL     1      -1.270  -1.679  -0.374  1.00  0.00     0.159 HD
ATOM     47  H   UNL     1       0.435  -1.508  -0.339  1.00  0.00     0.159 HD
ATOM     48  H   UNL     1      -1.804  -0.783  -3.610  1.00  0.00     0.159 HD
ATOM     49  H   UNL     1      -2.487  -0.817  -2.016  1.00  0.00     0.159 HD
ENDBRANCH  41  42
ENDBRANCH  40  41
ENDBRANCH  39  40
ENDBRANCH  38  39
ENDBRANCH  36  38
ENDBRANCH   5  34
BRANCH   8  50
ATOM     50  O   UNL     1       4.040  -6.262  -7.982  1.00  0.00    -0.245 OA
BRANCH  50  51
ATOM     51  S   UNL     1       4.530  -5.083  -8.989  1.00  0.00     0.397 S 
ATOM     52  O   UNL     1       3.353  -4.444  -9.534  1.00  0.00    -0.169 OA
ATOM     53  O   UNL     1       5.587  -5.581  -9.844  1.00  0.00    -0.169 OA
BRANCH  51  54
ATOM     54  O   UNL     1       5.175  -4.018  -7.971  1.00  0.00    -0.264 OA
ATOM     55  H   UNL     1       6.009  -3.694  -8.368  1.00  0.00     0.236 HD
ENDBRANCH  51  54
ENDBRANCH  50  51
ENDBRANCH   8  50
TORSDOF 19
ENDMDL
MODEL 45
REMARK VINA RESULT:    -6.052      4.439      9.220
REMARK INTER + INTRA:         -16.493
REMARK INTER:                 -13.602
REMARK INTRA:                  -2.891
REMARK UNBOUND:                -4.249
REMARK SMILES CC[C@@H](C)[C@@H](NC(=O)[C@@H](O)Cc1ccc(O)c(Cl)c1)C(=O)N1[C@H](C(=O)NCCCCN=C(N)N)C[C@H]2CC[C@H](OS(=O)(=O)O)C[C@@H]21
REMARK SMILES IDX 22 1 36 2 46 3 35 4 23 5 45 6 37 7 39 8 38 9 20 10 21 11
REMARK SMILES IDX 5 12 6 13 7 14 8 15 9 17 11 18 12 19 17 20 19 21 15 22 14 23
REMARK SMILES IDX 13 24 18 25 16 26 10 28 3 30 4 31 2 32 1 33 24 34 25 35
REMARK SMILES IDX 26 36 27 38 28 39 29 40 30 41 31 42 32 43 33 44 34 45 40 50
REMARK SMILES IDX 41 51 42 52 43 53 44 54
REMARK H PARENT 6 16 16 27 10 29 26 37 33 46 33 47 34 48 34 49 44 55
ROOT
ATOM      1  N   UNL     1      -4.557  -6.858  -5.309  1.00  0.00    -0.326 N 
ATOM      2  C   UNL     1      -6.338  -7.064  -3.784  1.00  0.00     0.014 C 
ATOM      3  C   UNL     1      -5.446  -7.870  -4.733  1.00  0.00     0.091 C 
ATOM      4  C   UNL     1      -6.490  -5.738  -4.513  1.00  0.00     0.041 C 
ATOM      5  C   UNL     1      -5.034  -5.500  -4.952  1.00  0.00     0.175 C 
ATOM      6  C   UNL     1      -4.821  -9.022  -3.947  1.00  0.00     0.059 C 
ATOM      7  C   UNL     1      -7.577  -7.851  -3.405  1.00  0.00     0.008 C 
ATOM      8  C   UNL     1      -5.719  -9.558  -2.811  1.00  0.00     0.143 C 
ATOM      9  C   UNL     1      -7.216  -9.319  -3.094  1.00  0.00     0.034 C 
ENDROOT
BRANCH   1  10
ATOM     10  C   UNL     1      -3.549  -6.994  -6.249  1.00  0.00     0.246 C 
ATOM     11  O   UNL     1      -2.371  -6.957  -5.877  1.00  0.00    -0.272 OA
BRANCH  10  12
ATOM     12  C   UNL     1      -3.919  -7.231  -7.742  1.00  0.00     0.174 C 
BRANCH  12  13
ATOM     13  N   UNL     1      -5.236  -6.663  -8.025  1.00  0.00    -0.342 N 
ATOM     14  C   UNL     1      -5.595  -6.048  -9.204  1.00  0.00     0.249 C 
ATOM     15  O   UNL     1      -4.847  -5.932 -10.167  1.00  0.00    -0.272 OA
ATOM     16  H   UNL     1      -5.907  -6.545  -7.270  1.00  0.00     0.164 HD
BRANCH  14  17
ATOM     17  C   UNL     1      -7.051  -5.537  -9.190  1.00  0.00     0.207 C 
BRANCH  17  18
ATOM     18  C   UNL     1      -7.639  -5.557 -10.604  1.00  0.00     0.077 C 
BRANCH  18  19
ATOM     19  C   UNL     1      -8.326  -6.869 -10.909  1.00  0.00    -0.043 A 
ATOM     20  C   UNL     1     -10.334  -8.229 -10.962  1.00  0.00     0.083 A 
ATOM     21  C   UNL     1      -9.712  -7.002 -10.728  1.00  0.00     0.028 A 
ATOM     22  C   UNL     1      -9.580  -9.327 -11.376  1.00  0.00     0.134 A 
ATOM     23  C   UNL     1      -8.207  -9.210 -11.558  1.00  0.00     0.048 A 
ATOM     24  C   UNL     1      -7.580  -7.984 -11.323  1.00  0.00     0.008 A 
ATOM     25  Cl  UNL     1     -12.038  -8.373 -10.735  1.00  0.00    -0.080 Cl
BRANCH  22  26
ATOM     26  O   UNL     1     -10.144 -10.552 -11.608  1.00  0.00    -0.506 OA
ATOM     27  H   UNL     1     -11.074 -10.391 -11.853  1.00  0.00     0.293 HD
ENDBRANCH  22  26
ENDBRANCH  18  19
ENDBRANCH  17  18
BRANCH  17  28
ATOM     28  O   UNL     1      -7.125  -4.202  -8.662  1.00  0.00    -0.383 OA
ATOM     29  H   UNL     1      -6.477  -4.166  -7.922  1.00  0.00     0.211 HD
ENDBRANCH  17  28
ENDBRANCH  14  17
ENDBRANCH  12  13
BRANCH  12  30
ATOM     30  C   UNL     1      -3.816  -8.724  -8.155  1.00  0.00     0.018 C 
ATOM     31  C   UNL     1      -3.085  -8.870  -9.499  1.00  0.00     0.010 C 
BRANCH  30  32
ATOM     32  C   UNL     1      -5.183  -9.449  -8.211  1.00  0.00     0.002 C 
ATOM     33  C   UNL     1      -5.378 -10.380  -9.401  1.00  0.00     0.004 C 
ENDBRANCH  30  32
ENDBRANCH  12  30
ENDBRANCH  10  12
ENDBRANCH   1  10
BRANCH   5  34
ATOM     34  C   UNL     1      -4.181  -4.902  -3.801  1.00  0.00     0.242 C 
ATOM     35  O   UNL     1      -4.682  -4.278  -2.866  1.00  0.00    -0.273 OA
ATOM     36  N   UNL     1      -2.821  -5.073  -3.930  1.00  0.00    -0.354 N 
ATOM     37  H   UNL     1      -2.458  -5.494  -4.787  1.00  0.00     0.163 HD
BRANCH  36  38
ATOM     38  C   UNL     1      -1.898  -4.774  -2.855  1.00  0.00     0.116 C 
BRANCH  38  39
ATOM     39  C   UNL     1      -0.577  -4.269  -3.431  1.00  0.00     0.023 C 
BRANCH  39  40
ATOM     40  C   UNL     1       0.053  -3.177  -2.574  1.00  0.00     0.026 C 
BRANCH  40  41
ATOM     41  C   UNL     1      -0.706  -1.859  -2.730  1.00  0.00     0.146 C 
BRANCH  41  42
ATOM     42  N   UNL     1      -1.182  -1.408  -1.429  1.00  0.00    -0.254 NA
ATOM     43  C   UNL     1      -2.440  -1.372  -1.193  1.00  0.00     0.185 C 
ATOM     44  N   UNL     1      -3.479  -1.699  -1.983  1.00  0.00    -0.370 N 
ATOM     45  N   UNL     1      -2.858  -0.949   0.011  1.00  0.00    -0.370 N 
ATOM     46  H   UNL     1      -4.410  -1.393  -1.758  1.00  0.00     0.159 HD
ATOM     47  H   UNL     1      -3.341  -2.052  -2.925  1.00  0.00     0.159 HD
ATOM     48  H   UNL     1      -2.137  -0.690   0.671  1.00  0.00     0.159 HD
ATOM     49  H   UNL     1      -3.788  -1.113   0.353  1.00  0.00     0.159 HD
ENDBRANCH  41  42
ENDBRANCH  40  41
ENDBRANCH  39  40
ENDBRANCH  38  39
ENDBRANCH  36  38
ENDBRANCH   5  34
BRANCH   8  50
ATOM     50  O   UNL     1      -5.382  -8.922  -1.578  1.00  0.00    -0.245 OA
BRANCH  50  51
ATOM     51  S   UNL     1      -3.946  -9.232  -0.880  1.00  0.00     0.397 S 
ATOM     52  O   UNL     1      -3.045  -8.152  -1.213  1.00  0.00    -0.169 OA
ATOM     53  O   UNL     1      -3.587 -10.617  -1.102  1.00  0.00    -0.169 OA
BRANCH  51  54
ATOM     54  O   UNL     1      -4.287  -9.052   0.681  1.00  0.00    -0.264 OA
ATOM     55  H   UNL     1      -3.682  -8.372   1.042  1.00  0.00     0.236 HD
ENDBRANCH  51  54
ENDBRANCH  50  51
ENDBRANCH   8  50
TORSDOF 19
ENDMDL
MODEL 46
REMARK VINA RESULT:    -6.048      2.736      5.149
REMARK INTER + INTRA:         -16.484
REMARK INTER:                 -13.855
REMARK INTRA:                  -2.629
REMARK UNBOUND:                -4.249
REMARK SMILES CC[C@@H](C)[C@@H](NC(=O)[C@@H](O)Cc1ccc(O)c(Cl)c1)C(=O)N1[C@H](C(=O)NCCCCN=C(N)N)C[C@H]2CC[C@H](OS(=O)(=O)O)C[C@@H]21
REMARK SMILES IDX 22 1 36 2 46 3 35 4 23 5 45 6 37 7 39 8 38 9 20 10 21 11
REMARK SMILES IDX 5 12 6 13 7 14 8 15 9 17 11 18 12 19 17 20 19 21 15 22 14 23
REMARK SMILES IDX 13 24 18 25 16 26 10 28 3 30 4 31 2 32 1 33 24 34 25 35
REMARK SMILES IDX 26 36 27 38 28 39 29 40 30 41 31 42 32 43 33 44 34 45 40 50
REMARK SMILES IDX 41 51 42 52 43 53 44 54
REMARK H PARENT 6 16 16 27 10 29 26 37 33 46 33 47 34 48 34 49 44 55
ROOT
ATOM      1  N   UNL     1      -3.026  -7.029  -2.906  1.00  0.00    -0.326 N 
ATOM      2  C   UNL     1      -5.050  -7.778  -3.846  1.00  0.00     0.014 C 
ATOM      3  C   UNL     1      -4.476  -6.893  -2.736  1.00  0.00     0.091 C 
ATOM      4  C   UNL     1      -4.044  -8.916  -3.923  1.00  0.00     0.041 C 
ATOM      5  C   UNL     1      -2.727  -8.119  -3.868  1.00  0.00     0.175 C 
ATOM      6  C   UNL     1      -5.092  -5.501  -2.860  1.00  0.00     0.059 C 
ATOM      7  C   UNL     1      -6.510  -8.093  -3.587  1.00  0.00     0.008 C 
ATOM      8  C   UNL     1      -6.535  -5.507  -3.411  1.00  0.00     0.143 C 
ATOM      9  C   UNL     1      -7.263  -6.833  -3.112  1.00  0.00     0.034 C 
ENDROOT
BRANCH   1  10
ATOM     10  C   UNL     1      -1.991  -6.472  -2.175  1.00  0.00     0.246 C 
ATOM     11  O   UNL     1      -0.849  -6.924  -2.309  1.00  0.00    -0.272 OA
BRANCH  10  12
ATOM     12  C   UNL     1      -2.278  -5.264  -1.237  1.00  0.00     0.174 C 
BRANCH  12  13
ATOM     13  N   UNL     1      -1.525  -4.093  -1.687  1.00  0.00    -0.342 N 
ATOM     14  C   UNL     1      -2.071  -2.857  -1.951  1.00  0.00     0.249 C 
ATOM     15  O   UNL     1      -3.258  -2.591  -1.811  1.00  0.00    -0.272 OA
ATOM     16  H   UNL     1      -0.563  -4.202  -1.996  1.00  0.00     0.164 HD
BRANCH  14  17
ATOM     17  C   UNL     1      -1.019  -1.831  -2.426  1.00  0.00     0.207 C 
BRANCH  17  18
ATOM     18  C   UNL     1       0.383  -2.254  -1.976  1.00  0.00     0.077 C 
BRANCH  18  19
ATOM     19  C   UNL     1       1.374  -2.218  -3.117  1.00  0.00    -0.043 A 
ATOM     20  C   UNL     1       2.667  -3.369  -4.817  1.00  0.00     0.083 A 
ATOM     21  C   UNL     1       1.715  -3.398  -3.797  1.00  0.00     0.028 A 
ATOM     22  C   UNL     1       3.284  -2.166  -5.162  1.00  0.00     0.134 A 
ATOM     23  C   UNL     1       2.955  -0.990  -4.498  1.00  0.00     0.048 A 
ATOM     24  C   UNL     1       2.004  -1.016  -3.475  1.00  0.00     0.008 A 
ATOM     25  Cl  UNL     1       3.073  -4.829  -5.640  1.00  0.00    -0.080 Cl
BRANCH  22  26
ATOM     26  O   UNL     1       4.230  -2.090  -6.148  1.00  0.00    -0.506 OA
ATOM     27  H   UNL     1       4.848  -2.831  -6.001  1.00  0.00     0.293 HD
ENDBRANCH  22  26
ENDBRANCH  18  19
ENDBRANCH  17  18
BRANCH  17  28
ATOM     28  O   UNL     1      -1.308  -0.520  -1.915  1.00  0.00    -0.383 OA
ATOM     29  H   UNL     1      -1.052   0.111  -2.626  1.00  0.00     0.211 HD
ENDBRANCH  17  28
ENDBRANCH  14  17
ENDBRANCH  12  13
BRANCH  12  30
ATOM     30  C   UNL     1      -2.024  -5.592   0.259  1.00  0.00     0.018 C 
ATOM     31  C   UNL     1      -2.686  -6.924   0.646  1.00  0.00     0.010 C 
BRANCH  30  32
ATOM     32  C   UNL     1      -2.477  -4.472   1.227  1.00  0.00     0.002 C 
ATOM     33  C   UNL     1      -2.324  -4.791   2.708  1.00  0.00     0.004 C 
ENDBRANCH  30  32
ENDBRANCH  12  30
ENDBRANCH  10  12
ENDBRANCH   1  10
BRANCH   5  34
ATOM     34  C   UNL     1      -2.352  -7.538  -5.257  1.00  0.00     0.242 C 
ATOM     35  O   UNL     1      -1.729  -6.484  -5.383  1.00  0.00    -0.273 OA
ATOM     36  N   UNL     1      -2.813  -8.258  -6.337  1.00  0.00    -0.354 N 
ATOM     37  H   UNL     1      -3.425  -9.057  -6.169  1.00  0.00     0.163 HD
BRANCH  36  38
ATOM     38  C   UNL     1      -2.377  -7.985  -7.691  1.00  0.00     0.116 C 
BRANCH  38  39
ATOM     39  C   UNL     1      -3.294  -6.944  -8.330  1.00  0.00     0.023 C 
BRANCH  39  40
ATOM     40  C   UNL     1      -4.342  -7.572  -9.242  1.00  0.00     0.026 C 
BRANCH  40  41
ATOM     41  C   UNL     1      -5.044  -6.502 -10.078  1.00  0.00     0.146 C 
BRANCH  41  42
ATOM     42  N   UNL     1      -6.325  -6.165  -9.472  1.00  0.00    -0.254 NA
ATOM     43  C   UNL     1      -7.411  -6.516 -10.052  1.00  0.00     0.185 C 
ATOM     44  N   UNL     1      -7.601  -7.189 -11.201  1.00  0.00    -0.370 N 
ATOM     45  N   UNL     1      -8.582  -6.191  -9.479  1.00  0.00    -0.370 N 
ATOM     46  H   UNL     1      -8.497  -7.181 -11.658  1.00  0.00     0.159 HD
ATOM     47  H   UNL     1      -6.820  -7.523 -11.758  1.00  0.00     0.159 HD
ATOM     48  H   UNL     1      -8.529  -5.689  -8.603  1.00  0.00     0.159 HD
ATOM     49  H   UNL     1      -9.452  -6.624  -9.735  1.00  0.00     0.159 HD
ENDBRANCH  41  42
ENDBRANCH  40  41
ENDBRANCH  39  40
ENDBRANCH  38  39
ENDBRANCH  36  38
ENDBRANCH   5  34
BRANCH   8  50
ATOM     50  O   UNL     1      -6.520  -5.306  -4.824  1.00  0.00    -0.245 OA
BRANCH  50  51
ATOM     51  S   UNL     1      -7.652  -4.363  -5.513  1.00  0.00     0.397 S 
ATOM     52  O   UNL     1      -7.056  -3.074  -5.782  1.00  0.00    -0.169 OA
ATOM     53  O   UNL     1      -8.897  -4.486  -4.783  1.00  0.00    -0.169 OA
BRANCH  51  54
ATOM     54  O   UNL     1      -7.847  -5.063  -6.947  1.00  0.00    -0.264 OA
ATOM     55  H   UNL     1      -8.765  -5.400  -6.992  1.00  0.00     0.236 HD
ENDBRANCH  51  54
ENDBRANCH  50  51
ENDBRANCH   8  50
TORSDOF 19
ENDMDL
MODEL 47
REMARK VINA RESULT:    -6.040      4.265      8.494
REMARK INTER + INTRA:         -16.468
REMARK INTER:                 -13.846
REMARK INTRA:                  -2.622
REMARK UNBOUND:                -4.249
REMARK SMILES CC[C@@H](C)[C@@H](NC(=O)[C@@H](O)Cc1ccc(O)c(Cl)c1)C(=O)N1[C@H](C(=O)NCCCCN=C(N)N)C[C@H]2CC[C@H](OS(=O)(=O)O)C[C@@H]21
REMARK SMILES IDX 22 1 36 2 46 3 35 4 23 5 45 6 37 7 39 8 38 9 20 10 21 11
REMARK SMILES IDX 5 12 6 13 7 14 8 15 9 17 11 18 12 19 17 20 19 21 15 22 14 23
REMARK SMILES IDX 13 24 18 25 16 26 10 28 3 30 4 31 2 32 1 33 24 34 25 35
REMARK SMILES IDX 26 36 27 38 28 39 29 40 30 41 31 42 32 43 33 44 34 45 40 50
REMARK SMILES IDX 41 51 42 52 43 53 44 54
REMARK H PARENT 6 16 16 27 10 29 26 37 33 46 33 47 34 48 34 49 44 55
ROOT
ATOM      1  N   UNL     1       2.663  -2.990  -3.520  1.00  0.00    -0.326 N 
ATOM      2  C   UNL     1       4.733  -4.026  -3.088  1.00  0.00     0.014 C 
ATOM      3  C   UNL     1       3.219  -4.255  -3.032  1.00  0.00     0.091 C 
ATOM      4  C   UNL     1       4.861  -2.551  -2.742  1.00  0.00     0.041 C 
ATOM      5  C   UNL     1       3.734  -1.967  -3.614  1.00  0.00     0.175 C 
ATOM      6  C   UNL     1       2.895  -5.533  -3.803  1.00  0.00     0.059 C 
ATOM      7  C   UNL     1       5.468  -5.053  -2.250  1.00  0.00     0.008 C 
ATOM      8  C   UNL     1       4.014  -6.596  -3.742  1.00  0.00     0.143 C 
ATOM      9  C   UNL     1       4.873  -6.460  -2.468  1.00  0.00     0.034 C 
ENDROOT
BRANCH   1  10
ATOM     10  C   UNL     1       1.343  -2.600  -3.672  1.00  0.00     0.246 C 
ATOM     11  O   UNL     1       0.947  -2.243  -4.787  1.00  0.00    -0.272 OA
BRANCH  10  12
ATOM     12  C   UNL     1       0.379  -2.662  -2.452  1.00  0.00     0.174 C 
BRANCH  12  13
ATOM     13  N   UNL     1      -0.463  -3.855  -2.542  1.00  0.00    -0.342 N 
ATOM     14  C   UNL     1      -0.573  -4.819  -1.566  1.00  0.00     0.249 C 
ATOM     15  O   UNL     1       0.008  -4.770  -0.489  1.00  0.00    -0.272 OA
ATOM     16  H   UNL     1      -0.880  -4.111  -3.433  1.00  0.00     0.164 HD
BRANCH  14  17
ATOM     17  C   UNL     1      -1.528  -5.964  -1.965  1.00  0.00     0.207 C 
BRANCH  17  18
ATOM     18  C   UNL     1      -2.981  -5.580  -1.663  1.00  0.00     0.077 C 
BRANCH  18  19
ATOM     19  C   UNL     1      -3.870  -5.751  -2.874  1.00  0.00    -0.043 A 
ATOM     20  C   UNL     1      -4.132  -6.173  -5.248  1.00  0.00     0.083 A 
ATOM     21  C   UNL     1      -3.313  -6.065  -4.124  1.00  0.00     0.028 A 
ATOM     22  C   UNL     1      -5.507  -5.968  -5.133  1.00  0.00     0.134 A 
ATOM     23  C   UNL     1      -6.072  -5.657  -3.902  1.00  0.00     0.048 A 
ATOM     24  C   UNL     1      -5.255  -5.546  -2.774  1.00  0.00     0.008 A 
ATOM     25  Cl  UNL     1      -3.429  -6.559  -6.775  1.00  0.00    -0.080 Cl
BRANCH  22  26
ATOM     26  O   UNL     1      -6.349  -6.053  -6.210  1.00  0.00    -0.506 OA
ATOM     27  H   UNL     1      -5.890  -6.591  -6.882  1.00  0.00     0.293 HD
ENDBRANCH  22  26
ENDBRANCH  18  19
ENDBRANCH  17  18
BRANCH  17  28
ATOM     28  O   UNL     1      -1.201  -7.178  -1.269  1.00  0.00    -0.383 OA
ATOM     29  H   UNL     1      -0.222  -7.179  -1.170  1.00  0.00     0.211 HD
ENDBRANCH  17  28
ENDBRANCH  14  17
ENDBRANCH  12  13
BRANCH  12  30
ATOM     30  C   UNL     1      -0.451  -1.363  -2.277  1.00  0.00     0.018 C 
ATOM     31  C   UNL     1       0.386  -0.126  -2.641  1.00  0.00     0.010 C 
BRANCH  30  32
ATOM     32  C   UNL     1      -1.056  -1.197  -0.861  1.00  0.00     0.002 C 
ATOM     33  C   UNL     1      -2.558  -1.426  -0.764  1.00  0.00     0.004 C 
ENDBRANCH  30  32
ENDBRANCH  12  30
ENDBRANCH  10  12
ENDBRANCH   1  10
BRANCH   5  34
ATOM     34  C   UNL     1       4.189  -1.781  -5.086  1.00  0.00     0.242 C 
ATOM     35  O   UNL     1       4.826  -0.796  -5.458  1.00  0.00    -0.273 OA
ATOM     36  N   UNL     1       3.781  -2.768  -5.955  1.00  0.00    -0.354 N 
ATOM     37  H   UNL     1       3.153  -3.496  -5.611  1.00  0.00     0.163 HD
BRANCH  36  38
ATOM     38  C   UNL     1       4.290  -2.868  -7.307  1.00  0.00     0.116 C 
BRANCH  38  39
ATOM     39  C   UNL     1       4.849  -4.268  -7.548  1.00  0.00     0.023 C 
BRANCH  39  40
ATOM     40  C   UNL     1       5.141  -4.533  -9.021  1.00  0.00     0.026 C 
BRANCH  40  41
ATOM     41  C   UNL     1       4.470  -5.827  -9.483  1.00  0.00     0.146 C 
BRANCH  41  42
ATOM     42  N   UNL     1       5.038  -6.249 -10.757  1.00  0.00    -0.254 NA
ATOM     43  C   UNL     1       5.992  -7.102 -10.773  1.00  0.00     0.185 C 
ATOM     44  N   UNL     1       6.610  -7.728  -9.755  1.00  0.00    -0.370 N 
ATOM     45  N   UNL     1       6.504  -7.475 -11.957  1.00  0.00    -0.370 N 
ATOM     46  H   UNL     1       7.497  -8.182  -9.895  1.00  0.00     0.159 HD
ATOM     47  H   UNL     1       6.338  -7.573  -8.789  1.00  0.00     0.159 HD
ATOM     48  H   UNL     1       6.088  -7.056 -12.778  1.00  0.00     0.159 HD
ATOM     49  H   UNL     1       7.073  -8.295 -12.070  1.00  0.00     0.159 HD
ENDBRANCH  41  42
ENDBRANCH  40  41
ENDBRANCH  39  40
ENDBRANCH  38  39
ENDBRANCH  36  38
ENDBRANCH   5  34
BRANCH   8  50
ATOM     50  O   UNL     1       4.868  -6.475  -4.880  1.00  0.00    -0.245 OA
BRANCH  50  51
ATOM     51  S   UNL     1       5.628  -7.792  -5.457  1.00  0.00     0.397 S 
ATOM     52  O   UNL     1       6.907  -7.897  -4.790  1.00  0.00    -0.169 OA
ATOM     53  O   UNL     1       5.519  -7.823  -6.901  1.00  0.00    -0.169 OA
BRANCH  51  54
ATOM     54  O   UNL     1       4.727  -8.986  -4.866  1.00  0.00    -0.264 OA
ATOM     55  H   UNL     1       5.331  -9.655  -4.484  1.00  0.00     0.236 HD
ENDBRANCH  51  54
ENDBRANCH  50  51
ENDBRANCH   8  50
TORSDOF 19
ENDMDL
MODEL 48
REMARK VINA RESULT:    -6.037      4.083      6.719
REMARK INTER + INTRA:         -16.462
REMARK INTER:                 -13.873
REMARK INTRA:                  -2.589
REMARK UNBOUND:                -4.249
REMARK SMILES CC[C@@H](C)[C@@H](NC(=O)[C@@H](O)Cc1ccc(O)c(Cl)c1)C(=O)N1[C@H](C(=O)NCCCCN=C(N)N)C[C@H]2CC[C@H](OS(=O)(=O)O)C[C@@H]21
REMARK SMILES IDX 22 1 36 2 46 3 35 4 23 5 45 6 37 7 39 8 38 9 20 10 21 11
REMARK SMILES IDX 5 12 6 13 7 14 8 15 9 17 11 18 12 19 17 20 19 21 15 22 14 23
REMARK SMILES IDX 13 24 18 25 16 26 10 28 3 30 4 31 2 32 1 33 24 34 25 35
REMARK SMILES IDX 26 36 27 38 28 39 29 40 30 41 31 42 32 43 33 44 34 45 40 50
REMARK SMILES IDX 41 51 42 52 43 53 44 54
REMARK H PARENT 6 16 16 27 10 29 26 37 33 46 33 47 34 48 34 49 44 55
ROOT
ATOM      1  N   UNL     1       3.087  -5.608  -6.761  1.00  0.00    -0.326 N 
ATOM      2  C   UNL     1       2.883  -7.928  -7.105  1.00  0.00     0.014 C 
ATOM      3  C   UNL     1       2.183  -6.724  -6.469  1.00  0.00     0.091 C 
ATOM      4  C   UNL     1       4.356  -7.608  -6.897  1.00  0.00     0.041 C 
ATOM      5  C   UNL     1       4.371  -6.122  -7.299  1.00  0.00     0.175 C 
ATOM      6  C   UNL     1       0.754  -6.658  -7.004  1.00  0.00     0.059 C 
ATOM      7  C   UNL     1       2.322  -9.229  -6.567  1.00  0.00     0.008 C 
ATOM      8  C   UNL     1       0.147  -8.041  -7.327  1.00  0.00     0.143 C 
ATOM      9  C   UNL     1       0.782  -9.164  -6.483  1.00  0.00     0.034 C 
ENDROOT
BRANCH   1  10
ATOM     10  C   UNL     1       2.986  -4.271  -6.417  1.00  0.00     0.246 C 
ATOM     11  O   UNL     1       2.777  -3.436  -7.304  1.00  0.00    -0.272 OA
BRANCH  10  12
ATOM     12  C   UNL     1       3.095  -3.853  -4.922  1.00  0.00     0.174 C 
BRANCH  12  13
ATOM     13  N   UNL     1       1.765  -3.569  -4.385  1.00  0.00    -0.342 N 
ATOM     14  C   UNL     1       1.213  -4.176  -3.279  1.00  0.00     0.249 C 
ATOM     15  O   UNL     1       1.795  -5.011  -2.598  1.00  0.00    -0.272 OA
ATOM     16  H   UNL     1       1.109  -3.017  -4.931  1.00  0.00     0.164 HD
BRANCH  14  17
ATOM     17  C   UNL     1      -0.215  -3.674  -2.975  1.00  0.00     0.207 C 
BRANCH  17  18
ATOM     18  C   UNL     1      -1.252  -4.712  -3.414  1.00  0.00     0.077 C 
BRANCH  18  19
ATOM     19  C   UNL     1      -1.552  -5.706  -2.314  1.00  0.00    -0.043 A 
ATOM     20  C   UNL     1      -2.275  -6.180  -0.048  1.00  0.00     0.083 A 
ATOM     21  C   UNL     1      -2.046  -5.266  -1.077  1.00  0.00     0.028 A 
ATOM     22  C   UNL     1      -2.012  -7.536  -0.247  1.00  0.00     0.134 A 
ATOM     23  C   UNL     1      -1.522  -7.985  -1.468  1.00  0.00     0.048 A 
ATOM     24  C   UNL     1      -1.290  -7.072  -2.499  1.00  0.00     0.008 A 
ATOM     25  Cl  UNL     1      -2.882  -5.620   1.466  1.00  0.00    -0.080 Cl
BRANCH  22  26
ATOM     26  O   UNL     1      -2.210  -8.468   0.735  1.00  0.00    -0.506 OA
ATOM     27  H   UNL     1      -1.951  -8.049   1.576  1.00  0.00     0.293 HD
ENDBRANCH  22  26
ENDBRANCH  18  19
ENDBRANCH  17  18
BRANCH  17  28
ATOM     28  O   UNL     1      -0.477  -2.427  -3.639  1.00  0.00    -0.383 OA
ATOM     29  H   UNL     1      -1.053  -1.911  -3.031  1.00  0.00     0.211 HD
ENDBRANCH  17  28
ENDBRANCH  14  17
ENDBRANCH  12  13
BRANCH  12  30
ATOM     30  C   UNL     1       4.088  -2.681  -4.697  1.00  0.00     0.018 C 
ATOM     31  C   UNL     1       4.688  -2.736  -3.283  1.00  0.00     0.010 C 
BRANCH  30  32
ATOM     32  C   UNL     1       3.470  -1.285  -4.959  1.00  0.00     0.002 C 
ATOM     33  C   UNL     1       4.192  -0.439  -6.000  1.00  0.00     0.004 C 
ENDBRANCH  30  32
ENDBRANCH  12  30
ENDBRANCH  10  12
ENDBRANCH   1  10
BRANCH   5  34
ATOM     34  C   UNL     1       4.431  -5.947  -8.840  1.00  0.00     0.242 C 
ATOM     35  O   UNL     1       3.465  -5.559  -9.496  1.00  0.00    -0.273 OA
ATOM     36  N   UNL     1       5.625  -6.308  -9.424  1.00  0.00    -0.354 N 
ATOM     37  H   UNL     1       6.347  -6.735  -8.843  1.00  0.00     0.163 HD
BRANCH  36  38
ATOM     38  C   UNL     1       5.930  -6.010 -10.808  1.00  0.00     0.116 C 
BRANCH  38  39
ATOM     39  C   UNL     1       6.447  -7.265 -11.507  1.00  0.00     0.023 C 
BRANCH  39  40
ATOM     40  C   UNL     1       5.395  -8.367 -11.580  1.00  0.00     0.026 C 
BRANCH  40  41
ATOM     41  C   UNL     1       5.414  -9.044 -12.950  1.00  0.00     0.146 C 
BRANCH  41  42
ATOM     42  N   UNL     1       4.094  -8.956 -13.561  1.00  0.00    -0.254 NA
ATOM     43  C   UNL     1       3.746  -7.881 -14.164  1.00  0.00     0.185 C 
ATOM     44  N   UNL     1       4.426  -6.735 -14.352  1.00  0.00    -0.370 N 
ATOM     45  N   UNL     1       2.523  -7.819 -14.716  1.00  0.00    -0.370 N 
ATOM     46  H   UNL     1       3.947  -5.894 -14.626  1.00  0.00     0.159 HD
ATOM     47  H   UNL     1       5.374  -6.616 -14.010  1.00  0.00     0.159 HD
ATOM     48  H   UNL     1       1.948  -8.645 -14.628  1.00  0.00     0.159 HD
ATOM     49  H   UNL     1       2.268  -7.124 -15.396  1.00  0.00     0.159 HD
ENDBRANCH  41  42
ENDBRANCH  40  41
ENDBRANCH  39  40
ENDBRANCH  38  39
ENDBRANCH  36  38
ENDBRANCH   5  34
BRANCH   8  50
ATOM     50  O   UNL     1       0.338  -8.348  -8.709  1.00  0.00    -0.245 OA
BRANCH  50  51
ATOM     51  S   UNL     1      -0.897  -8.162  -9.751  1.00  0.00     0.397 S 
ATOM     52  O   UNL     1      -2.131  -8.265  -9.004  1.00  0.00    -0.169 OA
ATOM     53  O   UNL     1      -0.658  -8.959 -10.936  1.00  0.00    -0.169 OA
BRANCH  51  54
ATOM     54  O   UNL     1      -0.760  -6.612 -10.159  1.00  0.00    -0.264 OA
ATOM     55  H   UNL     1       0.175  -6.352 -10.033  1.00  0.00     0.236 HD
ENDBRANCH  51  54
ENDBRANCH  50  51
ENDBRANCH   8  50
TORSDOF 19
ENDMDL
MODEL 49
REMARK VINA RESULT:    -6.033      3.963      8.322
REMARK INTER + INTRA:         -16.454
REMARK INTER:                 -14.014
REMARK INTRA:                  -2.439
REMARK UNBOUND:                -4.249
REMARK SMILES CC[C@@H](C)[C@@H](NC(=O)[C@@H](O)Cc1ccc(O)c(Cl)c1)C(=O)N1[C@H](C(=O)NCCCCN=C(N)N)C[C@H]2CC[C@H](OS(=O)(=O)O)C[C@@H]21
REMARK SMILES IDX 22 1 36 2 46 3 35 4 23 5 45 6 37 7 39 8 38 9 20 10 21 11
REMARK SMILES IDX 5 12 6 13 7 14 8 15 9 17 11 18 12 19 17 20 19 21 15 22 14 23
REMARK SMILES IDX 13 24 18 25 16 26 10 28 3 30 4 31 2 32 1 33 24 34 25 35
REMARK SMILES IDX 26 36 27 38 28 39 29 40 30 41 31 42 32 43 33 44 34 45 40 50
REMARK SMILES IDX 41 51 42 52 43 53 44 54
REMARK H PARENT 6 16 16 27 10 29 26 37 33 46 33 47 34 48 34 49 44 55
ROOT
ATOM      1  N   UNL     1       2.220  -3.240  -3.791  1.00  0.00    -0.326 N 
ATOM      2  C   UNL     1       4.363  -4.183  -3.547  1.00  0.00     0.014 C 
ATOM      3  C   UNL     1       2.894  -4.380  -3.164  1.00  0.00     0.091 C 
ATOM      4  C   UNL     1       4.510  -2.670  -3.546  1.00  0.00     0.041 C 
ATOM      5  C   UNL     1       3.225  -2.271  -4.294  1.00  0.00     0.175 C 
ATOM      6  C   UNL     1       2.471  -5.789  -3.578  1.00  0.00     0.059 C 
ATOM      7  C   UNL     1       5.271  -5.019  -2.666  1.00  0.00     0.008 C 
ATOM      8  C   UNL     1       3.613  -6.826  -3.507  1.00  0.00     0.143 C 
ATOM      9  C   UNL     1       4.688  -6.435  -2.473  1.00  0.00     0.034 C 
ENDROOT
BRANCH   1  10
ATOM     10  C   UNL     1       0.884  -2.878  -3.773  1.00  0.00     0.246 C 
ATOM     11  O   UNL     1       0.479  -2.033  -4.578  1.00  0.00    -0.272 OA
BRANCH  10  12
ATOM     12  C   UNL     1      -0.085  -3.572  -2.771  1.00  0.00     0.174 C 
BRANCH  12  13
ATOM     13  N   UNL     1      -1.062  -4.379  -3.501  1.00  0.00    -0.342 N 
ATOM     14  C   UNL     1      -1.243  -5.735  -3.342  1.00  0.00     0.249 C 
ATOM     15  O   UNL     1      -0.617  -6.418  -2.542  1.00  0.00    -0.272 OA
ATOM     16  H   UNL     1      -1.542  -3.983  -4.305  1.00  0.00     0.164 HD
BRANCH  14  17
ATOM     17  C   UNL     1      -2.340  -6.301  -4.269  1.00  0.00     0.207 C 
BRANCH  17  18
ATOM     18  C   UNL     1      -3.713  -6.205  -3.595  1.00  0.00     0.077 C 
BRANCH  18  19
ATOM     19  C   UNL     1      -4.794  -5.810  -4.576  1.00  0.00    -0.043 A 
ATOM     20  C   UNL     1      -7.091  -5.178  -5.032  1.00  0.00     0.083 A 
ATOM     21  C   UNL     1      -6.083  -5.494  -4.120  1.00  0.00     0.028 A 
ATOM     22  C   UNL     1      -6.819  -5.177  -6.400  1.00  0.00     0.134 A 
ATOM     23  C   UNL     1      -5.547  -5.488  -6.866  1.00  0.00     0.048 A 
ATOM     24  C   UNL     1      -4.536  -5.807  -5.956  1.00  0.00     0.008 A 
ATOM     25  Cl  UNL     1      -8.668  -4.792  -4.452  1.00  0.00    -0.080 Cl
BRANCH  22  26
ATOM     26  O   UNL     1      -7.778  -4.884  -7.332  1.00  0.00    -0.506 OA
ATOM     27  H   UNL     1      -7.351  -4.322  -8.006  1.00  0.00     0.293 HD
ENDBRANCH  22  26
ENDBRANCH  18  19
ENDBRANCH  17  18
BRANCH  17  28
ATOM     28  O   UNL     1      -2.072  -7.671  -4.611  1.00  0.00    -0.383 OA
ATOM     29  H   UNL     1      -1.163  -7.684  -4.989  1.00  0.00     0.211 HD
ENDBRANCH  17  28
ENDBRANCH  14  17
ENDBRANCH  12  13
BRANCH  12  30
ATOM     30  C   UNL     1      -0.755  -2.570  -1.793  1.00  0.00     0.018 C 
ATOM     31  C   UNL     1       0.200  -1.415  -1.454  1.00  0.00     0.010 C 
BRANCH  30  32
ATOM     32  C   UNL     1      -1.280  -3.227  -0.493  1.00  0.00     0.002 C 
ATOM     33  C   UNL     1      -0.412  -4.347   0.066  1.00  0.00     0.004 C 
ENDBRANCH  30  32
ENDBRANCH  12  30
ENDBRANCH  10  12
ENDBRANCH   1  10
BRANCH   5  34
ATOM     34  C   UNL     1       3.394  -2.402  -5.831  1.00  0.00     0.242 C 
ATOM     35  O   UNL     1       4.123  -1.651  -6.479  1.00  0.00    -0.273 OA
ATOM     36  N   UNL     1       2.629  -3.382  -6.423  1.00  0.00    -0.354 N 
ATOM     37  H   UNL     1       1.955  -3.891  -5.851  1.00  0.00     0.163 HD
BRANCH  36  38
ATOM     38  C   UNL     1       2.820  -3.784  -7.802  1.00  0.00     0.116 C 
BRANCH  38  39
ATOM     39  C   UNL     1       3.326  -5.224  -7.856  1.00  0.00     0.023 C 
BRANCH  39  40
ATOM     40  C   UNL     1       4.849  -5.305  -7.891  1.00  0.00     0.026 C 
BRANCH  40  41
ATOM     41  C   UNL     1       5.316  -6.246  -9.001  1.00  0.00     0.146 C 
BRANCH  41  42
ATOM     42  N   UNL     1       5.167  -5.594 -10.295  1.00  0.00    -0.254 NA
ATOM     43  C   UNL     1       5.898  -5.964 -11.279  1.00  0.00     0.185 C 
ATOM     44  N   UNL     1       6.848  -6.916 -11.341  1.00  0.00    -0.370 N 
ATOM     45  N   UNL     1       5.749  -5.347 -12.462  1.00  0.00    -0.370 N 
ATOM     46  H   UNL     1       7.507  -6.933 -12.100  1.00  0.00     0.159 HD
ATOM     47  H   UNL     1       7.080  -7.490 -10.537  1.00  0.00     0.159 HD
ATOM     48  H   UNL     1       5.047  -4.621 -12.504  1.00  0.00     0.159 HD
ATOM     49  H   UNL     1       6.102  -5.727 -13.322  1.00  0.00     0.159 HD
ENDBRANCH  41  42
ENDBRANCH  40  41
ENDBRANCH  39  40
ENDBRANCH  38  39
ENDBRANCH  36  38
ENDBRANCH   5  34
BRANCH   8  50
ATOM     50  O   UNL     1       4.238  -6.955  -4.784  1.00  0.00    -0.245 OA
BRANCH  50  51
ATOM     51  S   UNL     1       5.077  -8.304  -5.134  1.00  0.00     0.397 S 
ATOM     52  O   UNL     1       4.570  -9.373  -4.305  1.00  0.00    -0.169 OA
ATOM     53  O   UNL     1       6.491  -7.994  -5.195  1.00  0.00    -0.169 OA
BRANCH  51  54
ATOM     54  O   UNL     1       4.577  -8.632  -6.627  1.00  0.00    -0.264 OA
ATOM     55  H   UNL     1       5.365  -8.650  -7.208  1.00  0.00     0.236 HD
ENDBRANCH  51  54
ENDBRANCH  50  51
ENDBRANCH   8  50
TORSDOF 19
ENDMDL
MODEL 50
REMARK VINA RESULT:    -5.998     18.982     21.188
REMARK INTER + INTRA:         -16.383
REMARK INTER:                 -12.816
REMARK INTRA:                  -3.567
REMARK UNBOUND:                -4.249
REMARK SMILES CC[C@@H](C)[C@@H](NC(=O)[C@@H](O)Cc1ccc(O)c(Cl)c1)C(=O)N1[C@H](C(=O)NCCCCN=C(N)N)C[C@H]2CC[C@H](OS(=O)(=O)O)C[C@@H]21
REMARK SMILES IDX 22 1 36 2 46 3 35 4 23 5 45 6 37 7 39 8 38 9 20 10 21 11
REMARK SMILES IDX 5 12 6 13 7 14 8 15 9 17 11 18 12 19 17 20 19 21 15 22 14 23
REMARK SMILES IDX 13 24 18 25 16 26 10 28 3 30 4 31 2 32 1 33 24 34 25 35
REMARK SMILES IDX 26 36 27 38 28 39 29 40 30 41 31 42 32 43 33 44 34 45 40 50
REMARK SMILES IDX 41 51 42 52 43 53 44 54
REMARK H PARENT 6 16 16 27 10 29 26 37 33 46 33 47 34 48 34 49 44 55
ROOT
ATOM      1  N   UNL     1     -18.993   0.390 -12.347  1.00  0.00    -0.326 N 
ATOM      2  C   UNL     1     -20.638   1.961 -11.741  1.00  0.00     0.014 C 
ATOM      3  C   UNL     1     -19.896   0.720 -11.240  1.00  0.00     0.091 C 
ATOM      4  C   UNL     1     -20.763   1.697 -13.234  1.00  0.00     0.041 C 
ATOM      5  C   UNL     1     -19.339   1.198 -13.542  1.00  0.00     0.175 C 
ATOM      6  C   UNL     1     -19.284   1.040  -9.877  1.00  0.00     0.059 C 
ATOM      7  C   UNL     1     -21.890   2.212 -10.924  1.00  0.00     0.008 C 
ATOM      8  C   UNL     1     -20.110   2.046  -9.046  1.00  0.00     0.143 C 
ATOM      9  C   UNL     1     -21.606   2.015  -9.420  1.00  0.00     0.034 C 
ENDROOT
BRANCH   1  10
ATOM     10  C   UNL     1     -18.087  -0.649 -12.474  1.00  0.00     0.246 C 
ATOM     11  O   UNL     1     -16.972  -0.542 -11.952  1.00  0.00    -0.272 OA
BRANCH  10  12
ATOM     12  C   UNL     1     -18.505  -1.943 -13.231  1.00  0.00     0.174 C 
BRANCH  12  13
ATOM     13  N   UNL     1     -18.998  -2.940 -12.282  1.00  0.00    -0.342 N 
ATOM     14  C   UNL     1     -20.312  -3.083 -11.896  1.00  0.00     0.249 C 
ATOM     15  O   UNL     1     -21.229  -2.399 -12.334  1.00  0.00    -0.272 OA
ATOM     16  H   UNL     1     -18.336  -3.471 -11.721  1.00  0.00     0.164 HD
BRANCH  14  17
ATOM     17  C   UNL     1     -20.511  -4.215 -10.866  1.00  0.00     0.207 C 
BRANCH  17  18
ATOM     18  C   UNL     1     -19.207  -4.995 -10.669  1.00  0.00     0.077 C 
BRANCH  18  19
ATOM     19  C   UNL     1     -19.303  -6.399 -11.220  1.00  0.00    -0.043 A 
ATOM     20  C   UNL     1     -19.277  -7.924 -13.106  1.00  0.00     0.083 A 
ATOM     21  C   UNL     1     -19.139  -6.634 -12.594  1.00  0.00     0.028 A 
ATOM     22  C   UNL     1     -19.581  -8.985 -12.253  1.00  0.00     0.134 A 
ATOM     23  C   UNL     1     -19.746  -8.768 -10.890  1.00  0.00     0.048 A 
ATOM     24  C   UNL     1     -19.610  -7.477 -10.374  1.00  0.00     0.008 A 
ATOM     25  Cl  UNL     1     -19.072  -8.192 -14.798  1.00  0.00    -0.080 Cl
BRANCH  22  26
ATOM     26  O   UNL     1     -19.737 -10.266 -12.710  1.00  0.00    -0.506 OA
ATOM     27  H   UNL     1     -19.063 -10.808 -12.260  1.00  0.00     0.293 HD
ENDBRANCH  22  26
ENDBRANCH  18  19
ENDBRANCH  17  18
BRANCH  17  28
ATOM     28  O   UNL     1     -21.547  -5.118 -11.283  1.00  0.00    -0.383 OA
ATOM     29  H   UNL     1     -22.379  -4.785 -10.874  1.00  0.00     0.211 HD
ENDBRANCH  17  28
ENDBRANCH  14  17
ENDBRANCH  12  13
BRANCH  12  30
ATOM     30  C   UNL     1     -17.375  -2.498 -14.140  1.00  0.00     0.018 C 
ATOM     31  C   UNL     1     -16.857  -1.410 -15.093  1.00  0.00     0.010 C 
BRANCH  30  32
ATOM     32  C   UNL     1     -17.785  -3.757 -14.943  1.00  0.00     0.002 C 
ATOM     33  C   UNL     1     -16.924  -4.060 -16.162  1.00  0.00     0.004 C 
ENDBRANCH  30  32
ENDBRANCH  12  30
ENDBRANCH  10  12
ENDBRANCH   1  10
BRANCH   5  34
ATOM     34  C   UNL     1     -18.345   2.377 -13.716  1.00  0.00     0.242 C 
ATOM     35  O   UNL     1     -17.594   2.742 -12.813  1.00  0.00    -0.273 OA
ATOM     36  N   UNL     1     -18.403   3.017 -14.934  1.00  0.00    -0.354 N 
ATOM     37  H   UNL     1     -19.129   2.745 -15.598  1.00  0.00     0.163 HD
BRANCH  36  38
ATOM     38  C   UNL     1     -17.411   3.988 -15.345  1.00  0.00     0.116 C 
BRANCH  38  39
ATOM     39  C   UNL     1     -18.100   5.269 -15.810  1.00  0.00     0.023 C 
BRANCH  39  40
ATOM     40  C   UNL     1     -17.684   6.485 -14.991  1.00  0.00     0.026 C 
BRANCH  40  41
ATOM     41  C   UNL     1     -17.187   6.063 -13.608  1.00  0.00     0.146 C 
BRANCH  41  42
ATOM     42  N   UNL     1     -17.742   6.951 -12.594  1.00  0.00    -0.254 NA
ATOM     43  C   UNL     1     -18.542   6.482 -11.712  1.00  0.00     0.185 C 
ATOM     44  N   UNL     1     -18.999   5.228 -11.536  1.00  0.00    -0.370 N 
ATOM     45  N   UNL     1     -19.046   7.317 -10.788  1.00  0.00    -0.370 N 
ATOM     46  H   UNL     1     -19.805   5.052 -10.961  1.00  0.00     0.159 HD
ATOM     47  H   UNL     1     -18.707   4.466 -12.140  1.00  0.00     0.159 HD
ATOM     48  H   UNL     1     -18.746   8.281 -10.844  1.00  0.00     0.159 HD
ATOM     49  H   UNL     1     -19.478   6.994  -9.941  1.00  0.00     0.159 HD
ENDBRANCH  41  42
ENDBRANCH  40  41
ENDBRANCH  39  40
ENDBRANCH  38  39
ENDBRANCH  36  38
ENDBRANCH   5  34
BRANCH   8  50
ATOM     50  O   UNL     1     -19.619   3.371  -9.251  1.00  0.00    -0.245 OA
BRANCH  50  51
ATOM     51  S   UNL     1     -19.222   4.288  -7.968  1.00  0.00     0.397 S 
ATOM     52  O   UNL     1     -19.992   3.827  -6.835  1.00  0.00    -0.169 OA
ATOM     53  O   UNL     1     -19.200   5.683  -8.355  1.00  0.00    -0.169 OA
BRANCH  51  54
ATOM     54  O   UNL     1     -17.707   3.829  -7.683  1.00  0.00    -0.264 OA
ATOM     55  H   UNL     1     -17.680   2.851  -7.719  1.00  0.00     0.236 HD
ENDBRANCH  51  54
ENDBRANCH  50  51
ENDBRANCH   8  50
TORSDOF 19
ENDMDL
