MODEL 1
REMARK VINA RESULT:    -6.691      0.000      0.000
REMARK INTER + INTRA:         -26.214
REMARK INTER:                 -19.208
REMARK INTRA:                  -7.006
REMARK UNBOUND:                -7.006
REMARK SMILES CCCCCC(=O)N[C@H](CC(=O)O)C(=O)N[C@H]1C(=O)N[C@H](CCCN=C(N)N)C(=O)N[C@@H]2CC[C@H](O)N(C2=O)[C@@H](CC(C)C)C(=O)N(C)[C@@H](Cc2ccccc2)C(=O)N[C@H](C(C)C)C(=O)O[C@@H]1C
REMARK SMILES IDX 30 1 31 2 29 3 32 5 35 6 37 7 34 8 38 9 33 10 39 11 36 12
REMARK SMILES IDX 40 14 41 15 42 16 43 17 44 18 45 19 46 20 47 21 48 22 49 23
REMARK SMILES IDX 50 24 51 25 52 26 56 27 53 28 55 29 54 30 57 31 58 32 59 33
REMARK SMILES IDX 60 35 61 36 62 37 63 38 64 39 65 40 66 41 67 42 68 43 21 45
REMARK SMILES IDX 20 46 18 47 19 48 17 50 16 52 14 53 15 54 9 56 8 57 6 58
REMARK SMILES IDX 7 59 5 61 4 62 3 63 2 64 1 65 10 66 11 67 12 68 13 69 22 71
REMARK SMILES IDX 23 72 24 73 25 74 26 75 27 76 28 77
REMARK H PARENT 31 4 36 13 59 34 20 49 16 55 8 60 13 70 27 78 27 79 28 80
REMARK H PARENT 28 81
REMARK Flexibility Score:  259.900
ROOT
ATOM      1  O   UNL     1      -7.320  -5.686   7.503  1.00  0.00    -0.273 OA
ATOM      2  N   UNL     1      -5.386  -4.480   7.690  1.00  0.00    -0.343 N 
ATOM      3  C   UNL     1      -6.129  -5.635   7.809  1.00  0.00     0.243 C 
ATOM      4  H   UNL     1      -4.404  -4.479   7.937  1.00  0.00     0.164 HD
ENDROOT
BRANCH   2   5
ATOM      5  C   UNL     1      -6.021  -3.225   7.303  1.00  0.00     0.171 C 
ATOM      6  C   UNL     1      -5.042  -0.503   7.116  1.00  0.00     0.214 C 
ATOM      7  N   UNL     1      -5.635  -0.961   8.350  1.00  0.00    -0.303 N 
ATOM      8  C   UNL     1      -5.610  -1.190   5.884  1.00  0.00     0.057 C 
ATOM      9  C   UNL     1      -6.076  -2.263   8.524  1.00  0.00     0.247 C 
ATOM     10  C   UNL     1      -5.426  -2.688   6.002  1.00  0.00     0.040 C 
ATOM     11  O   UNL     1      -6.503  -2.672   9.612  1.00  0.00    -0.272 OA
BRANCH   6  12
ATOM     12  O   UNL     1      -3.652  -0.716   7.201  1.00  0.00    -0.373 OA
ATOM     13  H   UNL     1      -3.417  -0.702   8.154  1.00  0.00     0.213 HD
ENDBRANCH   6  12
BRANCH   7  14
ATOM     14  C   UNL     1      -5.622  -0.020   9.490  1.00  0.00     0.177 C 
BRANCH  14  15
ATOM     15  C   UNL     1      -6.995   0.244  10.138  1.00  0.00     0.038 C 
BRANCH  15  16
ATOM     16  C   UNL     1      -8.202   0.603   9.244  1.00  0.00    -0.015 C 
ATOM     17  C   UNL     1      -8.896   1.894   9.689  1.00  0.00     0.007 C 
ATOM     18  C   UNL     1      -9.232  -0.533   9.282  1.00  0.00     0.007 C 
ENDBRANCH  15  16
ENDBRANCH  14  15
BRANCH  14  19
ATOM     19  C   UNL     1      -4.259  -0.116  10.259  1.00  0.00     0.245 C 
ATOM     20  O   UNL     1      -3.366   0.676   9.916  1.00  0.00    -0.272 OA
BRANCH  19  21
ATOM     21  N   UNL     1      -3.971  -1.090  11.199  1.00  0.00    -0.332 N 
ATOM     22  C   UNL     1      -4.467  -1.118  12.563  1.00  0.00     0.147 C 
BRANCH  21  23
ATOM     23  C   UNL     1      -3.069  -2.203  10.793  1.00  0.00     0.178 C 
BRANCH  23  24
ATOM     24  C   UNL     1      -1.954  -1.803   9.805  1.00  0.00     0.070 C 
BRANCH  24  25
ATOM     25  C   UNL     1      -1.063  -2.908   9.289  1.00  0.00    -0.045 A 
ATOM     26  C   UNL     1       0.253  -3.044   9.751  1.00  0.00     0.004 A 
ATOM     27  C   UNL     1      -1.542  -3.815   8.332  1.00  0.00     0.004 A 
ATOM     28  C   UNL     1       1.076  -4.058   9.256  1.00  0.00     0.000 A 
ATOM     29  C   UNL     1      -0.719  -4.829   7.839  1.00  0.00     0.000 A 
ATOM     30  C   UNL     1       0.591  -4.947   8.300  1.00  0.00     0.000 A 
ENDBRANCH  24  25
ENDBRANCH  23  24
BRANCH  23  31
ATOM     31  C   UNL     1      -2.601  -3.067  11.989  1.00  0.00     0.243 C 
ATOM     32  O   UNL     1      -1.756  -2.709  12.806  1.00  0.00    -0.273 OA
ATOM     33  N   UNL     1      -3.083  -4.365  11.956  1.00  0.00    -0.341 N 
ATOM     34  H   UNL     1      -3.780  -4.605  11.247  1.00  0.00     0.164 HD
BRANCH  33  35
ATOM     35  C   UNL     1      -2.677  -5.392  12.919  1.00  0.00     0.194 C 
BRANCH  35  36
ATOM     36  C   UNL     1      -1.549  -6.332  12.407  1.00  0.00     0.017 C 
ATOM     37  C   UNL     1      -0.157  -5.751  12.708  1.00  0.00     0.010 C 
ATOM     38  C   UNL     1      -1.620  -6.595  10.898  1.00  0.00     0.010 C 
ENDBRANCH  35  36
BRANCH  35  39
ATOM     39  C   UNL     1      -3.885  -6.190  13.486  1.00  0.00     0.329 C 
ATOM     40  O   UNL     1      -4.008  -6.502  14.665  1.00  0.00    -0.250 OA
BRANCH  39  41
ATOM     41  O   UNL     1      -4.840  -6.431  12.538  1.00  0.00    -0.458 OA
BRANCH  41  42
ATOM     42  C   UNL     1      -5.453  -7.742  12.565  1.00  0.00     0.205 CG0
ATOM     43  C   UNL     1      -4.448  -8.725  11.968  1.00  0.00     0.056 C 
ATOM     44  G   UNL     1      -6.769  -7.686  11.764  1.00  0.00     0.000 G0
ENDBRANCH  41  42
ENDBRANCH  39  41
ENDBRANCH  35  39
ENDBRANCH  33  35
ENDBRANCH  23  31
ENDBRANCH  21  23
ENDBRANCH  19  21
ENDBRANCH  14  19
ENDBRANCH   7  14
ENDBRANCH   2   5
BRANCH   3  45
ATOM     45  C   UNL     1      -5.362  -6.858   8.329  1.00  0.00     0.171 C 
BRANCH  45  46
ATOM     46  N   UNL     1      -5.657  -6.931   9.754  1.00  0.00    -0.342 N 
ATOM     47  C   UNL     1      -6.520  -7.858  10.282  1.00  0.00     0.247 C 
ATOM     48  O   UNL     1      -7.049  -8.740   9.604  1.00  0.00    -0.273 OA
ATOM     49  H   UNL     1      -5.195  -6.255  10.360  1.00  0.00     0.164 HD
BRANCH  47  50
ATOM     50  C   UNL     1      -6.803  -7.703  11.782  1.00  0.00     0.212 CG0
ATOM     51  G   UNL     1      -5.449  -7.738  12.519  1.00  0.00     0.000 G0
BRANCH  50  52
ATOM     52  N   UNL     1      -7.501  -6.428  11.917  1.00  0.00    -0.339 N 
ATOM     53  C   UNL     1      -8.796  -6.318  12.361  1.00  0.00     0.243 C 
ATOM     54  O   UNL     1      -9.489  -7.296  12.629  1.00  0.00    -0.273 OA
ATOM     55  H   UNL     1      -7.017  -5.588  11.605  1.00  0.00     0.164 HD
BRANCH  53  56
ATOM     56  C   UNL     1      -9.349  -4.879  12.337  1.00  0.00     0.182 C 
BRANCH  56  57
ATOM     57  N   UNL     1      -9.118  -4.206  13.620  1.00  0.00    -0.344 N 
ATOM     58  C   UNL     1      -8.311  -3.100  13.736  1.00  0.00     0.220 C 
ATOM     59  O   UNL     1      -7.671  -2.644  12.795  1.00  0.00    -0.275 OA
ATOM     60  H   UNL     1      -9.706  -4.487  14.400  1.00  0.00     0.164 HD
BRANCH  58  61
ATOM     61  C   UNL     1      -8.266  -2.535  15.144  1.00  0.00     0.100 C 
BRANCH  61  62
ATOM     62  C   UNL     1      -9.325  -3.120  16.078  1.00  0.00     0.010 C 
BRANCH  62  63
ATOM     63  C   UNL     1      -8.813  -4.256  16.973  1.00  0.00     0.000 C 
BRANCH  63  64
ATOM     64  C   UNL     1      -8.101  -3.784  18.239  1.00  0.00    -0.003 C 
ATOM     65  C   UNL     1      -7.414  -4.939  18.953  1.00  0.00     0.004 C 
ENDBRANCH  63  64
ENDBRANCH  62  63
ENDBRANCH  61  62
ENDBRANCH  58  61
ENDBRANCH  56  57
BRANCH  56  66
ATOM     66  C   UNL     1     -10.820  -4.850  11.927  1.00  0.00     0.157 C 
BRANCH  66  67
ATOM     67  C   UNL     1     -11.313  -3.440  11.770  1.00  0.00     0.305 C 
ATOM     68  O   UNL     1     -11.580  -2.654  12.666  1.00  0.00    -0.252 OA
BRANCH  67  69
ATOM     69  O   UNL     1     -11.398  -3.068  10.479  1.00  0.00    -0.481 OA
ATOM     70  H   UNL     1     -10.494  -3.198  10.121  1.00  0.00     0.296 HD
ENDBRANCH  67  69
ENDBRANCH  66  67
ENDBRANCH  56  66
ENDBRANCH  53  56
ENDBRANCH  50  52
ENDBRANCH  47  50
ENDBRANCH  45  46
BRANCH  45  71
ATOM     71  C   UNL     1      -3.860  -6.697   8.070  1.00  0.00     0.037 C 
BRANCH  71  72
ATOM     72  C   UNL     1      -3.423  -7.386   6.774  1.00  0.00     0.026 C 
BRANCH  72  73
ATOM     73  C   UNL     1      -4.033  -6.710   5.547  1.00  0.00     0.146 C 
BRANCH  73  74
ATOM     74  N   UNL     1      -5.023  -7.622   4.982  1.00  0.00    -0.254 NA
ATOM     75  C   UNL     1      -6.092  -7.114   4.490  1.00  0.00     0.185 C 
ATOM     76  N   UNL     1      -7.021  -7.927   3.961  1.00  0.00    -0.370 N 
ATOM     77  N   UNL     1      -6.456  -5.822   4.413  1.00  0.00    -0.370 N 
ATOM     78  H   UNL     1      -6.829  -8.918   3.985  1.00  0.00     0.159 HD
ATOM     79  H   UNL     1      -7.938  -7.618   3.692  1.00  0.00     0.159 HD
ATOM     80  H   UNL     1      -5.853  -5.097   4.768  1.00  0.00     0.159 HD
ATOM     81  H   UNL     1      -7.272  -5.533   3.898  1.00  0.00     0.159 HD
ENDBRANCH  73  74
ENDBRANCH  72  73
ENDBRANCH  71  72
ENDBRANCH  45  71
ENDBRANCH   3  45
TORSDOF 20
ENDMDL
MODEL 2
REMARK VINA RESULT:    -6.454      3.182      5.968
REMARK INTER + INTRA:         -25.533
REMARK INTER:                 -19.206
REMARK INTRA:                  -6.327
REMARK UNBOUND:                -7.006
REMARK SMILES CCCCCC(=O)N[C@H](CC(=O)O)C(=O)N[C@H]1C(=O)N[C@H](CCCN=C(N)N)C(=O)N[C@@H]2CC[C@H](O)N(C2=O)[C@@H](CC(C)C)C(=O)N(C)[C@@H](Cc2ccccc2)C(=O)N[C@H](C(C)C)C(=O)O[C@@H]1C
REMARK SMILES IDX 30 1 31 2 29 3 32 5 35 6 37 7 34 8 38 9 33 10 39 11 36 12
REMARK SMILES IDX 40 14 41 15 42 16 43 17 44 18 45 19 46 20 47 21 48 22 49 23
REMARK SMILES IDX 50 24 51 25 52 26 56 27 53 28 55 29 54 30 57 31 58 32 59 33
REMARK SMILES IDX 60 35 61 36 62 37 63 38 64 39 65 40 66 41 67 42 68 43 21 45
REMARK SMILES IDX 20 46 18 47 19 48 17 50 16 52 14 53 15 54 9 56 8 57 6 58
REMARK SMILES IDX 7 59 5 61 4 62 3 63 2 64 1 65 10 66 11 67 12 68 13 69 22 71
REMARK SMILES IDX 23 72 24 73 25 74 26 75 27 76 28 77
REMARK H PARENT 31 4 36 13 59 34 20 49 16 55 8 60 13 70 27 78 27 79 28 80
REMARK H PARENT 28 81
REMARK Flexibility Score:  259.900
ROOT
ATOM      1  O   UNL     1      -6.506  -1.181  10.894  1.00  0.00    -0.273 OA
ATOM      2  N   UNL     1      -7.502  -1.941   8.980  1.00  0.00    -0.343 N 
ATOM      3  C   UNL     1      -7.478  -1.691  10.335  1.00  0.00     0.243 C 
ATOM      4  H   UNL     1      -8.324  -2.348   8.552  1.00  0.00     0.164 HD
ENDROOT
BRANCH   2   5
ATOM      5  C   UNL     1      -6.314  -1.717   8.163  1.00  0.00     0.171 C 
ATOM      6  C   UNL     1      -5.707  -2.277   5.384  1.00  0.00     0.214 C 
ATOM      7  N   UNL     1      -5.397  -3.265   6.392  1.00  0.00    -0.303 N 
ATOM      8  C   UNL     1      -5.641  -0.849   5.901  1.00  0.00     0.057 C 
ATOM      9  C   UNL     1      -5.707  -3.083   7.730  1.00  0.00     0.247 C 
ATOM     10  C   UNL     1      -6.586  -0.683   7.072  1.00  0.00     0.040 C 
ATOM     11  O   UNL     1      -5.517  -3.969   8.573  1.00  0.00    -0.272 OA
BRANCH   6  12
ATOM     12  O   UNL     1      -6.993  -2.561   4.884  1.00  0.00    -0.373 OA
ATOM     13  H   UNL     1      -7.474  -3.047   5.588  1.00  0.00     0.213 HD
ENDBRANCH   6  12
BRANCH   7  14
ATOM     14  C   UNL     1      -4.862  -4.559   5.919  1.00  0.00     0.177 C 
BRANCH  14  15
ATOM     15  C   UNL     1      -5.754  -5.309   4.910  1.00  0.00     0.038 C 
BRANCH  15  16
ATOM     16  C   UNL     1      -6.753  -6.370   5.419  1.00  0.00    -0.015 C 
ATOM     17  C   UNL     1      -8.036  -5.745   5.977  1.00  0.00     0.007 C 
ATOM     18  C   UNL     1      -6.103  -7.204   6.530  1.00  0.00     0.007 C 
ENDBRANCH  15  16
ENDBRANCH  14  15
BRANCH  14  19
ATOM     19  C   UNL     1      -3.295  -4.523   5.893  1.00  0.00     0.245 C 
ATOM     20  O   UNL     1      -2.744  -4.926   4.855  1.00  0.00    -0.272 OA
BRANCH  19  21
ATOM     21  N   UNL     1      -2.514  -4.180   6.982  1.00  0.00    -0.332 N 
ATOM     22  C   UNL     1      -1.988  -2.855   7.259  1.00  0.00     0.147 C 
BRANCH  21  23
ATOM     23  C   UNL     1      -2.166  -5.253   7.954  1.00  0.00     0.178 C 
BRANCH  23  24
ATOM     24  C   UNL     1      -0.676  -5.653   7.969  1.00  0.00     0.070 C 
BRANCH  24  25
ATOM     25  C   UNL     1       0.162  -5.142   9.118  1.00  0.00    -0.045 A 
ATOM     26  C   UNL     1       0.675  -3.838   9.107  1.00  0.00     0.004 A 
ATOM     27  C   UNL     1       0.442  -5.972  10.214  1.00  0.00     0.004 A 
ATOM     28  C   UNL     1       1.463  -3.379  10.165  1.00  0.00     0.000 A 
ATOM     29  C   UNL     1       1.229  -5.511  11.270  1.00  0.00     0.000 A 
ATOM     30  C   UNL     1       1.741  -4.216  11.244  1.00  0.00     0.000 A 
ENDBRANCH  24  25
ENDBRANCH  23  24
BRANCH  23  31
ATOM     31  C   UNL     1      -2.795  -5.030   9.350  1.00  0.00     0.243 C 
ATOM     32  O   UNL     1      -2.505  -4.095  10.092  1.00  0.00    -0.273 OA
ATOM     33  N   UNL     1      -3.584  -6.085   9.777  1.00  0.00    -0.341 N 
ATOM     34  H   UNL     1      -3.784  -6.839   9.115  1.00  0.00     0.164 HD
BRANCH  33  35
ATOM     35  C   UNL     1      -4.183  -6.145  11.113  1.00  0.00     0.194 C 
BRANCH  35  36
ATOM     36  C   UNL     1      -3.431  -7.076  12.105  1.00  0.00     0.017 C 
ATOM     37  C   UNL     1      -2.445  -6.282  12.979  1.00  0.00     0.010 C 
ATOM     38  C   UNL     1      -2.635  -8.186  11.408  1.00  0.00     0.010 C 
ENDBRANCH  35  36
BRANCH  35  39
ATOM     39  C   UNL     1      -5.707  -6.452  11.071  1.00  0.00     0.329 C 
ATOM     40  O   UNL     1      -6.360  -6.544  10.038  1.00  0.00    -0.250 OA
BRANCH  39  41
ATOM     41  O   UNL     1      -6.222  -6.695  12.314  1.00  0.00    -0.458 OA
BRANCH  41  42
ATOM     42  C   UNL     1      -6.663  -5.537  13.062  1.00  0.00     0.205 CG0
ATOM     43  C   UNL     1      -6.221  -5.737  14.510  1.00  0.00     0.056 C 
ATOM     44  G   UNL     1      -8.194  -5.416  12.925  1.00  0.00     0.000 G0
ENDBRANCH  41  42
ENDBRANCH  39  41
ENDBRANCH  35  39
ENDBRANCH  33  35
ENDBRANCH  23  31
ENDBRANCH  21  23
ENDBRANCH  19  21
ENDBRANCH  14  19
ENDBRANCH   7  14
ENDBRANCH   2   5
BRANCH   3  45
ATOM     45  C   UNL     1      -8.755  -2.072  11.096  1.00  0.00     0.171 C 
BRANCH  45  46
ATOM     46  N   UNL     1      -8.597  -3.475  11.453  1.00  0.00    -0.342 N 
ATOM     47  C   UNL     1      -8.499  -3.897  12.755  1.00  0.00     0.247 C 
ATOM     48  O   UNL     1      -8.610  -3.134  13.715  1.00  0.00    -0.273 OA
ATOM     49  H   UNL     1      -8.557  -4.149  10.690  1.00  0.00     0.164 HD
BRANCH  47  50
ATOM     50  C   UNL     1      -8.211  -5.395  12.933  1.00  0.00     0.212 CG0
ATOM     51  G   UNL     1      -6.686  -5.563  13.080  1.00  0.00     0.000 G0
BRANCH  50  52
ATOM     52  N   UNL     1      -8.953  -5.795  14.126  1.00  0.00    -0.339 N 
ATOM     53  C   UNL     1     -10.143  -6.479  14.081  1.00  0.00     0.243 C 
ATOM     54  O   UNL     1     -10.704  -6.763  13.027  1.00  0.00    -0.273 OA
ATOM     55  H   UNL     1      -8.595  -5.491  15.029  1.00  0.00     0.164 HD
BRANCH  53  56
ATOM     56  C   UNL     1     -10.784  -6.715  15.464  1.00  0.00     0.182 C 
BRANCH  56  57
ATOM     57  N   UNL     1     -12.231  -6.922  15.346  1.00  0.00    -0.344 N 
ATOM     58  C   UNL     1     -12.898  -7.886  16.061  1.00  0.00     0.220 C 
ATOM     59  O   UNL     1     -12.323  -8.687  16.790  1.00  0.00    -0.275 OA
ATOM     60  H   UNL     1     -12.756  -6.218  14.834  1.00  0.00     0.164 HD
BRANCH  58  61
ATOM     61  C   UNL     1     -14.397  -7.881  15.825  1.00  0.00     0.100 C 
BRANCH  61  62
ATOM     62  C   UNL     1     -15.187  -7.134  16.901  1.00  0.00     0.010 C 
BRANCH  62  63
ATOM     63  C   UNL     1     -14.995  -7.688  18.318  1.00  0.00     0.000 C 
BRANCH  63  64
ATOM     64  C   UNL     1     -15.594  -9.076  18.536  1.00  0.00    -0.003 C 
ATOM     65  C   UNL     1     -14.835  -9.847  19.606  1.00  0.00     0.004 C 
ENDBRANCH  63  64
ENDBRANCH  62  63
ENDBRANCH  61  62
ENDBRANCH  58  61
ENDBRANCH  56  57
BRANCH  56  66
ATOM     66  C   UNL     1     -10.439  -5.591  16.440  1.00  0.00     0.157 C 
BRANCH  66  67
ATOM     67  C   UNL     1     -11.043  -4.288  16.002  1.00  0.00     0.305 C 
ATOM     68  O   UNL     1     -12.218  -4.072  15.751  1.00  0.00    -0.252 OA
BRANCH  67  69
ATOM     69  O   UNL     1     -10.134  -3.295  15.952  1.00  0.00    -0.481 OA
ATOM     70  H   UNL     1     -10.267  -2.878  15.075  1.00  0.00     0.296 HD
ENDBRANCH  67  69
ENDBRANCH  66  67
ENDBRANCH  56  66
ENDBRANCH  53  56
ENDBRANCH  50  52
ENDBRANCH  47  50
ENDBRANCH  45  46
BRANCH  45  71
ATOM     71  C   UNL     1      -9.989  -1.848  10.214  1.00  0.00     0.037 C 
BRANCH  71  72
ATOM     72  C   UNL     1     -10.781  -0.608  10.635  1.00  0.00     0.026 C 
BRANCH  72  73
ATOM     73  C   UNL     1     -10.417  -0.165  12.050  1.00  0.00     0.146 C 
BRANCH  73  74
ATOM     74  N   UNL     1     -11.514  -0.545  12.935  1.00  0.00    -0.254 NA
ATOM     75  C   UNL     1     -11.238  -0.783  14.164  1.00  0.00     0.185 C 
ATOM     76  N   UNL     1     -12.227  -1.133  15.002  1.00  0.00    -0.370 N 
ATOM     77  N   UNL     1     -10.048  -0.735  14.787  1.00  0.00    -0.370 N 
ATOM     78  H   UNL     1     -13.156  -1.200  14.611  1.00  0.00     0.159 HD
ATOM     79  H   UNL     1     -12.069  -1.473  15.934  1.00  0.00     0.159 HD
ATOM     80  H   UNL     1      -9.213  -0.481  14.281  1.00  0.00     0.159 HD
ATOM     81  H   UNL     1      -9.971  -0.830  15.786  1.00  0.00     0.159 HD
ENDBRANCH  73  74
ENDBRANCH  72  73
ENDBRANCH  71  72
ENDBRANCH  45  71
ENDBRANCH   3  45
TORSDOF 20
ENDMDL
MODEL 3
REMARK VINA RESULT:    -6.297      3.071      6.352
REMARK INTER + INTRA:         -25.082
REMARK INTER:                 -19.260
REMARK INTRA:                  -5.822
REMARK UNBOUND:                -7.006
REMARK SMILES CCCCCC(=O)N[C@H](CC(=O)O)C(=O)N[C@H]1C(=O)N[C@H](CCCN=C(N)N)C(=O)N[C@@H]2CC[C@H](O)N(C2=O)[C@@H](CC(C)C)C(=O)N(C)[C@@H](Cc2ccccc2)C(=O)N[C@H](C(C)C)C(=O)O[C@@H]1C
REMARK SMILES IDX 30 1 31 2 29 3 32 5 35 6 37 7 34 8 38 9 33 10 39 11 36 12
REMARK SMILES IDX 40 14 41 15 42 16 43 17 44 18 45 19 46 20 47 21 48 22 49 23
REMARK SMILES IDX 50 24 51 25 52 26 56 27 53 28 55 29 54 30 57 31 58 32 59 33
REMARK SMILES IDX 60 35 61 36 62 37 63 38 64 39 65 40 66 41 67 42 68 43 21 45
REMARK SMILES IDX 20 46 18 47 19 48 17 50 16 52 14 53 15 54 9 56 8 57 6 58
REMARK SMILES IDX 7 59 5 61 4 62 3 63 2 64 1 65 10 66 11 67 12 68 13 69 22 71
REMARK SMILES IDX 23 72 24 73 25 74 26 75 27 76 28 77
REMARK H PARENT 31 4 36 13 59 34 20 49 16 55 8 60 13 70 27 78 27 79 28 80
REMARK H PARENT 28 81
REMARK Flexibility Score:  259.900
ROOT
ATOM      1  O   UNL     1      -6.574   0.075  10.441  1.00  0.00    -0.273 OA
ATOM      2  N   UNL     1      -7.433  -1.533   9.060  1.00  0.00    -0.343 N 
ATOM      3  C   UNL     1      -7.409  -0.805  10.230  1.00  0.00     0.243 C 
ATOM      4  H   UNL     1      -8.143  -2.240   8.915  1.00  0.00     0.164 HD
ENDROOT
BRANCH   2   5
ATOM      5  C   UNL     1      -6.383  -1.367   8.060  1.00  0.00     0.171 C 
ATOM      6  C   UNL     1      -5.942  -2.565   5.457  1.00  0.00     0.214 C 
ATOM      7  N   UNL     1      -5.371  -3.185   6.631  1.00  0.00    -0.303 N 
ATOM      8  C   UNL     1      -6.083  -1.056   5.583  1.00  0.00     0.057 C 
ATOM      9  C   UNL     1      -5.585  -2.694   7.908  1.00  0.00     0.247 C 
ATOM     10  C   UNL     1      -6.932  -0.720   6.790  1.00  0.00     0.040 C 
ATOM     11  O   UNL     1      -5.166  -3.280   8.915  1.00  0.00    -0.272 OA
BRANCH   6  12
ATOM     12  O   UNL     1      -7.197  -3.160   5.223  1.00  0.00    -0.373 OA
ATOM     13  H   UNL     1      -7.077  -3.808   4.497  1.00  0.00     0.213 HD
ENDBRANCH   6  12
BRANCH   7  14
ATOM     14  C   UNL     1      -4.660  -4.466   6.433  1.00  0.00     0.177 C 
BRANCH  14  15
ATOM     15  C   UNL     1      -5.480  -5.572   5.741  1.00  0.00     0.038 C 
BRANCH  15  16
ATOM     16  C   UNL     1      -6.199  -6.636   6.600  1.00  0.00    -0.015 C 
ATOM     17  C   UNL     1      -5.256  -7.321   7.592  1.00  0.00     0.007 C 
ATOM     18  C   UNL     1      -6.805  -7.713   5.690  1.00  0.00     0.007 C 
ENDBRANCH  15  16
ENDBRANCH  14  15
BRANCH  14  19
ATOM     19  C   UNL     1      -3.127  -4.210   6.227  1.00  0.00     0.245 C 
ATOM     20  O   UNL     1      -2.680  -4.384   5.081  1.00  0.00    -0.272 OA
BRANCH  19  21
ATOM     21  N   UNL     1      -2.249  -3.919   7.256  1.00  0.00    -0.332 N 
ATOM     22  C   UNL     1      -1.700  -2.607   7.549  1.00  0.00     0.147 C 
BRANCH  21  23
ATOM     23  C   UNL     1      -1.814  -5.037   8.138  1.00  0.00     0.178 C 
BRANCH  23  24
ATOM     24  C   UNL     1      -0.322  -5.407   8.023  1.00  0.00     0.070 C 
BRANCH  24  25
ATOM     25  C   UNL     1       0.577  -5.006   9.170  1.00  0.00    -0.045 A 
ATOM     26  C   UNL     1       1.283  -3.797   9.140  1.00  0.00     0.004 A 
ATOM     27  C   UNL     1       0.721  -5.848  10.283  1.00  0.00     0.004 A 
ATOM     28  C   UNL     1       2.125  -3.442  10.196  1.00  0.00     0.000 A 
ATOM     29  C   UNL     1       1.562  -5.491  11.339  1.00  0.00     0.000 A 
ATOM     30  C   UNL     1       2.266  -4.289  11.292  1.00  0.00     0.000 A 
ENDBRANCH  24  25
ENDBRANCH  23  24
BRANCH  23  31
ATOM     31  C   UNL     1      -2.343  -4.904   9.586  1.00  0.00     0.243 C 
ATOM     32  O   UNL     1      -1.984  -4.029  10.371  1.00  0.00    -0.273 OA
ATOM     33  N   UNL     1      -3.124  -5.973   9.990  1.00  0.00    -0.341 N 
ATOM     34  H   UNL     1      -3.386  -6.674   9.293  1.00  0.00     0.164 HD
BRANCH  33  35
ATOM     35  C   UNL     1      -3.634  -6.118  11.357  1.00  0.00     0.194 C 
BRANCH  35  36
ATOM     36  C   UNL     1      -3.303  -7.487  12.016  1.00  0.00     0.017 C 
ATOM     37  C   UNL     1      -1.886  -7.958  11.644  1.00  0.00     0.010 C 
ATOM     38  C   UNL     1      -4.277  -8.602  11.615  1.00  0.00     0.010 C 
ENDBRANCH  35  36
BRANCH  35  39
ATOM     39  C   UNL     1      -5.145  -5.770  11.472  1.00  0.00     0.329 C 
ATOM     40  O   UNL     1      -5.952  -5.909  10.561  1.00  0.00    -0.250 OA
BRANCH  39  41
ATOM     41  O   UNL     1      -5.492  -5.370  12.733  1.00  0.00    -0.458 OA
BRANCH  41  42
ATOM     42  C   UNL     1      -5.563  -3.942  12.956  1.00  0.00     0.205 CG0
ATOM     43  C   UNL     1      -4.328  -3.546  13.763  1.00  0.00     0.056 C 
ATOM     44  G   UNL     1      -6.878  -3.625  13.696  1.00  0.00     0.000 G0
ENDBRANCH  41  42
ENDBRANCH  39  41
ENDBRANCH  35  39
ENDBRANCH  33  35
ENDBRANCH  23  31
ENDBRANCH  21  23
ENDBRANCH  19  21
ENDBRANCH  14  19
ENDBRANCH   7  14
ENDBRANCH   2   5
BRANCH   3  45
ATOM     45  C   UNL     1      -8.507  -1.154  11.243  1.00  0.00     0.171 C 
BRANCH  45  46
ATOM     46  N   UNL     1      -8.037  -2.342  11.941  1.00  0.00    -0.342 N 
ATOM     47  C   UNL     1      -7.429  -2.282  13.170  1.00  0.00     0.247 C 
ATOM     48  O   UNL     1      -7.303  -1.233  13.803  1.00  0.00    -0.273 OA
ATOM     49  H   UNL     1      -8.172  -3.239  11.478  1.00  0.00     0.164 HD
BRANCH  47  50
ATOM     50  C   UNL     1      -6.888  -3.620  13.694  1.00  0.00     0.212 CG0
ATOM     51  G   UNL     1      -5.579  -3.923  12.937  1.00  0.00     0.000 G0
BRANCH  50  52
ATOM     52  N   UNL     1      -6.694  -3.427  15.128  1.00  0.00    -0.339 N 
ATOM     53  C   UNL     1      -7.694  -3.593  16.055  1.00  0.00     0.243 C 
ATOM     54  O   UNL     1      -8.849  -3.866  15.741  1.00  0.00    -0.273 OA
ATOM     55  H   UNL     1      -5.785  -3.092  15.441  1.00  0.00     0.164 HD
BRANCH  53  56
ATOM     56  C   UNL     1      -7.275  -3.250  17.499  1.00  0.00     0.182 C 
BRANCH  56  57
ATOM     57  N   UNL     1      -6.311  -2.145  17.518  1.00  0.00    -0.344 N 
ATOM     58  C   UNL     1      -6.694  -0.831  17.403  1.00  0.00     0.220 C 
ATOM     59  O   UNL     1      -7.856  -0.494  17.202  1.00  0.00    -0.275 OA
ATOM     60  H   UNL     1      -5.356  -2.371  17.783  1.00  0.00     0.164 HD
BRANCH  58  61
ATOM     61  C   UNL     1      -5.537   0.145  17.508  1.00  0.00     0.100 C 
BRANCH  61  62
ATOM     62  C   UNL     1      -5.972   1.606  17.623  1.00  0.00     0.010 C 
BRANCH  62  63
ATOM     63  C   UNL     1      -6.391   2.027  19.037  1.00  0.00     0.000 C 
BRANCH  63  64
ATOM     64  C   UNL     1      -7.368   3.202  19.078  1.00  0.00    -0.003 C 
ATOM     65  C   UNL     1      -6.909   4.271  20.059  1.00  0.00     0.004 C 
ENDBRANCH  63  64
ENDBRANCH  62  63
ENDBRANCH  61  62
ENDBRANCH  58  61
ENDBRANCH  56  57
BRANCH  56  66
ATOM     66  C   UNL     1      -6.755  -4.481  18.239  1.00  0.00     0.157 C 
BRANCH  66  67
ATOM     67  C   UNL     1      -5.994  -4.092  19.474  1.00  0.00     0.305 C 
ATOM     68  O   UNL     1      -4.817  -4.320  19.711  1.00  0.00    -0.252 OA
BRANCH  67  69
ATOM     69  O   UNL     1      -6.745  -3.383  20.337  1.00  0.00    -0.481 OA
ATOM     70  H   UNL     1      -6.473  -3.699  21.224  1.00  0.00     0.296 HD
ENDBRANCH  67  69
ENDBRANCH  66  67
ENDBRANCH  56  66
ENDBRANCH  53  56
ENDBRANCH  50  52
ENDBRANCH  47  50
ENDBRANCH  45  46
BRANCH  45  71
ATOM     71  C   UNL     1      -9.836  -1.410  10.523  1.00  0.00     0.037 C 
BRANCH  71  72
ATOM     72  C   UNL     1     -10.982  -0.588  11.119  1.00  0.00     0.026 C 
BRANCH  72  73
ATOM     73  C   UNL     1     -10.733  -0.265  12.591  1.00  0.00     0.146 C 
BRANCH  73  74
ATOM     74  N   UNL     1     -11.456  -1.248  13.392  1.00  0.00    -0.254 NA
ATOM     75  C   UNL     1     -11.037  -1.476  14.581  1.00  0.00     0.185 C 
ATOM     76  N   UNL     1     -11.683  -2.374  15.343  1.00  0.00    -0.370 N 
ATOM     77  N   UNL     1      -9.993  -0.930  15.229  1.00  0.00    -0.370 N 
ATOM     78  H   UNL     1     -12.478  -2.838  14.929  1.00  0.00     0.159 HD
ATOM     79  H   UNL     1     -11.330  -2.709  16.223  1.00  0.00     0.159 HD
ATOM     80  H   UNL     1      -9.417  -0.234  14.779  1.00  0.00     0.159 HD
ATOM     81  H   UNL     1      -9.828  -1.104  16.207  1.00  0.00     0.159 HD
ENDBRANCH  73  74
ENDBRANCH  72  73
ENDBRANCH  71  72
ENDBRANCH  45  71
ENDBRANCH   3  45
TORSDOF 20
ENDMDL
MODEL 4
REMARK VINA RESULT:    -6.185      2.845      6.070
REMARK INTER + INTRA:         -24.761
REMARK INTER:                 -19.030
REMARK INTRA:                  -5.731
REMARK UNBOUND:                -7.006
REMARK SMILES CCCCCC(=O)N[C@H](CC(=O)O)C(=O)N[C@H]1C(=O)N[C@H](CCCN=C(N)N)C(=O)N[C@@H]2CC[C@H](O)N(C2=O)[C@@H](CC(C)C)C(=O)N(C)[C@@H](Cc2ccccc2)C(=O)N[C@H](C(C)C)C(=O)O[C@@H]1C
REMARK SMILES IDX 30 1 31 2 29 3 32 5 35 6 37 7 34 8 38 9 33 10 39 11 36 12
REMARK SMILES IDX 40 14 41 15 42 16 43 17 44 18 45 19 46 20 47 21 48 22 49 23
REMARK SMILES IDX 50 24 51 25 52 26 56 27 53 28 55 29 54 30 57 31 58 32 59 33
REMARK SMILES IDX 60 35 61 36 62 37 63 38 64 39 65 40 66 41 67 42 68 43 21 45
REMARK SMILES IDX 20 46 18 47 19 48 17 50 16 52 14 53 15 54 9 56 8 57 6 58
REMARK SMILES IDX 7 59 5 61 4 62 3 63 2 64 1 65 10 66 11 67 12 68 13 69 22 71
REMARK SMILES IDX 23 72 24 73 25 74 26 75 27 76 28 77
REMARK H PARENT 31 4 36 13 59 34 20 49 16 55 8 60 13 70 27 78 27 79 28 80
REMARK H PARENT 28 81
REMARK Flexibility Score:  259.900
ROOT
ATOM      1  O   UNL     1      -6.201  -0.327  10.473  1.00  0.00    -0.273 OA
ATOM      2  N   UNL     1      -7.128  -1.652   8.855  1.00  0.00    -0.343 N 
ATOM      3  C   UNL     1      -7.113  -1.069  10.104  1.00  0.00     0.243 C 
ATOM      4  H   UNL     1      -7.901  -2.245   8.580  1.00  0.00     0.164 HD
ENDROOT
BRANCH   2   5
ATOM      5  C   UNL     1      -5.991  -1.505   7.953  1.00  0.00     0.171 C 
ATOM      6  C   UNL     1      -5.486  -2.452   5.260  1.00  0.00     0.214 C 
ATOM      7  N   UNL     1      -5.082  -3.262   6.385  1.00  0.00    -0.303 N 
ATOM      8  C   UNL     1      -5.466  -0.960   5.555  1.00  0.00     0.057 C 
ATOM      9  C   UNL     1      -5.339  -2.893   7.696  1.00  0.00     0.247 C 
ATOM     10  C   UNL     1      -6.363  -0.659   6.736  1.00  0.00     0.040 C 
ATOM     11  O   UNL     1      -5.068  -3.633   8.650  1.00  0.00    -0.272 OA
BRANCH   6  12
ATOM     12  O   UNL     1      -6.778  -2.860   4.876  1.00  0.00    -0.373 OA
ATOM     13  H   UNL     1      -7.127  -2.175   4.267  1.00  0.00     0.213 HD
ENDBRANCH   6  12
BRANCH   7  14
ATOM     14  C   UNL     1      -4.507  -4.590   6.083  1.00  0.00     0.177 C 
BRANCH  14  15
ATOM     15  C   UNL     1      -5.415  -5.528   5.264  1.00  0.00     0.038 C 
BRANCH  15  16
ATOM     16  C   UNL     1      -6.229  -6.623   5.988  1.00  0.00    -0.015 C 
ATOM     17  C   UNL     1      -6.629  -7.768   5.053  1.00  0.00     0.007 C 
ATOM     18  C   UNL     1      -7.508  -6.015   6.578  1.00  0.00     0.007 C 
ENDBRANCH  15  16
ENDBRANCH  14  15
BRANCH  14  19
ATOM     19  C   UNL     1      -2.949  -4.489   5.945  1.00  0.00     0.245 C 
ATOM     20  O   UNL     1      -2.450  -4.933   4.898  1.00  0.00    -0.272 OA
BRANCH  19  21
ATOM     21  N   UNL     1      -2.113  -4.044   6.954  1.00  0.00    -0.332 N 
ATOM     22  C   UNL     1      -1.638  -2.681   7.116  1.00  0.00     0.147 C 
BRANCH  21  23
ATOM     23  C   UNL     1      -1.644  -5.039   7.959  1.00  0.00     0.178 C 
BRANCH  23  24
ATOM     24  C   UNL     1      -0.138  -5.363   7.892  1.00  0.00     0.070 C 
BRANCH  24  25
ATOM     25  C   UNL     1       0.715  -4.913   9.056  1.00  0.00    -0.045 A 
ATOM     26  C   UNL     1       0.836  -5.706  10.205  1.00  0.00     0.004 A 
ATOM     27  C   UNL     1       1.395  -3.688   9.003  1.00  0.00     0.004 A 
ATOM     28  C   UNL     1       1.612  -5.275  11.283  1.00  0.00     0.000 A 
ATOM     29  C   UNL     1       2.172  -3.259  10.081  1.00  0.00     0.000 A 
ATOM     30  C   UNL     1       2.277  -4.053  11.221  1.00  0.00     0.000 A 
ENDBRANCH  24  25
ENDBRANCH  23  24
BRANCH  23  31
ATOM     31  C   UNL     1      -2.190  -4.763   9.380  1.00  0.00     0.243 C 
ATOM     32  O   UNL     1      -1.911  -3.767  10.042  1.00  0.00    -0.273 OA
ATOM     33  N   UNL     1      -2.879  -5.834   9.925  1.00  0.00    -0.341 N 
ATOM     34  H   UNL     1      -3.076  -6.639   9.327  1.00  0.00     0.164 HD
BRANCH  33  35
ATOM     35  C   UNL     1      -3.381  -5.843  11.302  1.00  0.00     0.194 C 
BRANCH  35  36
ATOM     36  C   UNL     1      -2.650  -6.846  12.238  1.00  0.00     0.017 C 
ATOM     37  C   UNL     1      -1.599  -6.135  13.108  1.00  0.00     0.010 C 
ATOM     38  C   UNL     1      -1.933  -7.969  11.478  1.00  0.00     0.010 C 
ENDBRANCH  35  36
BRANCH  35  39
ATOM     39  C   UNL     1      -4.926  -6.002  11.374  1.00  0.00     0.329 C 
ATOM     40  O   UNL     1      -5.619  -6.393  10.442  1.00  0.00    -0.250 OA
BRANCH  39  41
ATOM     41  O   UNL     1      -5.418  -5.739  12.622  1.00  0.00    -0.458 OA
BRANCH  41  42
ATOM     42  C   UNL     1      -5.542  -4.342  12.981  1.00  0.00     0.205 CG0
ATOM     43  C   UNL     1      -4.527  -4.066  14.089  1.00  0.00     0.056 C 
ATOM     44  G   UNL     1      -6.992  -4.076  13.431  1.00  0.00     0.000 G0
ENDBRANCH  41  42
ENDBRANCH  39  41
ENDBRANCH  35  39
ENDBRANCH  33  35
ENDBRANCH  23  31
ENDBRANCH  21  23
ENDBRANCH  19  21
ENDBRANCH  14  19
ENDBRANCH   7  14
ENDBRANCH   2   5
BRANCH   3  45
ATOM     45  C   UNL     1      -8.320  -1.391  10.995  1.00  0.00     0.171 C 
BRANCH  45  46
ATOM     46  N   UNL     1      -7.984  -2.634  11.678  1.00  0.00    -0.342 N 
ATOM     47  C   UNL     1      -7.392  -2.657  12.915  1.00  0.00     0.247 C 
ATOM     48  O   UNL     1      -7.169  -1.637  13.568  1.00  0.00    -0.273 OA
ATOM     49  H   UNL     1      -8.204  -3.504  11.196  1.00  0.00     0.164 HD
BRANCH  47  50
ATOM     50  C   UNL     1      -7.000  -4.052  13.422  1.00  0.00     0.212 CG0
ATOM     51  G   UNL     1      -5.547  -4.318  12.979  1.00  0.00     0.000 G0
BRANCH  50  52
ATOM     52  N   UNL     1      -7.159  -3.998  14.873  1.00  0.00    -0.339 N 
ATOM     53  C   UNL     1      -8.094  -4.735  15.558  1.00  0.00     0.243 C 
ATOM     54  O   UNL     1      -8.909  -5.461  14.993  1.00  0.00    -0.273 OA
ATOM     55  H   UNL     1      -6.587  -3.331  15.387  1.00  0.00     0.164 HD
BRANCH  53  56
ATOM     56  C   UNL     1      -8.133  -4.448  17.072  1.00  0.00     0.182 C 
BRANCH  56  57
ATOM     57  N   UNL     1      -8.963  -5.433  17.774  1.00  0.00    -0.344 N 
ATOM     58  C   UNL     1      -8.570  -6.021  18.951  1.00  0.00     0.220 C 
ATOM     59  O   UNL     1      -7.471  -5.821  19.459  1.00  0.00    -0.275 OA
ATOM     60  H   UNL     1      -9.917  -5.550  17.444  1.00  0.00     0.164 HD
BRANCH  58  61
ATOM     61  C   UNL     1      -9.609  -6.963  19.529  1.00  0.00     0.100 C 
BRANCH  61  62
ATOM     62  C   UNL     1      -9.765  -8.266  18.744  1.00  0.00     0.010 C 
BRANCH  62  63
ATOM     63  C   UNL     1     -10.841  -9.208  19.299  1.00  0.00     0.000 C 
BRANCH  63  64
ATOM     64  C   UNL     1     -10.591  -9.668  20.734  1.00  0.00    -0.003 C 
ATOM     65  C   UNL     1     -10.646 -11.184  20.849  1.00  0.00     0.004 C 
ENDBRANCH  63  64
ENDBRANCH  62  63
ENDBRANCH  61  62
ENDBRANCH  58  61
ENDBRANCH  56  57
BRANCH  56  66
ATOM     66  C   UNL     1      -8.574  -3.014  17.359  1.00  0.00     0.157 C 
BRANCH  66  67
ATOM     67  C   UNL     1      -7.391  -2.107  17.542  1.00  0.00     0.305 C 
ATOM     68  O   UNL     1      -6.660  -2.044  18.518  1.00  0.00    -0.252 OA
BRANCH  67  69
ATOM     69  O   UNL     1      -7.152  -1.352  16.453  1.00  0.00    -0.481 OA
ATOM     70  H   UNL     1      -7.129  -0.431  16.787  1.00  0.00     0.296 HD
ENDBRANCH  67  69
ENDBRANCH  66  67
ENDBRANCH  56  66
ENDBRANCH  53  56
ENDBRANCH  50  52
ENDBRANCH  47  50
ENDBRANCH  45  46
BRANCH  45  71
ATOM     71  C   UNL     1      -9.587  -1.537  10.144  1.00  0.00     0.037 C 
BRANCH  71  72
ATOM     72  C   UNL     1     -10.800  -0.872  10.799  1.00  0.00     0.026 C 
BRANCH  72  73
ATOM     73  C   UNL     1     -10.428  -0.210  12.125  1.00  0.00     0.146 C 
BRANCH  73  74
ATOM     74  N   UNL     1     -11.483  -0.512  13.087  1.00  0.00    -0.254 NA
ATOM     75  C   UNL     1     -11.136  -0.796  14.287  1.00  0.00     0.185 C 
ATOM     76  N   UNL     1     -12.085  -1.077  15.196  1.00  0.00    -0.370 N 
ATOM     77  N   UNL     1      -9.902  -0.862  14.817  1.00  0.00    -0.370 N 
ATOM     78  H   UNL     1     -13.043  -1.058  14.877  1.00  0.00     0.159 HD
ATOM     79  H   UNL     1     -11.885  -1.447  16.108  1.00  0.00     0.159 HD
ATOM     80  H   UNL     1      -9.089  -0.670  14.251  1.00  0.00     0.159 HD
ATOM     81  H   UNL     1      -9.758  -0.983  15.806  1.00  0.00     0.159 HD
ENDBRANCH  73  74
ENDBRANCH  72  73
ENDBRANCH  71  72
ENDBRANCH  45  71
ENDBRANCH   3  45
TORSDOF 20
ENDMDL
MODEL 5
REMARK VINA RESULT:    -6.153      2.571      5.791
REMARK INTER + INTRA:         -24.669
REMARK INTER:                 -18.472
REMARK INTRA:                  -6.197
REMARK UNBOUND:                -7.006
REMARK SMILES CCCCCC(=O)N[C@H](CC(=O)O)C(=O)N[C@H]1C(=O)N[C@H](CCCN=C(N)N)C(=O)N[C@@H]2CC[C@H](O)N(C2=O)[C@@H](CC(C)C)C(=O)N(C)[C@@H](Cc2ccccc2)C(=O)N[C@H](C(C)C)C(=O)O[C@@H]1C
REMARK SMILES IDX 30 1 31 2 29 3 32 5 35 6 37 7 34 8 38 9 33 10 39 11 36 12
REMARK SMILES IDX 40 14 41 15 42 16 43 17 44 18 45 19 46 20 47 21 48 22 49 23
REMARK SMILES IDX 50 24 51 25 52 26 56 27 53 28 55 29 54 30 57 31 58 32 59 33
REMARK SMILES IDX 60 35 61 36 62 37 63 38 64 39 65 40 66 41 67 42 68 43 21 45
REMARK SMILES IDX 20 46 18 47 19 48 17 50 16 52 14 53 15 54 9 56 8 57 6 58
REMARK SMILES IDX 7 59 5 61 4 62 3 63 2 64 1 65 10 66 11 67 12 68 13 69 22 71
REMARK SMILES IDX 23 72 24 73 25 74 26 75 27 76 28 77
REMARK H PARENT 31 4 36 13 59 34 20 49 16 55 8 60 13 70 27 78 27 79 28 80
REMARK H PARENT 28 81
REMARK Flexibility Score:  259.900
ROOT
ATOM      1  O   UNL     1      -9.651  -2.584   8.794  1.00  0.00    -0.273 OA
ATOM      2  N   UNL     1      -8.005  -4.172   8.780  1.00  0.00    -0.343 N 
ATOM      3  C   UNL     1      -8.826  -3.261   9.409  1.00  0.00     0.243 C 
ATOM      4  H   UNL     1      -7.348  -4.722   9.321  1.00  0.00     0.164 HD
ENDROOT
BRANCH   2   5
ATOM      5  C   UNL     1      -7.998  -4.286   7.326  1.00  0.00     0.171 C 
ATOM      6  C   UNL     1      -6.112  -5.446   5.455  1.00  0.00     0.214 C 
ATOM      7  N   UNL     1      -5.993  -4.051   5.811  1.00  0.00    -0.303 N 
ATOM      8  C   UNL     1      -7.541  -5.961   5.506  1.00  0.00     0.057 C 
ATOM      9  C   UNL     1      -6.829  -3.447   6.736  1.00  0.00     0.247 C 
ATOM     10  C   UNL     1      -8.114  -5.746   6.890  1.00  0.00     0.040 C 
ATOM     11  O   UNL     1      -6.667  -2.275   7.100  1.00  0.00    -0.272 OA
BRANCH   6  12
ATOM     12  O   UNL     1      -5.291  -6.185   6.330  1.00  0.00    -0.373 OA
ATOM     13  H   UNL     1      -4.481  -6.425   5.831  1.00  0.00     0.213 HD
ENDBRANCH   6  12
BRANCH   7  14
ATOM     14  C   UNL     1      -4.839  -3.313   5.255  1.00  0.00     0.177 C 
BRANCH  14  15
ATOM     15  C   UNL     1      -5.186  -2.271   4.174  1.00  0.00     0.038 C 
BRANCH  15  16
ATOM     16  C   UNL     1      -6.068  -2.684   2.975  1.00  0.00    -0.015 C 
ATOM     17  C   UNL     1      -5.567  -3.960   2.292  1.00  0.00     0.007 C 
ATOM     18  C   UNL     1      -6.087  -1.558   1.933  1.00  0.00     0.007 C 
ENDBRANCH  15  16
ENDBRANCH  14  15
BRANCH  14  19
ATOM     19  C   UNL     1      -3.721  -3.154   6.342  1.00  0.00     0.245 C 
ATOM     20  O   UNL     1      -3.561  -2.018   6.818  1.00  0.00    -0.272 OA
BRANCH  19  21
ATOM     21  N   UNL     1      -2.849  -4.165   6.705  1.00  0.00    -0.332 N 
ATOM     22  C   UNL     1      -2.232  -5.113   5.794  1.00  0.00     0.147 C 
BRANCH  21  23
ATOM     23  C   UNL     1      -2.515  -4.312   8.149  1.00  0.00     0.178 C 
BRANCH  23  24
ATOM     24  C   UNL     1      -1.589  -3.214   8.712  1.00  0.00     0.070 C 
BRANCH  24  25
ATOM     25  C   UNL     1      -0.422  -3.666   9.558  1.00  0.00    -0.045 A 
ATOM     26  C   UNL     1      -0.250  -3.181  10.861  1.00  0.00     0.004 A 
ATOM     27  C   UNL     1       0.513  -4.578   9.045  1.00  0.00     0.004 A 
ATOM     28  C   UNL     1       0.842  -3.590  11.630  1.00  0.00     0.000 A 
ATOM     29  C   UNL     1       1.602  -4.987   9.816  1.00  0.00     0.000 A 
ATOM     30  C   UNL     1       1.767  -4.490  11.107  1.00  0.00     0.000 A 
ENDBRANCH  24  25
ENDBRANCH  23  24
BRANCH  23  31
ATOM     31  C   UNL     1      -3.750  -4.635   9.024  1.00  0.00     0.243 C 
ATOM     32  O   UNL     1      -4.627  -3.821   9.301  1.00  0.00    -0.273 OA
ATOM     33  N   UNL     1      -3.689  -5.879   9.627  1.00  0.00    -0.341 N 
ATOM     34  H   UNL     1      -2.931  -6.512   9.360  1.00  0.00     0.164 HD
BRANCH  33  35
ATOM     35  C   UNL     1      -4.689  -6.349  10.591  1.00  0.00     0.194 C 
BRANCH  35  36
ATOM     36  C   UNL     1      -4.113  -7.266  11.707  1.00  0.00     0.017 C 
ATOM     37  C   UNL     1      -4.019  -6.521  13.050  1.00  0.00     0.010 C 
ATOM     38  C   UNL     1      -2.715  -7.806  11.383  1.00  0.00     0.010 C 
ENDBRANCH  35  36
BRANCH  35  39
ATOM     39  C   UNL     1      -5.931  -6.983   9.903  1.00  0.00     0.329 C 
ATOM     40  O   UNL     1      -5.870  -7.756   8.955  1.00  0.00    -0.250 OA
BRANCH  39  41
ATOM     41  O   UNL     1      -7.099  -6.648  10.530  1.00  0.00    -0.458 OA
BRANCH  41  42
ATOM     42  C   UNL     1      -7.460  -7.447  11.682  1.00  0.00     0.205 CG0
ATOM     43  C   UNL     1      -8.234  -8.660  11.169  1.00  0.00     0.056 C 
ATOM     44  G   UNL     1      -8.296  -6.577  12.641  1.00  0.00     0.000 G0
ENDBRANCH  41  42
ENDBRANCH  39  41
ENDBRANCH  35  39
ENDBRANCH  33  35
ENDBRANCH  23  31
ENDBRANCH  21  23
ENDBRANCH  19  21
ENDBRANCH  14  19
ENDBRANCH   7  14
ENDBRANCH   2   5
BRANCH   3  45
ATOM     45  C   UNL     1      -8.657  -3.164  10.931  1.00  0.00     0.171 C 
BRANCH  45  46
ATOM     46  N   UNL     1      -8.854  -4.516  11.436  1.00  0.00    -0.342 N 
ATOM     47  C   UNL     1      -7.999  -5.096  12.340  1.00  0.00     0.247 C 
ATOM     48  O   UNL     1      -7.050  -4.494  12.843  1.00  0.00    -0.273 OA
ATOM     49  H   UNL     1      -9.661  -5.030  11.088  1.00  0.00     0.164 HD
BRANCH  47  50
ATOM     50  C   UNL     1      -8.294  -6.567  12.662  1.00  0.00     0.212 CG0
ATOM     51  G   UNL     1      -7.450  -7.434  11.706  1.00  0.00     0.000 G0
BRANCH  50  52
ATOM     52  N   UNL     1      -7.934  -6.739  14.067  1.00  0.00    -0.339 N 
ATOM     53  C   UNL     1      -8.838  -6.637  15.096  1.00  0.00     0.243 C 
ATOM     54  O   UNL     1     -10.016  -6.340  14.916  1.00  0.00    -0.273 OA
ATOM     55  H   UNL     1      -6.951  -6.877  14.289  1.00  0.00     0.164 HD
BRANCH  53  56
ATOM     56  C   UNL     1      -8.209  -6.771  16.498  1.00  0.00     0.182 C 
BRANCH  56  57
ATOM     57  N   UNL     1      -7.396  -5.595  16.824  1.00  0.00    -0.344 N 
ATOM     58  C   UNL     1      -7.932  -4.462  17.387  1.00  0.00     0.220 C 
ATOM     59  O   UNL     1      -9.135  -4.327  17.588  1.00  0.00    -0.275 OA
ATOM     60  H   UNL     1      -6.387  -5.703  16.769  1.00  0.00     0.164 HD
BRANCH  58  61
ATOM     61  C   UNL     1      -6.898  -3.395  17.694  1.00  0.00     0.100 C 
BRANCH  61  62
ATOM     62  C   UNL     1      -7.430  -1.967  17.568  1.00  0.00     0.010 C 
BRANCH  62  63
ATOM     63  C   UNL     1      -6.670  -0.938  18.415  1.00  0.00     0.000 C 
BRANCH  63  64
ATOM     64  C   UNL     1      -6.605   0.457  17.796  1.00  0.00    -0.003 C 
ATOM     65  C   UNL     1      -7.937   1.182  17.919  1.00  0.00     0.004 C 
ENDBRANCH  63  64
ENDBRANCH  62  63
ENDBRANCH  61  62
ENDBRANCH  58  61
ENDBRANCH  56  57
BRANCH  56  66
ATOM     66  C   UNL     1      -7.422  -8.072  16.638  1.00  0.00     0.157 C 
BRANCH  66  67
ATOM     67  C   UNL     1      -5.979  -7.804  16.952  1.00  0.00     0.305 C 
ATOM     68  O   UNL     1      -5.467  -7.757  18.060  1.00  0.00    -0.252 OA
BRANCH  67  69
ATOM     69  O   UNL     1      -5.232  -7.658  15.841  1.00  0.00    -0.481 OA
ATOM     70  H   UNL     1      -5.881  -7.597  15.109  1.00  0.00     0.296 HD
ENDBRANCH  67  69
ENDBRANCH  66  67
ENDBRANCH  56  66
ENDBRANCH  53  56
ENDBRANCH  50  52
ENDBRANCH  47  50
ENDBRANCH  45  46
BRANCH  45  71
ATOM     71  C   UNL     1      -9.679  -2.185  11.520  1.00  0.00     0.037 C 
BRANCH  71  72
ATOM     72  C   UNL     1      -9.018  -1.129  12.409  1.00  0.00     0.026 C 
BRANCH  72  73
ATOM     73  C   UNL     1      -9.772  -0.953  13.726  1.00  0.00     0.146 C 
BRANCH  73  74
ATOM     74  N   UNL     1     -11.009  -1.723  13.638  1.00  0.00    -0.254 NA
ATOM     75  C   UNL     1     -11.358  -2.414  14.660  1.00  0.00     0.185 C 
ATOM     76  N   UNL     1     -12.491  -3.132  14.610  1.00  0.00    -0.370 N 
ATOM     77  N   UNL     1     -10.735  -2.545  15.844  1.00  0.00    -0.370 N 
ATOM     78  H   UNL     1     -13.019  -3.096  13.749  1.00  0.00     0.159 HD
ATOM     79  H   UNL     1     -12.751  -3.805  15.309  1.00  0.00     0.159 HD
ATOM     80  H   UNL     1      -9.871  -2.058  16.026  1.00  0.00     0.159 HD
ATOM     81  H   UNL     1     -11.165  -3.027  16.616  1.00  0.00     0.159 HD
ENDBRANCH  73  74
ENDBRANCH  72  73
ENDBRANCH  71  72
ENDBRANCH  45  71
ENDBRANCH   3  45
TORSDOF 20
ENDMDL
MODEL 6
REMARK VINA RESULT:    -6.119      2.872      6.909
REMARK INTER + INTRA:         -24.570
REMARK INTER:                 -17.556
REMARK INTRA:                  -7.015
REMARK UNBOUND:                -7.006
REMARK SMILES CCCCCC(=O)N[C@H](CC(=O)O)C(=O)N[C@H]1C(=O)N[C@H](CCCN=C(N)N)C(=O)N[C@@H]2CC[C@H](O)N(C2=O)[C@@H](CC(C)C)C(=O)N(C)[C@@H](Cc2ccccc2)C(=O)N[C@H](C(C)C)C(=O)O[C@@H]1C
REMARK SMILES IDX 30 1 31 2 29 3 32 5 35 6 37 7 34 8 38 9 33 10 39 11 36 12
REMARK SMILES IDX 40 14 41 15 42 16 43 17 44 18 45 19 46 20 47 21 48 22 49 23
REMARK SMILES IDX 50 24 51 25 52 26 56 27 53 28 55 29 54 30 57 31 58 32 59 33
REMARK SMILES IDX 60 35 61 36 62 37 63 38 64 39 65 40 66 41 67 42 68 43 21 45
REMARK SMILES IDX 20 46 18 47 19 48 17 50 16 52 14 53 15 54 9 56 8 57 6 58
REMARK SMILES IDX 7 59 5 61 4 62 3 63 2 64 1 65 10 66 11 67 12 68 13 69 22 71
REMARK SMILES IDX 23 72 24 73 25 74 26 75 27 76 28 77
REMARK H PARENT 31 4 36 13 59 34 20 49 16 55 8 60 13 70 27 78 27 79 28 80
REMARK H PARENT 28 81
REMARK Flexibility Score:  259.900
ROOT
ATOM      1  O   UNL     1      -8.965  -5.138  13.662  1.00  0.00    -0.273 OA
ATOM      2  N   UNL     1      -7.495  -5.965  12.117  1.00  0.00    -0.343 N 
ATOM      3  C   UNL     1      -7.868  -5.632  13.402  1.00  0.00     0.243 C 
ATOM      4  H   UNL     1      -6.589  -6.383  11.943  1.00  0.00     0.164 HD
ENDROOT
BRANCH   2   5
ATOM      5  C   UNL     1      -8.353  -5.631  10.985  1.00  0.00     0.171 C 
ATOM      6  C   UNL     1      -8.409  -6.534   8.231  1.00  0.00     0.214 C 
ATOM      7  N   UNL     1      -7.630  -5.370   8.581  1.00  0.00    -0.303 N 
ATOM      8  C   UNL     1      -9.628  -6.731   9.118  1.00  0.00     0.057 C 
ATOM      9  C   UNL     1      -7.519  -4.915   9.885  1.00  0.00     0.247 C 
ATOM     10  C   UNL     1      -9.198  -6.833  10.565  1.00  0.00     0.040 C 
ATOM     11  O   UNL     1      -6.780  -3.969  10.189  1.00  0.00    -0.272 OA
BRANCH   6  12
ATOM     12  O   UNL     1      -7.562  -7.657   8.303  1.00  0.00    -0.373 OA
ATOM     13  H   UNL     1      -7.011  -7.550   9.108  1.00  0.00     0.213 HD
ENDBRANCH   6  12
BRANCH   7  14
ATOM     14  C   UNL     1      -6.824  -4.755   7.505  1.00  0.00     0.177 C 
BRANCH  14  15
ATOM     15  C   UNL     1      -6.096  -5.749   6.580  1.00  0.00     0.038 C 
BRANCH  15  16
ATOM     16  C   UNL     1      -5.447  -5.239   5.274  1.00  0.00    -0.015 C 
ATOM     17  C   UNL     1      -6.194  -5.717   4.025  1.00  0.00     0.007 C 
ATOM     18  C   UNL     1      -3.998  -5.736   5.187  1.00  0.00     0.007 C 
ENDBRANCH  15  16
ENDBRANCH  14  15
BRANCH  14  19
ATOM     19  C   UNL     1      -7.467  -3.399   7.052  1.00  0.00     0.245 C 
ATOM     20  O   UNL     1      -8.411  -3.468   6.247  1.00  0.00    -0.272 OA
BRANCH  19  21
ATOM     21  N   UNL     1      -6.974  -2.155   7.407  1.00  0.00    -0.332 N 
ATOM     22  C   UNL     1      -7.690  -1.154   8.177  1.00  0.00     0.147 C 
BRANCH  21  23
ATOM     23  C   UNL     1      -5.600  -1.797   6.958  1.00  0.00     0.178 C 
BRANCH  23  24
ATOM     24  C   UNL     1      -5.518  -0.535   6.075  1.00  0.00     0.070 C 
BRANCH  24  25
ATOM     25  C   UNL     1      -5.845  -0.698   4.609  1.00  0.00    -0.045 A 
ATOM     26  C   UNL     1      -5.698  -1.939   3.974  1.00  0.00     0.004 A 
ATOM     27  C   UNL     1      -6.298   0.397   3.858  1.00  0.00     0.004 A 
ATOM     28  C   UNL     1      -5.985  -2.077   2.615  1.00  0.00     0.000 A 
ATOM     29  C   UNL     1      -6.587   0.257   2.500  1.00  0.00     0.000 A 
ATOM     30  C   UNL     1      -6.427  -0.980   1.879  1.00  0.00     0.000 A 
ENDBRANCH  24  25
ENDBRANCH  23  24
BRANCH  23  31
ATOM     31  C   UNL     1      -4.556  -1.864   8.098  1.00  0.00     0.243 C 
ATOM     32  O   UNL     1      -4.191  -0.890   8.752  1.00  0.00    -0.273 OA
ATOM     33  N   UNL     1      -3.925  -3.092   8.199  1.00  0.00    -0.341 N 
ATOM     34  H   UNL     1      -4.270  -3.864   7.623  1.00  0.00     0.164 HD
BRANCH  33  35
ATOM     35  C   UNL     1      -2.820  -3.348   9.127  1.00  0.00     0.194 C 
BRANCH  35  36
ATOM     36  C   UNL     1      -1.534  -3.896   8.447  1.00  0.00     0.017 C 
ATOM     37  C   UNL     1      -0.266  -3.317   9.099  1.00  0.00     0.010 C 
ATOM     38  C   UNL     1      -1.463  -3.583   6.947  1.00  0.00     0.010 C 
ENDBRANCH  35  36
BRANCH  35  39
ATOM     39  C   UNL     1      -3.250  -4.218  10.342  1.00  0.00     0.329 C 
ATOM     40  O   UNL     1      -3.665  -5.367  10.250  1.00  0.00    -0.250 OA
BRANCH  39  41
ATOM     41  O   UNL     1      -3.030  -3.587  11.535  1.00  0.00    -0.458 OA
BRANCH  41  42
ATOM     42  C   UNL     1      -4.198  -3.344  12.356  1.00  0.00     0.205 CG0
ATOM     43  C   UNL     1      -4.615  -1.892  12.133  1.00  0.00     0.056 C 
ATOM     44  G   UNL     1      -3.834  -3.634  13.826  1.00  0.00     0.000 G0
ENDBRANCH  41  42
ENDBRANCH  39  41
ENDBRANCH  35  39
ENDBRANCH  33  35
ENDBRANCH  23  31
ENDBRANCH  21  23
ENDBRANCH  19  21
ENDBRANCH  14  19
ENDBRANCH   7  14
ENDBRANCH   2   5
BRANCH   3  45
ATOM     45  C   UNL     1      -6.828  -5.938  14.488  1.00  0.00     0.171 C 
BRANCH  45  46
ATOM     46  N   UNL     1      -5.583  -5.342  14.022  1.00  0.00    -0.342 N 
ATOM     47  C   UNL     1      -5.085  -4.175  14.544  1.00  0.00     0.247 C 
ATOM     48  O   UNL     1      -5.612  -3.588  15.490  1.00  0.00    -0.273 OA
ATOM     49  H   UNL     1      -5.085  -5.826  13.277  1.00  0.00     0.164 HD
BRANCH  47  50
ATOM     50  C   UNL     1      -3.831  -3.632  13.845  1.00  0.00     0.212 CG0
ATOM     51  G   UNL     1      -4.197  -3.365  12.371  1.00  0.00     0.000 G0
BRANCH  50  52
ATOM     52  N   UNL     1      -3.468  -2.423  14.578  1.00  0.00    -0.339 N 
ATOM     53  C   UNL     1      -2.173  -2.088  14.889  1.00  0.00     0.243 C 
ATOM     54  O   UNL     1      -1.219  -2.812  14.619  1.00  0.00    -0.273 OA
ATOM     55  H   UNL     1      -4.224  -1.837  14.927  1.00  0.00     0.164 HD
BRANCH  53  56
ATOM     56  C   UNL     1      -2.043  -0.810  15.743  1.00  0.00     0.182 C 
BRANCH  56  57
ATOM     57  N   UNL     1      -3.352  -0.183  15.955  1.00  0.00    -0.344 N 
ATOM     58  C   UNL     1      -4.076  -0.364  17.108  1.00  0.00     0.220 C 
ATOM     59  O   UNL     1      -3.716  -1.117  18.007  1.00  0.00    -0.275 OA
ATOM     60  H   UNL     1      -3.638   0.524  15.284  1.00  0.00     0.164 HD
BRANCH  58  61
ATOM     61  C   UNL     1      -5.372   0.425  17.134  1.00  0.00     0.100 C 
BRANCH  61  62
ATOM     62  C   UNL     1      -6.463  -0.210  17.997  1.00  0.00     0.010 C 
BRANCH  62  63
ATOM     63  C   UNL     1      -7.360  -1.201  17.244  1.00  0.00     0.000 C 
BRANCH  63  64
ATOM     64  C   UNL     1      -7.535  -2.547  17.947  1.00  0.00    -0.003 C 
ATOM     65  C   UNL     1      -6.501  -2.736  19.048  1.00  0.00     0.004 C 
ENDBRANCH  63  64
ENDBRANCH  62  63
ENDBRANCH  61  62
ENDBRANCH  58  61
ENDBRANCH  56  57
BRANCH  56  66
ATOM     66  C   UNL     1      -1.028   0.163  15.145  1.00  0.00     0.157 C 
BRANCH  66  67
ATOM     67  C   UNL     1      -0.335   0.953  16.217  1.00  0.00     0.305 C 
ATOM     68  O   UNL     1      -0.262   0.672  17.403  1.00  0.00    -0.252 OA
BRANCH  67  69
ATOM     69  O   UNL     1       0.283   2.045  15.728  1.00  0.00    -0.481 OA
ATOM     70  H   UNL     1       0.964   2.267  16.398  1.00  0.00     0.296 HD
ENDBRANCH  67  69
ENDBRANCH  66  67
ENDBRANCH  56  66
ENDBRANCH  53  56
ENDBRANCH  50  52
ENDBRANCH  47  50
ENDBRANCH  45  46
BRANCH  45  71
ATOM     71  C   UNL     1      -6.691  -7.452  14.683  1.00  0.00     0.037 C 
BRANCH  71  72
ATOM     72  C   UNL     1      -5.382  -7.992  14.102  1.00  0.00     0.026 C 
BRANCH  72  73
ATOM     73  C   UNL     1      -5.635  -9.105  13.088  1.00  0.00     0.146 C 
BRANCH  73  74
ATOM     74  N   UNL     1      -5.920  -8.480  11.800  1.00  0.00    -0.254 NA
ATOM     75  C   UNL     1      -4.949  -8.338  10.975  1.00  0.00     0.185 C 
ATOM     76  N   UNL     1      -5.181  -7.767   9.782  1.00  0.00    -0.370 N 
ATOM     77  N   UNL     1      -3.660  -8.689  11.119  1.00  0.00    -0.370 N 
ATOM     78  H   UNL     1      -6.126  -7.465   9.595  1.00  0.00     0.159 HD
ATOM     79  H   UNL     1      -4.451  -7.493   9.148  1.00  0.00     0.159 HD
ATOM     80  H   UNL     1      -3.340  -9.134  11.967  1.00  0.00     0.159 HD
ATOM     81  H   UNL     1      -3.008  -8.633  10.354  1.00  0.00     0.159 HD
ENDBRANCH  73  74
ENDBRANCH  72  73
ENDBRANCH  71  72
ENDBRANCH  45  71
ENDBRANCH   3  45
TORSDOF 20
ENDMDL
MODEL 7
REMARK VINA RESULT:    -6.103      2.985      6.830
REMARK INTER + INTRA:         -24.526
REMARK INTER:                 -18.628
REMARK INTRA:                  -5.898
REMARK UNBOUND:                -7.006
REMARK SMILES CCCCCC(=O)N[C@H](CC(=O)O)C(=O)N[C@H]1C(=O)N[C@H](CCCN=C(N)N)C(=O)N[C@@H]2CC[C@H](O)N(C2=O)[C@@H](CC(C)C)C(=O)N(C)[C@@H](Cc2ccccc2)C(=O)N[C@H](C(C)C)C(=O)O[C@@H]1C
REMARK SMILES IDX 30 1 31 2 29 3 32 5 35 6 37 7 34 8 38 9 33 10 39 11 36 12
REMARK SMILES IDX 40 14 41 15 42 16 43 17 44 18 45 19 46 20 47 21 48 22 49 23
REMARK SMILES IDX 50 24 51 25 52 26 56 27 53 28 55 29 54 30 57 31 58 32 59 33
REMARK SMILES IDX 60 35 61 36 62 37 63 38 64 39 65 40 66 41 67 42 68 43 21 45
REMARK SMILES IDX 20 46 18 47 19 48 17 50 16 52 14 53 15 54 9 56 8 57 6 58
REMARK SMILES IDX 7 59 5 61 4 62 3 63 2 64 1 65 10 66 11 67 12 68 13 69 22 71
REMARK SMILES IDX 23 72 24 73 25 74 26 75 27 76 28 77
REMARK H PARENT 31 4 36 13 59 34 20 49 16 55 8 60 13 70 27 78 27 79 28 80
REMARK H PARENT 28 81
REMARK Flexibility Score:  259.900
ROOT
ATOM      1  O   UNL     1      -5.735  -6.770  10.705  1.00  0.00    -0.273 OA
ATOM      2  N   UNL     1      -8.018  -6.732  10.576  1.00  0.00    -0.343 N 
ATOM      3  C   UNL     1      -6.826  -6.645  11.262  1.00  0.00     0.243 C 
ATOM      4  H   UNL     1      -8.896  -6.609  11.065  1.00  0.00     0.164 HD
ENDROOT
BRANCH   2   5
ATOM      5  C   UNL     1      -8.037  -7.098   9.164  1.00  0.00     0.171 C 
ATOM      6  C   UNL     1      -5.937  -7.441   7.195  1.00  0.00     0.214 C 
ATOM      7  N   UNL     1      -6.564  -6.149   7.347  1.00  0.00    -0.303 N 
ATOM      8  C   UNL     1      -6.861  -8.602   7.526  1.00  0.00     0.057 C 
ATOM      9  C   UNL     1      -7.537  -5.904   8.302  1.00  0.00     0.247 C 
ATOM     10  C   UNL     1      -7.377  -8.458   8.942  1.00  0.00     0.040 C 
ATOM     11  O   UNL     1      -8.008  -4.773   8.484  1.00  0.00    -0.272 OA
BRANCH   6  12
ATOM     12  O   UNL     1      -4.798  -7.467   8.024  1.00  0.00    -0.373 OA
ATOM     13  H   UNL     1      -5.114  -7.605   8.943  1.00  0.00     0.213 HD
ENDBRANCH   6  12
BRANCH   7  14
ATOM     14  C   UNL     1      -6.021  -5.040   6.533  1.00  0.00     0.177 C 
BRANCH  14  15
ATOM     15  C   UNL     1      -6.933  -4.559   5.388  1.00  0.00     0.038 C 
BRANCH  15  16
ATOM     16  C   UNL     1      -6.761  -5.159   3.975  1.00  0.00    -0.015 C 
ATOM     17  C   UNL     1      -6.590  -6.680   4.002  1.00  0.00     0.007 C 
ATOM     18  C   UNL     1      -5.526  -4.549   3.300  1.00  0.00     0.007 C 
ENDBRANCH  15  16
ENDBRANCH  14  15
BRANCH  14  19
ATOM     19  C   UNL     1      -5.106  -4.120   7.411  1.00  0.00     0.245 C 
ATOM     20  O   UNL     1      -4.649  -4.616   8.454  1.00  0.00    -0.272 OA
BRANCH  19  21
ATOM     21  N   UNL     1      -4.879  -2.780   7.148  1.00  0.00    -0.332 N 
ATOM     22  C   UNL     1      -4.770  -2.188   5.826  1.00  0.00     0.147 C 
BRANCH  21  23
ATOM     23  C   UNL     1      -4.721  -1.860   8.307  1.00  0.00     0.178 C 
BRANCH  23  24
ATOM     24  C   UNL     1      -3.409  -1.049   8.314  1.00  0.00     0.070 C 
BRANCH  24  25
ATOM     25  C   UNL     1      -2.219  -1.671   9.005  1.00  0.00    -0.045 A 
ATOM     26  C   UNL     1      -1.656  -1.076  10.141  1.00  0.00     0.004 A 
ATOM     27  C   UNL     1      -1.655  -2.858   8.513  1.00  0.00     0.004 A 
ATOM     28  C   UNL     1      -0.545  -1.648  10.765  1.00  0.00     0.000 A 
ATOM     29  C   UNL     1      -0.546  -3.430   9.137  1.00  0.00     0.000 A 
ATOM     30  C   UNL     1       0.010  -2.823  10.261  1.00  0.00     0.000 A 
ENDBRANCH  24  25
ENDBRANCH  23  24
BRANCH  23  31
ATOM     31  C   UNL     1      -5.997  -1.036   8.602  1.00  0.00     0.243 C 
ATOM     32  O   UNL     1      -6.007   0.009   9.248  1.00  0.00    -0.273 OA
ATOM     33  N   UNL     1      -7.167  -1.677   8.232  1.00  0.00    -0.341 N 
ATOM     34  H   UNL     1      -7.096  -2.549   7.701  1.00  0.00     0.164 HD
BRANCH  33  35
ATOM     35  C   UNL     1      -8.499  -1.140   8.522  1.00  0.00     0.194 C 
BRANCH  35  36
ATOM     36  C   UNL     1      -8.558   0.413   8.581  1.00  0.00     0.017 C 
ATOM     37  C   UNL     1      -9.622   0.895   9.582  1.00  0.00     0.010 C 
ATOM     38  C   UNL     1      -8.878   1.057   7.226  1.00  0.00     0.010 C 
ENDBRANCH  35  36
BRANCH  35  39
ATOM     39  C   UNL     1      -9.148  -1.792   9.775  1.00  0.00     0.329 C 
ATOM     40  O   UNL     1     -10.194  -2.431   9.752  1.00  0.00    -0.250 OA
BRANCH  39  41
ATOM     41  O   UNL     1      -8.376  -1.650  10.894  1.00  0.00    -0.458 OA
BRANCH  41  42
ATOM     42  C   UNL     1      -8.984  -2.044  12.147  1.00  0.00     0.205 CG0
ATOM     43  C   UNL     1      -9.637  -0.800  12.746  1.00  0.00     0.056 C 
ATOM     44  G   UNL     1      -7.891  -2.634  13.060  1.00  0.00     0.000 G0
ENDBRANCH  41  42
ENDBRANCH  39  41
ENDBRANCH  35  39
ENDBRANCH  33  35
ENDBRANCH  23  31
ENDBRANCH  21  23
ENDBRANCH  19  21
ENDBRANCH  14  19
ENDBRANCH   7  14
ENDBRANCH   2   5
BRANCH   3  45
ATOM     45  C   UNL     1      -6.952  -6.360  12.764  1.00  0.00     0.171 C 
BRANCH  45  46
ATOM     46  N   UNL     1      -6.939  -4.908  12.892  1.00  0.00    -0.342 N 
ATOM     47  C   UNL     1      -8.082  -4.177  13.095  1.00  0.00     0.247 C 
ATOM     48  O   UNL     1      -9.188  -4.696  13.256  1.00  0.00    -0.273 OA
ATOM     49  H   UNL     1      -6.036  -4.442  12.821  1.00  0.00     0.164 HD
BRANCH  47  50
ATOM     50  C   UNL     1      -7.891  -2.654  13.079  1.00  0.00     0.212 CG0
ATOM     51  G   UNL     1      -8.992  -2.054  12.182  1.00  0.00     0.000 G0
BRANCH  50  52
ATOM     52  N   UNL     1      -7.992  -2.234  14.474  1.00  0.00    -0.339 N 
ATOM     53  C   UNL     1      -6.963  -1.634  15.159  1.00  0.00     0.243 C 
ATOM     54  O   UNL     1      -5.855  -1.452  14.663  1.00  0.00    -0.273 OA
ATOM     55  H   UNL     1      -8.849  -2.459  14.975  1.00  0.00     0.164 HD
BRANCH  53  56
ATOM     56  C   UNL     1      -7.274  -1.360  16.645  1.00  0.00     0.182 C 
BRANCH  56  57
ATOM     57  N   UNL     1      -6.422  -0.289  17.172  1.00  0.00    -0.344 N 
ATOM     58  C   UNL     1      -6.940   0.852  17.734  1.00  0.00     0.220 C 
ATOM     59  O   UNL     1      -8.143   1.088  17.770  1.00  0.00    -0.275 OA
ATOM     60  H   UNL     1      -5.429  -0.488  17.254  1.00  0.00     0.164 HD
BRANCH  58  61
ATOM     61  C   UNL     1      -5.877   1.796  18.265  1.00  0.00     0.100 C 
BRANCH  61  62
ATOM     62  C   UNL     1      -6.253   3.274  18.152  1.00  0.00     0.010 C 
BRANCH  62  63
ATOM     63  C   UNL     1      -5.790   3.942  16.851  1.00  0.00     0.000 C 
BRANCH  63  64
ATOM     64  C   UNL     1      -4.461   3.413  16.313  1.00  0.00    -0.003 C 
ATOM     65  C   UNL     1      -4.100   4.066  14.987  1.00  0.00     0.004 C 
ENDBRANCH  63  64
ENDBRANCH  62  63
ENDBRANCH  61  62
ENDBRANCH  58  61
ENDBRANCH  56  57
BRANCH  56  66
ATOM     66  C   UNL     1      -7.179  -2.635  17.481  1.00  0.00     0.157 C 
BRANCH  66  67
ATOM     67  C   UNL     1      -6.284  -2.440  18.671  1.00  0.00     0.305 C 
ATOM     68  O   UNL     1      -6.632  -2.218  19.821  1.00  0.00    -0.252 OA
BRANCH  67  69
ATOM     69  O   UNL     1      -4.982  -2.588  18.361  1.00  0.00    -0.481 OA
ATOM     70  H   UNL     1      -4.974  -3.213  17.605  1.00  0.00     0.296 HD
ENDBRANCH  67  69
ENDBRANCH  66  67
ENDBRANCH  56  66
ENDBRANCH  53  56
ENDBRANCH  50  52
ENDBRANCH  47  50
ENDBRANCH  45  46
BRANCH  45  71
ATOM     71  C   UNL     1      -5.791  -7.005  13.529  1.00  0.00     0.037 C 
BRANCH  71  72
ATOM     72  C   UNL     1      -4.986  -5.977  14.329  1.00  0.00     0.026 C 
BRANCH  72  73
ATOM     73  C   UNL     1      -3.805  -5.440  13.522  1.00  0.00     0.146 C 
BRANCH  73  74
ATOM     74  N   UNL     1      -3.920  -3.986  13.475  1.00  0.00    -0.254 NA
ATOM     75  C   UNL     1      -4.037  -3.431  12.325  1.00  0.00     0.185 C 
ATOM     76  N   UNL     1      -4.146  -2.095  12.249  1.00  0.00    -0.370 N 
ATOM     77  N   UNL     1      -4.072  -4.005  11.110  1.00  0.00    -0.370 N 
ATOM     78  H   UNL     1      -4.122  -1.584  13.120  1.00  0.00     0.159 HD
ATOM     79  H   UNL     1      -4.096  -1.584  11.386  1.00  0.00     0.159 HD
ATOM     80  H   UNL     1      -4.005  -5.007  11.013  1.00  0.00     0.159 HD
ATOM     81  H   UNL     1      -4.285  -3.475  10.281  1.00  0.00     0.159 HD
ENDBRANCH  73  74
ENDBRANCH  72  73
ENDBRANCH  71  72
ENDBRANCH  45  71
ENDBRANCH   3  45
TORSDOF 20
ENDMDL
MODEL 8
REMARK VINA RESULT:    -6.056      3.183      7.829
REMARK INTER + INTRA:         -24.391
REMARK INTER:                 -18.680
REMARK INTRA:                  -5.711
REMARK UNBOUND:                -7.006
REMARK SMILES CCCCCC(=O)N[C@H](CC(=O)O)C(=O)N[C@H]1C(=O)N[C@H](CCCN=C(N)N)C(=O)N[C@@H]2CC[C@H](O)N(C2=O)[C@@H](CC(C)C)C(=O)N(C)[C@@H](Cc2ccccc2)C(=O)N[C@H](C(C)C)C(=O)O[C@@H]1C
REMARK SMILES IDX 30 1 31 2 29 3 32 5 35 6 37 7 34 8 38 9 33 10 39 11 36 12
REMARK SMILES IDX 40 14 41 15 42 16 43 17 44 18 45 19 46 20 47 21 48 22 49 23
REMARK SMILES IDX 50 24 51 25 52 26 56 27 53 28 55 29 54 30 57 31 58 32 59 33
REMARK SMILES IDX 60 35 61 36 62 37 63 38 64 39 65 40 66 41 67 42 68 43 21 45
REMARK SMILES IDX 20 46 18 47 19 48 17 50 16 52 14 53 15 54 9 56 8 57 6 58
REMARK SMILES IDX 7 59 5 61 4 62 3 63 2 64 1 65 10 66 11 67 12 68 13 69 22 71
REMARK SMILES IDX 23 72 24 73 25 74 26 75 27 76 28 77
REMARK H PARENT 31 4 36 13 59 34 20 49 16 55 8 60 13 70 27 78 27 79 28 80
REMARK H PARENT 28 81
REMARK Flexibility Score:  259.900
ROOT
ATOM      1  O   UNL     1      -4.871  -5.474  12.459  1.00  0.00    -0.273 OA
ATOM      2  N   UNL     1      -4.641  -7.747  12.564  1.00  0.00    -0.343 N 
ATOM      3  C   UNL     1      -5.179  -6.547  12.977  1.00  0.00     0.243 C 
ATOM      4  H   UNL     1      -4.929  -8.612  13.004  1.00  0.00     0.164 HD
ENDROOT
BRANCH   2   5
ATOM      5  C   UNL     1      -3.581  -7.779  11.562  1.00  0.00     0.171 C 
ATOM      6  C   UNL     1      -2.247  -5.699  10.046  1.00  0.00     0.214 C 
ATOM      7  N   UNL     1      -3.423  -6.335   9.498  1.00  0.00    -0.303 N 
ATOM      8  C   UNL     1      -1.439  -6.611  10.955  1.00  0.00     0.057 C 
ATOM      9  C   UNL     1      -4.137  -7.299  10.191  1.00  0.00     0.247 C 
ATOM     10  C   UNL     1      -2.311  -7.111  12.086  1.00  0.00     0.040 C 
ATOM     11  O   UNL     1      -5.191  -7.776   9.752  1.00  0.00    -0.272 OA
BRANCH   6  12
ATOM     12  O   UNL     1      -2.666  -4.551  10.747  1.00  0.00    -0.373 OA
ATOM     13  H   UNL     1      -3.481  -4.227  10.307  1.00  0.00     0.213 HD
ENDBRANCH   6  12
BRANCH   7  14
ATOM     14  C   UNL     1      -3.931  -5.810   8.213  1.00  0.00     0.177 C 
BRANCH  14  15
ATOM     15  C   UNL     1      -3.711  -6.729   6.996  1.00  0.00     0.038 C 
BRANCH  15  16
ATOM     16  C   UNL     1      -2.589  -6.399   5.986  1.00  0.00    -0.015 C 
ATOM     17  C   UNL     1      -1.273  -6.027   6.676  1.00  0.00     0.007 C 
ATOM     18  C   UNL     1      -3.018  -5.221   5.101  1.00  0.00     0.007 C 
ENDBRANCH  15  16
ENDBRANCH  14  15
BRANCH  14  19
ATOM     19  C   UNL     1      -5.192  -4.910   8.454  1.00  0.00     0.245 C 
ATOM     20  O   UNL     1      -5.071  -3.986   9.275  1.00  0.00    -0.272 OA
BRANCH  19  21
ATOM     21  N   UNL     1      -6.434  -5.159   7.897  1.00  0.00    -0.332 N 
ATOM     22  C   UNL     1      -7.196  -6.386   8.049  1.00  0.00     0.147 C 
BRANCH  21  23
ATOM     23  C   UNL     1      -7.049  -4.090   7.062  1.00  0.00     0.178 C 
BRANCH  23  24
ATOM     24  C   UNL     1      -7.469  -4.539   5.647  1.00  0.00     0.070 C 
BRANCH  24  25
ATOM     25  C   UNL     1      -6.656  -4.013   4.488  1.00  0.00    -0.045 A 
ATOM     26  C   UNL     1      -6.309  -2.658   4.411  1.00  0.00     0.004 A 
ATOM     27  C   UNL     1      -6.239  -4.879   3.465  1.00  0.00     0.004 A 
ATOM     28  C   UNL     1      -5.571  -2.177   3.327  1.00  0.00     0.000 A 
ATOM     29  C   UNL     1      -5.501  -4.396   2.383  1.00  0.00     0.000 A 
ATOM     30  C   UNL     1      -5.170  -3.044   2.314  1.00  0.00     0.000 A 
ENDBRANCH  24  25
ENDBRANCH  23  24
BRANCH  23  31
ATOM     31  C   UNL     1      -8.109  -3.262   7.825  1.00  0.00     0.243 C 
ATOM     32  O   UNL     1      -9.205  -2.955   7.362  1.00  0.00    -0.273 OA
ATOM     33  N   UNL     1      -7.645  -2.731   9.016  1.00  0.00    -0.341 N 
ATOM     34  H   UNL     1      -6.721  -3.019   9.348  1.00  0.00     0.164 HD
BRANCH  33  35
ATOM     35  C   UNL     1      -8.435  -1.818   9.847  1.00  0.00     0.194 C 
BRANCH  35  36
ATOM     36  C   UNL     1      -7.987  -0.332   9.759  1.00  0.00     0.017 C 
ATOM     37  C   UNL     1      -8.610   0.369   8.539  1.00  0.00     0.010 C 
ATOM     38  C   UNL     1      -6.466  -0.164   9.658  1.00  0.00     0.010 C 
ENDBRANCH  35  36
BRANCH  35  39
ATOM     39  C   UNL     1      -8.556  -2.302  11.319  1.00  0.00     0.329 C 
ATOM     40  O   UNL     1      -7.856  -1.891  12.236  1.00  0.00    -0.250 OA
BRANCH  39  41
ATOM     41  O   UNL     1      -9.592  -3.177  11.495  1.00  0.00    -0.458 OA
BRANCH  41  42
ATOM     42  C   UNL     1      -9.232  -4.542  11.817  1.00  0.00     0.205 CG0
ATOM     43  C   UNL     1     -10.092  -5.456  10.947  1.00  0.00     0.056 C 
ATOM     44  G   UNL     1      -9.466  -4.769  13.324  1.00  0.00     0.000 G0
ENDBRANCH  41  42
ENDBRANCH  39  41
ENDBRANCH  35  39
ENDBRANCH  33  35
ENDBRANCH  23  31
ENDBRANCH  21  23
ENDBRANCH  19  21
ENDBRANCH  14  19
ENDBRANCH   7  14
ENDBRANCH   2   5
BRANCH   3  45
ATOM     45  C   UNL     1      -6.206  -6.644  14.113  1.00  0.00     0.171 C 
BRANCH  45  46
ATOM     46  N   UNL     1      -7.221  -5.643  13.814  1.00  0.00    -0.342 N 
ATOM     47  C   UNL     1      -8.562  -5.932  13.808  1.00  0.00     0.247 C 
ATOM     48  O   UNL     1      -9.009  -7.035  14.124  1.00  0.00    -0.273 OA
ATOM     49  H   UNL     1      -6.897  -4.701  13.601  1.00  0.00     0.164 HD
BRANCH  47  50
ATOM     50  C   UNL     1      -9.473  -4.785  13.348  1.00  0.00     0.212 CG0
ATOM     51  G   UNL     1      -9.208  -4.550  11.848  1.00  0.00     0.000 G0
BRANCH  50  52
ATOM     52  N   UNL     1     -10.834  -5.231  13.632  1.00  0.00    -0.339 N 
ATOM     53  C   UNL     1     -11.755  -4.466  14.306  1.00  0.00     0.243 C 
ATOM     54  O   UNL     1     -11.485  -3.363  14.772  1.00  0.00    -0.273 OA
ATOM     55  H   UNL     1     -11.085  -6.182  13.368  1.00  0.00     0.164 HD
BRANCH  53  56
ATOM     56  C   UNL     1     -13.097  -5.181  14.562  1.00  0.00     0.182 C 
BRANCH  56  57
ATOM     57  N   UNL     1     -14.225  -4.366  14.098  1.00  0.00    -0.344 N 
ATOM     58  C   UNL     1     -15.484  -4.885  13.922  1.00  0.00     0.220 C 
ATOM     59  O   UNL     1     -15.738  -6.076  14.069  1.00  0.00    -0.275 OA
ATOM     60  H   UNL     1     -14.082  -3.361  14.063  1.00  0.00     0.164 HD
BRANCH  58  61
ATOM     61  C   UNL     1     -16.507  -3.849  13.493  1.00  0.00     0.100 C 
BRANCH  61  62
ATOM     62  C   UNL     1     -17.503  -4.360  12.452  1.00  0.00     0.010 C 
BRANCH  62  63
ATOM     63  C   UNL     1     -17.869  -3.331  11.376  1.00  0.00     0.000 C 
BRANCH  63  64
ATOM     64  C   UNL     1     -19.064  -3.727  10.510  1.00  0.00    -0.003 C 
ATOM     65  C   UNL     1     -19.274  -5.234  10.511  1.00  0.00     0.004 C 
ENDBRANCH  63  64
ENDBRANCH  62  63
ENDBRANCH  61  62
ENDBRANCH  58  61
ENDBRANCH  56  57
BRANCH  56  66
ATOM     66  C   UNL     1     -13.244  -5.588  16.027  1.00  0.00     0.157 C 
BRANCH  66  67
ATOM     67  C   UNL     1     -12.843  -7.020  16.237  1.00  0.00     0.305 C 
ATOM     68  O   UNL     1     -12.884  -7.647  17.285  1.00  0.00    -0.252 OA
BRANCH  67  69
ATOM     69  O   UNL     1     -12.454  -7.615  15.093  1.00  0.00    -0.481 OA
ATOM     70  H   UNL     1     -13.146  -8.285  14.912  1.00  0.00     0.296 HD
ENDBRANCH  67  69
ENDBRANCH  66  67
ENDBRANCH  56  66
ENDBRANCH  53  56
ENDBRANCH  50  52
ENDBRANCH  47  50
ENDBRANCH  45  46
BRANCH  45  71
ATOM     71  C   UNL     1      -5.533  -6.381  15.465  1.00  0.00     0.037 C 
BRANCH  71  72
ATOM     72  C   UNL     1      -6.512  -6.526  16.633  1.00  0.00     0.026 C 
BRANCH  72  73
ATOM     73  C   UNL     1      -6.660  -5.217  17.405  1.00  0.00     0.146 C 
BRANCH  73  74
ATOM     74  N   UNL     1      -6.476  -4.118  16.462  1.00  0.00    -0.254 NA
ATOM     75  C   UNL     1      -7.484  -3.367  16.213  1.00  0.00     0.185 C 
ATOM     76  N   UNL     1      -7.346  -2.347  15.350  1.00  0.00    -0.370 N 
ATOM     77  N   UNL     1      -8.733  -3.438  16.706  1.00  0.00    -0.370 N 
ATOM     78  H   UNL     1      -6.437  -2.227  14.927  1.00  0.00     0.159 HD
ATOM     79  H   UNL     1      -8.119  -1.811  14.998  1.00  0.00     0.159 HD
ATOM     80  H   UNL     1      -8.983  -4.155  17.370  1.00  0.00     0.159 HD
ATOM     81  H   UNL     1      -9.415  -2.720  16.524  1.00  0.00     0.159 HD
ENDBRANCH  73  74
ENDBRANCH  72  73
ENDBRANCH  71  72
ENDBRANCH  45  71
ENDBRANCH   3  45
TORSDOF 20
ENDMDL
MODEL 9
REMARK VINA RESULT:    -5.953      2.499      5.390
REMARK INTER + INTRA:         -24.096
REMARK INTER:                 -17.532
REMARK INTRA:                  -6.563
REMARK UNBOUND:                -7.006
REMARK SMILES CCCCCC(=O)N[C@H](CC(=O)O)C(=O)N[C@H]1C(=O)N[C@H](CCCN=C(N)N)C(=O)N[C@@H]2CC[C@H](O)N(C2=O)[C@@H](CC(C)C)C(=O)N(C)[C@@H](Cc2ccccc2)C(=O)N[C@H](C(C)C)C(=O)O[C@@H]1C
REMARK SMILES IDX 30 1 31 2 29 3 32 5 35 6 37 7 34 8 38 9 33 10 39 11 36 12
REMARK SMILES IDX 40 14 41 15 42 16 43 17 44 18 45 19 46 20 47 21 48 22 49 23
REMARK SMILES IDX 50 24 51 25 52 26 56 27 53 28 55 29 54 30 57 31 58 32 59 33
REMARK SMILES IDX 60 35 61 36 62 37 63 38 64 39 65 40 66 41 67 42 68 43 21 45
REMARK SMILES IDX 20 46 18 47 19 48 17 50 16 52 14 53 15 54 9 56 8 57 6 58
REMARK SMILES IDX 7 59 5 61 4 62 3 63 2 64 1 65 10 66 11 67 12 68 13 69 22 71
REMARK SMILES IDX 23 72 24 73 25 74 26 75 27 76 28 77
REMARK H PARENT 31 4 36 13 59 34 20 49 16 55 8 60 13 70 27 78 27 79 28 80
REMARK H PARENT 28 81
REMARK Flexibility Score:  259.900
ROOT
ATOM      1  O   UNL     1      -6.116  -1.389  12.077  1.00  0.00    -0.273 OA
ATOM      2  N   UNL     1      -7.522  -1.880  10.341  1.00  0.00    -0.343 N 
ATOM      3  C   UNL     1      -7.209  -1.794  11.681  1.00  0.00     0.243 C 
ATOM      4  H   UNL     1      -8.436  -2.204  10.052  1.00  0.00     0.164 HD
ENDROOT
BRANCH   2   5
ATOM      5  C   UNL     1      -6.514  -1.601   9.324  1.00  0.00     0.171 C 
ATOM      6  C   UNL     1      -6.328  -2.266   6.509  1.00  0.00     0.214 C 
ATOM      7  N   UNL     1      -5.762  -3.163   7.489  1.00  0.00    -0.303 N 
ATOM      8  C   UNL     1      -6.313  -0.809   6.946  1.00  0.00     0.057 C 
ATOM      9  C   UNL     1      -5.860  -2.931   8.852  1.00  0.00     0.247 C 
ATOM     10  C   UNL     1      -7.061  -0.659   8.253  1.00  0.00     0.040 C 
ATOM     11  O   UNL     1      -5.449  -3.747   9.687  1.00  0.00    -0.272 OA
BRANCH   6  12
ATOM     12  O   UNL     1      -7.646  -2.689   6.249  1.00  0.00    -0.373 OA
ATOM     13  H   UNL     1      -7.804  -3.489   6.794  1.00  0.00     0.213 HD
ENDBRANCH   6  12
BRANCH   7  14
ATOM     14  C   UNL     1      -5.192  -4.431   6.987  1.00  0.00     0.177 C 
BRANCH  14  15
ATOM     15  C   UNL     1      -6.208  -5.405   6.361  1.00  0.00     0.038 C 
BRANCH  15  16
ATOM     16  C   UNL     1      -5.975  -6.928   6.478  1.00  0.00    -0.015 C 
ATOM     17  C   UNL     1      -5.548  -7.557   5.149  1.00  0.00     0.007 C 
ATOM     18  C   UNL     1      -7.265  -7.616   6.943  1.00  0.00     0.007 C 
ENDBRANCH  15  16
ENDBRANCH  14  15
BRANCH  14  19
ATOM     19  C   UNL     1      -3.724  -4.206   6.485  1.00  0.00     0.245 C 
ATOM     20  O   UNL     1      -3.512  -4.390   5.275  1.00  0.00    -0.272 OA
BRANCH  19  21
ATOM     21  N   UNL     1      -2.656  -3.931   7.322  1.00  0.00    -0.332 N 
ATOM     22  C   UNL     1      -1.996  -2.644   7.449  1.00  0.00     0.147 C 
BRANCH  21  23
ATOM     23  C   UNL     1      -2.123  -5.041   8.158  1.00  0.00     0.178 C 
BRANCH  23  24
ATOM     24  C   UNL     1      -0.615  -5.312   7.987  1.00  0.00     0.070 C 
BRANCH  24  25
ATOM     25  C   UNL     1       0.278  -5.006   9.167  1.00  0.00    -0.045 A 
ATOM     26  C   UNL     1       0.495  -5.961  10.169  1.00  0.00     0.004 A 
ATOM     27  C   UNL     1       0.900  -3.754   9.278  1.00  0.00     0.004 A 
ATOM     28  C   UNL     1       1.308  -5.665  11.265  1.00  0.00     0.000 A 
ATOM     29  C   UNL     1       1.713  -3.459  10.374  1.00  0.00     0.000 A 
ATOM     30  C   UNL     1       1.914  -4.415  11.368  1.00  0.00     0.000 A 
ENDBRANCH  24  25
ENDBRANCH  23  24
BRANCH  23  31
ATOM     31  C   UNL     1      -2.612  -4.980   9.625  1.00  0.00     0.243 C 
ATOM     32  O   UNL     1      -2.300  -4.093  10.416  1.00  0.00    -0.273 OA
ATOM     33  N   UNL     1      -3.287  -6.118  10.032  1.00  0.00    -0.341 N 
ATOM     34  H   UNL     1      -3.513  -6.825   9.328  1.00  0.00     0.164 HD
BRANCH  33  35
ATOM     35  C   UNL     1      -3.737  -6.331  11.410  1.00  0.00     0.194 C 
BRANCH  35  36
ATOM     36  C   UNL     1      -2.845  -7.310  12.225  1.00  0.00     0.017 C 
ATOM     37  C   UNL     1      -1.787  -6.552  13.046  1.00  0.00     0.010 C 
ATOM     38  C   UNL     1      -2.103  -8.325  11.346  1.00  0.00     0.010 C 
ENDBRANCH  35  36
BRANCH  35  39
ATOM     39  C   UNL     1      -5.242  -6.708  11.497  1.00  0.00     0.329 C 
ATOM     40  O   UNL     1      -5.970  -6.855  10.522  1.00  0.00    -0.250 OA
BRANCH  39  41
ATOM     41  O   UNL     1      -5.645  -6.945  12.782  1.00  0.00    -0.458 OA
BRANCH  41  42
ATOM     42  C   UNL     1      -5.678  -5.798  13.665  1.00  0.00     0.205 CG0
ATOM     43  C   UNL     1      -4.767  -6.112  14.850  1.00  0.00     0.056 C 
ATOM     44  G   UNL     1      -7.138  -5.549  14.093  1.00  0.00     0.000 G0
ENDBRANCH  41  42
ENDBRANCH  39  41
ENDBRANCH  35  39
ENDBRANCH  33  35
ENDBRANCH  23  31
ENDBRANCH  21  23
ENDBRANCH  19  21
ENDBRANCH  14  19
ENDBRANCH   7  14
ENDBRANCH   2   5
BRANCH   3  45
ATOM     45  C   UNL     1      -8.325  -2.219  12.645  1.00  0.00     0.171 C 
BRANCH  45  46
ATOM     46  N   UNL     1      -8.082  -3.626  12.934  1.00  0.00    -0.342 N 
ATOM     47  C   UNL     1      -7.420  -4.042  14.061  1.00  0.00     0.247 C 
ATOM     48  O   UNL     1      -7.050  -3.267  14.944  1.00  0.00    -0.273 OA
ATOM     49  H   UNL     1      -8.422  -4.306  12.256  1.00  0.00     0.164 HD
BRANCH  47  50
ATOM     50  C   UNL     1      -7.147  -5.551  14.135  1.00  0.00     0.212 CG0
ATOM     51  G   UNL     1      -5.701  -5.788  13.655  1.00  0.00     0.000 G0
BRANCH  50  52
ATOM     52  N   UNL     1      -7.358  -5.918  15.533  1.00  0.00    -0.339 N 
ATOM     53  C   UNL     1      -8.396  -6.711  15.957  1.00  0.00     0.243 C 
ATOM     54  O   UNL     1      -9.262  -7.132  15.195  1.00  0.00    -0.273 OA
ATOM     55  H   UNL     1      -6.737  -5.508  16.228  1.00  0.00     0.164 HD
BRANCH  53  56
ATOM     56  C   UNL     1      -8.464  -6.889  17.488  1.00  0.00     0.182 C 
BRANCH  56  57
ATOM     57  N   UNL     1      -7.620  -5.904  18.171  1.00  0.00    -0.344 N 
ATOM     58  C   UNL     1      -8.024  -4.608  18.379  1.00  0.00     0.220 C 
ATOM     59  O   UNL     1      -9.082  -4.165  17.947  1.00  0.00    -0.275 OA
ATOM     60  H   UNL     1      -6.784  -6.254  18.631  1.00  0.00     0.164 HD
BRANCH  58  61
ATOM     61  C   UNL     1      -7.016  -3.782  19.157  1.00  0.00     0.100 C 
BRANCH  61  62
ATOM     62  C   UNL     1      -6.233  -2.792  18.294  1.00  0.00     0.010 C 
BRANCH  62  63
ATOM     63  C   UNL     1      -6.760  -1.352  18.356  1.00  0.00     0.000 C 
BRANCH  63  64
ATOM     64  C   UNL     1      -7.003  -0.714  16.990  1.00  0.00    -0.003 C 
ATOM     65  C   UNL     1      -8.479  -0.414  16.772  1.00  0.00     0.004 C 
ENDBRANCH  63  64
ENDBRANCH  62  63
ENDBRANCH  61  62
ENDBRANCH  58  61
ENDBRANCH  56  57
BRANCH  56  66
ATOM     66  C   UNL     1      -8.128  -8.321  17.900  1.00  0.00     0.157 C 
BRANCH  66  67
ATOM     67  C   UNL     1      -6.668  -8.615  17.705  1.00  0.00     0.305 C 
ATOM     68  O   UNL     1      -6.160  -9.218  16.773  1.00  0.00    -0.252 OA
BRANCH  67  69
ATOM     69  O   UNL     1      -5.905  -8.083  18.679  1.00  0.00    -0.481 OA
ATOM     70  H   UNL     1      -5.131  -7.704  18.212  1.00  0.00     0.296 HD
ENDBRANCH  67  69
ENDBRANCH  66  67
ENDBRANCH  56  66
ENDBRANCH  53  56
ENDBRANCH  50  52
ENDBRANCH  47  50
ENDBRANCH  45  46
BRANCH  45  71
ATOM     71  C   UNL     1      -9.698  -2.004  11.999  1.00  0.00     0.037 C 
BRANCH  71  72
ATOM     72  C   UNL     1     -10.723  -3.040  12.466  1.00  0.00     0.026 C 
BRANCH  72  73
ATOM     73  C   UNL     1     -11.195  -3.922  11.312  1.00  0.00     0.146 C 
BRANCH  73  74
ATOM     74  N   UNL     1     -10.065  -4.118  10.409  1.00  0.00    -0.254 NA
ATOM     75  C   UNL     1      -9.486  -5.261  10.412  1.00  0.00     0.185 C 
ATOM     76  N   UNL     1      -8.444  -5.472   9.591  1.00  0.00    -0.370 N 
ATOM     77  N   UNL     1      -9.770  -6.350  11.149  1.00  0.00    -0.370 N 
ATOM     78  H   UNL     1      -8.159  -4.700   9.006  1.00  0.00     0.159 HD
ATOM     79  H   UNL     1      -7.855  -6.284   9.642  1.00  0.00     0.159 HD
ATOM     80  H   UNL     1     -10.533  -6.339  11.809  1.00  0.00     0.159 HD
ATOM     81  H   UNL     1      -9.317  -7.233  10.982  1.00  0.00     0.159 HD
ENDBRANCH  73  74
ENDBRANCH  72  73
ENDBRANCH  71  72
ENDBRANCH  45  71
ENDBRANCH   3  45
TORSDOF 20
ENDMDL
MODEL 10
REMARK VINA RESULT:    -5.901      2.886      5.417
REMARK INTER + INTRA:         -23.946
REMARK INTER:                 -18.126
REMARK INTRA:                  -5.820
REMARK UNBOUND:                -7.006
REMARK SMILES CCCCCC(=O)N[C@H](CC(=O)O)C(=O)N[C@H]1C(=O)N[C@H](CCCN=C(N)N)C(=O)N[C@@H]2CC[C@H](O)N(C2=O)[C@@H](CC(C)C)C(=O)N(C)[C@@H](Cc2ccccc2)C(=O)N[C@H](C(C)C)C(=O)O[C@@H]1C
REMARK SMILES IDX 30 1 31 2 29 3 32 5 35 6 37 7 34 8 38 9 33 10 39 11 36 12
REMARK SMILES IDX 40 14 41 15 42 16 43 17 44 18 45 19 46 20 47 21 48 22 49 23
REMARK SMILES IDX 50 24 51 25 52 26 56 27 53 28 55 29 54 30 57 31 58 32 59 33
REMARK SMILES IDX 60 35 61 36 62 37 63 38 64 39 65 40 66 41 67 42 68 43 21 45
REMARK SMILES IDX 20 46 18 47 19 48 17 50 16 52 14 53 15 54 9 56 8 57 6 58
REMARK SMILES IDX 7 59 5 61 4 62 3 63 2 64 1 65 10 66 11 67 12 68 13 69 22 71
REMARK SMILES IDX 23 72 24 73 25 74 26 75 27 76 28 77
REMARK H PARENT 31 4 36 13 59 34 20 49 16 55 8 60 13 70 27 78 27 79 28 80
REMARK H PARENT 28 81
REMARK Flexibility Score:  259.900
ROOT
ATOM      1  O   UNL     1      -9.893  -2.938   9.714  1.00  0.00    -0.273 OA
ATOM      2  N   UNL     1      -8.289  -4.442   9.086  1.00  0.00    -0.343 N 
ATOM      3  C   UNL     1      -9.287  -3.989   9.922  1.00  0.00     0.243 C 
ATOM      4  H   UNL     1      -7.822  -5.319   9.280  1.00  0.00     0.164 HD
ENDROOT
BRANCH   2   5
ATOM      5  C   UNL     1      -7.826  -3.623   7.971  1.00  0.00     0.171 C 
ATOM      6  C   UNL     1      -6.133  -4.191   5.687  1.00  0.00     0.214 C 
ATOM      7  N   UNL     1      -5.538  -3.694   6.906  1.00  0.00    -0.303 N 
ATOM      8  C   UNL     1      -7.558  -3.707   5.472  1.00  0.00     0.057 C 
ATOM      9  C   UNL     1      -6.282  -3.451   8.049  1.00  0.00     0.247 C 
ATOM     10  C   UNL     1      -8.419  -4.109   6.650  1.00  0.00     0.040 C 
ATOM     11  O   UNL     1      -5.753  -3.108   9.115  1.00  0.00    -0.272 OA
BRANCH   6  12
ATOM     12  O   UNL     1      -6.092  -5.598   5.731  1.00  0.00    -0.373 OA
ATOM     13  H   UNL     1      -6.304  -5.920   4.829  1.00  0.00     0.213 HD
ENDBRANCH   6  12
BRANCH   7  14
ATOM     14  C   UNL     1      -4.064  -3.590   6.939  1.00  0.00     0.177 C 
BRANCH  14  15
ATOM     15  C   UNL     1      -3.316  -4.591   6.037  1.00  0.00     0.038 C 
BRANCH  15  16
ATOM     16  C   UNL     1      -2.908  -5.969   6.605  1.00  0.00    -0.015 C 
ATOM     17  C   UNL     1      -3.228  -6.104   8.096  1.00  0.00     0.007 C 
ATOM     18  C   UNL     1      -1.401  -6.183   6.415  1.00  0.00     0.007 C 
ENDBRANCH  15  16
ENDBRANCH  14  15
BRANCH  14  19
ATOM     19  C   UNL     1      -3.629  -2.108   7.204  1.00  0.00     0.245 C 
ATOM     20  O   UNL     1      -4.140  -1.237   6.479  1.00  0.00    -0.272 OA
BRANCH  19  21
ATOM     21  N   UNL     1      -2.645  -1.742   8.105  1.00  0.00    -0.332 N 
ATOM     22  C   UNL     1      -2.181  -0.387   8.342  1.00  0.00     0.147 C 
BRANCH  21  23
ATOM     23  C   UNL     1      -1.991  -2.820   8.897  1.00  0.00     0.178 C 
BRANCH  23  24
ATOM     24  C   UNL     1      -0.467  -2.938   8.692  1.00  0.00     0.070 C 
BRANCH  24  25
ATOM     25  C   UNL     1       0.289  -3.832   9.648  1.00  0.00    -0.045 A 
ATOM     26  C   UNL     1       0.159  -5.225   9.583  1.00  0.00     0.004 A 
ATOM     27  C   UNL     1       1.132  -3.274  10.621  1.00  0.00     0.004 A 
ATOM     28  C   UNL     1       0.847  -6.043  10.481  1.00  0.00     0.000 A 
ATOM     29  C   UNL     1       1.821  -4.093  11.517  1.00  0.00     0.000 A 
ATOM     30  C   UNL     1       1.675  -5.477  11.448  1.00  0.00     0.000 A 
ENDBRANCH  24  25
ENDBRANCH  23  24
BRANCH  23  31
ATOM     31  C   UNL     1      -2.454  -2.850  10.373  1.00  0.00     0.243 C 
ATOM     32  O   UNL     1      -2.179  -1.982  11.197  1.00  0.00    -0.273 OA
ATOM     33  N   UNL     1      -3.057  -4.042  10.739  1.00  0.00    -0.341 N 
ATOM     34  H   UNL     1      -3.255  -4.730  10.009  1.00  0.00     0.164 HD
BRANCH  33  35
ATOM     35  C   UNL     1      -3.467  -4.340  12.114  1.00  0.00     0.194 C 
BRANCH  35  36
ATOM     36  C   UNL     1      -2.650  -5.478  12.788  1.00  0.00     0.017 C 
ATOM     37  C   UNL     1      -1.342  -4.944  13.396  1.00  0.00     0.010 C 
ATOM     38  C   UNL     1      -2.278  -6.609  11.821  1.00  0.00     0.010 C 
ENDBRANCH  35  36
BRANCH  35  39
ATOM     39  C   UNL     1      -4.999  -4.570  12.245  1.00  0.00     0.329 C 
ATOM     40  O   UNL     1      -5.506  -5.621  12.618  1.00  0.00    -0.250 OA
BRANCH  39  41
ATOM     41  O   UNL     1      -5.718  -3.438  11.979  1.00  0.00    -0.458 OA
BRANCH  41  42
ATOM     42  C   UNL     1      -6.278  -2.751  13.124  1.00  0.00     0.205 CG0
ATOM     43  C   UNL     1      -5.109  -2.271  13.982  1.00  0.00     0.056 C 
ATOM     44  G   UNL     1      -7.203  -3.726  13.879  1.00  0.00     0.000 G0
ENDBRANCH  41  42
ENDBRANCH  39  41
ENDBRANCH  35  39
ENDBRANCH  33  35
ENDBRANCH  23  31
ENDBRANCH  21  23
ENDBRANCH  19  21
ENDBRANCH  14  19
ENDBRANCH   7  14
ENDBRANCH   2   5
BRANCH   3  45
ATOM     45  C   UNL     1      -9.604  -4.896  11.118  1.00  0.00     0.171 C 
BRANCH  45  46
ATOM     46  N   UNL     1      -8.486  -4.739  12.039  1.00  0.00    -0.342 N 
ATOM     47  C   UNL     1      -8.524  -3.871  13.102  1.00  0.00     0.247 C 
ATOM     48  O   UNL     1      -9.526  -3.219  13.396  1.00  0.00    -0.273 OA
ATOM     49  H   UNL     1      -7.656  -5.302  11.865  1.00  0.00     0.164 HD
BRANCH  47  50
ATOM     50  C   UNL     1      -7.211  -3.747  13.887  1.00  0.00     0.212 CG0
ATOM     51  G   UNL     1      -6.310  -2.745  13.138  1.00  0.00     0.000 G0
BRANCH  50  52
ATOM     52  N   UNL     1      -7.596  -3.292  15.220  1.00  0.00    -0.339 N 
ATOM     53  C   UNL     1      -7.350  -4.010  16.365  1.00  0.00     0.243 C 
ATOM     54  O   UNL     1      -6.831  -5.123  16.349  1.00  0.00    -0.273 OA
ATOM     55  H   UNL     1      -8.129  -2.427  15.289  1.00  0.00     0.164 HD
BRANCH  53  56
ATOM     56  C   UNL     1      -7.925  -3.370  17.644  1.00  0.00     0.182 C 
BRANCH  56  57
ATOM     57  N   UNL     1      -7.121  -2.217  18.063  1.00  0.00    -0.344 N 
ATOM     58  C   UNL     1      -7.383  -0.940  17.628  1.00  0.00     0.220 C 
ATOM     59  O   UNL     1      -8.257  -0.685  16.807  1.00  0.00    -0.275 OA
ATOM     60  H   UNL     1      -6.456  -2.368  18.817  1.00  0.00     0.164 HD
BRANCH  58  61
ATOM     61  C   UNL     1      -6.462   0.102  18.235  1.00  0.00     0.100 C 
BRANCH  61  62
ATOM     62  C   UNL     1      -7.028   1.522  18.195  1.00  0.00     0.010 C 
BRANCH  62  63
ATOM     63  C   UNL     1      -6.074   2.561  17.591  1.00  0.00     0.000 C 
BRANCH  63  64
ATOM     64  C   UNL     1      -5.692   3.691  18.545  1.00  0.00    -0.003 C 
ATOM     65  C   UNL     1      -5.799   3.251  19.998  1.00  0.00     0.004 C 
ENDBRANCH  63  64
ENDBRANCH  62  63
ENDBRANCH  61  62
ENDBRANCH  58  61
ENDBRANCH  56  57
BRANCH  56  66
ATOM     66  C   UNL     1      -8.084  -4.398  18.763  1.00  0.00     0.157 C 
BRANCH  66  67
ATOM     67  C   UNL     1      -6.958  -4.305  19.752  1.00  0.00     0.305 C 
ATOM     68  O   UNL     1      -7.055  -4.204  20.965  1.00  0.00    -0.252 OA
BRANCH  67  69
ATOM     69  O   UNL     1      -5.751  -4.395  19.162  1.00  0.00    -0.481 OA
ATOM     70  H   UNL     1      -5.342  -5.196  19.553  1.00  0.00     0.296 HD
ENDBRANCH  67  69
ENDBRANCH  66  67
ENDBRANCH  56  66
ENDBRANCH  53  56
ENDBRANCH  50  52
ENDBRANCH  47  50
ENDBRANCH  45  46
BRANCH  45  71
ATOM     71  C   UNL     1      -9.757  -6.350  10.659  1.00  0.00     0.037 C 
BRANCH  71  72
ATOM     72  C   UNL     1      -9.266  -7.343  11.717  1.00  0.00     0.026 C 
BRANCH  72  73
ATOM     73  C   UNL     1      -8.850  -8.671  11.088  1.00  0.00     0.146 C 
BRANCH  73  74
ATOM     74  N   UNL     1      -7.468  -8.537  10.636  1.00  0.00    -0.254 NA
ATOM     75  C   UNL     1      -6.540  -8.607  11.518  1.00  0.00     0.185 C 
ATOM     76  N   UNL     1      -5.259  -8.489  11.132  1.00  0.00    -0.370 N 
ATOM     77  N   UNL     1      -6.648  -8.790  12.845  1.00  0.00    -0.370 N 
ATOM     78  H   UNL     1      -5.089  -8.341  10.148  1.00  0.00     0.159 HD
ATOM     79  H   UNL     1      -4.495  -8.388  11.776  1.00  0.00     0.159 HD
ATOM     80  H   UNL     1      -7.553  -8.899  13.277  1.00  0.00     0.159 HD
ATOM     81  H   UNL     1      -5.839  -8.943  13.425  1.00  0.00     0.159 HD
ENDBRANCH  73  74
ENDBRANCH  72  73
ENDBRANCH  71  72
ENDBRANCH  45  71
ENDBRANCH   3  45
TORSDOF 20
ENDMDL
