MODEL 1
REMARK VINA RESULT:    -6.541      0.000      0.000
REMARK INTER + INTRA:         -25.948
REMARK INTER:                 -18.778
REMARK INTRA:                  -7.171
REMARK UNBOUND:                -7.171
REMARK SMILES CCCCCC(=O)N[C@H](CC(=O)O)C(=O)N[C@H]1C(=O)N[C@H](CCCN=C(N)N)C(=O)N[C@@H]2CC[C@H](O)N(C2=O)[C@@H](CC(C)C)C(=O)N(C)[C@@H](Cc2ccccc2)C(=O)N[C@H](C(C)C)C(=O)O[C@@H]1C
REMARK SMILES IDX 30 1 31 2 29 3 32 5 35 6 37 7 34 8 38 9 33 10 39 11 36 12
REMARK SMILES IDX 40 14 41 15 42 16 43 17 44 18 45 19 46 20 47 21 48 22 49 23
REMARK SMILES IDX 50 24 51 25 52 26 56 27 53 28 55 29 54 30 57 31 58 32 59 33
REMARK SMILES IDX 60 35 61 36 62 37 63 38 64 39 65 40 66 41 67 42 68 43 21 45
REMARK SMILES IDX 20 46 18 47 19 48 17 50 16 52 14 53 15 54 9 56 8 57 6 58
REMARK SMILES IDX 7 59 5 61 4 62 3 63 2 64 1 65 10 66 11 67 12 68 13 69 22 71
REMARK SMILES IDX 23 72 24 73 25 74 26 75 27 76 28 77
REMARK H PARENT 31 4 36 13 59 34 20 49 16 55 8 60 13 70 27 78 27 79 28 80
REMARK H PARENT 28 81
REMARK Flexibility Score:  259.900
ROOT
ATOM      1  O   UNL     1      -3.668   5.231  10.755  1.00  0.00    -0.273 OA
ATOM      2  N   UNL     1      -2.512   3.551  11.788  1.00  0.00    -0.343 N 
ATOM      3  C   UNL     1      -3.527   4.480  11.720  1.00  0.00     0.243 C 
ATOM      4  H   UNL     1      -2.435   2.939  12.592  1.00  0.00     0.164 HD
ENDROOT
BRANCH   2   5
ATOM      5  C   UNL     1      -1.480   3.502  10.758  1.00  0.00     0.171 C 
ATOM      6  C   UNL     1      -1.239   4.762   8.158  1.00  0.00     0.214 C 
ATOM      7  N   UNL     1      -1.852   3.458   8.262  1.00  0.00    -0.303 N 
ATOM      8  C   UNL     1      -0.186   5.017   9.225  1.00  0.00     0.057 C 
ATOM      9  C   UNL     1      -2.045   2.823   9.478  1.00  0.00     0.247 C 
ATOM     10  C   UNL     1      -0.799   4.860  10.599  1.00  0.00     0.040 C 
ATOM     11  O   UNL     1      -2.649   1.746   9.567  1.00  0.00    -0.272 OA
BRANCH   6  12
ATOM     12  O   UNL     1      -2.262   5.727   8.236  1.00  0.00    -0.373 OA
ATOM     13  H   UNL     1      -2.949   5.470   7.584  1.00  0.00     0.213 HD
ENDBRANCH   6  12
BRANCH   7  14
ATOM     14  C   UNL     1      -2.409   2.879   7.021  1.00  0.00     0.177 C 
BRANCH  14  15
ATOM     15  C   UNL     1      -1.607   1.704   6.428  1.00  0.00     0.038 C 
BRANCH  15  16
ATOM     16  C   UNL     1      -0.189   1.405   6.962  1.00  0.00    -0.015 C 
ATOM     17  C   UNL     1       0.904   1.761   5.949  1.00  0.00     0.007 C 
ATOM     18  C   UNL     1      -0.066  -0.087   7.296  1.00  0.00     0.007 C 
ENDBRANCH  15  16
ENDBRANCH  14  15
BRANCH  14  19
ATOM     19  C   UNL     1      -3.972   3.005   7.016  1.00  0.00     0.245 C 
ATOM     20  O   UNL     1      -4.463   3.902   7.721  1.00  0.00    -0.272 OA
BRANCH  19  21
ATOM     21  N   UNL     1      -4.815   2.117   6.372  1.00  0.00    -0.332 N 
ATOM     22  C   UNL     1      -4.954   1.981   4.933  1.00  0.00     0.147 C 
BRANCH  21  23
ATOM     23  C   UNL     1      -5.664   1.228   7.212  1.00  0.00     0.178 C 
BRANCH  23  24
ATOM     24  C   UNL     1      -7.020   0.848   6.583  1.00  0.00     0.070 C 
BRANCH  24  25
ATOM     25  C   UNL     1      -7.981   0.060   7.443  1.00  0.00    -0.045 A 
ATOM     26  C   UNL     1      -7.916  -1.338   7.497  1.00  0.00     0.004 A 
ATOM     27  C   UNL     1      -8.959   0.723   8.200  1.00  0.00     0.004 A 
ATOM     28  C   UNL     1      -8.819  -2.059   8.281  1.00  0.00     0.000 A 
ATOM     29  C   UNL     1      -9.860   0.001   8.984  1.00  0.00     0.000 A 
ATOM     30  C   UNL     1      -9.790  -1.391   9.022  1.00  0.00     0.000 A 
ENDBRANCH  24  25
ENDBRANCH  23  24
BRANCH  23  31
ATOM     31  C   UNL     1      -4.877   0.047   7.828  1.00  0.00     0.243 C 
ATOM     32  O   UNL     1      -4.217  -0.755   7.173  1.00  0.00    -0.273 OA
ATOM     33  N   UNL     1      -5.130  -0.142   9.176  1.00  0.00    -0.341 N 
ATOM     34  H   UNL     1      -5.692   0.557   9.668  1.00  0.00     0.164 HD
BRANCH  33  35
ATOM     35  C   UNL     1      -4.588  -1.270   9.940  1.00  0.00     0.194 C 
BRANCH  35  36
ATOM     36  C   UNL     1      -4.633  -2.628   9.184  1.00  0.00     0.017 C 
ATOM     37  C   UNL     1      -5.920  -3.406   9.508  1.00  0.00     0.010 C 
ATOM     38  C   UNL     1      -3.447  -3.543   9.516  1.00  0.00     0.010 C 
ENDBRANCH  35  36
BRANCH  35  39
ATOM     39  C   UNL     1      -5.202  -1.378  11.364  1.00  0.00     0.329 C 
ATOM     40  O   UNL     1      -4.671  -1.968  12.297  1.00  0.00    -0.250 OA
BRANCH  39  41
ATOM     41  O   UNL     1      -6.363  -0.665  11.485  1.00  0.00    -0.458 OA
BRANCH  41  42
ATOM     42  C   UNL     1      -6.565   0.022  12.743  1.00  0.00     0.205 CG0
ATOM     43  C   UNL     1      -7.739  -0.656  13.447  1.00  0.00     0.056 C 
ATOM     44  G   UNL     1      -6.834   1.512  12.451  1.00  0.00     0.000 G0
ENDBRANCH  41  42
ENDBRANCH  39  41
ENDBRANCH  35  39
ENDBRANCH  33  35
ENDBRANCH  23  31
ENDBRANCH  21  23
ENDBRANCH  19  21
ENDBRANCH  14  19
ENDBRANCH   7  14
ENDBRANCH   2   5
BRANCH   3  45
ATOM     45  C   UNL     1      -4.483   4.498  12.921  1.00  0.00     0.171 C 
BRANCH  45  46
ATOM     46  N   UNL     1      -5.587   3.619  12.559  1.00  0.00    -0.342 N 
ATOM     47  C   UNL     1      -5.693   2.336  13.037  1.00  0.00     0.247 C 
ATOM     48  O   UNL     1      -4.908   1.862  13.858  1.00  0.00    -0.273 OA
ATOM     49  H   UNL     1      -6.290   3.991  11.924  1.00  0.00     0.164 HD
BRANCH  47  50
ATOM     50  C   UNL     1      -6.852   1.518  12.450  1.00  0.00     0.212 CG0
ATOM     51  G   UNL     1      -6.562   0.030  12.728  1.00  0.00     0.000 G0
BRANCH  50  52
ATOM     52  N   UNL     1      -8.053   2.008  13.121  1.00  0.00    -0.339 N 
ATOM     53  C   UNL     1      -9.104   2.595  12.458  1.00  0.00     0.243 C 
ATOM     54  O   UNL     1      -9.090   2.802  11.248  1.00  0.00    -0.273 OA
ATOM     55  H   UNL     1      -8.077   1.965  14.138  1.00  0.00     0.164 HD
BRANCH  53  56
ATOM     56  C   UNL     1     -10.222   3.110  13.386  1.00  0.00     0.182 C 
BRANCH  56  57
ATOM     57  N   UNL     1      -9.802   4.324  14.094  1.00  0.00    -0.344 N 
ATOM     58  C   UNL     1     -10.153   5.582  13.669  1.00  0.00     0.220 C 
ATOM     59  O   UNL     1     -10.777   5.782  12.633  1.00  0.00    -0.275 OA
ATOM     60  H   UNL     1      -9.373   4.199  15.007  1.00  0.00     0.164 HD
BRANCH  58  61
ATOM     61  C   UNL     1      -9.658   6.686  14.585  1.00  0.00     0.100 C 
BRANCH  61  62
ATOM     62  C   UNL     1      -9.324   6.210  15.999  1.00  0.00     0.010 C 
BRANCH  62  63
ATOM     63  C   UNL     1      -7.919   6.598  16.477  1.00  0.00     0.000 C 
BRANCH  63  64
ATOM     64  C   UNL     1      -7.726   6.513  17.990  1.00  0.00    -0.003 C 
ATOM     65  C   UNL     1      -8.955   5.932  18.675  1.00  0.00     0.004 C 
ENDBRANCH  63  64
ENDBRANCH  62  63
ENDBRANCH  61  62
ENDBRANCH  58  61
ENDBRANCH  56  57
BRANCH  56  66
ATOM     66  C   UNL     1     -10.701   2.021  14.344  1.00  0.00     0.157 C 
BRANCH  66  67
ATOM     67  C   UNL     1     -11.508   0.979  13.624  1.00  0.00     0.305 C 
ATOM     68  O   UNL     1     -12.343   1.171  12.754  1.00  0.00    -0.252 OA
BRANCH  67  69
ATOM     69  O   UNL     1     -11.182  -0.272  14.002  1.00  0.00    -0.481 OA
ATOM     70  H   UNL     1     -11.626  -0.854  13.349  1.00  0.00     0.296 HD
ENDBRANCH  67  69
ENDBRANCH  66  67
ENDBRANCH  56  66
ENDBRANCH  53  56
ENDBRANCH  50  52
ENDBRANCH  47  50
ENDBRANCH  45  46
BRANCH  45  71
ATOM     71  C   UNL     1      -4.965   5.926  13.198  1.00  0.00     0.037 C 
BRANCH  71  72
ATOM     72  C   UNL     1      -6.492   6.035  13.165  1.00  0.00     0.026 C 
BRANCH  72  73
ATOM     73  C   UNL     1      -6.978   6.714  11.887  1.00  0.00     0.146 C 
BRANCH  73  74
ATOM     74  N   UNL     1      -7.343   5.668  10.936  1.00  0.00    -0.254 NA
ATOM     75  C   UNL     1      -6.737   5.647   9.807  1.00  0.00     0.185 C 
ATOM     76  N   UNL     1      -7.051   4.696   8.912  1.00  0.00    -0.370 N 
ATOM     77  N   UNL     1      -5.781   6.472   9.346  1.00  0.00    -0.370 N 
ATOM     78  H   UNL     1      -7.768   4.037   9.177  1.00  0.00     0.159 HD
ATOM     79  H   UNL     1      -6.726   4.703   7.961  1.00  0.00     0.159 HD
ATOM     80  H   UNL     1      -5.442   7.234   9.914  1.00  0.00     0.159 HD
ATOM     81  H   UNL     1      -5.295   6.287   8.484  1.00  0.00     0.159 HD
ENDBRANCH  73  74
ENDBRANCH  72  73
ENDBRANCH  71  72
ENDBRANCH  45  71
ENDBRANCH   3  45
TORSDOF 20
ENDMDL
MODEL 2
REMARK VINA RESULT:    -6.299      1.642      2.234
REMARK INTER + INTRA:         -25.254
REMARK INTER:                 -19.318
REMARK INTRA:                  -5.936
REMARK UNBOUND:                -7.171
REMARK SMILES CCCCCC(=O)N[C@H](CC(=O)O)C(=O)N[C@H]1C(=O)N[C@H](CCCN=C(N)N)C(=O)N[C@@H]2CC[C@H](O)N(C2=O)[C@@H](CC(C)C)C(=O)N(C)[C@@H](Cc2ccccc2)C(=O)N[C@H](C(C)C)C(=O)O[C@@H]1C
REMARK SMILES IDX 30 1 31 2 29 3 32 5 35 6 37 7 34 8 38 9 33 10 39 11 36 12
REMARK SMILES IDX 40 14 41 15 42 16 43 17 44 18 45 19 46 20 47 21 48 22 49 23
REMARK SMILES IDX 50 24 51 25 52 26 56 27 53 28 55 29 54 30 57 31 58 32 59 33
REMARK SMILES IDX 60 35 61 36 62 37 63 38 64 39 65 40 66 41 67 42 68 43 21 45
REMARK SMILES IDX 20 46 18 47 19 48 17 50 16 52 14 53 15 54 9 56 8 57 6 58
REMARK SMILES IDX 7 59 5 61 4 62 3 63 2 64 1 65 10 66 11 67 12 68 13 69 22 71
REMARK SMILES IDX 23 72 24 73 25 74 26 75 27 76 28 77
REMARK H PARENT 31 4 36 13 59 34 20 49 16 55 8 60 13 70 27 78 27 79 28 80
REMARK H PARENT 28 81
REMARK Flexibility Score:  259.900
ROOT
ATOM      1  O   UNL     1      -4.011   3.881  10.506  1.00  0.00    -0.273 OA
ATOM      2  N   UNL     1      -2.096   3.286  11.607  1.00  0.00    -0.343 N 
ATOM      3  C   UNL     1      -3.462   3.264  11.420  1.00  0.00     0.243 C 
ATOM      4  H   UNL     1      -1.678   2.755  12.361  1.00  0.00     0.164 HD
ENDROOT
BRANCH   2   5
ATOM      5  C   UNL     1      -1.249   4.148  10.791  1.00  0.00     0.171 C 
ATOM      6  C   UNL     1      -1.831   6.030   8.663  1.00  0.00     0.214 C 
ATOM      7  N   UNL     1      -1.544   4.653   8.335  1.00  0.00    -0.303 N 
ATOM      8  C   UNL     1      -1.129   6.506   9.925  1.00  0.00     0.057 C 
ATOM      9  C   UNL     1      -1.308   3.692   9.305  1.00  0.00     0.247 C 
ATOM     10  C   UNL     1      -1.515   5.622  11.091  1.00  0.00     0.040 C 
ATOM     11  O   UNL     1      -1.149   2.498   9.020  1.00  0.00    -0.272 OA
BRANCH   6  12
ATOM     12  O   UNL     1      -3.227   6.158   8.799  1.00  0.00    -0.373 OA
ATOM     13  H   UNL     1      -3.434   6.066   9.753  1.00  0.00     0.213 HD
ENDBRANCH   6  12
BRANCH   7  14
ATOM     14  C   UNL     1      -1.657   4.265   6.913  1.00  0.00     0.177 C 
BRANCH  14  15
ATOM     15  C   UNL     1      -0.317   4.092   6.172  1.00  0.00     0.038 C 
BRANCH  15  16
ATOM     16  C   UNL     1       0.106   5.131   5.111  1.00  0.00    -0.015 C 
ATOM     17  C   UNL     1       1.355   4.699   4.335  1.00  0.00     0.007 C 
ATOM     18  C   UNL     1       0.403   6.474   5.789  1.00  0.00     0.007 C 
ENDBRANCH  15  16
ENDBRANCH  14  15
BRANCH  14  19
ATOM     19  C   UNL     1      -2.938   3.390   6.688  1.00  0.00     0.245 C 
ATOM     20  O   UNL     1      -4.032   3.976   6.744  1.00  0.00    -0.272 OA
BRANCH  19  21
ATOM     21  N   UNL     1      -2.916   2.014   6.546  1.00  0.00    -0.332 N 
ATOM     22  C   UNL     1      -1.852   1.247   5.924  1.00  0.00     0.147 C 
BRANCH  21  23
ATOM     23  C   UNL     1      -4.082   1.243   7.061  1.00  0.00     0.178 C 
BRANCH  23  24
ATOM     24  C   UNL     1      -4.947   0.577   5.972  1.00  0.00     0.070 C 
BRANCH  24  25
ATOM     25  C   UNL     1      -6.279   0.008   6.403  1.00  0.00    -0.045 A 
ATOM     26  C   UNL     1      -6.577  -1.347   6.210  1.00  0.00     0.004 A 
ATOM     27  C   UNL     1      -7.241   0.835   7.002  1.00  0.00     0.004 A 
ATOM     28  C   UNL     1      -7.817  -1.861   6.596  1.00  0.00     0.000 A 
ATOM     29  C   UNL     1      -8.479   0.319   7.388  1.00  0.00     0.000 A 
ATOM     30  C   UNL     1      -8.767  -1.028   7.182  1.00  0.00     0.000 A 
ENDBRANCH  24  25
ENDBRANCH  23  24
BRANCH  23  31
ATOM     31  C   UNL     1      -3.721   0.329   8.256  1.00  0.00     0.243 C 
ATOM     32  O   UNL     1      -3.336   0.744   9.346  1.00  0.00    -0.273 OA
ATOM     33  N   UNL     1      -3.691  -1.017   7.934  1.00  0.00    -0.341 N 
ATOM     34  H   UNL     1      -4.018  -1.301   7.007  1.00  0.00     0.164 HD
BRANCH  33  35
ATOM     35  C   UNL     1      -3.260  -2.054   8.875  1.00  0.00     0.194 C 
BRANCH  35  36
ATOM     36  C   UNL     1      -2.856  -3.396   8.200  1.00  0.00     0.017 C 
ATOM     37  C   UNL     1      -3.867  -3.803   7.115  1.00  0.00     0.010 C 
ATOM     38  C   UNL     1      -2.749  -4.562   9.190  1.00  0.00     0.010 C 
ENDBRANCH  35  36
BRANCH  35  39
ATOM     39  C   UNL     1      -4.274  -2.270  10.033  1.00  0.00     0.329 C 
ATOM     40  O   UNL     1      -3.966  -2.674  11.148  1.00  0.00    -0.250 OA
BRANCH  39  41
ATOM     41  O   UNL     1      -5.539  -1.875   9.696  1.00  0.00    -0.458 OA
BRANCH  41  42
ATOM     42  C   UNL     1      -6.449  -1.633  10.795  1.00  0.00     0.205 CG0
ATOM     43  C   UNL     1      -7.730  -2.411  10.504  1.00  0.00     0.056 C 
ATOM     44  G   UNL     1      -6.694  -0.114  10.905  1.00  0.00     0.000 G0
ENDBRANCH  41  42
ENDBRANCH  39  41
ENDBRANCH  35  39
ENDBRANCH  33  35
ENDBRANCH  23  31
ENDBRANCH  21  23
ENDBRANCH  19  21
ENDBRANCH  14  19
ENDBRANCH   7  14
ENDBRANCH   2   5
BRANCH   3  45
ATOM     45  C   UNL     1      -4.248   2.400  12.415  1.00  0.00     0.171 C 
BRANCH  45  46
ATOM     46  N   UNL     1      -5.274   1.728  11.629  1.00  0.00    -0.342 N 
ATOM     47  C   UNL     1      -5.739   0.476  11.942  1.00  0.00     0.247 C 
ATOM     48  O   UNL     1      -5.379  -0.139  12.947  1.00  0.00    -0.273 OA
ATOM     49  H   UNL     1      -5.641   2.226  10.820  1.00  0.00     0.164 HD
BRANCH  47  50
ATOM     50  C   UNL     1      -6.728  -0.122  10.931  1.00  0.00     0.212 CG0
ATOM     51  G   UNL     1      -6.424  -1.629  10.816  1.00  0.00     0.000 G0
BRANCH  50  52
ATOM     52  N   UNL     1      -8.055   0.160  11.470  1.00  0.00    -0.339 N 
ATOM     53  C   UNL     1      -8.812   1.241  11.089  1.00  0.00     0.243 C 
ATOM     54  O   UNL     1      -8.404   2.089  10.299  1.00  0.00    -0.273 OA
ATOM     55  H   UNL     1      -8.403  -0.445  12.212  1.00  0.00     0.164 HD
BRANCH  53  56
ATOM     56  C   UNL     1     -10.141   1.379  11.858  1.00  0.00     0.182 C 
BRANCH  56  57
ATOM     57  N   UNL     1      -9.947   2.097  13.122  1.00  0.00    -0.344 N 
ATOM     58  C   UNL     1     -10.696   3.196  13.467  1.00  0.00     0.220 C 
ATOM     59  O   UNL     1     -11.526   3.696  12.716  1.00  0.00    -0.275 OA
ATOM     60  H   UNL     1      -9.344   1.658  13.813  1.00  0.00     0.164 HD
BRANCH  58  61
ATOM     61  C   UNL     1     -10.363   3.741  14.844  1.00  0.00     0.100 C 
BRANCH  61  62
ATOM     62  C   UNL     1      -9.466   4.979  14.816  1.00  0.00     0.010 C 
BRANCH  62  63
ATOM     63  C   UNL     1      -9.620   5.893  16.038  1.00  0.00     0.000 C 
BRANCH  63  64
ATOM     64  C   UNL     1      -8.370   5.989  16.911  1.00  0.00    -0.003 C 
ATOM     65  C   UNL     1      -8.585   5.327  18.264  1.00  0.00     0.004 C 
ENDBRANCH  63  64
ENDBRANCH  62  63
ENDBRANCH  61  62
ENDBRANCH  58  61
ENDBRANCH  56  57
BRANCH  56  66
ATOM     66  C   UNL     1     -10.813   0.023  12.063  1.00  0.00     0.157 C 
BRANCH  66  67
ATOM     67  C   UNL     1     -10.654  -0.454  13.478  1.00  0.00     0.305 C 
ATOM     68  O   UNL     1     -11.493  -0.410  14.365  1.00  0.00    -0.252 OA
BRANCH  67  69
ATOM     69  O   UNL     1      -9.451  -1.018  13.696  1.00  0.00    -0.481 OA
ATOM     70  H   UNL     1      -8.864  -0.626  13.015  1.00  0.00     0.296 HD
ENDBRANCH  67  69
ENDBRANCH  66  67
ENDBRANCH  56  66
ENDBRANCH  53  56
ENDBRANCH  50  52
ENDBRANCH  47  50
ENDBRANCH  45  46
BRANCH  45  71
ATOM     71  C   UNL     1      -4.860   3.276  13.514  1.00  0.00     0.037 C 
BRANCH  71  72
ATOM     72  C   UNL     1      -4.801   4.765  13.164  1.00  0.00     0.026 C 
BRANCH  72  73
ATOM     73  C   UNL     1      -6.148   5.447  13.390  1.00  0.00     0.146 C 
BRANCH  73  74
ATOM     74  N   UNL     1      -7.060   4.994  12.344  1.00  0.00    -0.254 NA
ATOM     75  C   UNL     1      -6.875   5.437  11.155  1.00  0.00     0.185 C 
ATOM     76  N   UNL     1      -7.696   5.038  10.171  1.00  0.00    -0.370 N 
ATOM     77  N   UNL     1      -5.934   6.287  10.708  1.00  0.00    -0.370 N 
ATOM     78  H   UNL     1      -8.438   4.401  10.424  1.00  0.00     0.159 HD
ATOM     79  H   UNL     1      -7.703   5.450   9.255  1.00  0.00     0.159 HD
ATOM     80  H   UNL     1      -5.244   6.667  11.337  1.00  0.00     0.159 HD
ATOM     81  H   UNL     1      -5.816   6.474   9.725  1.00  0.00     0.159 HD
ENDBRANCH  73  74
ENDBRANCH  72  73
ENDBRANCH  71  72
ENDBRANCH  45  71
ENDBRANCH   3  45
TORSDOF 20
ENDMDL
MODEL 3
REMARK VINA RESULT:    -6.153      3.442      7.616
REMARK INTER + INTRA:         -24.833
REMARK INTER:                 -19.752
REMARK INTRA:                  -5.081
REMARK UNBOUND:                -7.171
REMARK SMILES CCCCCC(=O)N[C@H](CC(=O)O)C(=O)N[C@H]1C(=O)N[C@H](CCCN=C(N)N)C(=O)N[C@@H]2CC[C@H](O)N(C2=O)[C@@H](CC(C)C)C(=O)N(C)[C@@H](Cc2ccccc2)C(=O)N[C@H](C(C)C)C(=O)O[C@@H]1C
REMARK SMILES IDX 30 1 31 2 29 3 32 5 35 6 37 7 34 8 38 9 33 10 39 11 36 12
REMARK SMILES IDX 40 14 41 15 42 16 43 17 44 18 45 19 46 20 47 21 48 22 49 23
REMARK SMILES IDX 50 24 51 25 52 26 56 27 53 28 55 29 54 30 57 31 58 32 59 33
REMARK SMILES IDX 60 35 61 36 62 37 63 38 64 39 65 40 66 41 67 42 68 43 21 45
REMARK SMILES IDX 20 46 18 47 19 48 17 50 16 52 14 53 15 54 9 56 8 57 6 58
REMARK SMILES IDX 7 59 5 61 4 62 3 63 2 64 1 65 10 66 11 67 12 68 13 69 22 71
REMARK SMILES IDX 23 72 24 73 25 74 26 75 27 76 28 77
REMARK H PARENT 31 4 36 13 59 34 20 49 16 55 8 60 13 70 27 78 27 79 28 80
REMARK H PARENT 28 81
REMARK Flexibility Score:  259.900
ROOT
ATOM      1  O   UNL     1      -9.572   5.472  14.690  1.00  0.00    -0.273 OA
ATOM      2  N   UNL     1      -8.121   3.906  13.870  1.00  0.00    -0.343 N 
ATOM      3  C   UNL     1      -8.432   5.163  14.341  1.00  0.00     0.243 C 
ATOM      4  H   UNL     1      -7.169   3.683  13.605  1.00  0.00     0.164 HD
ENDROOT
BRANCH   2   5
ATOM      5  C   UNL     1      -9.169   2.914  13.652  1.00  0.00     0.171 C 
ATOM      6  C   UNL     1      -9.182   0.017  13.752  1.00  0.00     0.214 C 
ATOM      7  N   UNL     1      -8.908   0.683  12.500  1.00  0.00    -0.303 N 
ATOM      8  C   UNL     1     -10.100   0.811  14.668  1.00  0.00     0.057 C 
ATOM      9  C   UNL     1      -8.836   2.063  12.394  1.00  0.00     0.247 C 
ATOM     10  C   UNL     1      -9.496   2.170  14.946  1.00  0.00     0.040 C 
ATOM     11  O   UNL     1      -8.515   2.623  11.337  1.00  0.00    -0.272 OA
BRANCH   6  12
ATOM     12  O   UNL     1      -7.949  -0.232  14.387  1.00  0.00    -0.373 OA
ATOM     13  H   UNL     1      -7.862   0.422  15.112  1.00  0.00     0.213 HD
ENDBRANCH   6  12
BRANCH   7  14
ATOM     14  C   UNL     1      -8.556  -0.173  11.348  1.00  0.00     0.177 C 
BRANCH  14  15
ATOM     15  C   UNL     1      -9.495  -0.055  10.132  1.00  0.00     0.038 C 
BRANCH  15  16
ATOM     16  C   UNL     1     -11.017  -0.237  10.325  1.00  0.00    -0.015 C 
ATOM     17  C   UNL     1     -11.588  -1.353   9.444  1.00  0.00     0.007 C 
ATOM     18  C   UNL     1     -11.744   1.068   9.978  1.00  0.00     0.007 C 
ENDBRANCH  15  16
ENDBRANCH  14  15
BRANCH  14  19
ATOM     19  C   UNL     1      -7.004  -0.380  11.278  1.00  0.00     0.245 C 
ATOM     20  O   UNL     1      -6.323   0.198  12.141  1.00  0.00    -0.272 OA
BRANCH  19  21
ATOM     21  N   UNL     1      -6.362  -1.065  10.261  1.00  0.00    -0.332 N 
ATOM     22  C   UNL     1      -6.806  -2.319   9.679  1.00  0.00     0.147 C 
BRANCH  21  23
ATOM     23  C   UNL     1      -5.104  -0.484   9.717  1.00  0.00     0.178 C 
BRANCH  23  24
ATOM     24  C   UNL     1      -4.534  -1.218   8.486  1.00  0.00     0.070 C 
BRANCH  24  25
ATOM     25  C   UNL     1      -3.032  -1.222   8.321  1.00  0.00    -0.045 A 
ATOM     26  C   UNL     1      -2.200  -0.680   9.309  1.00  0.00     0.004 A 
ATOM     27  C   UNL     1      -2.448  -1.768   7.168  1.00  0.00     0.004 A 
ATOM     28  C   UNL     1      -0.814  -0.673   9.142  1.00  0.00     0.000 A 
ATOM     29  C   UNL     1      -1.062  -1.761   7.003  1.00  0.00     0.000 A 
ATOM     30  C   UNL     1      -0.246  -1.210   7.989  1.00  0.00     0.000 A 
ENDBRANCH  24  25
ENDBRANCH  23  24
BRANCH  23  31
ATOM     31  C   UNL     1      -5.155   1.057   9.592  1.00  0.00     0.243 C 
ATOM     32  O   UNL     1      -5.813   1.655   8.744  1.00  0.00    -0.273 OA
ATOM     33  N   UNL     1      -4.245   1.709  10.406  1.00  0.00    -0.341 N 
ATOM     34  H   UNL     1      -3.722   1.156  11.089  1.00  0.00     0.164 HD
BRANCH  33  35
ATOM     35  C   UNL     1      -4.035   3.159  10.368  1.00  0.00     0.194 C 
BRANCH  35  36
ATOM     36  C   UNL     1      -2.566   3.595  10.635  1.00  0.00     0.017 C 
ATOM     37  C   UNL     1      -1.726   3.548   9.347  1.00  0.00     0.010 C 
ATOM     38  C   UNL     1      -1.857   2.721  11.678  1.00  0.00     0.010 C 
ENDBRANCH  35  36
BRANCH  35  39
ATOM     39  C   UNL     1      -5.042   3.933  11.264  1.00  0.00     0.329 C 
ATOM     40  O   UNL     1      -5.537   3.479  12.289  1.00  0.00    -0.250 OA
BRANCH  39  41
ATOM     41  O   UNL     1      -5.248   5.212  10.828  1.00  0.00    -0.458 OA
BRANCH  41  42
ATOM     42  C   UNL     1      -6.584   5.524  10.365  1.00  0.00     0.205 CG0
ATOM     43  C   UNL     1      -6.624   5.235   8.866  1.00  0.00     0.056 C 
ATOM     44  G   UNL     1      -6.885   7.001  10.689  1.00  0.00     0.000 G0
ENDBRANCH  41  42
ENDBRANCH  39  41
ENDBRANCH  35  39
ENDBRANCH  33  35
ENDBRANCH  23  31
ENDBRANCH  21  23
ENDBRANCH  19  21
ENDBRANCH  14  19
ENDBRANCH   7  14
ENDBRANCH   2   5
BRANCH   3  45
ATOM     45  C   UNL     1      -7.256   6.145  14.420  1.00  0.00     0.171 C 
BRANCH  45  46
ATOM     46  N   UNL     1      -6.787   6.309  13.050  1.00  0.00    -0.342 N 
ATOM     47  C   UNL     1      -7.473   7.050  12.121  1.00  0.00     0.247 C 
ATOM     48  O   UNL     1      -8.492   7.686  12.393  1.00  0.00    -0.273 OA
ATOM     49  H   UNL     1      -5.917   5.845  12.797  1.00  0.00     0.164 HD
BRANCH  47  50
ATOM     50  C   UNL     1      -6.895   7.007  10.699  1.00  0.00     0.212 CG0
ATOM     51  G   UNL     1      -6.566   5.536  10.373  1.00  0.00     0.000 G0
BRANCH  50  52
ATOM     52  N   UNL     1      -7.932   7.571   9.840  1.00  0.00    -0.339 N 
ATOM     53  C   UNL     1      -7.885   8.849   9.338  1.00  0.00     0.243 C 
ATOM     54  O   UNL     1      -6.987   9.638   9.619  1.00  0.00    -0.273 OA
ATOM     55  H   UNL     1      -8.758   7.003   9.660  1.00  0.00     0.164 HD
BRANCH  53  56
ATOM     56  C   UNL     1      -9.134   9.251   8.527  1.00  0.00     0.182 C 
BRANCH  56  57
ATOM     57  N   UNL     1     -10.362   8.963   9.274  1.00  0.00    -0.344 N 
ATOM     58  C   UNL     1     -11.417   9.842   9.323  1.00  0.00     0.220 C 
ATOM     59  O   UNL     1     -11.377  10.954   8.808  1.00  0.00    -0.275 OA
ATOM     60  H   UNL     1     -10.475   8.017   9.628  1.00  0.00     0.164 HD
BRANCH  58  61
ATOM     61  C   UNL     1     -12.605   9.313  10.105  1.00  0.00     0.100 C 
BRANCH  61  62
ATOM     62  C   UNL     1     -12.539   7.811  10.384  1.00  0.00     0.010 C 
BRANCH  62  63
ATOM     63  C   UNL     1     -12.380   7.455  11.867  1.00  0.00     0.000 C 
BRANCH  63  64
ATOM     64  C   UNL     1     -13.324   6.357  12.354  1.00  0.00    -0.003 C 
ATOM     65  C   UNL     1     -12.559   5.105  12.756  1.00  0.00     0.004 C 
ENDBRANCH  63  64
ENDBRANCH  62  63
ENDBRANCH  61  62
ENDBRANCH  58  61
ENDBRANCH  56  57
BRANCH  56  66
ATOM     66  C   UNL     1      -9.135   8.602   7.144  1.00  0.00     0.157 C 
BRANCH  66  67
ATOM     67  C   UNL     1      -8.201   9.314   6.208  1.00  0.00     0.305 C 
ATOM     68  O   UNL     1      -7.012   9.085   6.046  1.00  0.00    -0.252 OA
BRANCH  67  69
ATOM     69  O   UNL     1      -8.828  10.254   5.476  1.00  0.00    -0.481 OA
ATOM     70  H   UNL     1      -9.756  10.239   5.791  1.00  0.00     0.296 HD
ENDBRANCH  67  69
ENDBRANCH  66  67
ENDBRANCH  56  66
ENDBRANCH  53  56
ENDBRANCH  50  52
ENDBRANCH  47  50
ENDBRANCH  45  46
BRANCH  45  71
ATOM     71  C   UNL     1      -6.156   5.588  15.331  1.00  0.00     0.037 C 
BRANCH  71  72
ATOM     72  C   UNL     1      -4.881   6.435  15.279  1.00  0.00     0.026 C 
BRANCH  72  73
ATOM     73  C   UNL     1      -4.413   6.828  16.678  1.00  0.00     0.146 C 
BRANCH  73  74
ATOM     74  N   UNL     1      -3.448   7.914  16.537  1.00  0.00    -0.254 NA
ATOM     75  C   UNL     1      -2.862   8.337  17.596  1.00  0.00     0.185 C 
ATOM     76  N   UNL     1      -1.968   9.334  17.498  1.00  0.00    -0.370 N 
ATOM     77  N   UNL     1      -3.006   7.917  18.865  1.00  0.00    -0.370 N 
ATOM     78  H   UNL     1      -1.806   9.714  16.577  1.00  0.00     0.159 HD
ATOM     79  H   UNL     1      -1.582   9.811  18.294  1.00  0.00     0.159 HD
ATOM     80  H   UNL     1      -3.643   7.168  19.090  1.00  0.00     0.159 HD
ATOM     81  H   UNL     1      -2.405   8.248  19.602  1.00  0.00     0.159 HD
ENDBRANCH  73  74
ENDBRANCH  72  73
ENDBRANCH  71  72
ENDBRANCH  45  71
ENDBRANCH   3  45
TORSDOF 20
ENDMDL
MODEL 4
REMARK VINA RESULT:    -6.139      1.845      2.569
REMARK INTER + INTRA:         -24.795
REMARK INTER:                 -18.773
REMARK INTRA:                  -6.022
REMARK UNBOUND:                -7.171
REMARK SMILES CCCCCC(=O)N[C@H](CC(=O)O)C(=O)N[C@H]1C(=O)N[C@H](CCCN=C(N)N)C(=O)N[C@@H]2CC[C@H](O)N(C2=O)[C@@H](CC(C)C)C(=O)N(C)[C@@H](Cc2ccccc2)C(=O)N[C@H](C(C)C)C(=O)O[C@@H]1C
REMARK SMILES IDX 30 1 31 2 29 3 32 5 35 6 37 7 34 8 38 9 33 10 39 11 36 12
REMARK SMILES IDX 40 14 41 15 42 16 43 17 44 18 45 19 46 20 47 21 48 22 49 23
REMARK SMILES IDX 50 24 51 25 52 26 56 27 53 28 55 29 54 30 57 31 58 32 59 33
REMARK SMILES IDX 60 35 61 36 62 37 63 38 64 39 65 40 66 41 67 42 68 43 21 45
REMARK SMILES IDX 20 46 18 47 19 48 17 50 16 52 14 53 15 54 9 56 8 57 6 58
REMARK SMILES IDX 7 59 5 61 4 62 3 63 2 64 1 65 10 66 11 67 12 68 13 69 22 71
REMARK SMILES IDX 23 72 24 73 25 74 26 75 27 76 28 77
REMARK H PARENT 31 4 36 13 59 34 20 49 16 55 8 60 13 70 27 78 27 79 28 80
REMARK H PARENT 28 81
REMARK Flexibility Score:  259.900
ROOT
ATOM      1  O   UNL     1      -4.051   5.429  10.857  1.00  0.00    -0.273 OA
ATOM      2  N   UNL     1      -2.615   4.102  12.043  1.00  0.00    -0.343 N 
ATOM      3  C   UNL     1      -3.788   4.808  11.888  1.00  0.00     0.243 C 
ATOM      4  H   UNL     1      -2.439   3.590  12.899  1.00  0.00     0.164 HD
ENDROOT
BRANCH   2   5
ATOM      5  C   UNL     1      -1.572   4.160  11.024  1.00  0.00     0.171 C 
ATOM      6  C   UNL     1      -1.549   5.126   8.291  1.00  0.00     0.214 C 
ATOM      7  N   UNL     1      -1.864   3.741   8.552  1.00  0.00    -0.303 N 
ATOM      8  C   UNL     1      -0.604   5.732   9.317  1.00  0.00     0.057 C 
ATOM      9  C   UNL     1      -1.942   3.227   9.836  1.00  0.00     0.247 C 
ATOM     10  C   UNL     1      -1.202   5.607  10.701  1.00  0.00     0.040 C 
ATOM     11  O   UNL     1      -2.297   2.061  10.056  1.00  0.00    -0.272 OA
BRANCH   6  12
ATOM     12  O   UNL     1      -2.761   5.843   8.253  1.00  0.00    -0.373 OA
ATOM     13  H   UNL     1      -3.445   5.233   7.907  1.00  0.00     0.213 HD
ENDBRANCH   6  12
BRANCH   7  14
ATOM     14  C   UNL     1      -2.249   2.910   7.392  1.00  0.00     0.177 C 
BRANCH  14  15
ATOM     15  C   UNL     1      -1.234   1.819   7.000  1.00  0.00     0.038 C 
BRANCH  15  16
ATOM     16  C   UNL     1      -0.190   2.110   5.899  1.00  0.00    -0.015 C 
ATOM     17  C   UNL     1       1.167   1.465   6.196  1.00  0.00     0.007 C 
ATOM     18  C   UNL     1       0.016   3.625   5.768  1.00  0.00     0.007 C 
ENDBRANCH  15  16
ENDBRANCH  14  15
BRANCH  14  19
ATOM     19  C   UNL     1      -3.808   2.767   7.320  1.00  0.00     0.245 C 
ATOM     20  O   UNL     1      -4.474   3.528   8.042  1.00  0.00    -0.272 OA
BRANCH  19  21
ATOM     21  N   UNL     1      -4.460   1.784   6.596  1.00  0.00    -0.332 N 
ATOM     22  C   UNL     1      -4.435   1.645   5.151  1.00  0.00     0.147 C 
BRANCH  21  23
ATOM     23  C   UNL     1      -5.267   0.784   7.350  1.00  0.00     0.178 C 
BRANCH  23  24
ATOM     24  C   UNL     1      -6.399   0.124   6.537  1.00  0.00     0.070 C 
BRANCH  24  25
ATOM     25  C   UNL     1      -7.673  -0.211   7.278  1.00  0.00    -0.045 A 
ATOM     26  C   UNL     1      -8.151   0.624   8.296  1.00  0.00     0.004 A 
ATOM     27  C   UNL     1      -8.395  -1.370   6.956  1.00  0.00     0.004 A 
ATOM     28  C   UNL     1      -9.320   0.298   8.987  1.00  0.00     0.000 A 
ATOM     29  C   UNL     1      -9.564  -1.693   7.647  1.00  0.00     0.000 A 
ATOM     30  C   UNL     1     -10.024  -0.859   8.664  1.00  0.00     0.000 A 
ENDBRANCH  24  25
ENDBRANCH  23  24
BRANCH  23  31
ATOM     31  C   UNL     1      -4.398  -0.196   8.173  1.00  0.00     0.243 C 
ATOM     32  O   UNL     1      -3.305  -0.620   7.805  1.00  0.00    -0.273 OA
ATOM     33  N   UNL     1      -5.043  -0.706   9.287  1.00  0.00    -0.341 N 
ATOM     34  H   UNL     1      -5.955  -0.317   9.540  1.00  0.00     0.164 HD
BRANCH  33  35
ATOM     35  C   UNL     1      -4.458  -1.739  10.146  1.00  0.00     0.194 C 
BRANCH  35  36
ATOM     36  C   UNL     1      -4.739  -3.193   9.672  1.00  0.00     0.017 C 
ATOM     37  C   UNL     1      -3.450  -3.884   9.194  1.00  0.00     0.010 C 
ATOM     38  C   UNL     1      -5.753  -3.269   8.525  1.00  0.00     0.010 C 
ENDBRANCH  35  36
BRANCH  35  39
ATOM     39  C   UNL     1      -4.811  -1.539  11.646  1.00  0.00     0.329 C 
ATOM     40  O   UNL     1      -4.064  -1.834  12.572  1.00  0.00    -0.250 OA
BRANCH  39  41
ATOM     41  O   UNL     1      -6.016  -0.916  11.819  1.00  0.00    -0.458 OA
BRANCH  41  42
ATOM     42  C   UNL     1      -6.127  -0.041  12.967  1.00  0.00     0.205 CG0
ATOM     43  C   UNL     1      -7.198  -0.629  13.883  1.00  0.00     0.056 C 
ATOM     44  G   UNL     1      -6.485   1.375  12.474  1.00  0.00     0.000 G0
ENDBRANCH  41  42
ENDBRANCH  39  41
ENDBRANCH  35  39
ENDBRANCH  33  35
ENDBRANCH  23  31
ENDBRANCH  21  23
ENDBRANCH  19  21
ENDBRANCH  14  19
ENDBRANCH   7  14
ENDBRANCH   2   5
BRANCH   3  45
ATOM     45  C   UNL     1      -4.753   4.749  13.079  1.00  0.00     0.171 C 
BRANCH  45  46
ATOM     46  N   UNL     1      -5.702   3.689  12.766  1.00  0.00    -0.342 N 
ATOM     47  C   UNL     1      -5.416   2.362  12.968  1.00  0.00     0.247 C 
ATOM     48  O   UNL     1      -4.372   1.976  13.495  1.00  0.00    -0.273 OA
ATOM     49  H   UNL     1      -6.602   3.968  12.380  1.00  0.00     0.164 HD
BRANCH  47  50
ATOM     50  C   UNL     1      -6.485   1.383  12.463  1.00  0.00     0.212 CG0
ATOM     51  G   UNL     1      -6.107  -0.024  12.968  1.00  0.00     0.000 G0
BRANCH  50  52
ATOM     52  N   UNL     1      -7.749   1.871  13.009  1.00  0.00    -0.339 N 
ATOM     53  C   UNL     1      -8.644   2.622  12.287  1.00  0.00     0.243 C 
ATOM     54  O   UNL     1      -8.424   2.988  11.136  1.00  0.00    -0.273 OA
ATOM     55  H   UNL     1      -7.939   1.694  13.993  1.00  0.00     0.164 HD
BRANCH  53  56
ATOM     56  C   UNL     1      -9.866   3.095  13.100  1.00  0.00     0.182 C 
BRANCH  56  57
ATOM     57  N   UNL     1      -9.525   4.246  13.942  1.00  0.00    -0.344 N 
ATOM     58  C   UNL     1     -10.112   5.477  13.778  1.00  0.00     0.220 C 
ATOM     59  O   UNL     1     -10.904   5.720  12.874  1.00  0.00    -0.275 OA
ATOM     60  H   UNL     1      -8.953   4.063  14.762  1.00  0.00     0.164 HD
BRANCH  58  61
ATOM     61  C   UNL     1      -9.651   6.503  14.797  1.00  0.00     0.100 C 
BRANCH  61  62
ATOM     62  C   UNL     1      -9.014   7.746  14.175  1.00  0.00     0.010 C 
BRANCH  62  63
ATOM     63  C   UNL     1      -8.517   8.775  15.198  1.00  0.00     0.000 C 
BRANCH  63  64
ATOM     64  C   UNL     1      -8.608   8.309  16.650  1.00  0.00    -0.003 C 
ATOM     65  C   UNL     1      -7.859   9.250  17.583  1.00  0.00     0.004 C 
ENDBRANCH  63  64
ENDBRANCH  62  63
ENDBRANCH  61  62
ENDBRANCH  58  61
ENDBRANCH  56  57
BRANCH  56  66
ATOM     66  C   UNL     1     -10.478   1.952  13.907  1.00  0.00     0.157 C 
BRANCH  66  67
ATOM     67  C   UNL     1     -10.244   2.138  15.378  1.00  0.00     0.305 C 
ATOM     68  O   UNL     1     -11.057   2.514  16.208  1.00  0.00    -0.252 OA
BRANCH  67  69
ATOM     69  O   UNL     1      -8.996   1.788  15.746  1.00  0.00    -0.481 OA
ATOM     70  H   UNL     1      -9.077   0.860  16.052  1.00  0.00     0.296 HD
ENDBRANCH  67  69
ENDBRANCH  66  67
ENDBRANCH  56  66
ENDBRANCH  53  56
ENDBRANCH  50  52
ENDBRANCH  47  50
ENDBRANCH  45  46
BRANCH  45  71
ATOM     71  C   UNL     1      -5.455   6.099  13.265  1.00  0.00     0.037 C 
BRANCH  71  72
ATOM     72  C   UNL     1      -5.803   6.370  14.730  1.00  0.00     0.026 C 
BRANCH  72  73
ATOM     73  C   UNL     1      -4.638   7.024  15.471  1.00  0.00     0.146 C 
BRANCH  73  74
ATOM     74  N   UNL     1      -4.986   7.083  16.888  1.00  0.00    -0.254 NA
ATOM     75  C   UNL     1      -4.292   7.851  17.643  1.00  0.00     0.185 C 
ATOM     76  N   UNL     1      -4.588   7.927  18.951  1.00  0.00    -0.370 N 
ATOM     77  N   UNL     1      -3.253   8.641  17.320  1.00  0.00    -0.370 N 
ATOM     78  H   UNL     1      -5.354   7.357  19.280  1.00  0.00     0.159 HD
ATOM     79  H   UNL     1      -4.005   8.390  19.625  1.00  0.00     0.159 HD
ATOM     80  H   UNL     1      -2.921   8.689  16.368  1.00  0.00     0.159 HD
ATOM     81  H   UNL     1      -2.858   9.291  17.979  1.00  0.00     0.159 HD
ENDBRANCH  73  74
ENDBRANCH  72  73
ENDBRANCH  71  72
ENDBRANCH  45  71
ENDBRANCH   3  45
TORSDOF 20
ENDMDL
MODEL 5
REMARK VINA RESULT:    -5.973      3.117      6.519
REMARK INTER + INTRA:         -24.318
REMARK INTER:                 -19.347
REMARK INTRA:                  -4.971
REMARK UNBOUND:                -7.171
REMARK SMILES CCCCCC(=O)N[C@H](CC(=O)O)C(=O)N[C@H]1C(=O)N[C@H](CCCN=C(N)N)C(=O)N[C@@H]2CC[C@H](O)N(C2=O)[C@@H](CC(C)C)C(=O)N(C)[C@@H](Cc2ccccc2)C(=O)N[C@H](C(C)C)C(=O)O[C@@H]1C
REMARK SMILES IDX 30 1 31 2 29 3 32 5 35 6 37 7 34 8 38 9 33 10 39 11 36 12
REMARK SMILES IDX 40 14 41 15 42 16 43 17 44 18 45 19 46 20 47 21 48 22 49 23
REMARK SMILES IDX 50 24 51 25 52 26 56 27 53 28 55 29 54 30 57 31 58 32 59 33
REMARK SMILES IDX 60 35 61 36 62 37 63 38 64 39 65 40 66 41 67 42 68 43 21 45
REMARK SMILES IDX 20 46 18 47 19 48 17 50 16 52 14 53 15 54 9 56 8 57 6 58
REMARK SMILES IDX 7 59 5 61 4 62 3 63 2 64 1 65 10 66 11 67 12 68 13 69 22 71
REMARK SMILES IDX 23 72 24 73 25 74 26 75 27 76 28 77
REMARK H PARENT 31 4 36 13 59 34 20 49 16 55 8 60 13 70 27 78 27 79 28 80
REMARK H PARENT 28 81
REMARK Flexibility Score:  259.900
ROOT
ATOM      1  O   UNL     1      -5.272   5.281  10.343  1.00  0.00    -0.273 OA
ATOM      2  N   UNL     1      -6.940   4.410   9.043  1.00  0.00    -0.343 N 
ATOM      3  C   UNL     1      -6.394   5.388   9.847  1.00  0.00     0.243 C 
ATOM      4  H   UNL     1      -7.860   4.538   8.640  1.00  0.00     0.164 HD
ENDROOT
BRANCH   2   5
ATOM      5  C   UNL     1      -6.248   3.141   8.844  1.00  0.00     0.171 C 
ATOM      6  C   UNL     1      -6.861   0.799   7.249  1.00  0.00     0.214 C 
ATOM      7  N   UNL     1      -7.321   0.867   8.616  1.00  0.00    -0.303 N 
ATOM      8  C   UNL     1      -5.567   1.561   7.010  1.00  0.00     0.057 C 
ATOM      9  C   UNL     1      -7.107   1.977   9.417  1.00  0.00     0.247 C 
ATOM     10  C   UNL     1      -5.745   3.010   7.408  1.00  0.00     0.040 C 
ATOM     11  O   UNL     1      -7.578   2.062  10.559  1.00  0.00    -0.272 OA
BRANCH   6  12
ATOM     12  O   UNL     1      -7.887   1.301   6.424  1.00  0.00    -0.373 OA
ATOM     13  H   UNL     1      -7.525   2.086   5.961  1.00  0.00     0.213 HD
ENDBRANCH   6  12
BRANCH   7  14
ATOM     14  C   UNL     1      -8.167  -0.247   9.095  1.00  0.00     0.177 C 
BRANCH  14  15
ATOM     15  C   UNL     1      -9.438  -0.509   8.263  1.00  0.00     0.038 C 
BRANCH  15  16
ATOM     16  C   UNL     1     -10.813  -0.549   8.965  1.00  0.00    -0.015 C 
ATOM     17  C   UNL     1     -11.121   0.747   9.721  1.00  0.00     0.007 C 
ATOM     18  C   UNL     1     -10.850  -1.710   9.968  1.00  0.00     0.007 C 
ENDBRANCH  15  16
ENDBRANCH  14  15
BRANCH  14  19
ATOM     19  C   UNL     1      -7.284  -1.349   9.773  1.00  0.00     0.245 C 
ATOM     20  O   UNL     1      -7.057  -2.373   9.107  1.00  0.00    -0.272 OA
BRANCH  19  21
ATOM     21  N   UNL     1      -6.849  -1.290  11.086  1.00  0.00    -0.332 N 
ATOM     22  C   UNL     1      -7.685  -1.467  12.259  1.00  0.00     0.147 C 
BRANCH  21  23
ATOM     23  C   UNL     1      -5.407  -1.010  11.329  1.00  0.00     0.178 C 
BRANCH  23  24
ATOM     24  C   UNL     1      -4.548  -0.892  10.053  1.00  0.00     0.070 C 
BRANCH  24  25
ATOM     25  C   UNL     1      -3.686  -2.080   9.692  1.00  0.00    -0.045 A 
ATOM     26  C   UNL     1      -3.069  -2.848  10.688  1.00  0.00     0.004 A 
ATOM     27  C   UNL     1      -3.489  -2.428   8.348  1.00  0.00     0.004 A 
ATOM     28  C   UNL     1      -2.260  -3.934  10.345  1.00  0.00     0.000 A 
ATOM     29  C   UNL     1      -2.682  -3.515   8.007  1.00  0.00     0.000 A 
ATOM     30  C   UNL     1      -2.066  -4.265   9.006  1.00  0.00     0.000 A 
ENDBRANCH  24  25
ENDBRANCH  23  24
BRANCH  23  31
ATOM     31  C   UNL     1      -5.177   0.108  12.374  1.00  0.00     0.243 C 
ATOM     32  O   UNL     1      -4.991  -0.099  13.571  1.00  0.00    -0.273 OA
ATOM     33  N   UNL     1      -5.383   1.383  11.876  1.00  0.00    -0.341 N 
ATOM     34  H   UNL     1      -5.540   1.491  10.871  1.00  0.00     0.164 HD
BRANCH  33  35
ATOM     35  C   UNL     1      -5.338   2.585  12.713  1.00  0.00     0.194 C 
BRANCH  35  36
ATOM     36  C   UNL     1      -4.128   2.634  13.688  1.00  0.00     0.017 C 
ATOM     37  C   UNL     1      -4.163   3.902  14.559  1.00  0.00     0.010 C 
ATOM     38  C   UNL     1      -2.772   2.608  12.971  1.00  0.00     0.010 C 
ENDBRANCH  35  36
BRANCH  35  39
ATOM     39  C   UNL     1      -6.683   2.856  13.443  1.00  0.00     0.329 C 
ATOM     40  O   UNL     1      -7.111   2.176  14.367  1.00  0.00    -0.250 OA
BRANCH  39  41
ATOM     41  O   UNL     1      -7.296   3.994  12.996  1.00  0.00    -0.458 OA
BRANCH  41  42
ATOM     42  C   UNL     1      -8.500   4.390  13.695  1.00  0.00     0.205 CG0
ATOM     43  C   UNL     1      -9.661   3.613  13.076  1.00  0.00     0.056 C 
ATOM     44  G   UNL     1      -8.671   5.916  13.556  1.00  0.00     0.000 G0
ENDBRANCH  41  42
ENDBRANCH  39  41
ENDBRANCH  35  39
ENDBRANCH  33  35
ENDBRANCH  23  31
ENDBRANCH  21  23
ENDBRANCH  19  21
ENDBRANCH  14  19
ENDBRANCH   7  14
ENDBRANCH   2   5
BRANCH   3  45
ATOM     45  C   UNL     1      -7.272   6.627  10.061  1.00  0.00     0.171 C 
BRANCH  45  46
ATOM     46  N   UNL     1      -8.121   6.316  11.203  1.00  0.00    -0.342 N 
ATOM     47  C   UNL     1      -7.683   6.425  12.499  1.00  0.00     0.247 C 
ATOM     48  O   UNL     1      -6.570   6.862  12.793  1.00  0.00    -0.273 OA
ATOM     49  H   UNL     1      -9.071   6.004  11.006  1.00  0.00     0.164 HD
BRANCH  47  50
ATOM     50  C   UNL     1      -8.674   5.934  13.564  1.00  0.00     0.212 CG0
ATOM     51  G   UNL     1      -8.505   4.407  13.692  1.00  0.00     0.000 G0
BRANCH  50  52
ATOM     52  N   UNL     1      -8.324   6.658  14.783  1.00  0.00    -0.339 N 
ATOM     53  C   UNL     1      -8.879   7.866  15.131  1.00  0.00     0.243 C 
ATOM     54  O   UNL     1      -9.677   8.459  14.411  1.00  0.00    -0.273 OA
ATOM     55  H   UNL     1      -7.586   6.271  15.367  1.00  0.00     0.164 HD
BRANCH  53  56
ATOM     56  C   UNL     1      -8.291   8.479  16.418  1.00  0.00     0.182 C 
BRANCH  56  57
ATOM     57  N   UNL     1      -6.971   7.914  16.715  1.00  0.00    -0.344 N 
ATOM     58  C   UNL     1      -6.023   8.599  17.435  1.00  0.00     0.220 C 
ATOM     59  O   UNL     1      -6.184   9.754  17.815  1.00  0.00    -0.275 OA
ATOM     60  H   UNL     1      -6.835   6.928  16.508  1.00  0.00     0.164 HD
BRANCH  58  61
ATOM     61  C   UNL     1      -4.755   7.800  17.672  1.00  0.00     0.100 C 
BRANCH  61  62
ATOM     62  C   UNL     1      -3.530   8.357  16.946  1.00  0.00     0.010 C 
BRANCH  62  63
ATOM     63  C   UNL     1      -2.190   7.868  17.509  1.00  0.00     0.000 C 
BRANCH  63  64
ATOM     64  C   UNL     1      -0.966   8.545  16.894  1.00  0.00    -0.003 C 
ATOM     65  C   UNL     1      -1.336   9.327  15.642  1.00  0.00     0.004 C 
ENDBRANCH  63  64
ENDBRANCH  62  63
ENDBRANCH  61  62
ENDBRANCH  58  61
ENDBRANCH  56  57
BRANCH  56  66
ATOM     66  C   UNL     1      -9.256   8.342  17.595  1.00  0.00     0.157 C 
BRANCH  66  67
ATOM     67  C   UNL     1      -8.946   7.121  18.412  1.00  0.00     0.305 C 
ATOM     68  O   UNL     1      -8.969   5.960  18.033  1.00  0.00    -0.252 OA
BRANCH  67  69
ATOM     69  O   UNL     1      -8.566   7.428  19.667  1.00  0.00    -0.481 OA
ATOM     70  H   UNL     1      -9.381   7.759  20.100  1.00  0.00     0.296 HD
ENDBRANCH  67  69
ENDBRANCH  66  67
ENDBRANCH  56  66
ENDBRANCH  53  56
ENDBRANCH  50  52
ENDBRANCH  47  50
ENDBRANCH  45  46
BRANCH  45  71
ATOM     71  C   UNL     1      -8.099   6.920   8.804  1.00  0.00     0.037 C 
BRANCH  71  72
ATOM     72  C   UNL     1      -8.747   8.306   8.852  1.00  0.00     0.026 C 
BRANCH  72  73
ATOM     73  C   UNL     1     -10.270   8.210   8.924  1.00  0.00     0.146 C 
BRANCH  73  74
ATOM     74  N   UNL     1     -10.630   7.838  10.288  1.00  0.00    -0.254 NA
ATOM     75  C   UNL     1     -11.555   8.510  10.868  1.00  0.00     0.185 C 
ATOM     76  N   UNL     1     -11.910   8.191  12.123  1.00  0.00    -0.370 N 
ATOM     77  N   UNL     1     -12.271   9.545  10.394  1.00  0.00    -0.370 N 
ATOM     78  H   UNL     1     -11.413   7.426  12.558  1.00  0.00     0.159 HD
ATOM     79  H   UNL     1     -12.517   8.757  12.688  1.00  0.00     0.159 HD
ATOM     80  H   UNL     1     -12.115   9.892   9.460  1.00  0.00     0.159 HD
ATOM     81  H   UNL     1     -13.055   9.921  10.902  1.00  0.00     0.159 HD
ENDBRANCH  73  74
ENDBRANCH  72  73
ENDBRANCH  71  72
ENDBRANCH  45  71
ENDBRANCH   3  45
TORSDOF 20
ENDMDL
MODEL 6
REMARK VINA RESULT:    -5.955      2.984      7.602
REMARK INTER + INTRA:         -24.266
REMARK INTER:                 -20.621
REMARK INTRA:                  -3.645
REMARK UNBOUND:                -7.171
REMARK SMILES CCCCCC(=O)N[C@H](CC(=O)O)C(=O)N[C@H]1C(=O)N[C@H](CCCN=C(N)N)C(=O)N[C@@H]2CC[C@H](O)N(C2=O)[C@@H](CC(C)C)C(=O)N(C)[C@@H](Cc2ccccc2)C(=O)N[C@H](C(C)C)C(=O)O[C@@H]1C
REMARK SMILES IDX 30 1 31 2 29 3 32 5 35 6 37 7 34 8 38 9 33 10 39 11 36 12
REMARK SMILES IDX 40 14 41 15 42 16 43 17 44 18 45 19 46 20 47 21 48 22 49 23
REMARK SMILES IDX 50 24 51 25 52 26 56 27 53 28 55 29 54 30 57 31 58 32 59 33
REMARK SMILES IDX 60 35 61 36 62 37 63 38 64 39 65 40 66 41 67 42 68 43 21 45
REMARK SMILES IDX 20 46 18 47 19 48 17 50 16 52 14 53 15 54 9 56 8 57 6 58
REMARK SMILES IDX 7 59 5 61 4 62 3 63 2 64 1 65 10 66 11 67 12 68 13 69 22 71
REMARK SMILES IDX 23 72 24 73 25 74 26 75 27 76 28 77
REMARK H PARENT 31 4 36 13 59 34 20 49 16 55 8 60 13 70 27 78 27 79 28 80
REMARK H PARENT 28 81
REMARK Flexibility Score:  259.900
ROOT
ATOM      1  O   UNL     1      -7.820   4.855  13.774  1.00  0.00    -0.273 OA
ATOM      2  N   UNL     1      -6.699   3.045  12.940  1.00  0.00    -0.343 N 
ATOM      3  C   UNL     1      -6.760   4.334  13.425  1.00  0.00     0.243 C 
ATOM      4  H   UNL     1      -5.807   2.643  12.675  1.00  0.00     0.164 HD
ENDROOT
BRANCH   2   5
ATOM      5  C   UNL     1      -7.919   2.280  12.707  1.00  0.00     0.171 C 
ATOM      6  C   UNL     1      -8.405  -0.529  12.178  1.00  0.00     0.214 C 
ATOM      7  N   UNL     1      -8.209   0.379  11.072  1.00  0.00    -0.303 N 
ATOM      8  C   UNL     1      -9.032   0.132  13.396  1.00  0.00     0.057 C 
ATOM      9  C   UNL     1      -7.923   1.722  11.255  1.00  0.00     0.247 C 
ATOM     10  C   UNL     1      -8.173   1.294  13.847  1.00  0.00     0.040 C 
ATOM     11  O   UNL     1      -7.671   2.474  10.305  1.00  0.00    -0.272 OA
BRANCH   6  12
ATOM     12  O   UNL     1      -7.152  -1.081  12.509  1.00  0.00    -0.373 OA
ATOM     13  H   UNL     1      -6.534  -0.332  12.646  1.00  0.00     0.213 HD
ENDBRANCH   6  12
BRANCH   7  14
ATOM     14  C   UNL     1      -8.180  -0.212   9.717  1.00  0.00     0.177 C 
BRANCH  14  15
ATOM     15  C   UNL     1      -9.254   0.318   8.747  1.00  0.00     0.038 C 
BRANCH  15  16
ATOM     16  C   UNL     1     -10.367  -0.631   8.251  1.00  0.00    -0.015 C 
ATOM     17  C   UNL     1     -10.888  -1.551   9.359  1.00  0.00     0.007 C 
ATOM     18  C   UNL     1      -9.830  -1.508   7.112  1.00  0.00     0.007 C 
ENDBRANCH  15  16
ENDBRANCH  14  15
BRANCH  14  19
ATOM     19  C   UNL     1      -6.713  -0.598   9.324  1.00  0.00     0.245 C 
ATOM     20  O   UNL     1      -5.871   0.316   9.339  1.00  0.00    -0.272 OA
BRANCH  19  21
ATOM     21  N   UNL     1      -6.341  -1.848   8.862  1.00  0.00    -0.332 N 
ATOM     22  C   UNL     1      -6.857  -3.114   9.351  1.00  0.00     0.147 C 
BRANCH  21  23
ATOM     23  C   UNL     1      -5.319  -1.915   7.781  1.00  0.00     0.178 C 
BRANCH  23  24
ATOM     24  C   UNL     1      -5.853  -1.602   6.368  1.00  0.00     0.070 C 
BRANCH  24  25
ATOM     25  C   UNL     1      -5.710  -2.684   5.323  1.00  0.00    -0.045 A 
ATOM     26  C   UNL     1      -6.661  -2.828   4.305  1.00  0.00     0.004 A 
ATOM     27  C   UNL     1      -4.620  -3.566   5.362  1.00  0.00     0.004 A 
ATOM     28  C   UNL     1      -6.531  -3.841   3.353  1.00  0.00     0.000 A 
ATOM     29  C   UNL     1      -4.491  -4.578   4.409  1.00  0.00     0.000 A 
ATOM     30  C   UNL     1      -5.448  -4.716   3.407  1.00  0.00     0.000 A 
ENDBRANCH  24  25
ENDBRANCH  23  24
BRANCH  23  31
ATOM     31  C   UNL     1      -3.999  -1.198   8.152  1.00  0.00     0.243 C 
ATOM     32  O   UNL     1      -3.382  -0.457   7.392  1.00  0.00    -0.273 OA
ATOM     33  N   UNL     1      -3.468  -1.611   9.363  1.00  0.00    -0.341 N 
ATOM     34  H   UNL     1      -4.026  -2.234   9.951  1.00  0.00     0.164 HD
BRANCH  33  35
ATOM     35  C   UNL     1      -2.166  -1.156   9.860  1.00  0.00     0.194 C 
BRANCH  35  36
ATOM     36  C   UNL     1      -0.974  -2.059   9.436  1.00  0.00     0.017 C 
ATOM     37  C   UNL     1      -0.301  -1.533   8.156  1.00  0.00     0.010 C 
ATOM     38  C   UNL     1      -1.380  -3.515   9.176  1.00  0.00     0.010 C 
ENDBRANCH  35  36
BRANCH  35  39
ATOM     39  C   UNL     1      -2.173  -0.884  11.390  1.00  0.00     0.329 C 
ATOM     40  O   UNL     1      -2.308  -1.755  12.242  1.00  0.00    -0.250 OA
BRANCH  39  41
ATOM     41  O   UNL     1      -1.924   0.428  11.686  1.00  0.00    -0.458 OA
BRANCH  41  42
ATOM     42  C   UNL     1      -2.858   1.070  12.587  1.00  0.00     0.205 CG0
ATOM     43  C   UNL     1      -4.263   0.652  12.159  1.00  0.00     0.056 C 
ATOM     44  G   UNL     1      -2.647   2.595  12.508  1.00  0.00     0.000 G0
ENDBRANCH  41  42
ENDBRANCH  39  41
ENDBRANCH  35  39
ENDBRANCH  33  35
ENDBRANCH  23  31
ENDBRANCH  21  23
ENDBRANCH  19  21
ENDBRANCH  14  19
ENDBRANCH   7  14
ENDBRANCH   2   5
BRANCH   3  45
ATOM     45  C   UNL     1      -5.415   5.065  13.519  1.00  0.00     0.171 C 
BRANCH  45  46
ATOM     46  N   UNL     1      -4.463   4.233  12.796  1.00  0.00    -0.342 N 
ATOM     47  C   UNL     1      -3.671   3.305  13.424  1.00  0.00     0.247 C 
ATOM     48  O   UNL     1      -3.758   3.057  14.627  1.00  0.00    -0.273 OA
ATOM     49  H   UNL     1      -4.398   4.367  11.788  1.00  0.00     0.164 HD
BRANCH  47  50
ATOM     50  C   UNL     1      -2.641   2.612  12.521  1.00  0.00     0.212 CG0
ATOM     51  G   UNL     1      -2.894   1.093  12.604  1.00  0.00     0.000 G0
BRANCH  50  52
ATOM     52  N   UNL     1      -2.861   3.161  11.186  1.00  0.00    -0.339 N 
ATOM     53  C   UNL     1      -1.996   4.038  10.577  1.00  0.00     0.243 C 
ATOM     54  O   UNL     1      -0.991   4.471  11.135  1.00  0.00    -0.273 OA
ATOM     55  H   UNL     1      -3.733   2.927  10.716  1.00  0.00     0.164 HD
BRANCH  53  56
ATOM     56  C   UNL     1      -2.482   4.548   9.206  1.00  0.00     0.182 C 
BRANCH  56  57
ATOM     57  N   UNL     1      -1.351   4.797   8.306  1.00  0.00    -0.344 N 
ATOM     58  C   UNL     1      -0.718   3.787   7.622  1.00  0.00     0.220 C 
ATOM     59  O   UNL     1      -1.004   2.604   7.772  1.00  0.00    -0.275 OA
ATOM     60  H   UNL     1      -1.149   5.767   8.077  1.00  0.00     0.164 HD
BRANCH  58  61
ATOM     61  C   UNL     1       0.385   4.281   6.705  1.00  0.00     0.100 C 
BRANCH  61  62
ATOM     62  C   UNL     1      -0.108   5.197   5.585  1.00  0.00     0.010 C 
BRANCH  62  63
ATOM     63  C   UNL     1       0.084   6.693   5.867  1.00  0.00     0.000 C 
BRANCH  63  64
ATOM     64  C   UNL     1       0.878   7.436   4.794  1.00  0.00    -0.003 C 
ATOM     65  C   UNL     1      -0.009   7.834   3.622  1.00  0.00     0.004 C 
ENDBRANCH  63  64
ENDBRANCH  62  63
ENDBRANCH  61  62
ENDBRANCH  58  61
ENDBRANCH  56  57
BRANCH  56  66
ATOM     66  C   UNL     1      -3.383   5.773   9.351  1.00  0.00     0.157 C 
BRANCH  66  67
ATOM     67  C   UNL     1      -4.826   5.414   9.142  1.00  0.00     0.305 C 
ATOM     68  O   UNL     1      -5.627   5.988   8.420  1.00  0.00    -0.252 OA
BRANCH  67  69
ATOM     69  O   UNL     1      -5.181   4.307   9.821  1.00  0.00    -0.481 OA
ATOM     70  H   UNL     1      -6.103   4.475  10.110  1.00  0.00     0.296 HD
ENDBRANCH  67  69
ENDBRANCH  66  67
ENDBRANCH  56  66
ENDBRANCH  53  56
ENDBRANCH  50  52
ENDBRANCH  47  50
ENDBRANCH  45  46
BRANCH  45  71
ATOM     71  C   UNL     1      -5.008   5.247  14.985  1.00  0.00     0.037 C 
BRANCH  71  72
ATOM     72  C   UNL     1      -5.162   6.698  15.450  1.00  0.00     0.026 C 
BRANCH  72  73
ATOM     73  C   UNL     1      -3.995   7.129  16.336  1.00  0.00     0.146 C 
BRANCH  73  74
ATOM     74  N   UNL     1      -3.317   8.239  15.673  1.00  0.00    -0.254 NA
ATOM     75  C   UNL     1      -2.228   8.673  16.194  1.00  0.00     0.185 C 
ATOM     76  N   UNL     1      -1.581   9.692  15.606  1.00  0.00    -0.370 N 
ATOM     77  N   UNL     1      -1.591   8.247  17.298  1.00  0.00    -0.370 N 
ATOM     78  H   UNL     1      -1.998  10.078  14.771  1.00  0.00     0.159 HD
ATOM     79  H   UNL     1      -0.810  10.176  16.030  1.00  0.00     0.159 HD
ATOM     80  H   UNL     1      -1.962   7.481  17.841  1.00  0.00     0.159 HD
ATOM     81  H   UNL     1      -0.678   8.590  17.547  1.00  0.00     0.159 HD
ENDBRANCH  73  74
ENDBRANCH  72  73
ENDBRANCH  71  72
ENDBRANCH  45  71
ENDBRANCH   3  45
TORSDOF 20
ENDMDL
MODEL 7
REMARK VINA RESULT:    -5.936      2.297      7.797
REMARK INTER + INTRA:         -24.211
REMARK INTER:                 -17.944
REMARK INTRA:                  -6.267
REMARK UNBOUND:                -7.171
REMARK SMILES CCCCCC(=O)N[C@H](CC(=O)O)C(=O)N[C@H]1C(=O)N[C@H](CCCN=C(N)N)C(=O)N[C@@H]2CC[C@H](O)N(C2=O)[C@@H](CC(C)C)C(=O)N(C)[C@@H](Cc2ccccc2)C(=O)N[C@H](C(C)C)C(=O)O[C@@H]1C
REMARK SMILES IDX 30 1 31 2 29 3 32 5 35 6 37 7 34 8 38 9 33 10 39 11 36 12
REMARK SMILES IDX 40 14 41 15 42 16 43 17 44 18 45 19 46 20 47 21 48 22 49 23
REMARK SMILES IDX 50 24 51 25 52 26 56 27 53 28 55 29 54 30 57 31 58 32 59 33
REMARK SMILES IDX 60 35 61 36 62 37 63 38 64 39 65 40 66 41 67 42 68 43 21 45
REMARK SMILES IDX 20 46 18 47 19 48 17 50 16 52 14 53 15 54 9 56 8 57 6 58
REMARK SMILES IDX 7 59 5 61 4 62 3 63 2 64 1 65 10 66 11 67 12 68 13 69 22 71
REMARK SMILES IDX 23 72 24 73 25 74 26 75 27 76 28 77
REMARK H PARENT 31 4 36 13 59 34 20 49 16 55 8 60 13 70 27 78 27 79 28 80
REMARK H PARENT 28 81
REMARK Flexibility Score:  259.900
ROOT
ATOM      1  O   UNL     1     -10.596   4.210  12.743  1.00  0.00    -0.273 OA
ATOM      2  N   UNL     1      -9.141   2.453  12.581  1.00  0.00    -0.343 N 
ATOM      3  C   UNL     1      -9.552   3.663  13.098  1.00  0.00     0.243 C 
ATOM      4  H   UNL     1      -8.283   2.026  12.908  1.00  0.00     0.164 HD
ENDROOT
BRANCH   2   5
ATOM      5  C   UNL     1      -9.878   1.822  11.492  1.00  0.00     0.171 C 
ATOM      6  C   UNL     1     -10.200  -0.942  10.681  1.00  0.00     0.214 C 
ATOM      7  N   UNL     1      -9.125  -0.158  10.119  1.00  0.00    -0.303 N 
ATOM      8  C   UNL     1     -11.421  -0.114  11.050  1.00  0.00     0.057 C 
ATOM      9  C   UNL     1      -8.884   1.152  10.501  1.00  0.00     0.247 C 
ATOM     10  C   UNL     1     -11.027   0.970  12.029  1.00  0.00     0.040 C 
ATOM     11  O   UNL     1      -7.910   1.790  10.080  1.00  0.00    -0.272 OA
BRANCH   6  12
ATOM     12  O   UNL     1      -9.698  -1.611  11.814  1.00  0.00    -0.373 OA
ATOM     13  H   UNL     1      -8.733  -1.722  11.678  1.00  0.00     0.213 HD
ENDBRANCH   6  12
BRANCH   7  14
ATOM     14  C   UNL     1      -8.186  -0.856   9.216  1.00  0.00     0.177 C 
BRANCH  14  15
ATOM     15  C   UNL     1      -8.079  -0.266   7.796  1.00  0.00     0.038 C 
BRANCH  15  16
ATOM     16  C   UNL     1      -8.409  -1.154   6.576  1.00  0.00    -0.015 C 
ATOM     17  C   UNL     1      -9.449  -2.231   6.902  1.00  0.00     0.007 C 
ATOM     18  C   UNL     1      -7.135  -1.850   6.081  1.00  0.00     0.007 C 
ENDBRANCH  15  16
ENDBRANCH  14  15
BRANCH  14  19
ATOM     19  C   UNL     1      -6.998  -1.469  10.035  1.00  0.00     0.245 C 
ATOM     20  O   UNL     1      -6.917  -1.142  11.231  1.00  0.00    -0.272 OA
BRANCH  19  21
ATOM     21  N   UNL     1      -5.997  -2.244   9.479  1.00  0.00    -0.332 N 
ATOM     22  C   UNL     1      -6.134  -3.631   9.070  1.00  0.00     0.147 C 
BRANCH  21  23
ATOM     23  C   UNL     1      -4.658  -1.620   9.288  1.00  0.00     0.178 C 
BRANCH  23  24
ATOM     24  C   UNL     1      -3.967  -1.972   7.955  1.00  0.00     0.070 C 
BRANCH  24  25
ATOM     25  C   UNL     1      -2.603  -1.370   7.708  1.00  0.00    -0.045 A 
ATOM     26  C   UNL     1      -1.479  -1.828   8.407  1.00  0.00     0.004 A 
ATOM     27  C   UNL     1      -2.444  -0.336   6.773  1.00  0.00     0.004 A 
ATOM     28  C   UNL     1      -0.225  -1.255   8.186  1.00  0.00     0.000 A 
ATOM     29  C   UNL     1      -1.190   0.235   6.552  1.00  0.00     0.000 A 
ATOM     30  C   UNL     1      -0.082  -0.223   7.261  1.00  0.00     0.000 A 
ENDBRANCH  24  25
ENDBRANCH  23  24
BRANCH  23  31
ATOM     31  C   UNL     1      -4.634  -0.118   9.658  1.00  0.00     0.243 C 
ATOM     32  O   UNL     1      -4.947   0.785   8.886  1.00  0.00    -0.273 OA
ATOM     33  N   UNL     1      -4.049   0.139  10.886  1.00  0.00    -0.341 N 
ATOM     34  H   UNL     1      -3.805  -0.654  11.483  1.00  0.00     0.164 HD
BRANCH  33  35
ATOM     35  C   UNL     1      -3.811   1.495  11.389  1.00  0.00     0.194 C 
BRANCH  35  36
ATOM     36  C   UNL     1      -2.344   1.984  11.228  1.00  0.00     0.017 C 
ATOM     37  C   UNL     1      -2.203   2.946  10.035  1.00  0.00     0.010 C 
ATOM     38  C   UNL     1      -1.346   0.840  11.016  1.00  0.00     0.010 C 
ENDBRANCH  35  36
BRANCH  35  39
ATOM     39  C   UNL     1      -4.333   1.695  12.840  1.00  0.00     0.329 C 
ATOM     40  O   UNL     1      -4.061   0.952  13.775  1.00  0.00    -0.250 OA
BRANCH  39  41
ATOM     41  O   UNL     1      -5.062   2.844  12.976  1.00  0.00    -0.458 OA
BRANCH  41  42
ATOM     42  C   UNL     1      -4.328   4.024  13.381  1.00  0.00     0.205 CG0
ATOM     43  C   UNL     1      -4.146   3.949  14.896  1.00  0.00     0.056 C 
ATOM     44  G   UNL     1      -5.122   5.271  12.944  1.00  0.00     0.000 G0
ENDBRANCH  41  42
ENDBRANCH  39  41
ENDBRANCH  35  39
ENDBRANCH  33  35
ENDBRANCH  23  31
ENDBRANCH  21  23
ENDBRANCH  19  21
ENDBRANCH  14  19
ENDBRANCH   7  14
ENDBRANCH   2   5
BRANCH   3  45
ATOM     45  C   UNL     1      -8.628   4.271  14.162  1.00  0.00     0.171 C 
BRANCH  45  46
ATOM     46  N   UNL     1      -7.304   4.313  13.556  1.00  0.00    -0.342 N 
ATOM     47  C   UNL     1      -6.426   5.344  13.777  1.00  0.00     0.247 C 
ATOM     48  O   UNL     1      -6.662   6.268  14.557  1.00  0.00    -0.273 OA
ATOM     49  H   UNL     1      -7.045   3.539  12.947  1.00  0.00     0.164 HD
BRANCH  47  50
ATOM     50  C   UNL     1      -5.129   5.281  12.958  1.00  0.00     0.212 CG0
ATOM     51  G   UNL     1      -4.352   4.028  13.408  1.00  0.00     0.000 G0
BRANCH  50  52
ATOM     52  N   UNL     1      -5.553   5.226  11.561  1.00  0.00    -0.339 N 
ATOM     53  C   UNL     1      -4.747   5.595  10.512  1.00  0.00     0.243 C 
ATOM     54  O   UNL     1      -3.619   6.052  10.672  1.00  0.00    -0.273 OA
ATOM     55  H   UNL     1      -6.517   4.961  11.370  1.00  0.00     0.164 HD
BRANCH  53  56
ATOM     56  C   UNL     1      -5.442   5.534   9.136  1.00  0.00     0.182 C 
BRANCH  56  57
ATOM     57  N   UNL     1      -4.457   5.508   8.050  1.00  0.00    -0.344 N 
ATOM     58  C   UNL     1      -4.244   4.394   7.276  1.00  0.00     0.220 C 
ATOM     59  O   UNL     1      -4.806   3.325   7.483  1.00  0.00    -0.275 OA
ATOM     60  H   UNL     1      -4.045   6.398   7.780  1.00  0.00     0.164 HD
BRANCH  58  61
ATOM     61  C   UNL     1      -3.222   4.613   6.175  1.00  0.00     0.100 C 
BRANCH  61  62
ATOM     62  C   UNL     1      -2.316   5.822   6.407  1.00  0.00     0.010 C 
BRANCH  62  63
ATOM     63  C   UNL     1      -0.894   5.655   5.855  1.00  0.00     0.000 C 
BRANCH  63  64
ATOM     64  C   UNL     1       0.048   4.879   6.774  1.00  0.00    -0.003 C 
ATOM     65  C   UNL     1       0.417   3.528   6.177  1.00  0.00     0.004 C 
ENDBRANCH  63  64
ENDBRANCH  62  63
ENDBRANCH  61  62
ENDBRANCH  58  61
ENDBRANCH  56  57
BRANCH  56  66
ATOM     66  C   UNL     1      -6.454   6.666   8.969  1.00  0.00     0.157 C 
BRANCH  66  67
ATOM     67  C   UNL     1      -5.806   7.897   8.405  1.00  0.00     0.305 C 
ATOM     68  O   UNL     1      -5.285   8.013   7.307  1.00  0.00    -0.252 OA
BRANCH  67  69
ATOM     69  O   UNL     1      -5.892   8.949   9.241  1.00  0.00    -0.481 OA
ATOM     70  H   UNL     1      -5.106   9.498   9.035  1.00  0.00     0.296 HD
ENDBRANCH  67  69
ENDBRANCH  66  67
ENDBRANCH  56  66
ENDBRANCH  53  56
ENDBRANCH  50  52
ENDBRANCH  47  50
ENDBRANCH  45  46
BRANCH  45  71
ATOM     71  C   UNL     1      -8.641   3.414  15.433  1.00  0.00     0.037 C 
BRANCH  71  72
ATOM     72  C   UNL     1      -9.853   3.716  16.319  1.00  0.00     0.026 C 
BRANCH  72  73
ATOM     73  C   UNL     1     -10.601   2.440  16.699  1.00  0.00     0.146 C 
BRANCH  73  74
ATOM     74  N   UNL     1     -11.338   1.987  15.523  1.00  0.00    -0.254 NA
ATOM     75  C   UNL     1     -12.507   1.493  15.703  1.00  0.00     0.185 C 
ATOM     76  N   UNL     1     -13.210   1.068  14.641  1.00  0.00    -0.370 N 
ATOM     77  N   UNL     1     -13.184   1.320  16.852  1.00  0.00    -0.370 N 
ATOM     78  H   UNL     1     -12.770   1.155  13.736  1.00  0.00     0.159 HD
ATOM     79  H   UNL     1     -14.063   0.542  14.716  1.00  0.00     0.159 HD
ATOM     80  H   UNL     1     -12.779   1.598  17.733  1.00  0.00     0.159 HD
ATOM     81  H   UNL     1     -14.147   1.027  16.859  1.00  0.00     0.159 HD
ENDBRANCH  73  74
ENDBRANCH  72  73
ENDBRANCH  71  72
ENDBRANCH  45  71
ENDBRANCH   3  45
TORSDOF 20
ENDMDL
MODEL 8
REMARK VINA RESULT:    -5.836      3.799      8.361
REMARK INTER + INTRA:         -23.925
REMARK INTER:                 -19.918
REMARK INTRA:                  -4.006
REMARK UNBOUND:                -7.171
REMARK SMILES CCCCCC(=O)N[C@H](CC(=O)O)C(=O)N[C@H]1C(=O)N[C@H](CCCN=C(N)N)C(=O)N[C@@H]2CC[C@H](O)N(C2=O)[C@@H](CC(C)C)C(=O)N(C)[C@@H](Cc2ccccc2)C(=O)N[C@H](C(C)C)C(=O)O[C@@H]1C
REMARK SMILES IDX 30 1 31 2 29 3 32 5 35 6 37 7 34 8 38 9 33 10 39 11 36 12
REMARK SMILES IDX 40 14 41 15 42 16 43 17 44 18 45 19 46 20 47 21 48 22 49 23
REMARK SMILES IDX 50 24 51 25 52 26 56 27 53 28 55 29 54 30 57 31 58 32 59 33
REMARK SMILES IDX 60 35 61 36 62 37 63 38 64 39 65 40 66 41 67 42 68 43 21 45
REMARK SMILES IDX 20 46 18 47 19 48 17 50 16 52 14 53 15 54 9 56 8 57 6 58
REMARK SMILES IDX 7 59 5 61 4 62 3 63 2 64 1 65 10 66 11 67 12 68 13 69 22 71
REMARK SMILES IDX 23 72 24 73 25 74 26 75 27 76 28 77
REMARK H PARENT 31 4 36 13 59 34 20 49 16 55 8 60 13 70 27 78 27 79 28 80
REMARK H PARENT 28 81
REMARK Flexibility Score:  259.900
ROOT
ATOM      1  O   UNL     1      -9.637   6.323  14.437  1.00  0.00    -0.273 OA
ATOM      2  N   UNL     1      -8.326   4.451  14.357  1.00  0.00    -0.343 N 
ATOM      3  C   UNL     1      -8.515   5.814  14.418  1.00  0.00     0.243 C 
ATOM      4  H   UNL     1      -7.389   4.067  14.357  1.00  0.00     0.164 HD
ENDROOT
BRANCH   2   5
ATOM      5  C   UNL     1      -9.461   3.550  14.193  1.00  0.00     0.171 C 
ATOM      6  C   UNL     1      -9.736   0.673  14.423  1.00  0.00     0.214 C 
ATOM      7  N   UNL     1      -9.417   1.255  13.140  1.00  0.00    -0.303 N 
ATOM      8  C   UNL     1     -10.568   1.587  15.309  1.00  0.00     0.057 C 
ATOM      9  C   UNL     1      -9.221   2.617  12.971  1.00  0.00     0.247 C 
ATOM     10  C   UNL     1      -9.840   2.896  15.521  1.00  0.00     0.040 C 
ATOM     11  O   UNL     1      -8.863   3.098  11.888  1.00  0.00    -0.272 OA
BRANCH   6  12
ATOM     12  O   UNL     1      -8.523   0.341  15.059  1.00  0.00    -0.373 OA
ATOM     13  H   UNL     1      -8.698  -0.443  15.621  1.00  0.00     0.213 HD
ENDBRANCH   6  12
BRANCH   7  14
ATOM     14  C   UNL     1      -9.157   0.320  12.025  1.00  0.00     0.177 C 
BRANCH  14  15
ATOM     15  C   UNL     1      -9.999   0.562  10.757  1.00  0.00     0.038 C 
BRANCH  15  16
ATOM     16  C   UNL     1     -11.410  -0.057  10.651  1.00  0.00    -0.015 C 
ATOM     17  C   UNL     1     -11.479  -1.182   9.614  1.00  0.00     0.007 C 
ATOM     18  C   UNL     1     -12.423   1.025  10.254  1.00  0.00     0.007 C 
ENDBRANCH  15  16
ENDBRANCH  14  15
BRANCH  14  19
ATOM     19  C   UNL     1      -7.662  -0.148  12.045  1.00  0.00     0.245 C 
ATOM     20  O   UNL     1      -6.906   0.428  12.845  1.00  0.00    -0.272 OA
BRANCH  19  21
ATOM     21  N   UNL     1      -7.130  -1.069  11.160  1.00  0.00    -0.332 N 
ATOM     22  C   UNL     1      -7.794  -2.275  10.698  1.00  0.00     0.147 C 
BRANCH  21  23
ATOM     23  C   UNL     1      -5.758  -0.820  10.637  1.00  0.00     0.178 C 
BRANCH  23  24
ATOM     24  C   UNL     1      -5.297  -1.801   9.540  1.00  0.00     0.070 C 
BRANCH  24  25
ATOM     25  C   UNL     1      -4.087  -2.654   9.843  1.00  0.00    -0.045 A 
ATOM     26  C   UNL     1      -3.444  -2.571  11.084  1.00  0.00     0.004 A 
ATOM     27  C   UNL     1      -3.587  -3.541   8.878  1.00  0.00     0.004 A 
ATOM     28  C   UNL     1      -2.316  -3.350  11.351  1.00  0.00     0.000 A 
ATOM     29  C   UNL     1      -2.461  -4.320   9.146  1.00  0.00     0.000 A 
ATOM     30  C   UNL     1      -1.824  -4.222  10.382  1.00  0.00     0.000 A 
ENDBRANCH  24  25
ENDBRANCH  23  24
BRANCH  23  31
ATOM     31  C   UNL     1      -5.491   0.673  10.330  1.00  0.00     0.243 C 
ATOM     32  O   UNL     1      -5.822   1.230   9.286  1.00  0.00    -0.273 OA
ATOM     33  N   UNL     1      -4.675   1.292  11.262  1.00  0.00    -0.341 N 
ATOM     34  H   UNL     1      -4.427   0.775  12.109  1.00  0.00     0.164 HD
BRANCH  33  35
ATOM     35  C   UNL     1      -4.193   2.668  11.113  1.00  0.00     0.194 C 
BRANCH  35  36
ATOM     36  C   UNL     1      -2.713   2.872  11.543  1.00  0.00     0.017 C 
ATOM     37  C   UNL     1      -2.146   4.190  10.987  1.00  0.00     0.010 C 
ATOM     38  C   UNL     1      -1.787   1.742  11.078  1.00  0.00     0.010 C 
ENDBRANCH  35  36
BRANCH  35  39
ATOM     39  C   UNL     1      -5.139   3.707  11.777  1.00  0.00     0.329 C 
ATOM     40  O   UNL     1      -5.722   3.524  12.839  1.00  0.00    -0.250 OA
BRANCH  39  41
ATOM     41  O   UNL     1      -5.181   4.887  11.087  1.00  0.00    -0.458 OA
BRANCH  41  42
ATOM     42  C   UNL     1      -6.451   5.232  10.483  1.00  0.00     0.205 CG0
ATOM     43  C   UNL     1      -6.376   4.834   9.010  1.00  0.00     0.056 C 
ATOM     44  G   UNL     1      -6.692   6.743  10.674  1.00  0.00     0.000 G0
ENDBRANCH  41  42
ENDBRANCH  39  41
ENDBRANCH  35  39
ENDBRANCH  33  35
ENDBRANCH  23  31
ENDBRANCH  21  23
ENDBRANCH  19  21
ENDBRANCH  14  19
ENDBRANCH   7  14
ENDBRANCH   2   5
BRANCH   3  45
ATOM     45  C   UNL     1      -7.232   6.654  14.480  1.00  0.00     0.171 C 
BRANCH  45  46
ATOM     46  N   UNL     1      -6.677   6.625  13.134  1.00  0.00    -0.342 N 
ATOM     47  C   UNL     1      -7.404   6.992  12.029  1.00  0.00     0.247 C 
ATOM     48  O   UNL     1      -8.549   7.440  12.101  1.00  0.00    -0.273 OA
ATOM     49  H   UNL     1      -5.712   6.314  13.034  1.00  0.00     0.164 HD
BRANCH  47  50
ATOM     50  C   UNL     1      -6.695   6.779  10.684  1.00  0.00     0.212 CG0
ATOM     51  G   UNL     1      -6.463   5.264  10.514  1.00  0.00     0.000 G0
BRANCH  50  52
ATOM     52  N   UNL     1      -7.592   7.342   9.678  1.00  0.00    -0.339 N 
ATOM     53  C   UNL     1      -7.324   8.501   8.991  1.00  0.00     0.243 C 
ATOM     54  O   UNL     1      -6.328   9.185   9.210  1.00  0.00    -0.273 OA
ATOM     55  H   UNL     1      -8.487   6.880   9.530  1.00  0.00     0.164 HD
BRANCH  53  56
ATOM     56  C   UNL     1      -8.456   8.945   8.043  1.00  0.00     0.182 C 
BRANCH  56  57
ATOM     57  N   UNL     1      -7.932   9.754   6.939  1.00  0.00    -0.344 N 
ATOM     58  C   UNL     1      -8.222   9.482   5.624  1.00  0.00     0.220 C 
ATOM     59  O   UNL     1      -8.877   8.505   5.278  1.00  0.00    -0.275 OA
ATOM     60  H   UNL     1      -7.472  10.627   7.185  1.00  0.00     0.164 HD
BRANCH  58  61
ATOM     61  C   UNL     1      -7.620  10.484   4.656  1.00  0.00     0.100 C 
BRANCH  61  62
ATOM     62  C   UNL     1      -6.873   9.840   3.488  1.00  0.00     0.010 C 
BRANCH  62  63
ATOM     63  C   UNL     1      -7.785   9.319   2.370  1.00  0.00     0.000 C 
BRANCH  63  64
ATOM     64  C   UNL     1      -8.742  10.366   1.803  1.00  0.00    -0.003 C 
ATOM     65  C   UNL     1     -10.079   9.746   1.421  1.00  0.00     0.004 C 
ENDBRANCH  63  64
ENDBRANCH  62  63
ENDBRANCH  61  62
ENDBRANCH  58  61
ENDBRANCH  56  57
BRANCH  56  66
ATOM     66  C   UNL     1      -9.574   9.659   8.801  1.00  0.00     0.157 C 
BRANCH  66  67
ATOM     67  C   UNL     1     -10.687   8.712   9.147  1.00  0.00     0.305 C 
ATOM     68  O   UNL     1     -11.117   8.464  10.263  1.00  0.00    -0.252 OA
BRANCH  67  69
ATOM     69  O   UNL     1     -11.246   8.158   8.055  1.00  0.00    -0.481 OA
ATOM     70  H   UNL     1     -11.025   8.771   7.322  1.00  0.00     0.296 HD
ENDBRANCH  67  69
ENDBRANCH  66  67
ENDBRANCH  56  66
ENDBRANCH  53  56
ENDBRANCH  50  52
ENDBRANCH  47  50
ENDBRANCH  45  46
BRANCH  45  71
ATOM     71  C   UNL     1      -6.258   6.065  15.506  1.00  0.00     0.037 C 
BRANCH  71  72
ATOM     72  C   UNL     1      -4.822   6.540  15.276  1.00  0.00     0.026 C 
BRANCH  72  73
ATOM     73  C   UNL     1      -4.067   6.704  16.593  1.00  0.00     0.146 C 
BRANCH  73  74
ATOM     74  N   UNL     1      -4.065   8.123  16.934  1.00  0.00    -0.254 NA
ATOM     75  C   UNL     1      -4.853   8.517  17.865  1.00  0.00     0.185 C 
ATOM     76  N   UNL     1      -4.873   9.816  18.202  1.00  0.00    -0.370 N 
ATOM     77  N   UNL     1      -5.715   7.796  18.604  1.00  0.00    -0.370 N 
ATOM     78  H   UNL     1      -4.259  10.432  17.688  1.00  0.00     0.159 HD
ATOM     79  H   UNL     1      -5.561  10.219  18.814  1.00  0.00     0.159 HD
ATOM     80  H   UNL     1      -5.805   6.801  18.463  1.00  0.00     0.159 HD
ATOM     81  H   UNL     1      -6.201   8.196  19.389  1.00  0.00     0.159 HD
ENDBRANCH  73  74
ENDBRANCH  72  73
ENDBRANCH  71  72
ENDBRANCH  45  71
ENDBRANCH   3  45
TORSDOF 20
ENDMDL
MODEL 9
REMARK VINA RESULT:    -5.827      3.056      6.576
REMARK INTER + INTRA:         -23.898
REMARK INTER:                 -18.975
REMARK INTRA:                  -4.923
REMARK UNBOUND:                -7.171
REMARK SMILES CCCCCC(=O)N[C@H](CC(=O)O)C(=O)N[C@H]1C(=O)N[C@H](CCCN=C(N)N)C(=O)N[C@@H]2CC[C@H](O)N(C2=O)[C@@H](CC(C)C)C(=O)N(C)[C@@H](Cc2ccccc2)C(=O)N[C@H](C(C)C)C(=O)O[C@@H]1C
REMARK SMILES IDX 30 1 31 2 29 3 32 5 35 6 37 7 34 8 38 9 33 10 39 11 36 12
REMARK SMILES IDX 40 14 41 15 42 16 43 17 44 18 45 19 46 20 47 21 48 22 49 23
REMARK SMILES IDX 50 24 51 25 52 26 56 27 53 28 55 29 54 30 57 31 58 32 59 33
REMARK SMILES IDX 60 35 61 36 62 37 63 38 64 39 65 40 66 41 67 42 68 43 21 45
REMARK SMILES IDX 20 46 18 47 19 48 17 50 16 52 14 53 15 54 9 56 8 57 6 58
REMARK SMILES IDX 7 59 5 61 4 62 3 63 2 64 1 65 10 66 11 67 12 68 13 69 22 71
REMARK SMILES IDX 23 72 24 73 25 74 26 75 27 76 28 77
REMARK H PARENT 31 4 36 13 59 34 20 49 16 55 8 60 13 70 27 78 27 79 28 80
REMARK H PARENT 28 81
REMARK Flexibility Score:  259.900
ROOT
ATOM      1  O   UNL     1      -4.725   3.824   9.255  1.00  0.00    -0.273 OA
ATOM      2  N   UNL     1      -6.904   3.199   8.959  1.00  0.00    -0.343 N 
ATOM      3  C   UNL     1      -5.924   4.082   9.357  1.00  0.00     0.243 C 
ATOM      4  H   UNL     1      -7.881   3.451   9.044  1.00  0.00     0.164 HD
ENDROOT
BRANCH   2   5
ATOM      5  C   UNL     1      -6.555   1.857   8.505  1.00  0.00     0.171 C 
ATOM      6  C   UNL     1      -8.124  -0.310   7.390  1.00  0.00     0.214 C 
ATOM      7  N   UNL     1      -7.926  -0.239   8.819  1.00  0.00    -0.303 N 
ATOM      8  C   UNL     1      -6.971   0.278   6.593  1.00  0.00     0.057 C 
ATOM      9  C   UNL     1      -7.231   0.797   9.421  1.00  0.00     0.247 C 
ATOM     10  C   UNL     1      -6.752   1.720   6.996  1.00  0.00     0.040 C 
ATOM     11  O   UNL     1      -7.140   0.898  10.652  1.00  0.00    -0.272 OA
BRANCH   6  12
ATOM     12  O   UNL     1      -9.325   0.361   7.088  1.00  0.00    -0.373 OA
ATOM     13  H   UNL     1      -9.444   1.058   7.767  1.00  0.00     0.213 HD
ENDBRANCH   6  12
BRANCH   7  14
ATOM     14  C   UNL     1      -8.626  -1.246   9.644  1.00  0.00     0.177 C 
BRANCH  14  15
ATOM     15  C   UNL     1     -10.123  -1.431   9.325  1.00  0.00     0.038 C 
BRANCH  15  16
ATOM     16  C   UNL     1     -11.182  -0.973  10.351  1.00  0.00    -0.015 C 
ATOM     17  C   UNL     1     -11.725   0.426  10.046  1.00  0.00     0.007 C 
ATOM     18  C   UNL     1     -10.568  -0.955  11.757  1.00  0.00     0.007 C 
ENDBRANCH  15  16
ENDBRANCH  14  15
BRANCH  14  19
ATOM     19  C   UNL     1      -7.639  -2.391  10.058  1.00  0.00     0.245 C 
ATOM     20  O   UNL     1      -7.815  -3.500   9.528  1.00  0.00    -0.272 OA
BRANCH  19  21
ATOM     21  N   UNL     1      -6.677  -2.261  11.044  1.00  0.00    -0.332 N 
ATOM     22  C   UNL     1      -6.929  -2.275  12.474  1.00  0.00     0.147 C 
BRANCH  21  23
ATOM     23  C   UNL     1      -5.262  -2.080  10.616  1.00  0.00     0.178 C 
BRANCH  23  24
ATOM     24  C   UNL     1      -5.061  -1.944   9.093  1.00  0.00     0.070 C 
BRANCH  24  25
ATOM     25  C   UNL     1      -3.938  -2.743   8.473  1.00  0.00    -0.045 A 
ATOM     26  C   UNL     1      -3.032  -2.142   7.590  1.00  0.00     0.004 A 
ATOM     27  C   UNL     1      -3.791  -4.106   8.772  1.00  0.00     0.004 A 
ATOM     28  C   UNL     1      -2.008  -2.892   7.007  1.00  0.00     0.000 A 
ATOM     29  C   UNL     1      -2.766  -4.854   8.190  1.00  0.00     0.000 A 
ATOM     30  C   UNL     1      -1.877  -4.246   7.306  1.00  0.00     0.000 A 
ENDBRANCH  24  25
ENDBRANCH  23  24
BRANCH  23  31
ATOM     31  C   UNL     1      -4.502  -1.037  11.470  1.00  0.00     0.243 C 
ATOM     32  O   UNL     1      -4.010  -1.277  12.569  1.00  0.00    -0.273 OA
ATOM     33  N   UNL     1      -4.583   0.252  10.970  1.00  0.00    -0.341 N 
ATOM     34  H   UNL     1      -5.010   0.390  10.051  1.00  0.00     0.164 HD
BRANCH  33  35
ATOM     35  C   UNL     1      -4.040   1.417  11.673  1.00  0.00     0.194 C 
BRANCH  35  36
ATOM     36  C   UNL     1      -2.510   1.342  11.940  1.00  0.00     0.017 C 
ATOM     37  C   UNL     1      -1.928   2.731  12.254  1.00  0.00     0.010 C 
ATOM     38  C   UNL     1      -1.718   0.770  10.757  1.00  0.00     0.010 C 
ENDBRANCH  35  36
BRANCH  35  39
ATOM     39  C   UNL     1      -4.837   1.762  12.962  1.00  0.00     0.329 C 
ATOM     40  O   UNL     1      -4.552   1.343  14.078  1.00  0.00    -0.250 OA
BRANCH  39  41
ATOM     41  O   UNL     1      -5.844   2.657  12.727  1.00  0.00    -0.458 OA
BRANCH  41  42
ATOM     42  C   UNL     1      -6.541   3.158  13.892  1.00  0.00     0.205 CG0
ATOM     43  C   UNL     1      -7.738   2.240  14.135  1.00  0.00     0.056 C 
ATOM     44  G   UNL     1      -6.962   4.617  13.624  1.00  0.00     0.000 G0
ENDBRANCH  41  42
ENDBRANCH  39  41
ENDBRANCH  35  39
ENDBRANCH  33  35
ENDBRANCH  23  31
ENDBRANCH  21  23
ENDBRANCH  19  21
ENDBRANCH  14  19
ENDBRANCH   7  14
ENDBRANCH   2   5
BRANCH   3  45
ATOM     45  C   UNL     1      -6.432   5.418   9.916  1.00  0.00     0.171 C 
BRANCH  45  46
ATOM     46  N   UNL     1      -6.992   5.110  11.225  1.00  0.00    -0.342 N 
ATOM     47  C   UNL     1      -6.234   5.113  12.369  1.00  0.00     0.247 C 
ATOM     48  O   UNL     1      -5.048   5.445  12.385  1.00  0.00    -0.273 OA
ATOM     49  H   UNL     1      -7.984   4.885  11.266  1.00  0.00     0.164 HD
BRANCH  47  50
ATOM     50  C   UNL     1      -6.965   4.643  13.635  1.00  0.00     0.212 CG0
ATOM     51  G   UNL     1      -6.550   3.181  13.898  1.00  0.00     0.000 G0
BRANCH  50  52
ATOM     52  N   UNL     1      -6.547   5.561  14.690  1.00  0.00    -0.339 N 
ATOM     53  C   UNL     1      -7.424   6.334  15.411  1.00  0.00     0.243 C 
ATOM     54  O   UNL     1      -8.631   6.351  15.185  1.00  0.00    -0.273 OA
ATOM     55  H   UNL     1      -5.547   5.674  14.850  1.00  0.00     0.164 HD
BRANCH  53  56
ATOM     56  C   UNL     1      -6.742   7.289  16.412  1.00  0.00     0.182 C 
BRANCH  56  57
ATOM     57  N   UNL     1      -5.330   6.940  16.594  1.00  0.00    -0.344 N 
ATOM     58  C   UNL     1      -4.424   7.807  17.156  1.00  0.00     0.220 C 
ATOM     59  O   UNL     1      -4.715   8.954  17.475  1.00  0.00    -0.275 OA
ATOM     60  H   UNL     1      -5.071   5.969  16.438  1.00  0.00     0.164 HD
BRANCH  58  61
ATOM     61  C   UNL     1      -3.034   7.215  17.300  1.00  0.00     0.100 C 
BRANCH  61  62
ATOM     62  C   UNL     1      -1.933   8.261  17.466  1.00  0.00     0.010 C 
BRANCH  62  63
ATOM     63  C   UNL     1      -1.505   8.936  16.157  1.00  0.00     0.000 C 
BRANCH  63  64
ATOM     64  C   UNL     1      -0.206   9.734  16.258  1.00  0.00    -0.003 C 
ATOM     65  C   UNL     1      -0.256  10.732  17.406  1.00  0.00     0.004 C 
ENDBRANCH  63  64
ENDBRANCH  62  63
ENDBRANCH  61  62
ENDBRANCH  58  61
ENDBRANCH  56  57
BRANCH  56  66
ATOM     66  C   UNL     1      -7.499   7.343  17.738  1.00  0.00     0.157 C 
BRANCH  66  67
ATOM     67  C   UNL     1      -8.245   8.637  17.887  1.00  0.00     0.305 C 
ATOM     68  O   UNL     1      -8.145   9.440  18.802  1.00  0.00    -0.252 OA
BRANCH  67  69
ATOM     69  O   UNL     1      -9.052   8.886  16.838  1.00  0.00    -0.481 OA
ATOM     70  H   UNL     1      -8.753   8.265  16.140  1.00  0.00     0.296 HD
ENDBRANCH  67  69
ENDBRANCH  66  67
ENDBRANCH  56  66
ENDBRANCH  53  56
ENDBRANCH  50  52
ENDBRANCH  47  50
ENDBRANCH  45  46
BRANCH  45  71
ATOM     71  C   UNL     1      -7.483   6.024   8.980  1.00  0.00     0.037 C 
BRANCH  71  72
ATOM     72  C   UNL     1      -7.306   7.536   8.816  1.00  0.00     0.026 C 
BRANCH  72  73
ATOM     73  C   UNL     1      -7.959   8.303   9.964  1.00  0.00     0.146 C 
BRANCH  73  74
ATOM     74  N   UNL     1      -8.982   7.444  10.551  1.00  0.00    -0.254 NA
ATOM     75  C   UNL     1      -9.154   7.499  11.820  1.00  0.00     0.185 C 
ATOM     76  N   UNL     1     -10.089   6.721  12.390  1.00  0.00    -0.370 N 
ATOM     77  N   UNL     1      -8.512   8.254  12.728  1.00  0.00    -0.370 N 
ATOM     78  H   UNL     1     -10.614   6.114  11.778  1.00  0.00     0.159 HD
ATOM     79  H   UNL     1     -10.180   6.603  13.384  1.00  0.00     0.159 HD
ATOM     80  H   UNL     1      -7.784   8.893  12.443  1.00  0.00     0.159 HD
ATOM     81  H   UNL     1      -8.813   8.297  13.688  1.00  0.00     0.159 HD
ENDBRANCH  73  74
ENDBRANCH  72  73
ENDBRANCH  71  72
ENDBRANCH  45  71
ENDBRANCH   3  45
TORSDOF 20
ENDMDL
MODEL 10
REMARK VINA RESULT:    -5.714      3.309      8.314
REMARK INTER + INTRA:         -23.575
REMARK INTER:                 -19.147
REMARK INTRA:                  -4.428
REMARK UNBOUND:                -7.171
REMARK SMILES CCCCCC(=O)N[C@H](CC(=O)O)C(=O)N[C@H]1C(=O)N[C@H](CCCN=C(N)N)C(=O)N[C@@H]2CC[C@H](O)N(C2=O)[C@@H](CC(C)C)C(=O)N(C)[C@@H](Cc2ccccc2)C(=O)N[C@H](C(C)C)C(=O)O[C@@H]1C
REMARK SMILES IDX 30 1 31 2 29 3 32 5 35 6 37 7 34 8 38 9 33 10 39 11 36 12
REMARK SMILES IDX 40 14 41 15 42 16 43 17 44 18 45 19 46 20 47 21 48 22 49 23
REMARK SMILES IDX 50 24 51 25 52 26 56 27 53 28 55 29 54 30 57 31 58 32 59 33
REMARK SMILES IDX 60 35 61 36 62 37 63 38 64 39 65 40 66 41 67 42 68 43 21 45
REMARK SMILES IDX 20 46 18 47 19 48 17 50 16 52 14 53 15 54 9 56 8 57 6 58
REMARK SMILES IDX 7 59 5 61 4 62 3 63 2 64 1 65 10 66 11 67 12 68 13 69 22 71
REMARK SMILES IDX 23 72 24 73 25 74 26 75 27 76 28 77
REMARK H PARENT 31 4 36 13 59 34 20 49 16 55 8 60 13 70 27 78 27 79 28 80
REMARK H PARENT 28 81
REMARK Flexibility Score:  259.900
ROOT
ATOM      1  O   UNL     1     -11.156   5.803  12.825  1.00  0.00    -0.273 OA
ATOM      2  N   UNL     1      -9.770   4.337  13.902  1.00  0.00    -0.343 N 
ATOM      3  C   UNL     1     -10.126   5.595  13.467  1.00  0.00     0.243 C 
ATOM      4  H   UNL     1      -8.922   4.206  14.440  1.00  0.00     0.164 HD
ENDROOT
BRANCH   2   5
ATOM      5  C   UNL     1     -10.551   3.168  13.512  1.00  0.00     0.171 C 
ATOM      6  C   UNL     1     -10.063   0.318  13.728  1.00  0.00     0.214 C 
ATOM      7  N   UNL     1      -9.653   1.021  12.534  1.00  0.00    -0.303 N 
ATOM      8  C   UNL     1     -11.283   0.931  14.398  1.00  0.00     0.057 C 
ATOM      9  C   UNL     1      -9.810   2.390  12.387  1.00  0.00     0.247 C 
ATOM     10  C   UNL     1     -11.007   2.379  14.739  1.00  0.00     0.040 C 
ATOM     11  O   UNL     1      -9.379   2.997  11.399  1.00  0.00    -0.272 OA
BRANCH   6  12
ATOM     12  O   UNL     1      -8.969   0.304  14.615  1.00  0.00    -0.373 OA
ATOM     13  H   UNL     1      -9.294  -0.061  15.466  1.00  0.00     0.213 HD
ENDBRANCH   6  12
BRANCH   7  14
ATOM     14  C   UNL     1      -8.916   0.241  11.517  1.00  0.00     0.177 C 
BRANCH  14  15
ATOM     15  C   UNL     1      -9.432   0.394  10.073  1.00  0.00     0.038 C 
BRANCH  15  16
ATOM     16  C   UNL     1      -8.906  -0.554   8.973  1.00  0.00    -0.015 C 
ATOM     17  C   UNL     1      -9.224  -0.047   7.563  1.00  0.00     0.007 C 
ATOM     18  C   UNL     1      -9.538  -1.942   9.138  1.00  0.00     0.007 C 
ENDBRANCH  15  16
ENDBRANCH  14  15
BRANCH  14  19
ATOM     19  C   UNL     1      -7.412   0.091  11.932  1.00  0.00     0.245 C 
ATOM     20  O   UNL     1      -6.925   1.010  12.611  1.00  0.00    -0.272 OA
BRANCH  19  21
ATOM     21  N   UNL     1      -6.591  -0.933  11.496  1.00  0.00    -0.332 N 
ATOM     22  C   UNL     1      -6.815  -2.349  11.725  1.00  0.00     0.147 C 
BRANCH  21  23
ATOM     23  C   UNL     1      -5.364  -0.566  10.735  1.00  0.00     0.178 C 
BRANCH  23  24
ATOM     24  C   UNL     1      -4.958  -1.573   9.640  1.00  0.00     0.070 C 
BRANCH  24  25
ATOM     25  C   UNL     1      -3.504  -1.591   9.228  1.00  0.00    -0.045 A 
ATOM     26  C   UNL     1      -2.511  -1.085  10.077  1.00  0.00     0.004 A 
ATOM     27  C   UNL     1      -3.129  -2.114   7.982  1.00  0.00     0.004 A 
ATOM     28  C   UNL     1      -1.172  -1.091   9.681  1.00  0.00     0.000 A 
ATOM     29  C   UNL     1      -1.790  -2.120   7.588  1.00  0.00     0.000 A 
ATOM     30  C   UNL     1      -0.812  -1.605   8.438  1.00  0.00     0.000 A 
ENDBRANCH  24  25
ENDBRANCH  23  24
BRANCH  23  31
ATOM     31  C   UNL     1      -5.349   0.918  10.294  1.00  0.00     0.243 C 
ATOM     32  O   UNL     1      -5.999   1.360   9.351  1.00  0.00    -0.273 OA
ATOM     33  N   UNL     1      -4.391   1.678  10.943  1.00  0.00    -0.341 N 
ATOM     34  H   UNL     1      -3.877   1.252  11.718  1.00  0.00     0.164 HD
BRANCH  33  35
ATOM     35  C   UNL     1      -4.117   3.077  10.603  1.00  0.00     0.194 C 
BRANCH  35  36
ATOM     36  C   UNL     1      -2.612   3.389  10.366  1.00  0.00     0.017 C 
ATOM     37  C   UNL     1      -2.098   2.721   9.079  1.00  0.00     0.010 C 
ATOM     38  C   UNL     1      -1.710   2.924  11.516  1.00  0.00     0.010 C 
ENDBRANCH  35  36
BRANCH  35  39
ATOM     39  C   UNL     1      -4.765   4.073  11.604  1.00  0.00     0.329 C 
ATOM     40  O   UNL     1      -4.863   3.871  12.808  1.00  0.00    -0.250 OA
BRANCH  39  41
ATOM     41  O   UNL     1      -5.138   5.244  11.003  1.00  0.00    -0.458 OA
BRANCH  41  42
ATOM     42  C   UNL     1      -6.562   5.475  10.879  1.00  0.00     0.205 CG0
ATOM     43  C   UNL     1      -7.029   4.761   9.612  1.00  0.00     0.056 C 
ATOM     44  G   UNL     1      -6.810   6.996  10.823  1.00  0.00     0.000 G0
ENDBRANCH  41  42
ENDBRANCH  39  41
ENDBRANCH  35  39
ENDBRANCH  33  35
ENDBRANCH  23  31
ENDBRANCH  21  23
ENDBRANCH  19  21
ENDBRANCH  14  19
ENDBRANCH   7  14
ENDBRANCH   2   5
BRANCH   3  45
ATOM     45  C   UNL     1      -9.160   6.723  13.855  1.00  0.00     0.171 C 
BRANCH  45  46
ATOM     46  N   UNL     1      -8.050   6.631  12.916  1.00  0.00    -0.342 N 
ATOM     47  C   UNL     1      -8.018   7.340  11.742  1.00  0.00     0.247 C 
ATOM     48  O   UNL     1      -8.886   8.157  11.431  1.00  0.00    -0.273 OA
ATOM     49  H   UNL     1      -7.282   6.008  13.162  1.00  0.00     0.164 HD
BRANCH  47  50
ATOM     50  C   UNL     1      -6.831   7.022  10.822  1.00  0.00     0.212 CG0
ATOM     51  G   UNL     1      -6.576   5.503  10.896  1.00  0.00     0.000 G0
BRANCH  50  52
ATOM     52  N   UNL     1      -7.234   7.475   9.494  1.00  0.00    -0.339 N 
ATOM     53  C   UNL     1      -6.358   8.001   8.576  1.00  0.00     0.243 C 
ATOM     54  O   UNL     1      -5.168   8.180   8.824  1.00  0.00    -0.273 OA
ATOM     55  H   UNL     1      -8.227   7.456   9.269  1.00  0.00     0.164 HD
BRANCH  53  56
ATOM     56  C   UNL     1      -7.028   8.491   7.277  1.00  0.00     0.182 C 
BRANCH  56  57
ATOM     57  N   UNL     1      -6.157   9.423   6.554  1.00  0.00    -0.344 N 
ATOM     58  C   UNL     1      -6.421   9.830   5.269  1.00  0.00     0.220 C 
ATOM     59  O   UNL     1      -7.358   9.389   4.612  1.00  0.00    -0.275 OA
ATOM     60  H   UNL     1      -5.432   9.888   7.093  1.00  0.00     0.164 HD
BRANCH  58  61
ATOM     61  C   UNL     1      -5.420  10.841   4.741  1.00  0.00     0.100 C 
BRANCH  61  62
ATOM     62  C   UNL     1      -3.968  10.369   4.819  1.00  0.00     0.010 C 
BRANCH  62  63
ATOM     63  C   UNL     1      -3.327  10.083   3.455  1.00  0.00     0.000 C 
BRANCH  63  64
ATOM     64  C   UNL     1      -2.217   9.033   3.492  1.00  0.00    -0.003 C 
ATOM     65  C   UNL     1      -2.465   8.001   4.582  1.00  0.00     0.004 C 
ENDBRANCH  63  64
ENDBRANCH  62  63
ENDBRANCH  61  62
ENDBRANCH  58  61
ENDBRANCH  56  57
BRANCH  56  66
ATOM     66  C   UNL     1      -8.409   9.084   7.548  1.00  0.00     0.157 C 
BRANCH  66  67
ATOM     67  C   UNL     1      -8.307  10.371   8.317  1.00  0.00     0.305 C 
ATOM     68  O   UNL     1      -7.465  10.659   9.153  1.00  0.00    -0.252 OA
BRANCH  67  69
ATOM     69  O   UNL     1      -9.249  11.261   7.953  1.00  0.00    -0.481 OA
ATOM     70  H   UNL     1      -9.990  11.111   8.578  1.00  0.00     0.296 HD
ENDBRANCH  67  69
ENDBRANCH  66  67
ENDBRANCH  56  66
ENDBRANCH  53  56
ENDBRANCH  50  52
ENDBRANCH  47  50
ENDBRANCH  45  46
BRANCH  45  71
ATOM     71  C   UNL     1      -8.691   6.548  15.304  1.00  0.00     0.037 C 
BRANCH  71  72
ATOM     72  C   UNL     1      -7.942   7.779  15.819  1.00  0.00     0.026 C 
BRANCH  72  73
ATOM     73  C   UNL     1      -6.789   7.388  16.742  1.00  0.00     0.146 C 
BRANCH  73  74
ATOM     74  N   UNL     1      -6.287   6.090  16.304  1.00  0.00    -0.254 NA
ATOM     75  C   UNL     1      -5.048   6.004  15.983  1.00  0.00     0.185 C 
ATOM     76  N   UNL     1      -4.556   4.822  15.578  1.00  0.00    -0.370 N 
ATOM     77  N   UNL     1      -4.106   6.963  15.988  1.00  0.00    -0.370 N 
ATOM     78  H   UNL     1      -5.202   4.047  15.537  1.00  0.00     0.159 HD
ATOM     79  H   UNL     1      -3.642   4.712  15.176  1.00  0.00     0.159 HD
ATOM     80  H   UNL     1      -4.331   7.903  16.275  1.00  0.00     0.159 HD
ATOM     81  H   UNL     1      -3.135   6.750  15.826  1.00  0.00     0.159 HD
ENDBRANCH  73  74
ENDBRANCH  72  73
ENDBRANCH  71  72
ENDBRANCH  45  71
ENDBRANCH   3  45
TORSDOF 20
ENDMDL
