MODEL 1
REMARK VINA RESULT:    -7.374      0.000      0.000
REMARK INTER + INTRA:         -30.743
REMARK INTER:                 -22.030
REMARK INTRA:                  -8.713
REMARK UNBOUND:                -8.713
REMARK SMILES C=C1C(=O)N[C@H](C)C(=O)N[C@@H](CC(C)C)C(=O)N[C@@H](C(=O)O)[C@H](C)C(=O)N[C@@H](CCCN=C(N)N)C(=O)N[C@@H](/C=C/C(C)=C/[C@H](C)[C@H](Cc2ccccc2)OC)[C@H](C)C(=O)N[C@@H](C(=O)O)CCC(=O)N1C
REMARK SMILES IDX 39 1 38 2 37 3 36 4 28 6 27 7 25 8 26 9 23 11 24 12 19 13
REMARK SMILES IDX 18 14 16 15 17 16 11 18 10 19 8 20 9 21 12 24 13 25 14 26
REMARK SMILES IDX 15 27 20 28 21 29 22 30 29 32 30 33 31 34 32 35 33 36 34 37
REMARK SMILES IDX 35 38 57 43 58 44 59 45 60 46 61 47 62 49 66 50 67 51 68 52
REMARK SMILES IDX 69 53 70 54 71 55 2 56 1 57 3 58 4 59 5 60 6 62 7 63 63 65
REMARK SMILES IDX 64 66 65 67 40 69 41 70 42 71 44 72 43 73 45 74 46 75 47 76
REMARK SMILES IDX 55 77 56 78 48 79 49 80 50 81 54 82 51 83 53 84 52 85
REMARK H PARENT 38 5 27 10 18 17 10 22 22 31 34 39 34 40 35 41 35 42 61 48
REMARK H PARENT 5 61 65 68
REMARK Flexibility Score:  369.900
ROOT
ATOM      1  C   UNL     1      -8.106  -2.172  15.447  1.00  0.00     0.117 C 
ENDROOT
BRANCH   1   2
ATOM      2  N   UNL     1      -7.460  -1.220  16.352  1.00  0.00    -0.347 N 
ATOM      3  O   UNL     1      -9.281   0.122  16.745  1.00  0.00    -0.273 OA
ATOM      4  C   UNL     1      -8.125  -0.199  17.003  1.00  0.00     0.243 C 
ATOM      5  H   UNL     1      -6.481  -1.329  16.567  1.00  0.00     0.164 HD
BRANCH   4   6
ATOM      6  C   UNL     1      -7.228   0.612  17.972  1.00  0.00     0.171 C 
BRANCH   6   7
ATOM      7  N   UNL     1      -6.139   1.271  17.233  1.00  0.00    -0.344 N 
ATOM      8  C   UNL     1      -4.888   0.696  17.163  1.00  0.00     0.226 C 
ATOM      9  O   UNL     1      -4.616  -0.362  17.719  1.00  0.00    -0.275 OA
ATOM     10  H   UNL     1      -6.307   2.179  16.818  1.00  0.00     0.164 HD
BRANCH   8  11
ATOM     11  C   UNL     1      -3.890   1.470  16.321  1.00  0.00     0.109 C 
ATOM     12  C   UNL     1      -4.254   2.955  16.305  1.00  0.00     0.021 C 
BRANCH  11  13
ATOM     13  C   UNL     1      -2.456   1.159  16.794  1.00  0.00     0.204 C 
BRANCH  13  14
ATOM     14  N   UNL     1      -1.563   0.839  15.677  1.00  0.00    -0.340 N 
ATOM     15  C   UNL     1      -0.505  -0.037  15.791  1.00  0.00     0.243 C 
ATOM     16  O   UNL     1      -0.272  -0.659  16.826  1.00  0.00    -0.273 OA
ATOM     17  H   UNL     1      -1.607   1.429  14.842  1.00  0.00     0.164 HD
BRANCH  15  18
ATOM     18  C   UNL     1       0.417  -0.059  14.548  1.00  0.00     0.171 C 
BRANCH  18  19
ATOM     19  N   UNL     1       1.780  -0.247  15.041  1.00  0.00    -0.343 N 
ATOM     20  C   UNL     1       2.681   0.799  15.109  1.00  0.00     0.242 CG0
ATOM     21  O   UNL     1       2.423   1.903  14.636  1.00  0.00    -0.273 OA
ATOM     22  H   UNL     1       2.080  -1.169  15.337  1.00  0.00     0.164 HD
ATOM     23  G   UNL     1       4.043   0.425  15.730  1.00  0.00     0.000 G0
ENDBRANCH  18  19
BRANCH  18  24
ATOM     24  C   UNL     1       0.007  -1.183  13.589  1.00  0.00     0.038 C 
BRANCH  24  25
ATOM     25  C   UNL     1       0.444  -0.972  12.124  1.00  0.00    -0.015 C 
ATOM     26  C   UNL     1      -0.698  -1.198  11.133  1.00  0.00     0.007 C 
ATOM     27  C   UNL     1       1.606  -1.913  11.793  1.00  0.00     0.007 C 
ENDBRANCH  24  25
ENDBRANCH  18  24
ENDBRANCH  15  18
ENDBRANCH  13  14
BRANCH  13  28
ATOM     28  C   UNL     1      -1.814   2.312  17.572  1.00  0.00     0.327 C 
ATOM     29  O   UNL     1      -1.232   3.273  17.091  1.00  0.00    -0.250 OA
BRANCH  28  30
ATOM     30  O   UNL     1      -1.839   2.128  18.907  1.00  0.00    -0.480 OA
ATOM     31  H   UNL     1      -0.898   2.180  19.176  1.00  0.00     0.296 HD
ENDBRANCH  28  30
ENDBRANCH  13  28
ENDBRANCH  11  13
ENDBRANCH   8  11
ENDBRANCH   6   7
BRANCH   6  32
ATOM     32  C   UNL     1      -8.088   1.641  18.713  1.00  0.00     0.037 C 
BRANCH  32  33
ATOM     33  C   UNL     1      -7.578   3.075  18.512  1.00  0.00     0.026 C 
BRANCH  33  34
ATOM     34  C   UNL     1      -7.164   3.738  19.826  1.00  0.00     0.146 C 
BRANCH  34  35
ATOM     35  N   UNL     1      -5.908   4.446  19.620  1.00  0.00    -0.254 NA
ATOM     36  C   UNL     1      -4.809   3.829  19.849  1.00  0.00     0.185 C 
ATOM     37  N   UNL     1      -3.646   4.470  19.658  1.00  0.00    -0.370 N 
ATOM     38  N   UNL     1      -4.623   2.567  20.276  1.00  0.00    -0.370 N 
ATOM     39  H   UNL     1      -3.703   5.424  19.326  1.00  0.00     0.159 HD
ATOM     40  H   UNL     1      -2.752   4.010  19.647  1.00  0.00     0.159 HD
ATOM     41  H   UNL     1      -3.711   2.240  20.554  1.00  0.00     0.159 HD
ATOM     42  H   UNL     1      -5.411   1.972  20.477  1.00  0.00     0.159 HD
ENDBRANCH  34  35
ENDBRANCH  33  34
ENDBRANCH  32  33
ENDBRANCH   6  32
ENDBRANCH   4   6
ENDBRANCH   1   2
BRANCH   1  43
ATOM     43  C   UNL     1      -7.645  -3.609  15.828  1.00  0.00     0.102 C 
ATOM     44  C   UNL     1      -6.282  -3.645  16.541  1.00  0.00     0.020 C 
BRANCH  43  45
ATOM     45  C   UNL     1      -7.743  -4.555  14.628  1.00  0.00     0.225 C 
ATOM     46  O   UNL     1      -6.774  -4.879  13.948  1.00  0.00    -0.275 OA
ATOM     47  N   UNL     1      -9.017  -4.954  14.291  1.00  0.00    -0.342 N 
ATOM     48  H   UNL     1      -9.776  -4.805  14.941  1.00  0.00     0.164 HD
BRANCH  47  49
ATOM     49  C   UNL     1      -9.261  -5.887  13.187  1.00  0.00     0.192 C 
BRANCH  49  50
ATOM     50  C   UNL     1     -10.056  -5.182  12.085  1.00  0.00     0.047 C 
BRANCH  50  51
ATOM     51  C   UNL     1     -10.758  -3.916  12.592  1.00  0.00     0.103 C 
BRANCH  51  52
ATOM     52  C   UNL     1     -12.211  -4.182  12.982  1.00  0.00     0.226 C 
ATOM     53  O   UNL     1     -13.013  -4.560  12.126  1.00  0.00    -0.275 OA
BRANCH  52  54
ATOM     54  N   UNL     1     -12.528  -4.047  14.346  1.00  0.00    -0.311 N 
ATOM     55  C   UNL     1     -12.117  -2.858  15.104  1.00  0.00     0.153 C 
BRANCH  54  56
ATOM     56  C   UNL     1     -13.253  -5.037  15.031  1.00  0.00     0.102 C 
ATOM     57  C   UNL     1     -12.810  -5.708  16.107  1.00  0.00     0.043 C 
BRANCH  56  58
ATOM     58  C   UNL     1     -14.659  -5.397  14.612  1.00  0.00     0.268 C 
ATOM     59  O   UNL     1     -15.105  -6.535  14.672  1.00  0.00    -0.268 OA
ATOM     60  N   UNL     1     -15.402  -4.308  14.222  1.00  0.00    -0.339 N 
ATOM     61  H   UNL     1     -14.956  -3.399  14.190  1.00  0.00     0.164 HD
BRANCH  60  62
ATOM     62  C   UNL     1     -16.808  -4.422  13.836  1.00  0.00     0.168 CG0
ATOM     63  C   UNL     1     -17.151  -3.442  12.722  1.00  0.00     0.041 C 
ATOM     64  G   UNL     1     -17.703  -4.182  15.069  1.00  0.00     0.000 G0
ENDBRANCH  60  62
ENDBRANCH  56  58
ENDBRANCH  54  56
ENDBRANCH  52  54
ENDBRANCH  51  52
ENDBRANCH  50  51
ENDBRANCH  49  50
BRANCH  49  65
ATOM     65  C   UNL     1     -10.032  -7.130  13.656  1.00  0.00     0.326 C 
ATOM     66  O   UNL     1     -10.280  -7.416  14.818  1.00  0.00    -0.250 OA
BRANCH  65  67
ATOM     67  O   UNL     1     -10.396  -7.974  12.665  1.00  0.00    -0.480 OA
ATOM     68  H   UNL     1     -11.320  -7.709  12.464  1.00  0.00     0.296 HD
ENDBRANCH  65  67
ENDBRANCH  49  65
ENDBRANCH  47  49
ENDBRANCH  43  45
ENDBRANCH   1  43
BRANCH   1  69
ATOM     69  C   UNL     1      -7.841  -1.666  14.041  1.00  0.00    -0.001 C 
ATOM     70  C   UNL     1      -8.751  -1.319  13.113  1.00  0.00     0.001 C 
BRANCH  70  71
ATOM     71  C   UNL     1      -8.483  -0.811  11.766  1.00  0.00    -0.055 C 
ATOM     72  C   UNL     1      -7.549  -1.448  11.029  1.00  0.00    -0.018 C 
ATOM     73  C   UNL     1      -9.275   0.381  11.295  1.00  0.00     0.044 C 
BRANCH  72  74
ATOM     74  C   UNL     1      -7.070  -1.150   9.616  1.00  0.00     0.038 C 
ATOM     75  C   UNL     1      -7.784  -2.132   8.679  1.00  0.00     0.015 C 
BRANCH  74  76
ATOM     76  C   UNL     1      -5.515  -1.233   9.586  1.00  0.00     0.128 C 
BRANCH  76  77
ATOM     77  O   UNL     1      -5.024  -0.798   8.307  1.00  0.00    -0.381 OA
ATOM     78  C   UNL     1      -3.606  -0.799   8.208  1.00  0.00     0.195 C 
ENDBRANCH  76  77
BRANCH  76  79
ATOM     79  C   UNL     1      -4.823  -0.512  10.770  1.00  0.00     0.068 C 
BRANCH  79  80
ATOM     80  C   UNL     1      -4.380  -1.349  11.946  1.00  0.00    -0.045 A 
ATOM     81  C   UNL     1      -4.329  -0.810  13.238  1.00  0.00     0.004 A 
ATOM     82  C   UNL     1      -3.982  -2.681  11.755  1.00  0.00     0.004 A 
ATOM     83  C   UNL     1      -3.904  -1.586  14.318  1.00  0.00     0.000 A 
ATOM     84  C   UNL     1      -3.556  -3.457  12.836  1.00  0.00     0.000 A 
ATOM     85  C   UNL     1      -3.519  -2.910  14.117  1.00  0.00     0.000 A 
ENDBRANCH  79  80
ENDBRANCH  76  79
ENDBRANCH  74  76
ENDBRANCH  72  74
ENDBRANCH  70  71
ENDBRANCH   1  69
TORSDOF 17
ENDMDL
MODEL 2
REMARK VINA RESULT:    -7.319      4.777     10.353
REMARK INTER + INTRA:         -30.578
REMARK INTER:                 -22.641
REMARK INTRA:                  -7.937
REMARK UNBOUND:                -8.713
REMARK SMILES C=C1C(=O)N[C@H](C)C(=O)N[C@@H](CC(C)C)C(=O)N[C@@H](C(=O)O)[C@H](C)C(=O)N[C@@H](CCCN=C(N)N)C(=O)N[C@@H](/C=C/C(C)=C/[C@H](C)[C@H](Cc2ccccc2)OC)[C@H](C)C(=O)N[C@@H](C(=O)O)CCC(=O)N1C
REMARK SMILES IDX 39 1 38 2 37 3 36 4 28 6 27 7 25 8 26 9 23 11 24 12 19 13
REMARK SMILES IDX 18 14 16 15 17 16 11 18 10 19 8 20 9 21 12 24 13 25 14 26
REMARK SMILES IDX 15 27 20 28 21 29 22 30 29 32 30 33 31 34 32 35 33 36 34 37
REMARK SMILES IDX 35 38 57 43 58 44 59 45 60 46 61 47 62 49 66 50 67 51 68 52
REMARK SMILES IDX 69 53 70 54 71 55 2 56 1 57 3 58 4 59 5 60 6 62 7 63 63 65
REMARK SMILES IDX 64 66 65 67 40 69 41 70 42 71 44 72 43 73 45 74 46 75 47 76
REMARK SMILES IDX 55 77 56 78 48 79 49 80 50 81 54 82 51 83 53 84 52 85
REMARK H PARENT 38 5 27 10 18 17 10 22 22 31 34 39 34 40 35 41 35 42 61 48
REMARK H PARENT 5 61 65 68
REMARK Flexibility Score:  369.900
ROOT
ATOM      1  C   UNL     1      -5.692  -2.600  10.683  1.00  0.00     0.117 C 
ENDROOT
BRANCH   1   2
ATOM      2  N   UNL     1      -5.909  -1.719   9.535  1.00  0.00    -0.347 N 
ATOM      3  O   UNL     1      -7.742  -2.789   8.660  1.00  0.00    -0.273 OA
ATOM      4  C   UNL     1      -6.976  -1.832   8.664  1.00  0.00     0.243 C 
ATOM      5  H   UNL     1      -5.281  -0.945   9.380  1.00  0.00     0.164 HD
BRANCH   4   6
ATOM      6  C   UNL     1      -7.019  -0.720   7.585  1.00  0.00     0.171 C 
BRANCH   6   7
ATOM      7  N   UNL     1      -7.077  -1.312   6.239  1.00  0.00    -0.344 N 
ATOM      8  C   UNL     1      -5.973  -1.289   5.413  1.00  0.00     0.226 C 
ATOM      9  O   UNL     1      -4.915  -0.765   5.740  1.00  0.00    -0.275 OA
ATOM     10  H   UNL     1      -7.954  -1.695   5.907  1.00  0.00     0.164 HD
BRANCH   8  11
ATOM     11  C   UNL     1      -6.175  -1.988   4.080  1.00  0.00     0.109 C 
ATOM     12  C   UNL     1      -5.822  -1.042   2.932  1.00  0.00     0.021 C 
BRANCH  11  13
ATOM     13  C   UNL     1      -5.413  -3.328   4.073  1.00  0.00     0.204 C 
BRANCH  13  14
ATOM     14  N   UNL     1      -6.075  -4.343   4.899  1.00  0.00    -0.340 N 
ATOM     15  C   UNL     1      -5.579  -4.757   6.116  1.00  0.00     0.243 C 
ATOM     16  O   UNL     1      -4.577  -4.259   6.625  1.00  0.00    -0.273 OA
ATOM     17  H   UNL     1      -6.819  -4.900   4.470  1.00  0.00     0.164 HD
BRANCH  15  18
ATOM     18  C   UNL     1      -6.327  -5.979   6.705  1.00  0.00     0.171 C 
BRANCH  18  19
ATOM     19  N   UNL     1      -5.736  -7.167   6.092  1.00  0.00    -0.343 N 
ATOM     20  C   UNL     1      -6.104  -7.596   4.831  1.00  0.00     0.242 CG0
ATOM     21  O   UNL     1      -7.038  -7.079   4.223  1.00  0.00    -0.273 OA
ATOM     22  H   UNL     1      -5.040  -7.697   6.604  1.00  0.00     0.164 HD
ATOM     23  G   UNL     1      -5.316  -8.820   4.320  1.00  0.00     0.000 G0
ENDBRANCH  18  19
BRANCH  18  24
ATOM     24  C   UNL     1      -6.194  -6.010   8.233  1.00  0.00     0.038 C 
BRANCH  24  25
ATOM     25  C   UNL     1      -6.390  -7.403   8.868  1.00  0.00    -0.015 C 
ATOM     26  C   UNL     1      -7.818  -7.925   8.706  1.00  0.00     0.007 C 
ATOM     27  C   UNL     1      -6.028  -7.345  10.355  1.00  0.00     0.007 C 
ENDBRANCH  24  25
ENDBRANCH  18  24
ENDBRANCH  15  18
ENDBRANCH  13  14
BRANCH  13  28
ATOM     28  C   UNL     1      -5.247  -3.921   2.671  1.00  0.00     0.327 C 
ATOM     29  O   UNL     1      -6.094  -4.536   2.041  1.00  0.00    -0.250 OA
BRANCH  28  30
ATOM     30  O   UNL     1      -3.990  -3.808   2.195  1.00  0.00    -0.480 OA
ATOM     31  H   UNL     1      -4.028  -4.230   1.311  1.00  0.00     0.296 HD
ENDBRANCH  28  30
ENDBRANCH  13  28
ENDBRANCH  11  13
ENDBRANCH   8  11
ENDBRANCH   6   7
BRANCH   6  32
ATOM     32  C   UNL     1      -8.233   0.181   7.838  1.00  0.00     0.037 C 
BRANCH  32  33
ATOM     33  C   UNL     1      -8.247   0.746   9.265  1.00  0.00     0.026 C 
BRANCH  33  34
ATOM     34  C   UNL     1      -9.638   0.702   9.899  1.00  0.00     0.146 C 
BRANCH  34  35
ATOM     35  N   UNL     1      -9.973  -0.683  10.201  1.00  0.00    -0.254 NA
ATOM     36  C   UNL     1     -10.718  -0.928  11.214  1.00  0.00     0.185 C 
ATOM     37  N   UNL     1     -11.037  -2.200  11.498  1.00  0.00    -0.370 N 
ATOM     38  N   UNL     1     -11.266  -0.065  12.088  1.00  0.00    -0.370 N 
ATOM     39  H   UNL     1     -10.670  -2.910  10.878  1.00  0.00     0.159 HD
ATOM     40  H   UNL     1     -11.748  -2.461  12.160  1.00  0.00     0.159 HD
ATOM     41  H   UNL     1     -11.720  -0.391  12.926  1.00  0.00     0.159 HD
ATOM     42  H   UNL     1     -11.097   0.925  12.005  1.00  0.00     0.159 HD
ENDBRANCH  34  35
ENDBRANCH  33  34
ENDBRANCH  32  33
ENDBRANCH   6  32
ENDBRANCH   4   6
ENDBRANCH   1   2
BRANCH   1  43
ATOM     43  C   UNL     1      -5.898  -1.775  11.986  1.00  0.00     0.102 C 
ATOM     44  C   UNL     1      -4.609  -1.594  12.805  1.00  0.00     0.020 C 
BRANCH  43  45
ATOM     45  C   UNL     1      -7.080  -2.314  12.797  1.00  0.00     0.225 C 
ATOM     46  O   UNL     1      -8.119  -2.716  12.283  1.00  0.00    -0.275 OA
ATOM     47  N   UNL     1      -6.945  -2.234  14.165  1.00  0.00    -0.342 N 
ATOM     48  H   UNL     1      -6.037  -2.047  14.568  1.00  0.00     0.164 HD
BRANCH  47  49
ATOM     49  C   UNL     1      -7.981  -2.744  15.068  1.00  0.00     0.192 C 
BRANCH  49  50
ATOM     50  C   UNL     1      -8.097  -1.827  16.288  1.00  0.00     0.047 C 
BRANCH  50  51
ATOM     51  C   UNL     1      -6.950  -0.810  16.363  1.00  0.00     0.103 C 
BRANCH  51  52
ATOM     52  C   UNL     1      -6.582  -0.464  17.804  1.00  0.00     0.226 C 
ATOM     53  O   UNL     1      -6.486  -1.364  18.642  1.00  0.00    -0.275 OA
BRANCH  52  54
ATOM     54  N   UNL     1      -6.297   0.888  18.072  1.00  0.00    -0.311 N 
ATOM     55  C   UNL     1      -4.913   1.350  18.238  1.00  0.00     0.153 C 
BRANCH  54  56
ATOM     56  C   UNL     1      -7.320   1.844  18.183  1.00  0.00     0.102 C 
ATOM     57  C   UNL     1      -8.634   1.576  18.104  1.00  0.00     0.043 C 
BRANCH  56  58
ATOM     58  C   UNL     1      -6.999   3.294  18.455  1.00  0.00     0.268 C 
ATOM     59  O   UNL     1      -6.640   4.076  17.584  1.00  0.00    -0.268 OA
ATOM     60  N   UNL     1      -7.215   3.659  19.763  1.00  0.00    -0.339 N 
ATOM     61  H   UNL     1      -7.503   2.949  20.425  1.00  0.00     0.164 HD
BRANCH  60  62
ATOM     62  C   UNL     1      -7.026   5.032  20.229  1.00  0.00     0.168 CG0
ATOM     63  C   UNL     1      -5.714   5.176  20.989  1.00  0.00     0.041 C 
ATOM     64  G   UNL     1      -8.219   5.445  21.117  1.00  0.00     0.000 G0
ENDBRANCH  60  62
ENDBRANCH  56  58
ENDBRANCH  54  56
ENDBRANCH  52  54
ENDBRANCH  51  52
ENDBRANCH  50  51
ENDBRANCH  49  50
BRANCH  49  65
ATOM     65  C   UNL     1      -7.671  -4.175  15.534  1.00  0.00     0.326 C 
ATOM     66  O   UNL     1      -7.853  -5.191  14.879  1.00  0.00    -0.250 OA
BRANCH  65  67
ATOM     67  O   UNL     1      -7.213  -4.268  16.802  1.00  0.00    -0.480 OA
ATOM     68  H   UNL     1      -6.933  -3.352  17.015  1.00  0.00     0.296 HD
ENDBRANCH  65  67
ENDBRANCH  49  65
ENDBRANCH  47  49
ENDBRANCH  43  45
ENDBRANCH   1  43
BRANCH   1  69
ATOM     69  C   UNL     1      -4.356  -3.280  10.448  1.00  0.00    -0.001 C 
ATOM     70  C   UNL     1      -4.034  -4.560  10.708  1.00  0.00     0.001 C 
BRANCH  70  71
ATOM     71  C   UNL     1      -2.747  -5.211  10.457  1.00  0.00    -0.055 C 
ATOM     72  C   UNL     1      -1.765  -5.031  11.366  1.00  0.00    -0.018 C 
ATOM     73  C   UNL     1      -2.612  -6.043   9.208  1.00  0.00     0.044 C 
BRANCH  72  74
ATOM     74  C   UNL     1      -0.345  -5.580  11.371  1.00  0.00     0.038 C 
ATOM     75  C   UNL     1      -0.146  -6.306  12.707  1.00  0.00     0.015 C 
BRANCH  74  76
ATOM     76  C   UNL     1       0.646  -4.407  11.111  1.00  0.00     0.128 C 
BRANCH  76  77
ATOM     77  O   UNL     1       1.974  -4.791  11.505  1.00  0.00    -0.381 OA
ATOM     78  C   UNL     1       2.959  -3.804  11.228  1.00  0.00     0.195 C 
ENDBRANCH  76  77
BRANCH  76  79
ATOM     79  C   UNL     1       0.588  -3.842   9.669  1.00  0.00     0.068 C 
BRANCH  79  80
ATOM     80  C   UNL     1      -0.432  -2.769   9.371  1.00  0.00    -0.045 A 
ATOM     81  C   UNL     1      -1.160  -2.777   8.174  1.00  0.00     0.004 A 
ATOM     82  C   UNL     1      -0.647  -1.725  10.283  1.00  0.00     0.004 A 
ATOM     83  C   UNL     1      -2.090  -1.774   7.899  1.00  0.00     0.000 A 
ATOM     84  C   UNL     1      -1.577  -0.721  10.007  1.00  0.00     0.000 A 
ATOM     85  C   UNL     1      -2.300  -0.746   8.816  1.00  0.00     0.000 A 
ENDBRANCH  79  80
ENDBRANCH  76  79
ENDBRANCH  74  76
ENDBRANCH  72  74
ENDBRANCH  70  71
ENDBRANCH   1  69
TORSDOF 17
ENDMDL
MODEL 3
REMARK VINA RESULT:    -7.301      4.795     11.341
REMARK INTER + INTRA:         -30.525
REMARK INTER:                 -24.158
REMARK INTRA:                  -6.367
REMARK UNBOUND:                -8.713
REMARK SMILES C=C1C(=O)N[C@H](C)C(=O)N[C@@H](CC(C)C)C(=O)N[C@@H](C(=O)O)[C@H](C)C(=O)N[C@@H](CCCN=C(N)N)C(=O)N[C@@H](/C=C/C(C)=C/[C@H](C)[C@H](Cc2ccccc2)OC)[C@H](C)C(=O)N[C@@H](C(=O)O)CCC(=O)N1C
REMARK SMILES IDX 39 1 38 2 37 3 36 4 28 6 27 7 25 8 26 9 23 11 24 12 19 13
REMARK SMILES IDX 18 14 16 15 17 16 11 18 10 19 8 20 9 21 12 24 13 25 14 26
REMARK SMILES IDX 15 27 20 28 21 29 22 30 29 32 30 33 31 34 32 35 33 36 34 37
REMARK SMILES IDX 35 38 57 43 58 44 59 45 60 46 61 47 62 49 66 50 67 51 68 52
REMARK SMILES IDX 69 53 70 54 71 55 2 56 1 57 3 58 4 59 5 60 6 62 7 63 63 65
REMARK SMILES IDX 64 66 65 67 40 69 41 70 42 71 44 72 43 73 45 74 46 75 47 76
REMARK SMILES IDX 55 77 56 78 48 79 49 80 50 81 54 82 51 83 53 84 52 85
REMARK H PARENT 38 5 27 10 18 17 10 22 22 31 34 39 34 40 35 41 35 42 61 48
REMARK H PARENT 5 61 65 68
REMARK Flexibility Score:  369.900
ROOT
ATOM      1  C   UNL     1      -4.564  -2.299  10.120  1.00  0.00     0.117 C 
ENDROOT
BRANCH   1   2
ATOM      2  N   UNL     1      -5.093  -1.574   8.964  1.00  0.00    -0.347 N 
ATOM      3  O   UNL     1      -7.190  -2.508   8.940  1.00  0.00    -0.273 OA
ATOM      4  C   UNL     1      -6.398  -1.670   8.521  1.00  0.00     0.243 C 
ATOM      5  H   UNL     1      -4.498  -0.921   8.476  1.00  0.00     0.164 HD
BRANCH   4   6
ATOM      6  C   UNL     1      -6.723  -0.731   7.332  1.00  0.00     0.171 C 
BRANCH   6   7
ATOM      7  N   UNL     1      -6.957  -1.514   6.108  1.00  0.00    -0.344 N 
ATOM      8  C   UNL     1      -5.974  -1.631   5.149  1.00  0.00     0.226 C 
ATOM      9  O   UNL     1      -4.884  -1.082   5.251  1.00  0.00    -0.275 OA
ATOM     10  H   UNL     1      -7.869  -1.927   5.956  1.00  0.00     0.164 HD
BRANCH   8  11
ATOM     11  C   UNL     1      -6.349  -2.516   3.973  1.00  0.00     0.109 C 
ATOM     12  C   UNL     1      -6.420  -1.685   2.692  1.00  0.00     0.021 C 
BRANCH  11  13
ATOM     13  C   UNL     1      -5.399  -3.728   3.908  1.00  0.00     0.204 C 
BRANCH  13  14
ATOM     14  N   UNL     1      -5.688  -4.712   4.955  1.00  0.00    -0.340 N 
ATOM     15  C   UNL     1      -4.712  -5.483   5.549  1.00  0.00     0.243 C 
ATOM     16  O   UNL     1      -3.518  -5.355   5.283  1.00  0.00    -0.273 OA
ATOM     17  H   UNL     1      -6.665  -4.974   5.112  1.00  0.00     0.164 HD
BRANCH  15  18
ATOM     18  C   UNL     1      -5.274  -6.592   6.471  1.00  0.00     0.171 C 
BRANCH  18  19
ATOM     19  N   UNL     1      -5.903  -7.583   5.599  1.00  0.00    -0.343 N 
ATOM     20  C   UNL     1      -7.021  -8.293   5.990  1.00  0.00     0.242 CG0
ATOM     21  O   UNL     1      -7.459  -8.224   7.136  1.00  0.00    -0.273 OA
ATOM     22  H   UNL     1      -5.507  -7.761   4.682  1.00  0.00     0.164 HD
ATOM     23  G   UNL     1      -7.588  -9.235   4.907  1.00  0.00     0.000 G0
ENDBRANCH  18  19
BRANCH  18  24
ATOM     24  C   UNL     1      -4.155  -7.215   7.314  1.00  0.00     0.038 C 
BRANCH  24  25
ATOM     25  C   UNL     1      -4.294  -6.994   8.835  1.00  0.00    -0.015 C 
ATOM     26  C   UNL     1      -4.397  -8.307   9.610  1.00  0.00     0.007 C 
ATOM     27  C   UNL     1      -5.524  -6.129   9.118  1.00  0.00     0.007 C 
ENDBRANCH  24  25
ENDBRANCH  18  24
ENDBRANCH  15  18
ENDBRANCH  13  14
BRANCH  13  28
ATOM     28  C   UNL     1      -5.450  -4.464   2.566  1.00  0.00     0.327 C 
ATOM     29  O   UNL     1      -6.270  -5.307   2.235  1.00  0.00    -0.250 OA
BRANCH  28  30
ATOM     30  O   UNL     1      -4.400  -4.184   1.769  1.00  0.00    -0.480 OA
ATOM     31  H   UNL     1      -4.295  -4.986   1.217  1.00  0.00     0.296 HD
ENDBRANCH  28  30
ENDBRANCH  13  28
ENDBRANCH  11  13
ENDBRANCH   8  11
ENDBRANCH   6   7
BRANCH   6  32
ATOM     32  C   UNL     1      -7.950   0.118   7.681  1.00  0.00     0.037 C 
BRANCH  32  33
ATOM     33  C   UNL     1      -7.875   0.686   9.105  1.00  0.00     0.026 C 
BRANCH  33  34
ATOM     34  C   UNL     1      -9.180   0.497   9.880  1.00  0.00     0.146 C 
BRANCH  34  35
ATOM     35  N   UNL     1      -8.877  -0.109  11.170  1.00  0.00    -0.254 NA
ATOM     36  C   UNL     1      -9.838  -0.322  11.990  1.00  0.00     0.185 C 
ATOM     37  N   UNL     1      -9.570  -0.884  13.178  1.00  0.00    -0.370 N 
ATOM     38  N   UNL     1     -11.148  -0.057  11.842  1.00  0.00    -0.370 N 
ATOM     39  H   UNL     1      -8.604  -1.123  13.361  1.00  0.00     0.159 HD
ATOM     40  H   UNL     1     -10.279  -1.239  13.797  1.00  0.00     0.159 HD
ATOM     41  H   UNL     1     -11.787  -0.143  12.616  1.00  0.00     0.159 HD
ATOM     42  H   UNL     1     -11.491   0.381  11.002  1.00  0.00     0.159 HD
ENDBRANCH  34  35
ENDBRANCH  33  34
ENDBRANCH  32  33
ENDBRANCH   6  32
ENDBRANCH   4   6
ENDBRANCH   1   2
BRANCH   1  43
ATOM     43  C   UNL     1      -4.824  -1.451  11.398  1.00  0.00     0.102 C 
ATOM     44  C   UNL     1      -4.433   0.028  11.241  1.00  0.00     0.020 C 
BRANCH  43  45
ATOM     45  C   UNL     1      -4.224  -2.124  12.636  1.00  0.00     0.225 C 
ATOM     46  O   UNL     1      -4.369  -3.317  12.888  1.00  0.00    -0.275 OA
ATOM     47  N   UNL     1      -3.579  -1.282  13.514  1.00  0.00    -0.342 N 
ATOM     48  H   UNL     1      -3.337  -0.346  13.222  1.00  0.00     0.164 HD
BRANCH  47  49
ATOM     49  C   UNL     1      -2.925  -1.792  14.723  1.00  0.00     0.192 C 
BRANCH  49  50
ATOM     50  C   UNL     1      -3.482  -1.069  15.952  1.00  0.00     0.047 C 
BRANCH  50  51
ATOM     51  C   UNL     1      -4.020   0.328  15.612  1.00  0.00     0.103 C 
BRANCH  51  52
ATOM     52  C   UNL     1      -3.189   1.435  16.258  1.00  0.00     0.226 C 
ATOM     53  O   UNL     1      -1.959   1.367  16.236  1.00  0.00    -0.275 OA
BRANCH  52  54
ATOM     54  N   UNL     1      -3.902   2.528  16.784  1.00  0.00    -0.311 N 
ATOM     55  C   UNL     1      -4.407   3.594  15.908  1.00  0.00     0.153 C 
BRANCH  54  56
ATOM     56  C   UNL     1      -4.164   2.638  18.160  1.00  0.00     0.102 C 
ATOM     57  C   UNL     1      -5.295   2.235  18.762  1.00  0.00     0.043 C 
BRANCH  56  58
ATOM     58  C   UNL     1      -3.127   3.200  19.103  1.00  0.00     0.268 C 
ATOM     59  O   UNL     1      -2.153   2.564  19.484  1.00  0.00    -0.268 OA
ATOM     60  N   UNL     1      -3.354   4.514  19.436  1.00  0.00    -0.339 N 
ATOM     61  H   UNL     1      -4.191   4.967  19.087  1.00  0.00     0.164 HD
BRANCH  60  62
ATOM     62  C   UNL     1      -2.439   5.272  20.288  1.00  0.00     0.168 CG0
ATOM     63  C   UNL     1      -2.917   5.278  21.734  1.00  0.00     0.041 C 
ATOM     64  G   UNL     1      -2.305   6.712  19.750  1.00  0.00     0.000 G0
ENDBRANCH  60  62
ENDBRANCH  56  58
ENDBRANCH  54  56
ENDBRANCH  52  54
ENDBRANCH  51  52
ENDBRANCH  50  51
ENDBRANCH  49  50
BRANCH  49  65
ATOM     65  C   UNL     1      -1.401  -1.600  14.667  1.00  0.00     0.326 C 
ATOM     66  O   UNL     1      -0.654  -1.562  15.634  1.00  0.00    -0.250 OA
BRANCH  65  67
ATOM     67  O   UNL     1      -0.902  -1.408  13.426  1.00  0.00    -0.480 OA
ATOM     68  H   UNL     1      -0.073  -0.908  13.585  1.00  0.00     0.296 HD
ENDBRANCH  65  67
ENDBRANCH  49  65
ENDBRANCH  47  49
ENDBRANCH  43  45
ENDBRANCH   1  43
BRANCH   1  69
ATOM     69  C   UNL     1      -3.137  -2.677   9.767  1.00  0.00    -0.001 C 
ATOM     70  C   UNL     1      -2.723  -3.758   9.084  1.00  0.00     0.001 C 
BRANCH  70  71
ATOM     71  C   UNL     1      -1.344  -4.101   8.731  1.00  0.00    -0.055 C 
ATOM     72  C   UNL     1      -0.359  -3.316   9.215  1.00  0.00    -0.018 C 
ATOM     73  C   UNL     1      -1.122  -5.309   7.859  1.00  0.00     0.044 C 
BRANCH  72  74
ATOM     74  C   UNL     1       1.146  -3.429   9.021  1.00  0.00     0.038 C 
ATOM     75  C   UNL     1       1.389  -4.560   8.014  1.00  0.00     0.015 C 
BRANCH  74  76
ATOM     76  C   UNL     1       1.817  -3.638  10.410  1.00  0.00     0.128 C 
BRANCH  76  77
ATOM     77  O   UNL     1       2.853  -2.660  10.607  1.00  0.00    -0.381 OA
ATOM     78  C   UNL     1       4.139  -3.099  10.192  1.00  0.00     0.195 C 
ENDBRANCH  76  77
BRANCH  76  79
ATOM     79  C   UNL     1       0.815  -3.695  11.591  1.00  0.00     0.068 C 
BRANCH  79  80
ATOM     80  C   UNL     1       0.054  -4.981  11.810  1.00  0.00    -0.045 A 
ATOM     81  C   UNL     1       0.591  -6.214  11.416  1.00  0.00     0.004 A 
ATOM     82  C   UNL     1      -1.224  -4.956  12.389  1.00  0.00     0.004 A 
ATOM     83  C   UNL     1      -0.126  -7.396  11.609  1.00  0.00     0.000 A 
ATOM     84  C   UNL     1      -1.940  -6.139  12.581  1.00  0.00     0.000 A 
ATOM     85  C   UNL     1      -1.390  -7.359  12.193  1.00  0.00     0.000 A 
ENDBRANCH  79  80
ENDBRANCH  76  79
ENDBRANCH  74  76
ENDBRANCH  72  74
ENDBRANCH  70  71
ENDBRANCH   1  69
TORSDOF 17
ENDMDL
MODEL 4
REMARK VINA RESULT:    -7.256      4.405     11.258
REMARK INTER + INTRA:         -30.390
REMARK INTER:                 -22.878
REMARK INTRA:                  -7.512
REMARK UNBOUND:                -8.713
REMARK SMILES C=C1C(=O)N[C@H](C)C(=O)N[C@@H](CC(C)C)C(=O)N[C@@H](C(=O)O)[C@H](C)C(=O)N[C@@H](CCCN=C(N)N)C(=O)N[C@@H](/C=C/C(C)=C/[C@H](C)[C@H](Cc2ccccc2)OC)[C@H](C)C(=O)N[C@@H](C(=O)O)CCC(=O)N1C
REMARK SMILES IDX 39 1 38 2 37 3 36 4 28 6 27 7 25 8 26 9 23 11 24 12 19 13
REMARK SMILES IDX 18 14 16 15 17 16 11 18 10 19 8 20 9 21 12 24 13 25 14 26
REMARK SMILES IDX 15 27 20 28 21 29 22 30 29 32 30 33 31 34 32 35 33 36 34 37
REMARK SMILES IDX 35 38 57 43 58 44 59 45 60 46 61 47 62 49 66 50 67 51 68 52
REMARK SMILES IDX 69 53 70 54 71 55 2 56 1 57 3 58 4 59 5 60 6 62 7 63 63 65
REMARK SMILES IDX 64 66 65 67 40 69 41 70 42 71 44 72 43 73 45 74 46 75 47 76
REMARK SMILES IDX 55 77 56 78 48 79 49 80 50 81 54 82 51 83 53 84 52 85
REMARK H PARENT 38 5 27 10 18 17 10 22 22 31 34 39 34 40 35 41 35 42 61 48
REMARK H PARENT 5 61 65 68
REMARK Flexibility Score:  369.900
ROOT
ATOM      1  C   UNL     1      -4.038  -1.159  12.112  1.00  0.00     0.117 C 
ENDROOT
BRANCH   1   2
ATOM      2  N   UNL     1      -4.250  -1.311  10.672  1.00  0.00    -0.347 N 
ATOM      3  O   UNL     1      -4.886   0.848  10.220  1.00  0.00    -0.273 OA
ATOM      4  C   UNL     1      -4.570  -0.269   9.824  1.00  0.00     0.243 C 
ATOM      5  H   UNL     1      -4.111  -2.214  10.245  1.00  0.00     0.164 HD
BRANCH   4   6
ATOM      6  C   UNL     1      -4.653  -0.683   8.332  1.00  0.00     0.171 C 
BRANCH   6   7
ATOM      7  N   UNL     1      -3.900  -1.926   8.100  1.00  0.00    -0.344 N 
ATOM      8  C   UNL     1      -2.661  -1.895   7.498  1.00  0.00     0.226 C 
ATOM      9  O   UNL     1      -2.141  -0.855   7.111  1.00  0.00    -0.275 OA
ATOM     10  H   UNL     1      -4.326  -2.811   8.345  1.00  0.00     0.164 HD
BRANCH   8  11
ATOM     11  C   UNL     1      -1.989  -3.251   7.380  1.00  0.00     0.109 C 
ATOM     12  C   UNL     1      -0.944  -3.419   8.483  1.00  0.00     0.021 C 
BRANCH  11  13
ATOM     13  C   UNL     1      -3.058  -4.360   7.325  1.00  0.00     0.204 C 
BRANCH  13  14
ATOM     14  N   UNL     1      -3.522  -4.612   5.957  1.00  0.00    -0.340 N 
ATOM     15  C   UNL     1      -4.820  -4.386   5.554  1.00  0.00     0.243 C 
ATOM     16  O   UNL     1      -5.668  -3.898   6.299  1.00  0.00    -0.273 OA
ATOM     17  H   UNL     1      -2.916  -5.155   5.337  1.00  0.00     0.164 HD
BRANCH  15  18
ATOM     18  C   UNL     1      -5.128  -4.919   4.133  1.00  0.00     0.171 C 
BRANCH  18  19
ATOM     19  N   UNL     1      -6.554  -5.237   4.105  1.00  0.00    -0.343 N 
ATOM     20  C   UNL     1      -7.021  -6.514   4.353  1.00  0.00     0.242 CG0
ATOM     21  O   UNL     1      -6.254  -7.467   4.476  1.00  0.00    -0.273 OA
ATOM     22  H   UNL     1      -7.223  -4.506   3.893  1.00  0.00     0.164 HD
ATOM     23  G   UNL     1      -8.558  -6.640   4.358  1.00  0.00     0.000 G0
ENDBRANCH  18  19
BRANCH  18  24
ATOM     24  C   UNL     1      -4.765  -3.873   3.072  1.00  0.00     0.038 C 
BRANCH  24  25
ATOM     25  C   UNL     1      -5.943  -2.987   2.611  1.00  0.00    -0.015 C 
ATOM     26  C   UNL     1      -5.896  -2.684   1.113  1.00  0.00     0.007 C 
ATOM     27  C   UNL     1      -5.941  -1.676   3.402  1.00  0.00     0.007 C 
ENDBRANCH  24  25
ENDBRANCH  18  24
ENDBRANCH  15  18
ENDBRANCH  13  14
BRANCH  13  28
ATOM     28  C   UNL     1      -2.571  -5.697   7.893  1.00  0.00     0.327 C 
ATOM     29  O   UNL     1      -2.698  -6.082   9.045  1.00  0.00    -0.250 OA
BRANCH  28  30
ATOM     30  O   UNL     1      -1.850  -6.416   7.008  1.00  0.00    -0.480 OA
ATOM     31  H   UNL     1      -1.677  -5.791   6.274  1.00  0.00     0.296 HD
ENDBRANCH  28  30
ENDBRANCH  13  28
ENDBRANCH  11  13
ENDBRANCH   8  11
ENDBRANCH   6   7
BRANCH   6  32
ATOM     32  C   UNL     1      -6.125  -0.854   7.939  1.00  0.00     0.037 C 
BRANCH  32  33
ATOM     33  C   UNL     1      -6.881  -1.772   8.909  1.00  0.00     0.026 C 
BRANCH  33  34
ATOM     34  C   UNL     1      -8.162  -1.131   9.444  1.00  0.00     0.146 C 
BRANCH  34  35
ATOM     35  N   UNL     1      -8.076   0.312   9.262  1.00  0.00    -0.254 NA
ATOM     36  C   UNL     1      -8.969   1.054   9.805  1.00  0.00     0.185 C 
ATOM     37  N   UNL     1      -8.897   2.384   9.648  1.00  0.00    -0.370 N 
ATOM     38  N   UNL     1     -10.028   0.692  10.550  1.00  0.00    -0.370 N 
ATOM     39  H   UNL     1      -8.118   2.736   9.106  1.00  0.00     0.159 HD
ATOM     40  H   UNL     1      -9.448   3.038  10.177  1.00  0.00     0.159 HD
ATOM     41  H   UNL     1     -10.738   1.360  10.804  1.00  0.00     0.159 HD
ATOM     42  H   UNL     1     -10.217  -0.280  10.736  1.00  0.00     0.159 HD
ENDBRANCH  34  35
ENDBRANCH  33  34
ENDBRANCH  32  33
ENDBRANCH   6  32
ENDBRANCH   4   6
ENDBRANCH   1   2
BRANCH   1  43
ATOM     43  C   UNL     1      -2.763  -1.956  12.512  1.00  0.00     0.102 C 
ATOM     44  C   UNL     1      -2.610  -3.287  11.755  1.00  0.00     0.020 C 
BRANCH  43  45
ATOM     45  C   UNL     1      -2.653  -2.091  14.034  1.00  0.00     0.225 C 
ATOM     46  O   UNL     1      -2.883  -3.137  14.633  1.00  0.00    -0.275 OA
ATOM     47  N   UNL     1      -2.367  -0.928  14.712  1.00  0.00    -0.342 N 
ATOM     48  H   UNL     1      -2.034  -0.121  14.203  1.00  0.00     0.164 HD
BRANCH  47  49
ATOM     49  C   UNL     1      -2.196  -0.913  16.168  1.00  0.00     0.192 C 
BRANCH  49  50
ATOM     50  C   UNL     1      -3.393  -0.215  16.819  1.00  0.00     0.047 C 
BRANCH  50  51
ATOM     51  C   UNL     1      -3.861   1.007  16.017  1.00  0.00     0.103 C 
BRANCH  51  52
ATOM     52  C   UNL     1      -3.669   2.309  16.793  1.00  0.00     0.226 C 
ATOM     53  O   UNL     1      -3.871   2.331  18.008  1.00  0.00    -0.275 OA
BRANCH  52  54
ATOM     54  N   UNL     1      -3.188   3.410  16.060  1.00  0.00    -0.311 N 
ATOM     55  C   UNL     1      -4.023   4.065  15.044  1.00  0.00     0.153 C 
BRANCH  54  56
ATOM     56  C   UNL     1      -1.899   3.926  16.274  1.00  0.00     0.102 C 
ATOM     57  C   UNL     1      -0.820   3.631  15.531  1.00  0.00     0.043 C 
BRANCH  56  58
ATOM     58  C   UNL     1      -1.638   4.925  17.376  1.00  0.00     0.268 C 
ATOM     59  O   UNL     1      -1.398   6.106  17.166  1.00  0.00    -0.268 OA
ATOM     60  N   UNL     1      -1.762   4.386  18.635  1.00  0.00    -0.339 N 
ATOM     61  H   UNL     1      -1.953   3.396  18.724  1.00  0.00     0.164 HD
BRANCH  60  62
ATOM     62  C   UNL     1      -1.613   5.193  19.845  1.00  0.00     0.168 CG0
ATOM     63  C   UNL     1      -2.650   4.806  20.892  1.00  0.00     0.041 C 
ATOM     64  G   UNL     1      -1.729   6.689  19.488  1.00  0.00     0.000 G0
ENDBRANCH  60  62
ENDBRANCH  56  58
ENDBRANCH  54  56
ENDBRANCH  52  54
ENDBRANCH  51  52
ENDBRANCH  50  51
ENDBRANCH  49  50
BRANCH  49  65
ATOM     65  C   UNL     1      -0.902  -0.193  16.579  1.00  0.00     0.326 C 
ATOM     66  O   UNL     1      -0.776   0.543  17.547  1.00  0.00    -0.250 OA
BRANCH  65  67
ATOM     67  O   UNL     1       0.138  -0.379  15.737  1.00  0.00    -0.480 OA
ATOM     68  H   UNL     1       0.906  -0.025  16.237  1.00  0.00     0.296 HD
ENDBRANCH  65  67
ENDBRANCH  49  65
ENDBRANCH  47  49
ENDBRANCH  43  45
ENDBRANCH   1  43
BRANCH   1  69
ATOM     69  C   UNL     1      -5.359  -1.509  12.774  1.00  0.00    -0.001 C 
ATOM     70  C   UNL     1      -6.225  -2.470  12.411  1.00  0.00     0.001 C 
BRANCH  70  71
ATOM     71  C   UNL     1      -7.487  -2.812  13.071  1.00  0.00    -0.055 C 
ATOM     72  C   UNL     1      -8.207  -1.805  13.609  1.00  0.00    -0.018 C 
ATOM     73  C   UNL     1      -7.897  -4.262  13.095  1.00  0.00     0.044 C 
BRANCH  72  74
ATOM     74  C   UNL     1      -9.539  -1.859  14.343  1.00  0.00     0.038 C 
ATOM     75  C   UNL     1     -10.315  -0.592  13.966  1.00  0.00     0.015 C 
BRANCH  74  76
ATOM     76  C   UNL     1      -9.264  -2.027  15.867  1.00  0.00     0.128 C 
BRANCH  76  77
ATOM     77  O   UNL     1      -9.487  -3.393  16.258  1.00  0.00    -0.381 OA
ATOM     78  C   UNL     1     -10.684  -3.950  15.731  1.00  0.00     0.195 C 
ENDBRANCH  76  77
BRANCH  76  79
ATOM     79  C   UNL     1      -7.883  -1.491  16.321  1.00  0.00     0.068 C 
BRANCH  79  80
ATOM     80  C   UNL     1      -7.855  -0.274  17.212  1.00  0.00    -0.045 A 
ATOM     81  C   UNL     1      -8.872   0.689  17.151  1.00  0.00     0.004 A 
ATOM     82  C   UNL     1      -6.789  -0.073  18.102  1.00  0.00     0.004 A 
ATOM     83  C   UNL     1      -8.831   1.820  17.970  1.00  0.00     0.000 A 
ATOM     84  C   UNL     1      -6.749   1.059  18.919  1.00  0.00     0.000 A 
ATOM     85  C   UNL     1      -7.771   2.004  18.854  1.00  0.00     0.000 A 
ENDBRANCH  79  80
ENDBRANCH  76  79
ENDBRANCH  74  76
ENDBRANCH  72  74
ENDBRANCH  70  71
ENDBRANCH   1  69
TORSDOF 17
ENDMDL
MODEL 5
REMARK VINA RESULT:    -7.179      4.382     10.881
REMARK INTER + INTRA:         -30.160
REMARK INTER:                 -22.121
REMARK INTRA:                  -8.040
REMARK UNBOUND:                -8.713
REMARK SMILES C=C1C(=O)N[C@H](C)C(=O)N[C@@H](CC(C)C)C(=O)N[C@@H](C(=O)O)[C@H](C)C(=O)N[C@@H](CCCN=C(N)N)C(=O)N[C@@H](/C=C/C(C)=C/[C@H](C)[C@H](Cc2ccccc2)OC)[C@H](C)C(=O)N[C@@H](C(=O)O)CCC(=O)N1C
REMARK SMILES IDX 39 1 38 2 37 3 36 4 28 6 27 7 25 8 26 9 23 11 24 12 19 13
REMARK SMILES IDX 18 14 16 15 17 16 11 18 10 19 8 20 9 21 12 24 13 25 14 26
REMARK SMILES IDX 15 27 20 28 21 29 22 30 29 32 30 33 31 34 32 35 33 36 34 37
REMARK SMILES IDX 35 38 57 43 58 44 59 45 60 46 61 47 62 49 66 50 67 51 68 52
REMARK SMILES IDX 69 53 70 54 71 55 2 56 1 57 3 58 4 59 5 60 6 62 7 63 63 65
REMARK SMILES IDX 64 66 65 67 40 69 41 70 42 71 44 72 43 73 45 74 46 75 47 76
REMARK SMILES IDX 55 77 56 78 48 79 49 80 50 81 54 82 51 83 53 84 52 85
REMARK H PARENT 38 5 27 10 18 17 10 22 22 31 34 39 34 40 35 41 35 42 61 48
REMARK H PARENT 5 61 65 68
REMARK Flexibility Score:  369.900
ROOT
ATOM      1  C   UNL     1      -4.980  -3.499  12.875  1.00  0.00     0.117 C 
ENDROOT
BRANCH   1   2
ATOM      2  N   UNL     1      -6.184  -3.684  12.064  1.00  0.00    -0.347 N 
ATOM      3  O   UNL     1      -7.436  -4.819  13.618  1.00  0.00    -0.273 OA
ATOM      4  C   UNL     1      -7.352  -4.251  12.534  1.00  0.00     0.243 C 
ATOM      5  H   UNL     1      -6.199  -3.340  11.116  1.00  0.00     0.164 HD
BRANCH   4   6
ATOM      6  C   UNL     1      -8.505  -4.251  11.498  1.00  0.00     0.171 C 
BRANCH   6   7
ATOM      7  N   UNL     1      -8.037  -3.722  10.208  1.00  0.00    -0.344 N 
ATOM      8  C   UNL     1      -8.868  -2.954   9.420  1.00  0.00     0.226 C 
ATOM      9  O   UNL     1     -10.023  -2.696   9.735  1.00  0.00    -0.275 OA
ATOM     10  H   UNL     1      -7.111  -3.970   9.882  1.00  0.00     0.164 HD
BRANCH   8  11
ATOM     11  C   UNL     1      -8.221  -2.438   8.147  1.00  0.00     0.109 C 
ATOM     12  C   UNL     1      -8.956  -1.192   7.651  1.00  0.00     0.021 C 
BRANCH  11  13
ATOM     13  C   UNL     1      -6.707  -2.252   8.369  1.00  0.00     0.204 C 
BRANCH  13  14
ATOM     14  N   UNL     1      -5.911  -2.929   7.341  1.00  0.00    -0.340 N 
ATOM     15  C   UNL     1      -5.423  -4.209   7.494  1.00  0.00     0.243 C 
ATOM     16  O   UNL     1      -5.674  -4.897   8.482  1.00  0.00    -0.273 OA
ATOM     17  H   UNL     1      -5.542  -2.365   6.570  1.00  0.00     0.164 HD
BRANCH  15  18
ATOM     18  C   UNL     1      -4.441  -4.635   6.376  1.00  0.00     0.171 C 
BRANCH  18  19
ATOM     19  N   UNL     1      -4.907  -5.929   5.880  1.00  0.00    -0.343 N 
ATOM     20  C   UNL     1      -4.031  -6.957   5.592  1.00  0.00     0.242 CG0
ATOM     21  O   UNL     1      -2.814  -6.790   5.612  1.00  0.00    -0.273 OA
ATOM     22  H   UNL     1      -5.899  -6.079   5.737  1.00  0.00     0.164 HD
ATOM     23  G   UNL     1      -4.712  -8.271   5.157  1.00  0.00     0.000 G0
ENDBRANCH  18  19
BRANCH  18  24
ATOM     24  C   UNL     1      -4.405  -3.585   5.258  1.00  0.00     0.038 C 
BRANCH  24  25
ATOM     25  C   UNL     1      -5.433  -3.810   4.129  1.00  0.00    -0.015 C 
ATOM     26  C   UNL     1      -4.772  -4.184   2.802  1.00  0.00     0.007 C 
ATOM     27  C   UNL     1      -6.280  -2.548   3.946  1.00  0.00     0.007 C 
ENDBRANCH  24  25
ENDBRANCH  18  24
ENDBRANCH  15  18
ENDBRANCH  13  14
BRANCH  13  28
ATOM     28  C   UNL     1      -6.275  -0.782   8.383  1.00  0.00     0.327 C 
ATOM     29  O   UNL     1      -5.792  -0.162   7.448  1.00  0.00    -0.250 OA
BRANCH  28  30
ATOM     30  O   UNL     1      -6.366  -0.215   9.603  1.00  0.00    -0.480 OA
ATOM     31  H   UNL     1      -7.282   0.129   9.641  1.00  0.00     0.296 HD
ENDBRANCH  28  30
ENDBRANCH  13  28
ENDBRANCH  11  13
ENDBRANCH   8  11
ENDBRANCH   6   7
BRANCH   6  32
ATOM     32  C   UNL     1      -9.042  -5.678  11.342  1.00  0.00     0.037 C 
BRANCH  32  33
ATOM     33  C   UNL     1      -8.203  -6.509  10.361  1.00  0.00     0.026 C 
BRANCH  33  34
ATOM     34  C   UNL     1      -9.039  -7.086   9.218  1.00  0.00     0.146 C 
BRANCH  34  35
ATOM     35  N   UNL     1      -9.054  -6.131   8.119  1.00  0.00    -0.254 NA
ATOM     36  C   UNL     1      -8.452  -6.438   7.030  1.00  0.00     0.185 C 
ATOM     37  N   UNL     1      -8.463  -5.568   6.009  1.00  0.00    -0.370 N 
ATOM     38  N   UNL     1      -7.771  -7.558   6.728  1.00  0.00    -0.370 N 
ATOM     39  H   UNL     1      -8.967  -4.702   6.155  1.00  0.00     0.159 HD
ATOM     40  H   UNL     1      -8.169  -5.801   5.076  1.00  0.00     0.159 HD
ATOM     41  H   UNL     1      -7.222  -7.623   5.887  1.00  0.00     0.159 HD
ATOM     42  H   UNL     1      -7.666  -8.294   7.410  1.00  0.00     0.159 HD
ENDBRANCH  34  35
ENDBRANCH  33  34
ENDBRANCH  32  33
ENDBRANCH   6  32
ENDBRANCH   4   6
ENDBRANCH   1   2
BRANCH   1  43
ATOM     43  C   UNL     1      -4.848  -1.989  13.227  1.00  0.00     0.102 C 
ATOM     44  C   UNL     1      -4.245  -1.146  12.091  1.00  0.00     0.020 C 
BRANCH  43  45
ATOM     45  C   UNL     1      -4.153  -1.798  14.578  1.00  0.00     0.225 C 
ATOM     46  O   UNL     1      -4.442  -2.446  15.580  1.00  0.00    -0.275 OA
ATOM     47  N   UNL     1      -3.232  -0.776  14.632  1.00  0.00    -0.342 N 
ATOM     48  H   UNL     1      -2.898  -0.359  13.774  1.00  0.00     0.164 HD
BRANCH  47  49
ATOM     49  C   UNL     1      -2.463  -0.500  15.849  1.00  0.00     0.192 C 
BRANCH  49  50
ATOM     50  C   UNL     1      -2.656   0.962  16.259  1.00  0.00     0.047 C 
BRANCH  50  51
ATOM     51  C   UNL     1      -4.112   1.423  16.106  1.00  0.00     0.103 C 
BRANCH  51  52
ATOM     52  C   UNL     1      -4.229   2.945  16.048  1.00  0.00     0.226 C 
ATOM     53  O   UNL     1      -4.021   3.532  14.984  1.00  0.00    -0.275 OA
BRANCH  52  54
ATOM     54  N   UNL     1      -4.652   3.586  17.227  1.00  0.00    -0.311 N 
ATOM     55  C   UNL     1      -6.040   4.041  17.384  1.00  0.00     0.153 C 
BRANCH  54  56
ATOM     56  C   UNL     1      -3.769   3.809  18.296  1.00  0.00     0.102 C 
ATOM     57  C   UNL     1      -2.457   4.067  18.168  1.00  0.00     0.043 C 
BRANCH  56  58
ATOM     58  C   UNL     1      -4.266   3.820  19.722  1.00  0.00     0.268 C 
ATOM     59  O   UNL     1      -4.770   2.844  20.263  1.00  0.00    -0.268 OA
ATOM     60  N   UNL     1      -4.034   5.011  20.367  1.00  0.00    -0.339 N 
ATOM     61  H   UNL     1      -3.621   5.775  19.845  1.00  0.00     0.164 HD
BRANCH  60  62
ATOM     62  C   UNL     1      -4.380   5.217  21.773  1.00  0.00     0.168 CG0
ATOM     63  C   UNL     1      -5.674   6.009  21.908  1.00  0.00     0.041 C 
ATOM     64  G   UNL     1      -3.220   5.938  22.490  1.00  0.00     0.000 G0
ENDBRANCH  60  62
ENDBRANCH  56  58
ENDBRANCH  54  56
ENDBRANCH  52  54
ENDBRANCH  51  52
ENDBRANCH  50  51
ENDBRANCH  49  50
BRANCH  49  65
ATOM     65  C   UNL     1      -0.966  -0.780  15.649  1.00  0.00     0.326 C 
ATOM     66  O   UNL     1      -0.398  -0.872  14.571  1.00  0.00    -0.250 OA
BRANCH  65  67
ATOM     67  O   UNL     1      -0.274  -0.988  16.791  1.00  0.00    -0.480 OA
ATOM     68  H   UNL     1      -0.953  -0.897  17.493  1.00  0.00     0.296 HD
ENDBRANCH  65  67
ENDBRANCH  49  65
ENDBRANCH  47  49
ENDBRANCH  43  45
ENDBRANCH   1  43
BRANCH   1  69
ATOM     69  C   UNL     1      -3.851  -4.177  12.120  1.00  0.00    -0.001 C 
ATOM     70  C   UNL     1      -3.194  -5.298  12.467  1.00  0.00     0.001 C 
BRANCH  70  71
ATOM     71  C   UNL     1      -2.121  -5.955  11.719  1.00  0.00    -0.055 C 
ATOM     72  C   UNL     1      -1.203  -5.169  11.117  1.00  0.00    -0.018 C 
ATOM     73  C   UNL     1      -2.111  -7.461  11.681  1.00  0.00     0.044 C 
BRANCH  72  74
ATOM     74  C   UNL     1       0.008  -5.567  10.285  1.00  0.00     0.038 C 
ATOM     75  C   UNL     1       1.221  -5.566  11.224  1.00  0.00     0.015 C 
BRANCH  74  76
ATOM     76  C   UNL     1       0.122  -4.599   9.071  1.00  0.00     0.128 C 
BRANCH  76  77
ATOM     77  O   UNL     1       0.908  -5.206   8.031  1.00  0.00    -0.381 OA
ATOM     78  C   UNL     1       0.229  -5.308   6.787  1.00  0.00     0.195 C 
ENDBRANCH  76  77
BRANCH  76  79
ATOM     79  C   UNL     1      -1.241  -4.069   8.559  1.00  0.00     0.068 C 
BRANCH  79  80
ATOM     80  C   UNL     1      -1.528  -2.594   8.710  1.00  0.00    -0.045 A 
ATOM     81  C   UNL     1      -1.112  -1.890   9.847  1.00  0.00     0.004 A 
ATOM     82  C   UNL     1      -2.246  -1.909   7.718  1.00  0.00     0.004 A 
ATOM     83  C   UNL     1      -1.393  -0.530   9.985  1.00  0.00     0.000 A 
ATOM     84  C   UNL     1      -2.527  -0.548   7.857  1.00  0.00     0.000 A 
ATOM     85  C   UNL     1      -2.100   0.141   8.990  1.00  0.00     0.000 A 
ENDBRANCH  79  80
ENDBRANCH  76  79
ENDBRANCH  74  76
ENDBRANCH  72  74
ENDBRANCH  70  71
ENDBRANCH   1  69
TORSDOF 17
ENDMDL
MODEL 6
REMARK VINA RESULT:    -7.146      5.197     12.933
REMARK INTER + INTRA:         -30.063
REMARK INTER:                 -22.587
REMARK INTRA:                  -7.476
REMARK UNBOUND:                -8.713
REMARK SMILES C=C1C(=O)N[C@H](C)C(=O)N[C@@H](CC(C)C)C(=O)N[C@@H](C(=O)O)[C@H](C)C(=O)N[C@@H](CCCN=C(N)N)C(=O)N[C@@H](/C=C/C(C)=C/[C@H](C)[C@H](Cc2ccccc2)OC)[C@H](C)C(=O)N[C@@H](C(=O)O)CCC(=O)N1C
REMARK SMILES IDX 39 1 38 2 37 3 36 4 28 6 27 7 25 8 26 9 23 11 24 12 19 13
REMARK SMILES IDX 18 14 16 15 17 16 11 18 10 19 8 20 9 21 12 24 13 25 14 26
REMARK SMILES IDX 15 27 20 28 21 29 22 30 29 32 30 33 31 34 32 35 33 36 34 37
REMARK SMILES IDX 35 38 57 43 58 44 59 45 60 46 61 47 62 49 66 50 67 51 68 52
REMARK SMILES IDX 69 53 70 54 71 55 2 56 1 57 3 58 4 59 5 60 6 62 7 63 63 65
REMARK SMILES IDX 64 66 65 67 40 69 41 70 42 71 44 72 43 73 45 74 46 75 47 76
REMARK SMILES IDX 55 77 56 78 48 79 49 80 50 81 54 82 51 83 53 84 52 85
REMARK H PARENT 38 5 27 10 18 17 10 22 22 31 34 39 34 40 35 41 35 42 61 48
REMARK H PARENT 5 61 65 68
REMARK Flexibility Score:  369.900
ROOT
ATOM      1  C   UNL     1      -3.085  -2.060   8.977  1.00  0.00     0.117 C 
ENDROOT
BRANCH   1   2
ATOM      2  N   UNL     1      -2.688  -3.466   8.884  1.00  0.00    -0.347 N 
ATOM      3  O   UNL     1      -2.825  -3.679   6.603  1.00  0.00    -0.273 OA
ATOM      4  C   UNL     1      -2.501  -4.139   7.692  1.00  0.00     0.243 C 
ATOM      5  H   UNL     1      -2.486  -3.979   9.728  1.00  0.00     0.164 HD
BRANCH   4   6
ATOM      6  C   UNL     1      -1.997  -5.594   7.871  1.00  0.00     0.171 C 
BRANCH   6   7
ATOM      7  N   UNL     1      -2.544  -6.180   9.105  1.00  0.00    -0.344 N 
ATOM      8  C   UNL     1      -1.746  -6.355  10.215  1.00  0.00     0.226 C 
ATOM      9  O   UNL     1      -0.557  -6.059  10.225  1.00  0.00    -0.275 OA
ATOM     10  H   UNL     1      -3.505  -6.499   9.113  1.00  0.00     0.164 HD
BRANCH   8  11
ATOM     11  C   UNL     1      -2.470  -6.919  11.424  1.00  0.00     0.109 C 
ATOM     12  C   UNL     1      -1.486  -7.133  12.574  1.00  0.00     0.021 C 
BRANCH  11  13
ATOM     13  C   UNL     1      -3.684  -6.032  11.766  1.00  0.00     0.204 C 
BRANCH  13  14
ATOM     14  N   UNL     1      -4.955  -6.731  11.552  1.00  0.00    -0.340 N 
ATOM     15  C   UNL     1      -5.800  -6.444  10.502  1.00  0.00     0.243 C 
ATOM     16  O   UNL     1      -5.516  -5.621   9.633  1.00  0.00    -0.273 OA
ATOM     17  H   UNL     1      -5.318  -7.312  12.313  1.00  0.00     0.164 HD
BRANCH  15  18
ATOM     18  C   UNL     1      -7.171  -7.157  10.597  1.00  0.00     0.171 C 
BRANCH  18  19
ATOM     19  N   UNL     1      -7.009  -8.462   9.961  1.00  0.00    -0.343 N 
ATOM     20  C   UNL     1      -7.396  -8.690   8.655  1.00  0.00     0.242 CG0
ATOM     21  O   UNL     1      -8.015  -7.845   8.011  1.00  0.00    -0.273 OA
ATOM     22  H   UNL     1      -6.607  -9.228  10.491  1.00  0.00     0.164 HD
ATOM     23  G   UNL     1      -7.074 -10.105   8.132  1.00  0.00     0.000 G0
ENDBRANCH  18  19
BRANCH  18  24
ATOM     24  C   UNL     1      -7.608  -7.295  12.061  1.00  0.00     0.038 C 
BRANCH  24  25
ATOM     25  C   UNL     1      -8.545  -6.175  12.562  1.00  0.00    -0.015 C 
ATOM     26  C   UNL     1      -9.042  -5.277  11.429  1.00  0.00     0.007 C 
ATOM     27  C   UNL     1      -7.819  -5.328  13.610  1.00  0.00     0.007 C 
ENDBRANCH  24  25
ENDBRANCH  18  24
ENDBRANCH  15  18
ENDBRANCH  13  14
BRANCH  13  28
ATOM     28  C   UNL     1      -3.678  -5.533  13.214  1.00  0.00     0.327 C 
ATOM     29  O   UNL     1      -3.002  -4.619  13.661  1.00  0.00    -0.250 OA
BRANCH  28  30
ATOM     30  O   UNL     1      -4.432  -6.290  14.037  1.00  0.00    -0.480 OA
ATOM     31  H   UNL     1      -5.080  -6.722  13.442  1.00  0.00     0.296 HD
ENDBRANCH  28  30
ENDBRANCH  13  28
ENDBRANCH  11  13
ENDBRANCH   8  11
ENDBRANCH   6   7
BRANCH   6  32
ATOM     32  C   UNL     1      -2.402  -6.421   6.646  1.00  0.00     0.037 C 
BRANCH  32  33
ATOM     33  C   UNL     1      -3.764  -7.105   6.833  1.00  0.00     0.026 C 
BRANCH  33  34
ATOM     34  C   UNL     1      -4.563  -7.184   5.532  1.00  0.00     0.146 C 
BRANCH  34  35
ATOM     35  N   UNL     1      -5.868  -6.575   5.745  1.00  0.00    -0.254 NA
ATOM     36  C   UNL     1      -6.859  -6.985   5.044  1.00  0.00     0.185 C 
ATOM     37  N   UNL     1      -8.068  -6.434   5.236  1.00  0.00    -0.370 N 
ATOM     38  N   UNL     1      -6.885  -7.934   4.092  1.00  0.00    -0.370 N 
ATOM     39  H   UNL     1      -8.133  -5.716   5.946  1.00  0.00     0.159 HD
ATOM     40  H   UNL     1      -8.918  -6.814   4.857  1.00  0.00     0.159 HD
ATOM     41  H   UNL     1      -7.698  -8.069   3.513  1.00  0.00     0.159 HD
ATOM     42  H   UNL     1      -6.042  -8.422   3.831  1.00  0.00     0.159 HD
ENDBRANCH  34  35
ENDBRANCH  33  34
ENDBRANCH  32  33
ENDBRANCH   6  32
ENDBRANCH   4   6
ENDBRANCH   1   2
BRANCH   1  43
ATOM     43  C   UNL     1      -2.244  -1.381  10.097  1.00  0.00     0.102 C 
ATOM     44  C   UNL     1      -1.672  -0.013   9.688  1.00  0.00     0.020 C 
BRANCH  43  45
ATOM     45  C   UNL     1      -1.200  -2.348  10.663  1.00  0.00     0.225 C 
ATOM     46  O   UNL     1      -1.432  -3.120  11.588  1.00  0.00    -0.275 OA
ATOM     47  N   UNL     1       0.063  -2.234  10.128  1.00  0.00    -0.342 N 
ATOM     48  H   UNL     1       0.200  -1.710   9.275  1.00  0.00     0.164 HD
BRANCH  47  49
ATOM     49  C   UNL     1       1.155  -3.118  10.548  1.00  0.00     0.192 C 
BRANCH  49  50
ATOM     50  C   UNL     1       2.030  -2.400  11.578  1.00  0.00     0.047 C 
BRANCH  50  51
ATOM     51  C   UNL     1       1.781  -0.886  11.600  1.00  0.00     0.103 C 
BRANCH  51  52
ATOM     52  C   UNL     1       2.145  -0.265  12.947  1.00  0.00     0.226 C 
ATOM     53  O   UNL     1       1.404  -0.434  13.918  1.00  0.00    -0.275 OA
BRANCH  52  54
ATOM     54  N   UNL     1       3.375   0.417  13.011  1.00  0.00    -0.311 N 
ATOM     55  C   UNL     1       4.398   0.229  11.975  1.00  0.00     0.153 C 
BRANCH  54  56
ATOM     56  C   UNL     1       3.666   1.304  14.061  1.00  0.00     0.102 C 
ATOM     57  C   UNL     1       3.410   1.071  15.358  1.00  0.00     0.043 C 
BRANCH  56  58
ATOM     58  C   UNL     1       4.360   2.620  13.793  1.00  0.00     0.268 C 
ATOM     59  O   UNL     1       3.761   3.641  13.483  1.00  0.00    -0.268 OA
ATOM     60  N   UNL     1       5.718   2.566  13.999  1.00  0.00    -0.339 N 
ATOM     61  H   UNL     1       6.138   1.678  14.245  1.00  0.00     0.164 HD
BRANCH  60  62
ATOM     62  C   UNL     1       6.574   3.743  13.858  1.00  0.00     0.168 CG0
ATOM     63  C   UNL     1       7.995   3.343  13.483  1.00  0.00     0.041 C 
ATOM     64  G   UNL     1       6.563   4.551  15.172  1.00  0.00     0.000 G0
ENDBRANCH  60  62
ENDBRANCH  56  58
ENDBRANCH  54  56
ENDBRANCH  52  54
ENDBRANCH  51  52
ENDBRANCH  50  51
ENDBRANCH  49  50
BRANCH  49  65
ATOM     65  C   UNL     1       2.023  -3.551   9.356  1.00  0.00     0.326 C 
ATOM     66  O   UNL     1       1.674  -4.305   8.460  1.00  0.00    -0.250 OA
BRANCH  65  67
ATOM     67  O   UNL     1       3.288  -3.075   9.377  1.00  0.00    -0.480 OA
ATOM     68  H   UNL     1       3.841  -3.885   9.359  1.00  0.00     0.296 HD
ENDBRANCH  65  67
ENDBRANCH  49  65
ENDBRANCH  47  49
ENDBRANCH  43  45
ENDBRANCH   1  43
BRANCH   1  69
ATOM     69  C   UNL     1      -4.598  -2.054   9.090  1.00  0.00    -0.001 C 
ATOM     70  C   UNL     1      -5.428  -1.016   8.885  1.00  0.00     0.001 C 
BRANCH  70  71
ATOM     71  C   UNL     1      -6.890  -1.027   8.976  1.00  0.00    -0.055 C 
ATOM     72  C   UNL     1      -7.481  -0.051   9.698  1.00  0.00    -0.018 C 
ATOM     73  C   UNL     1      -7.630  -2.120   8.251  1.00  0.00     0.044 C 
BRANCH  72  74
ATOM     74  C   UNL     1      -8.961   0.189   9.962  1.00  0.00     0.038 C 
ATOM     75  C   UNL     1      -9.258   1.644   9.580  1.00  0.00     0.015 C 
BRANCH  74  76
ATOM     76  C   UNL     1      -9.270  -0.173  11.445  1.00  0.00     0.128 C 
BRANCH  76  77
ATOM     77  O   UNL     1     -10.656   0.078  11.732  1.00  0.00    -0.381 OA
ATOM     78  C   UNL     1     -10.987  -0.059  13.108  1.00  0.00     0.195 C 
ENDBRANCH  76  77
BRANCH  76  79
ATOM     79  C   UNL     1      -8.822  -1.600  11.851  1.00  0.00     0.068 C 
BRANCH  79  80
ATOM     80  C   UNL     1      -7.708  -1.730  12.861  1.00  0.00    -0.045 A 
ATOM     81  C   UNL     1      -6.389  -1.973  12.455  1.00  0.00     0.004 A 
ATOM     82  C   UNL     1      -7.984  -1.638  14.234  1.00  0.00     0.004 A 
ATOM     83  C   UNL     1      -5.367  -2.106  13.397  1.00  0.00     0.000 A 
ATOM     84  C   UNL     1      -6.961  -1.772  15.175  1.00  0.00     0.000 A 
ATOM     85  C   UNL     1      -5.653  -2.005  14.756  1.00  0.00     0.000 A 
ENDBRANCH  79  80
ENDBRANCH  76  79
ENDBRANCH  74  76
ENDBRANCH  72  74
ENDBRANCH  70  71
ENDBRANCH   1  69
TORSDOF 17
ENDMDL
MODEL 7
REMARK VINA RESULT:    -7.146      4.699     11.013
REMARK INTER + INTRA:         -30.062
REMARK INTER:                 -23.169
REMARK INTRA:                  -6.892
REMARK UNBOUND:                -8.713
REMARK SMILES C=C1C(=O)N[C@H](C)C(=O)N[C@@H](CC(C)C)C(=O)N[C@@H](C(=O)O)[C@H](C)C(=O)N[C@@H](CCCN=C(N)N)C(=O)N[C@@H](/C=C/C(C)=C/[C@H](C)[C@H](Cc2ccccc2)OC)[C@H](C)C(=O)N[C@@H](C(=O)O)CCC(=O)N1C
REMARK SMILES IDX 39 1 38 2 37 3 36 4 28 6 27 7 25 8 26 9 23 11 24 12 19 13
REMARK SMILES IDX 18 14 16 15 17 16 11 18 10 19 8 20 9 21 12 24 13 25 14 26
REMARK SMILES IDX 15 27 20 28 21 29 22 30 29 32 30 33 31 34 32 35 33 36 34 37
REMARK SMILES IDX 35 38 57 43 58 44 59 45 60 46 61 47 62 49 66 50 67 51 68 52
REMARK SMILES IDX 69 53 70 54 71 55 2 56 1 57 3 58 4 59 5 60 6 62 7 63 63 65
REMARK SMILES IDX 64 66 65 67 40 69 41 70 42 71 44 72 43 73 45 74 46 75 47 76
REMARK SMILES IDX 55 77 56 78 48 79 49 80 50 81 54 82 51 83 53 84 52 85
REMARK H PARENT 38 5 27 10 18 17 10 22 22 31 34 39 34 40 35 41 35 42 61 48
REMARK H PARENT 5 61 65 68
REMARK Flexibility Score:  369.900
ROOT
ATOM      1  C   UNL     1      -4.972  -3.827  12.625  1.00  0.00     0.117 C 
ENDROOT
BRANCH   1   2
ATOM      2  N   UNL     1      -5.688  -3.977  11.358  1.00  0.00    -0.347 N 
ATOM      3  O   UNL     1      -7.666  -4.775  12.209  1.00  0.00    -0.273 OA
ATOM      4  C   UNL     1      -7.014  -4.354  11.259  1.00  0.00     0.243 C 
ATOM      5  H   UNL     1      -5.219  -3.750  10.495  1.00  0.00     0.164 HD
BRANCH   4   6
ATOM      6  C   UNL     1      -7.555  -4.354   9.807  1.00  0.00     0.171 C 
BRANCH   6   7
ATOM      7  N   UNL     1      -7.218  -3.090   9.133  1.00  0.00    -0.344 N 
ATOM      8  C   UNL     1      -7.982  -2.629   8.082  1.00  0.00     0.226 C 
ATOM      9  O   UNL     1      -8.948  -3.245   7.648  1.00  0.00    -0.275 OA
ATOM     10  H   UNL     1      -6.388  -2.587   9.419  1.00  0.00     0.164 HD
BRANCH   8  11
ATOM     11  C   UNL     1      -7.539  -1.285   7.530  1.00  0.00     0.109 C 
ATOM     12  C   UNL     1      -7.592  -0.222   8.627  1.00  0.00     0.021 C 
BRANCH  11  13
ATOM     13  C   UNL     1      -6.171  -1.433   6.835  1.00  0.00     0.204 C 
BRANCH  13  14
ATOM     14  N   UNL     1      -6.082  -2.666   6.048  1.00  0.00    -0.340 N 
ATOM     15  C   UNL     1      -4.914  -3.387   5.915  1.00  0.00     0.243 C 
ATOM     16  O   UNL     1      -3.878  -3.078   6.500  1.00  0.00    -0.273 OA
ATOM     17  H   UNL     1      -6.858  -2.893   5.420  1.00  0.00     0.164 HD
BRANCH  15  18
ATOM     18  C   UNL     1      -5.007  -4.529   4.874  1.00  0.00     0.171 C 
BRANCH  18  19
ATOM     19  N   UNL     1      -5.122  -3.893   3.563  1.00  0.00    -0.343 N 
ATOM     20  C   UNL     1      -5.896  -4.435   2.555  1.00  0.00     0.242 CG0
ATOM     21  O   UNL     1      -6.416  -5.543   2.668  1.00  0.00    -0.273 OA
ATOM     22  H   UNL     1      -4.618  -3.033   3.382  1.00  0.00     0.164 HD
ATOM     23  G   UNL     1      -5.958  -3.582   1.272  1.00  0.00     0.000 G0
ENDBRANCH  18  19
BRANCH  18  24
ATOM     24  C   UNL     1      -3.772  -5.435   4.952  1.00  0.00     0.038 C 
BRANCH  24  25
ATOM     25  C   UNL     1      -4.022  -6.809   5.609  1.00  0.00    -0.015 C 
ATOM     26  C   UNL     1      -5.510  -7.130   5.747  1.00  0.00     0.007 C 
ATOM     27  C   UNL     1      -3.356  -6.850   6.987  1.00  0.00     0.007 C 
ENDBRANCH  24  25
ENDBRANCH  18  24
ENDBRANCH  15  18
ENDBRANCH  13  14
BRANCH  13  28
ATOM     28  C   UNL     1      -5.843  -0.269   5.894  1.00  0.00     0.327 C 
ATOM     29  O   UNL     1      -6.644   0.371   5.230  1.00  0.00    -0.250 OA
BRANCH  28  30
ATOM     30  O   UNL     1      -4.518  -0.059   5.755  1.00  0.00    -0.480 OA
ATOM     31  H   UNL     1      -4.444   0.481   4.940  1.00  0.00     0.296 HD
ENDBRANCH  28  30
ENDBRANCH  13  28
ENDBRANCH  11  13
ENDBRANCH   8  11
ENDBRANCH   6   7
BRANCH   6  32
ATOM     32  C   UNL     1      -6.967  -5.551   9.050  1.00  0.00     0.037 C 
BRANCH  32  33
ATOM     33  C   UNL     1      -8.058  -6.450   8.452  1.00  0.00     0.026 C 
BRANCH  33  34
ATOM     34  C   UNL     1      -7.769  -7.937   8.660  1.00  0.00     0.146 C 
BRANCH  34  35
ATOM     35  N   UNL     1      -7.208  -8.126   9.990  1.00  0.00    -0.254 NA
ATOM     36  C   UNL     1      -7.967  -8.572  10.920  1.00  0.00     0.185 C 
ATOM     37  N   UNL     1      -7.459  -8.754  12.149  1.00  0.00    -0.370 N 
ATOM     38  N   UNL     1      -9.268  -8.909  10.860  1.00  0.00    -0.370 N 
ATOM     39  H   UNL     1      -6.479  -8.533  12.272  1.00  0.00     0.159 HD
ATOM     40  H   UNL     1      -7.933  -9.258  12.878  1.00  0.00     0.159 HD
ATOM     41  H   UNL     1      -9.791  -9.116  11.695  1.00  0.00     0.159 HD
ATOM     42  H   UNL     1      -9.784  -8.808  10.000  1.00  0.00     0.159 HD
ENDBRANCH  34  35
ENDBRANCH  33  34
ENDBRANCH  32  33
ENDBRANCH   6  32
ENDBRANCH   4   6
ENDBRANCH   1   2
BRANCH   1  43
ATOM     43  C   UNL     1      -4.957  -2.319  13.009  1.00  0.00     0.102 C 
ATOM     44  C   UNL     1      -3.546  -1.709  13.038  1.00  0.00     0.020 C 
BRANCH  43  45
ATOM     45  C   UNL     1      -5.769  -2.068  14.283  1.00  0.00     0.225 C 
ATOM     46  O   UNL     1      -6.976  -1.843  14.277  1.00  0.00    -0.275 OA
ATOM     47  N   UNL     1      -5.040  -2.015  15.449  1.00  0.00    -0.342 N 
ATOM     48  H   UNL     1      -4.086  -2.349  15.458  1.00  0.00     0.164 HD
BRANCH  47  49
ATOM     49  C   UNL     1      -5.687  -1.817  16.750  1.00  0.00     0.192 C 
BRANCH  49  50
ATOM     50  C   UNL     1      -4.833  -0.885  17.613  1.00  0.00     0.047 C 
BRANCH  50  51
ATOM     51  C   UNL     1      -5.330   0.566  17.569  1.00  0.00     0.103 C 
BRANCH  51  52
ATOM     52  C   UNL     1      -4.406   1.463  16.747  1.00  0.00     0.226 C 
ATOM     53  O   UNL     1      -4.021   1.089  15.638  1.00  0.00    -0.275 OA
BRANCH  52  54
ATOM     54  N   UNL     1      -4.109   2.726  17.294  1.00  0.00    -0.311 N 
ATOM     55  C   UNL     1      -4.699   3.950  16.736  1.00  0.00     0.153 C 
BRANCH  54  56
ATOM     56  C   UNL     1      -3.244   2.862  18.392  1.00  0.00     0.102 C 
ATOM     57  C   UNL     1      -1.931   2.582  18.376  1.00  0.00     0.043 C 
BRANCH  56  58
ATOM     58  C   UNL     1      -3.747   3.400  19.711  1.00  0.00     0.268 C 
ATOM     59  O   UNL     1      -4.819   3.076  20.202  1.00  0.00    -0.268 OA
ATOM     60  N   UNL     1      -2.848   4.237  20.331  1.00  0.00    -0.339 N 
ATOM     61  H   UNL     1      -1.985   4.464  19.853  1.00  0.00     0.164 HD
BRANCH  60  62
ATOM     62  C   UNL     1      -3.107   4.820  21.647  1.00  0.00     0.168 CG0
ATOM     63  C   UNL     1      -3.271   6.331  21.553  1.00  0.00     0.041 C 
ATOM     64  G   UNL     1      -1.957   4.454  22.609  1.00  0.00     0.000 G0
ENDBRANCH  60  62
ENDBRANCH  56  58
ENDBRANCH  54  56
ENDBRANCH  52  54
ENDBRANCH  51  52
ENDBRANCH  50  51
ENDBRANCH  49  50
BRANCH  49  65
ATOM     65  C   UNL     1      -5.893  -3.149  17.488  1.00  0.00     0.326 C 
ATOM     66  O   UNL     1      -6.326  -4.178  16.991  1.00  0.00    -0.250 OA
BRANCH  65  67
ATOM     67  O   UNL     1      -5.609  -3.111  18.809  1.00  0.00    -0.480 OA
ATOM     68  H   UNL     1      -6.070  -2.303  19.122  1.00  0.00     0.296 HD
ENDBRANCH  65  67
ENDBRANCH  49  65
ENDBRANCH  47  49
ENDBRANCH  43  45
ENDBRANCH   1  43
BRANCH   1  69
ATOM     69  C   UNL     1      -3.650  -4.553  12.454  1.00  0.00    -0.001 C 
ATOM     70  C   UNL     1      -3.347  -5.492  11.541  1.00  0.00     0.001 C 
BRANCH  70  71
ATOM     71  C   UNL     1      -2.060  -6.171  11.372  1.00  0.00    -0.055 C 
ATOM     72  C   UNL     1      -1.084  -5.512  10.714  1.00  0.00    -0.018 C 
ATOM     73  C   UNL     1      -1.914  -7.554  11.953  1.00  0.00     0.044 C 
BRANCH  72  74
ATOM     74  C   UNL     1       0.335  -5.959  10.395  1.00  0.00     0.038 C 
ATOM     75  C   UNL     1       1.122  -5.939  11.710  1.00  0.00     0.015 C 
BRANCH  74  76
ATOM     76  C   UNL     1       0.910  -5.042   9.275  1.00  0.00     0.128 C 
BRANCH  76  77
ATOM     77  O   UNL     1       0.774  -5.684   7.996  1.00  0.00    -0.381 OA
ATOM     78  C   UNL     1       0.461  -4.789   6.938  1.00  0.00     0.195 C 
ENDBRANCH  76  77
BRANCH  76  79
ATOM     79  C   UNL     1       0.339  -3.602   9.287  1.00  0.00     0.068 C 
BRANCH  79  80
ATOM     80  C   UNL     1       0.777  -2.676  10.396  1.00  0.00    -0.045 A 
ATOM     81  C   UNL     1      -0.162  -2.052  11.228  1.00  0.00     0.004 A 
ATOM     82  C   UNL     1       2.139  -2.404  10.594  1.00  0.00     0.004 A 
ATOM     83  C   UNL     1       0.250  -1.187  12.244  1.00  0.00     0.000 A 
ATOM     84  C   UNL     1       2.550  -1.537  11.609  1.00  0.00     0.000 A 
ATOM     85  C   UNL     1       1.606  -0.931  12.434  1.00  0.00     0.000 A 
ENDBRANCH  79  80
ENDBRANCH  76  79
ENDBRANCH  74  76
ENDBRANCH  72  74
ENDBRANCH  70  71
ENDBRANCH   1  69
TORSDOF 17
ENDMDL
MODEL 8
REMARK VINA RESULT:    -7.121      3.997     10.713
REMARK INTER + INTRA:         -29.989
REMARK INTER:                 -24.023
REMARK INTRA:                  -5.966
REMARK UNBOUND:                -8.713
REMARK SMILES C=C1C(=O)N[C@H](C)C(=O)N[C@@H](CC(C)C)C(=O)N[C@@H](C(=O)O)[C@H](C)C(=O)N[C@@H](CCCN=C(N)N)C(=O)N[C@@H](/C=C/C(C)=C/[C@H](C)[C@H](Cc2ccccc2)OC)[C@H](C)C(=O)N[C@@H](C(=O)O)CCC(=O)N1C
REMARK SMILES IDX 39 1 38 2 37 3 36 4 28 6 27 7 25 8 26 9 23 11 24 12 19 13
REMARK SMILES IDX 18 14 16 15 17 16 11 18 10 19 8 20 9 21 12 24 13 25 14 26
REMARK SMILES IDX 15 27 20 28 21 29 22 30 29 32 30 33 31 34 32 35 33 36 34 37
REMARK SMILES IDX 35 38 57 43 58 44 59 45 60 46 61 47 62 49 66 50 67 51 68 52
REMARK SMILES IDX 69 53 70 54 71 55 2 56 1 57 3 58 4 59 5 60 6 62 7 63 63 65
REMARK SMILES IDX 64 66 65 67 40 69 41 70 42 71 44 72 43 73 45 74 46 75 47 76
REMARK SMILES IDX 55 77 56 78 48 79 49 80 50 81 54 82 51 83 53 84 52 85
REMARK H PARENT 38 5 27 10 18 17 10 22 22 31 34 39 34 40 35 41 35 42 61 48
REMARK H PARENT 5 61 65 68
REMARK Flexibility Score:  369.900
ROOT
ATOM      1  C   UNL     1      -3.583  -1.402  15.158  1.00  0.00     0.117 C 
ENDROOT
BRANCH   1   2
ATOM      2  N   UNL     1      -4.951  -1.269  14.657  1.00  0.00    -0.347 N 
ATOM      3  O   UNL     1      -5.270  -3.454  14.030  1.00  0.00    -0.273 OA
ATOM      4  C   UNL     1      -5.720  -2.328  14.216  1.00  0.00     0.243 C 
ATOM      5  H   UNL     1      -5.397  -0.364  14.672  1.00  0.00     0.164 HD
BRANCH   4   6
ATOM      6  C   UNL     1      -7.164  -1.928  13.819  1.00  0.00     0.171 C 
BRANCH   6   7
ATOM      7  N   UNL     1      -7.505  -2.475  12.496  1.00  0.00    -0.344 N 
ATOM      8  C   UNL     1      -7.081  -1.846  11.346  1.00  0.00     0.226 C 
ATOM      9  O   UNL     1      -6.432  -0.807  11.362  1.00  0.00    -0.275 OA
ATOM     10  H   UNL     1      -8.096  -3.294  12.442  1.00  0.00     0.164 HD
BRANCH   8  11
ATOM     11  C   UNL     1      -7.466  -2.562  10.063  1.00  0.00     0.109 C 
ATOM     12  C   UNL     1      -8.755  -3.358  10.272  1.00  0.00     0.021 C 
BRANCH  11  13
ATOM     13  C   UNL     1      -7.508  -1.556   8.896  1.00  0.00     0.204 C 
BRANCH  13  14
ATOM     14  N   UNL     1      -7.032  -2.147   7.641  1.00  0.00    -0.340 N 
ATOM     15  C   UNL     1      -6.030  -1.584   6.881  1.00  0.00     0.243 C 
ATOM     16  O   UNL     1      -5.421  -0.576   7.235  1.00  0.00    -0.273 OA
ATOM     17  H   UNL     1      -7.593  -2.891   7.218  1.00  0.00     0.164 HD
BRANCH  15  18
ATOM     18  C   UNL     1      -5.842  -2.264   5.503  1.00  0.00     0.171 C 
BRANCH  18  19
ATOM     19  N   UNL     1      -7.021  -3.098   5.284  1.00  0.00    -0.343 N 
ATOM     20  C   UNL     1      -6.926  -4.467   5.120  1.00  0.00     0.242 CG0
ATOM     21  O   UNL     1      -5.837  -5.028   5.018  1.00  0.00    -0.273 OA
ATOM     22  H   UNL     1      -7.937  -2.665   5.244  1.00  0.00     0.164 HD
ATOM     23  G   UNL     1      -8.282  -5.187   4.979  1.00  0.00     0.000 G0
ENDBRANCH  18  19
BRANCH  18  24
ATOM     24  C   UNL     1      -5.683  -1.213   4.398  1.00  0.00     0.038 C 
BRANCH  24  25
ATOM     25  C   UNL     1      -6.270  -1.622   3.030  1.00  0.00    -0.015 C 
ATOM     26  C   UNL     1      -5.307  -2.488   2.216  1.00  0.00     0.007 C 
ATOM     27  C   UNL     1      -6.637  -0.369   2.231  1.00  0.00     0.007 C 
ENDBRANCH  24  25
ENDBRANCH  18  24
ENDBRANCH  15  18
ENDBRANCH  13  14
BRANCH  13  28
ATOM     28  C   UNL     1      -8.909  -0.996   8.631  1.00  0.00     0.327 C 
ATOM     29  O   UNL     1      -9.533  -0.238   9.358  1.00  0.00    -0.250 OA
BRANCH  28  30
ATOM     30  O   UNL     1      -9.486  -1.514   7.529  1.00  0.00    -0.480 OA
ATOM     31  H   UNL     1      -9.217  -0.909   6.808  1.00  0.00     0.296 HD
ENDBRANCH  28  30
ENDBRANCH  13  28
ENDBRANCH  11  13
ENDBRANCH   8  11
ENDBRANCH   6   7
BRANCH   6  32
ATOM     32  C   UNL     1      -8.138  -2.434  14.888  1.00  0.00     0.037 C 
BRANCH  32  33
ATOM     33  C   UNL     1      -9.384  -3.089  14.274  1.00  0.00     0.026 C 
BRANCH  33  34
ATOM     34  C   UNL     1     -10.610  -2.178  14.327  1.00  0.00     0.146 C 
BRANCH  34  35
ATOM     35  N   UNL     1     -10.233  -0.854  13.852  1.00  0.00    -0.254 NA
ATOM     36  C   UNL     1     -10.525  -0.527  12.648  1.00  0.00     0.185 C 
ATOM     37  N   UNL     1     -10.186   0.693  12.201  1.00  0.00    -0.370 N 
ATOM     38  N   UNL     1     -11.153  -1.250  11.705  1.00  0.00    -0.370 N 
ATOM     39  H   UNL     1      -9.717   1.303  12.858  1.00  0.00     0.159 HD
ATOM     40  H   UNL     1     -10.528   1.084  11.341  1.00  0.00     0.159 HD
ATOM     41  H   UNL     1     -11.200  -0.933  10.750  1.00  0.00     0.159 HD
ATOM     42  H   UNL     1     -11.451  -2.194  11.897  1.00  0.00     0.159 HD
ENDBRANCH  34  35
ENDBRANCH  33  34
ENDBRANCH  32  33
ENDBRANCH   6  32
ENDBRANCH   4   6
ENDBRANCH   1   2
BRANCH   1  43
ATOM     43  C   UNL     1      -3.425  -0.496  16.413  1.00  0.00     0.102 C 
ATOM     44  C   UNL     1      -2.662  -1.174  17.565  1.00  0.00     0.020 C 
BRANCH  43  45
ATOM     45  C   UNL     1      -4.769   0.108  16.829  1.00  0.00     0.225 C 
ATOM     46  O   UNL     1      -5.783  -0.564  16.997  1.00  0.00    -0.275 OA
ATOM     47  N   UNL     1      -4.801   1.481  16.914  1.00  0.00    -0.342 N 
ATOM     48  H   UNL     1      -3.935   2.001  16.923  1.00  0.00     0.164 HD
BRANCH  47  49
ATOM     49  C   UNL     1      -6.010   2.195  17.336  1.00  0.00     0.192 C 
BRANCH  49  50
ATOM     50  C   UNL     1      -5.782   3.704  17.222  1.00  0.00     0.047 C 
BRANCH  50  51
ATOM     51  C   UNL     1      -4.507   4.043  16.437  1.00  0.00     0.103 C 
BRANCH  51  52
ATOM     52  C   UNL     1      -3.271   4.067  17.333  1.00  0.00     0.226 C 
ATOM     53  O   UNL     1      -3.265   3.421  18.382  1.00  0.00    -0.275 OA
BRANCH  52  54
ATOM     54  N   UNL     1      -2.161   4.785  16.850  1.00  0.00    -0.311 N 
ATOM     55  C   UNL     1      -1.763   4.704  15.439  1.00  0.00     0.153 C 
BRANCH  54  56
ATOM     56  C   UNL     1      -1.397   5.608  17.695  1.00  0.00     0.102 C 
ATOM     57  C   UNL     1      -0.697   6.681  17.295  1.00  0.00     0.043 C 
BRANCH  56  58
ATOM     58  C   UNL     1      -1.347   5.356  19.184  1.00  0.00     0.268 C 
ATOM     59  O   UNL     1      -0.418   4.782  19.735  1.00  0.00    -0.268 OA
ATOM     60  N   UNL     1      -2.416   5.894  19.859  1.00  0.00    -0.339 N 
ATOM     61  H   UNL     1      -3.151   6.346  19.328  1.00  0.00     0.164 HD
BRANCH  60  62
ATOM     62  C   UNL     1      -2.535   5.821  21.315  1.00  0.00     0.168 CG0
ATOM     63  C   UNL     1      -3.665   4.884  21.725  1.00  0.00     0.041 C 
ATOM     64  G   UNL     1      -2.763   7.235  21.887  1.00  0.00     0.000 G0
ENDBRANCH  60  62
ENDBRANCH  56  58
ENDBRANCH  54  56
ENDBRANCH  52  54
ENDBRANCH  51  52
ENDBRANCH  50  51
ENDBRANCH  49  50
BRANCH  49  65
ATOM     65  C   UNL     1      -6.400   1.846  18.780  1.00  0.00     0.326 C 
ATOM     66  O   UNL     1      -7.465   1.360  19.131  1.00  0.00    -0.250 OA
BRANCH  65  67
ATOM     67  O   UNL     1      -5.475   2.175  19.709  1.00  0.00    -0.480 OA
ATOM     68  H   UNL     1      -5.993   2.237  20.540  1.00  0.00     0.296 HD
ENDBRANCH  65  67
ENDBRANCH  49  65
ENDBRANCH  47  49
ENDBRANCH  43  45
ENDBRANCH   1  43
BRANCH   1  69
ATOM     69  C   UNL     1      -2.671  -1.172  13.968  1.00  0.00    -0.001 C 
ATOM     70  C   UNL     1      -2.306  -2.067  13.033  1.00  0.00     0.001 C 
BRANCH  70  71
ATOM     71  C   UNL     1      -1.441  -1.827  11.875  1.00  0.00    -0.055 C 
ATOM     72  C   UNL     1      -2.001  -1.897  10.649  1.00  0.00    -0.018 C 
ATOM     73  C   UNL     1       0.008  -1.511  12.135  1.00  0.00     0.044 C 
BRANCH  72  74
ATOM     74  C   UNL     1      -1.358  -1.694   9.284  1.00  0.00     0.038 C 
ATOM     75  C   UNL     1      -1.921  -0.389   8.709  1.00  0.00     0.015 C 
BRANCH  74  76
ATOM     76  C   UNL     1      -1.621  -2.958   8.414  1.00  0.00     0.128 C 
BRANCH  76  77
ATOM     77  O   UNL     1      -2.285  -2.586   7.195  1.00  0.00    -0.381 OA
ATOM     78  C   UNL     1      -2.607  -3.690   6.359  1.00  0.00     0.195 C 
ENDBRANCH  76  77
BRANCH  76  79
ATOM     79  C   UNL     1      -0.361  -3.826   8.169  1.00  0.00     0.068 C 
BRANCH  79  80
ATOM     80  C   UNL     1       0.466  -4.226   9.367  1.00  0.00    -0.045 A 
ATOM     81  C   UNL     1       0.028  -5.225  10.246  1.00  0.00     0.004 A 
ATOM     82  C   UNL     1       1.682  -3.579   9.634  1.00  0.00     0.004 A 
ATOM     83  C   UNL     1       0.792  -5.579  11.360  1.00  0.00     0.000 A 
ATOM     84  C   UNL     1       2.446  -3.934  10.749  1.00  0.00     0.000 A 
ATOM     85  C   UNL     1       2.001  -4.934  11.610  1.00  0.00     0.000 A 
ENDBRANCH  79  80
ENDBRANCH  76  79
ENDBRANCH  74  76
ENDBRANCH  72  74
ENDBRANCH  70  71
ENDBRANCH   1  69
TORSDOF 17
ENDMDL
MODEL 9
REMARK VINA RESULT:    -7.118      4.293      8.171
REMARK INTER + INTRA:         -29.980
REMARK INTER:                 -22.681
REMARK INTRA:                  -7.299
REMARK UNBOUND:                -8.713
REMARK SMILES C=C1C(=O)N[C@H](C)C(=O)N[C@@H](CC(C)C)C(=O)N[C@@H](C(=O)O)[C@H](C)C(=O)N[C@@H](CCCN=C(N)N)C(=O)N[C@@H](/C=C/C(C)=C/[C@H](C)[C@H](Cc2ccccc2)OC)[C@H](C)C(=O)N[C@@H](C(=O)O)CCC(=O)N1C
REMARK SMILES IDX 39 1 38 2 37 3 36 4 28 6 27 7 25 8 26 9 23 11 24 12 19 13
REMARK SMILES IDX 18 14 16 15 17 16 11 18 10 19 8 20 9 21 12 24 13 25 14 26
REMARK SMILES IDX 15 27 20 28 21 29 22 30 29 32 30 33 31 34 32 35 33 36 34 37
REMARK SMILES IDX 35 38 57 43 58 44 59 45 60 46 61 47 62 49 66 50 67 51 68 52
REMARK SMILES IDX 69 53 70 54 71 55 2 56 1 57 3 58 4 59 5 60 6 62 7 63 63 65
REMARK SMILES IDX 64 66 65 67 40 69 41 70 42 71 44 72 43 73 45 74 46 75 47 76
REMARK SMILES IDX 55 77 56 78 48 79 49 80 50 81 54 82 51 83 53 84 52 85
REMARK H PARENT 38 5 27 10 18 17 10 22 22 31 34 39 34 40 35 41 35 42 61 48
REMARK H PARENT 5 61 65 68
REMARK Flexibility Score:  369.900
ROOT
ATOM      1  C   UNL     1      -6.234  -3.556  11.970  1.00  0.00     0.117 C 
ENDROOT
BRANCH   1   2
ATOM      2  N   UNL     1      -6.018  -3.189  13.369  1.00  0.00    -0.347 N 
ATOM      3  O   UNL     1      -5.602  -0.955  13.046  1.00  0.00    -0.273 OA
ATOM      4  C   UNL     1      -5.808  -1.895  13.806  1.00  0.00     0.243 C 
ATOM      5  H   UNL     1      -6.070  -3.902  14.081  1.00  0.00     0.164 HD
BRANCH   4   6
ATOM      6  C   UNL     1      -5.694  -1.768  15.347  1.00  0.00     0.171 C 
BRANCH   6   7
ATOM      7  N   UNL     1      -5.136  -0.457  15.714  1.00  0.00    -0.344 N 
ATOM      8  C   UNL     1      -4.473  -0.287  16.911  1.00  0.00     0.226 C 
ATOM      9  O   UNL     1      -4.336  -1.192  17.725  1.00  0.00    -0.275 OA
ATOM     10  H   UNL     1      -5.288   0.331  15.098  1.00  0.00     0.164 HD
BRANCH   8  11
ATOM     11  C   UNL     1      -3.909   1.108  17.119  1.00  0.00     0.109 C 
ATOM     12  C   UNL     1      -4.135   1.959  15.870  1.00  0.00     0.021 C 
BRANCH  11  13
ATOM     13  C   UNL     1      -4.471   1.708  18.424  1.00  0.00     0.204 C 
BRANCH  13  14
ATOM     14  N   UNL     1      -3.950   3.054  18.680  1.00  0.00    -0.340 N 
ATOM     15  C   UNL     1      -2.626   3.302  18.971  1.00  0.00     0.243 C 
ATOM     16  O   UNL     1      -1.774   2.415  18.975  1.00  0.00    -0.273 OA
ATOM     17  H   UNL     1      -4.624   3.807  18.841  1.00  0.00     0.164 HD
BRANCH  15  18
ATOM     18  C   UNL     1      -2.351   4.762  19.408  1.00  0.00     0.171 C 
BRANCH  18  19
ATOM     19  N   UNL     1      -2.158   4.735  20.857  1.00  0.00    -0.343 N 
ATOM     20  C   UNL     1      -3.220   4.822  21.736  1.00  0.00     0.242 CG0
ATOM     21  O   UNL     1      -4.361   5.059  21.345  1.00  0.00    -0.273 OA
ATOM     22  H   UNL     1      -1.219   4.656  21.232  1.00  0.00     0.164 HD
ATOM     23  G   UNL     1      -2.829   4.697  23.222  1.00  0.00     0.000 G0
ENDBRANCH  18  19
BRANCH  18  24
ATOM     24  C   UNL     1      -1.118   5.320  18.687  1.00  0.00     0.038 C 
BRANCH  24  25
ATOM     25  C   UNL     1      -1.399   5.896  17.283  1.00  0.00    -0.015 C 
ATOM     26  C   UNL     1      -1.008   4.929  16.165  1.00  0.00     0.007 C 
ATOM     27  C   UNL     1      -0.645   7.217  17.108  1.00  0.00     0.007 C 
ENDBRANCH  24  25
ENDBRANCH  18  24
ENDBRANCH  15  18
ENDBRANCH  13  14
BRANCH  13  28
ATOM     28  C   UNL     1      -5.999   1.802  18.435  1.00  0.00     0.327 C 
ATOM     29  O   UNL     1      -6.686   2.498  17.702  1.00  0.00    -0.250 OA
BRANCH  28  30
ATOM     30  O   UNL     1      -6.564   1.109  19.444  1.00  0.00    -0.480 OA
ATOM     31  H   UNL     1      -5.810   0.667  19.885  1.00  0.00     0.296 HD
ENDBRANCH  28  30
ENDBRANCH  13  28
ENDBRANCH  11  13
ENDBRANCH   8  11
ENDBRANCH   6   7
BRANCH   6  32
ATOM     32  C   UNL     1      -7.079  -1.968  15.972  1.00  0.00     0.037 C 
BRANCH  32  33
ATOM     33  C   UNL     1      -8.033  -0.809  15.651  1.00  0.00     0.026 C 
BRANCH  33  34
ATOM     34  C   UNL     1      -9.502  -1.192  15.831  1.00  0.00     0.146 C 
BRANCH  34  35
ATOM     35  N   UNL     1      -9.945  -1.922  14.651  1.00  0.00    -0.254 NA
ATOM     36  C   UNL     1     -11.108  -1.672  14.175  1.00  0.00     0.185 C 
ATOM     37  N   UNL     1     -11.524  -2.335  13.085  1.00  0.00    -0.370 N 
ATOM     38  N   UNL     1     -12.033  -0.802  14.617  1.00  0.00    -0.370 N 
ATOM     39  H   UNL     1     -10.877  -3.003  12.685  1.00  0.00     0.159 HD
ATOM     40  H   UNL     1     -12.338  -2.077  12.554  1.00  0.00     0.159 HD
ATOM     41  H   UNL     1     -12.966  -0.797  14.239  1.00  0.00     0.159 HD
ATOM     42  H   UNL     1     -11.861  -0.246  15.440  1.00  0.00     0.159 HD
ENDBRANCH  34  35
ENDBRANCH  33  34
ENDBRANCH  32  33
ENDBRANCH   6  32
ENDBRANCH   4   6
ENDBRANCH   1   2
BRANCH   1  43
ATOM     43  C   UNL     1      -7.719  -3.986  11.794  1.00  0.00     0.102 C 
ATOM     44  C   UNL     1      -7.888  -5.473  11.441  1.00  0.00     0.020 C 
BRANCH  43  45
ATOM     45  C   UNL     1      -8.458  -3.035  10.847  1.00  0.00     0.225 C 
ATOM     46  O   UNL     1      -9.081  -3.419   9.862  1.00  0.00    -0.275 OA
ATOM     47  N   UNL     1      -8.305  -1.694  11.117  1.00  0.00    -0.342 N 
ATOM     48  H   UNL     1      -7.924  -1.403  12.005  1.00  0.00     0.164 HD
BRANCH  47  49
ATOM     49  C   UNL     1      -8.983  -0.670  10.317  1.00  0.00     0.192 C 
BRANCH  49  50
ATOM     50  C   UNL     1      -7.949   0.295   9.733  1.00  0.00     0.047 C 
BRANCH  50  51
ATOM     51  C   UNL     1      -7.376  -0.203   8.399  1.00  0.00     0.103 C 
BRANCH  51  52
ATOM     52  C   UNL     1      -6.004  -0.852   8.571  1.00  0.00     0.226 C 
ATOM     53  O   UNL     1      -5.568  -1.066   9.704  1.00  0.00    -0.275 OA
BRANCH  52  54
ATOM     54  N   UNL     1      -5.342  -1.242   7.391  1.00  0.00    -0.311 N 
ATOM     55  C   UNL     1      -4.242  -0.439   6.841  1.00  0.00     0.153 C 
BRANCH  54  56
ATOM     56  C   UNL     1      -5.704  -2.411   6.701  1.00  0.00     0.102 C 
ATOM     57  C   UNL     1      -6.181  -3.526   7.277  1.00  0.00     0.043 C 
BRANCH  56  58
ATOM     58  C   UNL     1      -5.618  -2.479   5.195  1.00  0.00     0.268 C 
ATOM     59  O   UNL     1      -4.861  -3.235   4.601  1.00  0.00    -0.268 OA
ATOM     60  N   UNL     1      -6.521  -1.656   4.564  1.00  0.00    -0.339 N 
ATOM     61  H   UNL     1      -7.106  -1.052   5.129  1.00  0.00     0.164 HD
BRANCH  60  62
ATOM     62  C   UNL     1      -6.651  -1.613   3.109  1.00  0.00     0.168 CG0
ATOM     63  C   UNL     1      -5.521  -0.805   2.482  1.00  0.00     0.041 C 
ATOM     64  G   UNL     1      -8.023  -1.017   2.730  1.00  0.00     0.000 G0
ENDBRANCH  60  62
ENDBRANCH  56  58
ENDBRANCH  54  56
ENDBRANCH  52  54
ENDBRANCH  51  52
ENDBRANCH  50  51
ENDBRANCH  49  50
BRANCH  49  65
ATOM     65  C   UNL     1     -10.002   0.121  11.153  1.00  0.00     0.326 C 
ATOM     66  O   UNL     1      -9.730   0.878  12.073  1.00  0.00    -0.250 OA
BRANCH  65  67
ATOM     67  O   UNL     1     -11.294  -0.119  10.842  1.00  0.00    -0.480 OA
ATOM     68  H   UNL     1     -11.546   0.650  10.287  1.00  0.00     0.296 HD
ENDBRANCH  65  67
ENDBRANCH  49  65
ENDBRANCH  47  49
ENDBRANCH  43  45
ENDBRANCH   1  43
BRANCH   1  69
ATOM     69  C   UNL     1      -5.138  -4.545  11.617  1.00  0.00    -0.001 C 
ATOM     70  C   UNL     1      -4.346  -4.534  10.530  1.00  0.00     0.001 C 
BRANCH  70  71
ATOM     71  C   UNL     1      -3.277  -5.482  10.210  1.00  0.00    -0.055 C 
ATOM     72  C   UNL     1      -2.136  -5.407  10.928  1.00  0.00    -0.018 C 
ATOM     73  C   UNL     1      -3.528  -6.479   9.109  1.00  0.00     0.044 C 
BRANCH  72  74
ATOM     74  C   UNL     1      -0.875  -6.252  10.823  1.00  0.00     0.038 C 
ATOM     75  C   UNL     1      -0.773  -7.076  12.112  1.00  0.00     0.015 C 
BRANCH  74  76
ATOM     76  C   UNL     1       0.337  -5.311  10.553  1.00  0.00     0.128 C 
BRANCH  76  77
ATOM     77  O   UNL     1       1.410  -5.621  11.457  1.00  0.00    -0.381 OA
ATOM     78  C   UNL     1       2.353  -4.568  11.606  1.00  0.00     0.195 C 
ENDBRANCH  76  77
BRANCH  76  79
ATOM     79  C   UNL     1       0.791  -5.280   9.071  1.00  0.00     0.068 C 
BRANCH  79  80
ATOM     80  C   UNL     1      -0.216  -4.848   8.032  1.00  0.00    -0.045 A 
ATOM     81  C   UNL     1      -0.879  -3.618   8.137  1.00  0.00     0.004 A 
ATOM     82  C   UNL     1      -0.525  -5.691   6.954  1.00  0.00     0.004 A 
ATOM     83  C   UNL     1      -1.819  -3.232   7.179  1.00  0.00     0.000 A 
ATOM     84  C   UNL     1      -1.466  -5.304   5.997  1.00  0.00     0.000 A 
ATOM     85  C   UNL     1      -2.111  -4.074   6.109  1.00  0.00     0.000 A 
ENDBRANCH  79  80
ENDBRANCH  76  79
ENDBRANCH  74  76
ENDBRANCH  72  74
ENDBRANCH  70  71
ENDBRANCH   1  69
TORSDOF 17
ENDMDL
MODEL 10
REMARK VINA RESULT:    -7.105      4.697     10.722
REMARK INTER + INTRA:         -29.941
REMARK INTER:                 -22.647
REMARK INTRA:                  -7.295
REMARK UNBOUND:                -8.713
REMARK SMILES C=C1C(=O)N[C@H](C)C(=O)N[C@@H](CC(C)C)C(=O)N[C@@H](C(=O)O)[C@H](C)C(=O)N[C@@H](CCCN=C(N)N)C(=O)N[C@@H](/C=C/C(C)=C/[C@H](C)[C@H](Cc2ccccc2)OC)[C@H](C)C(=O)N[C@@H](C(=O)O)CCC(=O)N1C
REMARK SMILES IDX 39 1 38 2 37 3 36 4 28 6 27 7 25 8 26 9 23 11 24 12 19 13
REMARK SMILES IDX 18 14 16 15 17 16 11 18 10 19 8 20 9 21 12 24 13 25 14 26
REMARK SMILES IDX 15 27 20 28 21 29 22 30 29 32 30 33 31 34 32 35 33 36 34 37
REMARK SMILES IDX 35 38 57 43 58 44 59 45 60 46 61 47 62 49 66 50 67 51 68 52
REMARK SMILES IDX 69 53 70 54 71 55 2 56 1 57 3 58 4 59 5 60 6 62 7 63 63 65
REMARK SMILES IDX 64 66 65 67 40 69 41 70 42 71 44 72 43 73 45 74 46 75 47 76
REMARK SMILES IDX 55 77 56 78 48 79 49 80 50 81 54 82 51 83 53 84 52 85
REMARK H PARENT 38 5 27 10 18 17 10 22 22 31 34 39 34 40 35 41 35 42 61 48
REMARK H PARENT 5 61 65 68
REMARK Flexibility Score:  369.900
ROOT
ATOM      1  C   UNL     1      -3.378  -1.737  12.383  1.00  0.00     0.117 C 
ENDROOT
BRANCH   1   2
ATOM      2  N   UNL     1      -2.231  -2.469  11.844  1.00  0.00    -0.347 N 
ATOM      3  O   UNL     1      -0.581  -1.344  12.977  1.00  0.00    -0.273 OA
ATOM      4  C   UNL     1      -0.926  -2.274  12.255  1.00  0.00     0.243 C 
ATOM      5  H   UNL     1      -2.385  -3.199  11.166  1.00  0.00     0.164 HD
BRANCH   4   6
ATOM      6  C   UNL     1       0.088  -3.238  11.590  1.00  0.00     0.171 C 
BRANCH   6   7
ATOM      7  N   UNL     1      -0.598  -4.440  11.088  1.00  0.00    -0.344 N 
ATOM      8  C   UNL     1      -0.729  -5.558  11.882  1.00  0.00     0.226 C 
ATOM      9  O   UNL     1      -0.270  -5.619  13.017  1.00  0.00    -0.275 OA
ATOM     10  H   UNL     1      -0.931  -4.451  10.132  1.00  0.00     0.164 HD
BRANCH   8  11
ATOM     11  C   UNL     1      -1.508  -6.693  11.241  1.00  0.00     0.109 C 
ATOM     12  C   UNL     1      -1.035  -8.036  11.799  1.00  0.00     0.021 C 
BRANCH  11  13
ATOM     13  C   UNL     1      -3.021  -6.430  11.380  1.00  0.00     0.204 C 
BRANCH  13  14
ATOM     14  N   UNL     1      -3.764  -6.845  10.186  1.00  0.00    -0.340 N 
ATOM     15  C   UNL     1      -3.760  -6.121   9.013  1.00  0.00     0.243 C 
ATOM     16  O   UNL     1      -3.081  -5.106   8.865  1.00  0.00    -0.273 OA
ATOM     17  H   UNL     1      -4.461  -7.587  10.288  1.00  0.00     0.164 HD
BRANCH  15  18
ATOM     18  C   UNL     1      -4.776  -6.637   7.964  1.00  0.00     0.171 C 
BRANCH  18  19
ATOM     19  N   UNL     1      -3.998  -7.278   6.907  1.00  0.00    -0.343 N 
ATOM     20  C   UNL     1      -4.007  -6.808   5.608  1.00  0.00     0.242 CG0
ATOM     21  O   UNL     1      -4.771  -5.914   5.252  1.00  0.00    -0.273 OA
ATOM     22  H   UNL     1      -3.438  -8.095   7.126  1.00  0.00     0.164 HD
ATOM     23  G   UNL     1      -3.064  -7.565   4.650  1.00  0.00     0.000 G0
ENDBRANCH  18  19
BRANCH  18  24
ATOM     24  C   UNL     1      -5.766  -7.616   8.606  1.00  0.00     0.038 C 
BRANCH  24  25
ATOM     25  C   UNL     1      -7.141  -7.692   7.909  1.00  0.00    -0.015 C 
ATOM     26  C   UNL     1      -7.151  -8.681   6.742  1.00  0.00     0.007 C 
ATOM     27  C   UNL     1      -7.543  -6.302   7.409  1.00  0.00     0.007 C 
ENDBRANCH  24  25
ENDBRANCH  18  24
ENDBRANCH  15  18
ENDBRANCH  13  14
BRANCH  13  28
ATOM     28  C   UNL     1      -3.651  -7.146  12.578  1.00  0.00     0.327 C 
ATOM     29  O   UNL     1      -4.458  -8.062  12.530  1.00  0.00    -0.250 OA
BRANCH  28  30
ATOM     30  O   UNL     1      -3.320  -6.589  13.761  1.00  0.00    -0.480 OA
ATOM     31  H   UNL     1      -2.874  -7.311  14.251  1.00  0.00     0.296 HD
ENDBRANCH  28  30
ENDBRANCH  13  28
ENDBRANCH  11  13
ENDBRANCH   8  11
ENDBRANCH   6   7
BRANCH   6  32
ATOM     32  C   UNL     1       0.809  -2.505  10.453  1.00  0.00     0.037 C 
BRANCH  32  33
ATOM     33  C   UNL     1       2.113  -3.206  10.048  1.00  0.00     0.026 C 
BRANCH  33  34
ATOM     34  C   UNL     1       2.070  -3.739   8.615  1.00  0.00     0.146 C 
BRANCH  34  35
ATOM     35  N   UNL     1       0.966  -4.682   8.498  1.00  0.00    -0.254 NA
ATOM     36  C   UNL     1       0.389  -4.814   7.362  1.00  0.00     0.185 C 
ATOM     37  N   UNL     1      -0.626  -5.684   7.242  1.00  0.00    -0.370 N 
ATOM     38  N   UNL     1       0.652  -4.186   6.202  1.00  0.00    -0.370 N 
ATOM     39  H   UNL     1      -0.878  -6.205   8.072  1.00  0.00     0.159 HD
ATOM     40  H   UNL     1      -1.011  -5.971   6.358  1.00  0.00     0.159 HD
ATOM     41  H   UNL     1       0.036  -4.274   5.411  1.00  0.00     0.159 HD
ATOM     42  H   UNL     1       1.381  -3.492   6.149  1.00  0.00     0.159 HD
ENDBRANCH  34  35
ENDBRANCH  33  34
ENDBRANCH  32  33
ENDBRANCH   6  32
ENDBRANCH   4   6
ENDBRANCH   1   2
BRANCH   1  43
ATOM     43  C   UNL     1      -3.850  -2.445  13.685  1.00  0.00     0.102 C 
ATOM     44  C   UNL     1      -4.888  -3.552  13.437  1.00  0.00     0.020 C 
BRANCH  43  45
ATOM     45  C   UNL     1      -4.273  -1.423  14.745  1.00  0.00     0.225 C 
ATOM     46  O   UNL     1      -5.400  -0.940  14.799  1.00  0.00    -0.275 OA
ATOM     47  N   UNL     1      -3.273  -0.999  15.591  1.00  0.00    -0.342 N 
ATOM     48  H   UNL     1      -2.403  -1.510  15.632  1.00  0.00     0.164 HD
BRANCH  47  49
ATOM     49  C   UNL     1      -3.539  -0.050  16.676  1.00  0.00     0.192 C 
BRANCH  49  50
ATOM     50  C   UNL     1      -2.256   0.189  17.476  1.00  0.00     0.047 C 
BRANCH  50  51
ATOM     51  C   UNL     1      -1.485   1.422  16.985  1.00  0.00     0.103 C 
BRANCH  51  52
ATOM     52  C   UNL     1      -1.895   2.689  17.732  1.00  0.00     0.226 C 
ATOM     53  O   UNL     1      -1.396   2.938  18.831  1.00  0.00    -0.275 OA
BRANCH  52  54
ATOM     54  N   UNL     1      -2.783   3.552  17.063  1.00  0.00    -0.311 N 
ATOM     55  C   UNL     1      -2.310   4.449  16.001  1.00  0.00     0.153 C 
BRANCH  54  56
ATOM     56  C   UNL     1      -4.151   3.583  17.380  1.00  0.00     0.102 C 
ATOM     57  C   UNL     1      -5.146   3.669  16.482  1.00  0.00     0.043 C 
BRANCH  56  58
ATOM     58  C   UNL     1      -4.617   3.473  18.813  1.00  0.00     0.268 C 
ATOM     59  O   UNL     1      -5.339   2.571  19.215  1.00  0.00    -0.268 OA
ATOM     60  N   UNL     1      -4.095   4.450  19.628  1.00  0.00    -0.339 N 
ATOM     61  H   UNL     1      -3.513   5.168  19.215  1.00  0.00     0.164 HD
BRANCH  60  62
ATOM     62  C   UNL     1      -4.367   4.493  21.064  1.00  0.00     0.168 CG0
ATOM     63  C   UNL     1      -5.495   5.469  21.378  1.00  0.00     0.041 C 
ATOM     64  G   UNL     1      -3.081   4.883  21.821  1.00  0.00     0.000 G0
ENDBRANCH  60  62
ENDBRANCH  56  58
ENDBRANCH  54  56
ENDBRANCH  52  54
ENDBRANCH  51  52
ENDBRANCH  50  51
ENDBRANCH  49  50
BRANCH  49  65
ATOM     65  C   UNL     1      -4.640  -0.562  17.619  1.00  0.00     0.326 C 
ATOM     66  O   UNL     1      -4.591  -1.593  18.274  1.00  0.00    -0.250 OA
BRANCH  65  67
ATOM     67  O   UNL     1      -5.756   0.199  17.648  1.00  0.00    -0.480 OA
ATOM     68  H   UNL     1      -6.048   0.218  16.712  1.00  0.00     0.296 HD
ENDBRANCH  65  67
ENDBRANCH  49  65
ENDBRANCH  47  49
ENDBRANCH  43  45
ENDBRANCH   1  43
BRANCH   1  69
ATOM     69  C   UNL     1      -4.358  -1.581  11.235  1.00  0.00    -0.001 C 
ATOM     70  C   UNL     1      -4.933  -0.446  10.799  1.00  0.00     0.001 C 
BRANCH  70  71
ATOM     71  C   UNL     1      -5.862  -0.306   9.676  1.00  0.00    -0.055 C 
ATOM     72  C   UNL     1      -7.122   0.095   9.950  1.00  0.00    -0.018 C 
ATOM     73  C   UNL     1      -5.345  -0.611   8.295  1.00  0.00     0.044 C 
BRANCH  72  74
ATOM     74  C   UNL     1      -8.287   0.328   8.999  1.00  0.00     0.038 C 
ATOM     75  C   UNL     1      -8.895   1.691   9.353  1.00  0.00     0.015 C 
BRANCH  74  76
ATOM     76  C   UNL     1      -9.270  -0.874   9.107  1.00  0.00     0.128 C 
BRANCH  76  77
ATOM     77  O   UNL     1      -9.297  -1.599   7.866  1.00  0.00    -0.381 OA
ATOM     78  C   UNL     1      -8.384  -2.687   7.821  1.00  0.00     0.195 C 
ENDBRANCH  76  77
BRANCH  76  79
ATOM     79  C   UNL     1      -9.013  -1.789  10.331  1.00  0.00     0.068 C 
BRANCH  79  80
ATOM     80  C   UNL     1      -9.486  -1.312  11.683  1.00  0.00    -0.045 A 
ATOM     81  C   UNL     1      -8.770  -1.619  12.847  1.00  0.00     0.004 A 
ATOM     82  C   UNL     1     -10.672  -0.572  11.796  1.00  0.00     0.004 A 
ATOM     83  C   UNL     1      -9.222  -1.185  14.096  1.00  0.00     0.000 A 
ATOM     84  C   UNL     1     -11.123  -0.139  13.045  1.00  0.00     0.000 A 
ATOM     85  C   UNL     1     -10.397  -0.444  14.194  1.00  0.00     0.000 A 
ENDBRANCH  79  80
ENDBRANCH  76  79
ENDBRANCH  74  76
ENDBRANCH  72  74
ENDBRANCH  70  71
ENDBRANCH   1  69
TORSDOF 17
ENDMDL
MODEL 11
REMARK VINA RESULT:    -7.085      4.714     10.647
REMARK INTER + INTRA:         -29.882
REMARK INTER:                 -22.435
REMARK INTRA:                  -7.447
REMARK UNBOUND:                -8.713
REMARK SMILES C=C1C(=O)N[C@H](C)C(=O)N[C@@H](CC(C)C)C(=O)N[C@@H](C(=O)O)[C@H](C)C(=O)N[C@@H](CCCN=C(N)N)C(=O)N[C@@H](/C=C/C(C)=C/[C@H](C)[C@H](Cc2ccccc2)OC)[C@H](C)C(=O)N[C@@H](C(=O)O)CCC(=O)N1C
REMARK SMILES IDX 39 1 38 2 37 3 36 4 28 6 27 7 25 8 26 9 23 11 24 12 19 13
REMARK SMILES IDX 18 14 16 15 17 16 11 18 10 19 8 20 9 21 12 24 13 25 14 26
REMARK SMILES IDX 15 27 20 28 21 29 22 30 29 32 30 33 31 34 32 35 33 36 34 37
REMARK SMILES IDX 35 38 57 43 58 44 59 45 60 46 61 47 62 49 66 50 67 51 68 52
REMARK SMILES IDX 69 53 70 54 71 55 2 56 1 57 3 58 4 59 5 60 6 62 7 63 63 65
REMARK SMILES IDX 64 66 65 67 40 69 41 70 42 71 44 72 43 73 45 74 46 75 47 76
REMARK SMILES IDX 55 77 56 78 48 79 49 80 50 81 54 82 51 83 53 84 52 85
REMARK H PARENT 38 5 27 10 18 17 10 22 22 31 34 39 34 40 35 41 35 42 61 48
REMARK H PARENT 5 61 65 68
REMARK Flexibility Score:  369.900
ROOT
ATOM      1  C   UNL     1      -4.398  -3.599  12.863  1.00  0.00     0.117 C 
ENDROOT
BRANCH   1   2
ATOM      2  N   UNL     1      -5.335  -3.679  11.742  1.00  0.00    -0.347 N 
ATOM      3  O   UNL     1      -6.196  -5.757  12.200  1.00  0.00    -0.273 OA
ATOM      4  C   UNL     1      -6.227  -4.716  11.552  1.00  0.00     0.243 C 
ATOM      5  H   UNL     1      -5.383  -2.917  11.083  1.00  0.00     0.164 HD
BRANCH   4   6
ATOM      6  C   UNL     1      -7.168  -4.515  10.337  1.00  0.00     0.171 C 
BRANCH   6   7
ATOM      7  N   UNL     1      -6.839  -3.265   9.633  1.00  0.00    -0.344 N 
ATOM      8  C   UNL     1      -7.705  -2.733   8.703  1.00  0.00     0.226 C 
ATOM      9  O   UNL     1      -8.763  -3.273   8.401  1.00  0.00    -0.275 OA
ATOM     10  H   UNL     1      -5.943  -2.826   9.806  1.00  0.00     0.164 HD
BRANCH   8  11
ATOM     11  C   UNL     1      -7.249  -1.414   8.105  1.00  0.00     0.109 C 
ATOM     12  C   UNL     1      -7.045  -0.378   9.211  1.00  0.00     0.021 C 
BRANCH  11  13
ATOM     13  C   UNL     1      -6.021  -1.647   7.202  1.00  0.00     0.204 C 
BRANCH  13  14
ATOM     14  N   UNL     1      -6.241  -2.735   6.243  1.00  0.00    -0.340 N 
ATOM     15  C   UNL     1      -5.218  -3.515   5.748  1.00  0.00     0.243 C 
ATOM     16  O   UNL     1      -4.054  -3.392   6.124  1.00  0.00    -0.273 OA
ATOM     17  H   UNL     1      -7.152  -2.789   5.779  1.00  0.00     0.164 HD
BRANCH  15  18
ATOM     18  C   UNL     1      -5.658  -4.455   4.599  1.00  0.00     0.171 C 
BRANCH  18  19
ATOM     19  N   UNL     1      -4.704  -4.258   3.509  1.00  0.00    -0.343 N 
ATOM     20  C   UNL     1      -5.109  -4.183   2.190  1.00  0.00     0.242 CG0
ATOM     21  O   UNL     1      -6.270  -4.411   1.860  1.00  0.00    -0.273 OA
ATOM     22  H   UNL     1      -3.716  -4.179   3.721  1.00  0.00     0.164 HD
ATOM     23  G   UNL     1      -3.971  -3.894   1.190  1.00  0.00     0.000 G0
ENDBRANCH  18  19
BRANCH  18  24
ATOM     24  C   UNL     1      -5.678  -5.914   5.071  1.00  0.00     0.038 C 
BRANCH  24  25
ATOM     25  C   UNL     1      -7.069  -6.583   5.036  1.00  0.00    -0.015 C 
ATOM     26  C   UNL     1      -8.123  -5.782   5.800  1.00  0.00     0.007 C 
ATOM     27  C   UNL     1      -6.975  -7.996   5.616  1.00  0.00     0.007 C 
ENDBRANCH  24  25
ENDBRANCH  18  24
ENDBRANCH  15  18
ENDBRANCH  13  14
BRANCH  13  28
ATOM     28  C   UNL     1      -5.619  -0.407   6.397  1.00  0.00     0.327 C 
ATOM     29  O   UNL     1      -6.369   0.311   5.753  1.00  0.00    -0.250 OA
BRANCH  28  30
ATOM     30  O   UNL     1      -4.285  -0.215   6.354  1.00  0.00    -0.480 OA
ATOM     31  H   UNL     1      -4.002  -0.669   5.534  1.00  0.00     0.296 HD
ENDBRANCH  28  30
ENDBRANCH  13  28
ENDBRANCH  11  13
ENDBRANCH   8  11
ENDBRANCH   6   7
BRANCH   6  32
ATOM     32  C   UNL     1      -7.043  -5.721   9.399  1.00  0.00     0.037 C 
BRANCH  32  33
ATOM     33  C   UNL     1      -5.642  -5.830   8.780  1.00  0.00     0.026 C 
BRANCH  33  34
ATOM     34  C   UNL     1      -5.142  -7.274   8.717  1.00  0.00     0.146 C 
BRANCH  34  35
ATOM     35  N   UNL     1      -4.003  -7.416   9.614  1.00  0.00    -0.254 NA
ATOM     36  C   UNL     1      -4.157  -8.075  10.702  1.00  0.00     0.185 C 
ATOM     37  N   UNL     1      -3.114  -8.217  11.534  1.00  0.00    -0.370 N 
ATOM     38  N   UNL     1      -5.261  -8.684  11.172  1.00  0.00    -0.370 N 
ATOM     39  H   UNL     1      -2.241  -7.794  11.244  1.00  0.00     0.159 HD
ATOM     40  H   UNL     1      -3.104  -8.856  12.310  1.00  0.00     0.159 HD
ATOM     41  H   UNL     1      -5.294  -9.052  12.109  1.00  0.00     0.159 HD
ATOM     42  H   UNL     1      -6.126  -8.646  10.657  1.00  0.00     0.159 HD
ENDBRANCH  34  35
ENDBRANCH  33  34
ENDBRANCH  32  33
ENDBRANCH   6  32
ENDBRANCH   4   6
ENDBRANCH   1   2
BRANCH   1  43
ATOM     43  C   UNL     1      -4.561  -2.211  13.547  1.00  0.00     0.102 C 
ATOM     44  C   UNL     1      -3.284  -1.723  14.252  1.00  0.00     0.020 C 
BRANCH  43  45
ATOM     45  C   UNL     1      -5.811  -2.178  14.432  1.00  0.00     0.225 C 
ATOM     46  O   UNL     1      -6.949  -2.308  13.991  1.00  0.00    -0.275 OA
ATOM     47  N   UNL     1      -5.588  -1.897  15.761  1.00  0.00    -0.342 N 
ATOM     48  H   UNL     1      -4.650  -1.945  16.132  1.00  0.00     0.164 HD
BRANCH  47  49
ATOM     49  C   UNL     1      -6.686  -1.868  16.732  1.00  0.00     0.192 C 
BRANCH  49  50
ATOM     50  C   UNL     1      -6.358  -0.876  17.851  1.00  0.00     0.047 C 
BRANCH  50  51
ATOM     51  C   UNL     1      -6.440   0.582  17.378  1.00  0.00     0.103 C 
BRANCH  51  52
ATOM     52  C   UNL     1      -5.077   1.270  17.401  1.00  0.00     0.226 C 
ATOM     53  O   UNL     1      -4.059   0.616  17.169  1.00  0.00    -0.275 OA
BRANCH  52  54
ATOM     54  N   UNL     1      -5.081   2.660  17.619  1.00  0.00    -0.311 N 
ATOM     55  C   UNL     1      -5.147   3.602  16.494  1.00  0.00     0.153 C 
BRANCH  54  56
ATOM     56  C   UNL     1      -5.027   3.199  18.916  1.00  0.00     0.102 C 
ATOM     57  C   UNL     1      -3.919   3.278  19.670  1.00  0.00     0.043 C 
BRANCH  56  58
ATOM     58  C   UNL     1      -6.258   3.792  19.560  1.00  0.00     0.268 C 
ATOM     59  O   UNL     1      -7.375   3.306  19.444  1.00  0.00    -0.268 OA
ATOM     60  N   UNL     1      -5.984   4.891  20.339  1.00  0.00    -0.339 N 
ATOM     61  H   UNL     1      -5.033   5.238  20.374  1.00  0.00     0.164 HD
BRANCH  60  62
ATOM     62  C   UNL     1      -7.021   5.583  21.103  1.00  0.00     0.168 CG0
ATOM     63  C   UNL     1      -6.695   7.064  21.251  1.00  0.00     0.041 C 
ATOM     64  G   UNL     1      -7.175   4.916  22.486  1.00  0.00     0.000 G0
ENDBRANCH  60  62
ENDBRANCH  56  58
ENDBRANCH  54  56
ENDBRANCH  52  54
ENDBRANCH  51  52
ENDBRANCH  50  51
ENDBRANCH  49  50
BRANCH  49  65
ATOM     65  C   UNL     1      -6.941  -3.256  17.341  1.00  0.00     0.326 C 
ATOM     66  O   UNL     1      -6.946  -4.312  16.726  1.00  0.00    -0.250 OA
BRANCH  65  67
ATOM     67  O   UNL     1      -7.234  -3.248  18.660  1.00  0.00    -0.480 OA
ATOM     68  H   UNL     1      -6.586  -2.614  19.037  1.00  0.00     0.296 HD
ENDBRANCH  65  67
ENDBRANCH  49  65
ENDBRANCH  47  49
ENDBRANCH  43  45
ENDBRANCH   1  43
BRANCH   1  69
ATOM     69  C   UNL     1      -3.040  -3.988  12.308  1.00  0.00    -0.001 C 
ATOM     70  C   UNL     1      -2.717  -4.217  11.023  1.00  0.00     0.001 C 
BRANCH  70  71
ATOM     71  C   UNL     1      -1.397  -4.571  10.497  1.00  0.00    -0.055 C 
ATOM     72  C   UNL     1      -0.325  -4.333  11.281  1.00  0.00    -0.018 C 
ATOM     73  C   UNL     1      -1.330  -5.182   9.122  1.00  0.00     0.044 C 
BRANCH  72  74
ATOM     74  C   UNL     1       1.149  -4.597  11.004  1.00  0.00     0.038 C 
ATOM     75  C   UNL     1       1.604  -5.689  11.980  1.00  0.00     0.015 C 
BRANCH  74  76
ATOM     76  C   UNL     1       1.928  -3.254  11.117  1.00  0.00     0.128 C 
BRANCH  76  77
ATOM     77  O   UNL     1       2.865  -3.137  10.033  1.00  0.00    -0.381 OA
ATOM     78  C   UNL     1       4.158  -2.710  10.439  1.00  0.00     0.195 C 
ENDBRANCH  76  77
BRANCH  76  79
ATOM     79  C   UNL     1       1.018  -2.008  11.260  1.00  0.00     0.068 C 
BRANCH  79  80
ATOM     80  C   UNL     1       1.140  -1.184  12.519  1.00  0.00    -0.045 A 
ATOM     81  C   UNL     1       2.292  -0.432  12.781  1.00  0.00     0.004 A 
ATOM     82  C   UNL     1       0.104  -1.182  13.466  1.00  0.00     0.004 A 
ATOM     83  C   UNL     1       2.403   0.317  13.955  1.00  0.00     0.000 A 
ATOM     84  C   UNL     1       0.216  -0.434  14.640  1.00  0.00     0.000 A 
ATOM     85  C   UNL     1       1.364   0.316  14.884  1.00  0.00     0.000 A 
ENDBRANCH  79  80
ENDBRANCH  76  79
ENDBRANCH  74  76
ENDBRANCH  72  74
ENDBRANCH  70  71
ENDBRANCH   1  69
TORSDOF 17
ENDMDL
MODEL 12
REMARK VINA RESULT:    -7.077      4.583     11.620
REMARK INTER + INTRA:         -29.858
REMARK INTER:                 -21.461
REMARK INTRA:                  -8.397
REMARK UNBOUND:                -8.713
REMARK SMILES C=C1C(=O)N[C@H](C)C(=O)N[C@@H](CC(C)C)C(=O)N[C@@H](C(=O)O)[C@H](C)C(=O)N[C@@H](CCCN=C(N)N)C(=O)N[C@@H](/C=C/C(C)=C/[C@H](C)[C@H](Cc2ccccc2)OC)[C@H](C)C(=O)N[C@@H](C(=O)O)CCC(=O)N1C
REMARK SMILES IDX 39 1 38 2 37 3 36 4 28 6 27 7 25 8 26 9 23 11 24 12 19 13
REMARK SMILES IDX 18 14 16 15 17 16 11 18 10 19 8 20 9 21 12 24 13 25 14 26
REMARK SMILES IDX 15 27 20 28 21 29 22 30 29 32 30 33 31 34 32 35 33 36 34 37
REMARK SMILES IDX 35 38 57 43 58 44 59 45 60 46 61 47 62 49 66 50 67 51 68 52
REMARK SMILES IDX 69 53 70 54 71 55 2 56 1 57 3 58 4 59 5 60 6 62 7 63 63 65
REMARK SMILES IDX 64 66 65 67 40 69 41 70 42 71 44 72 43 73 45 74 46 75 47 76
REMARK SMILES IDX 55 77 56 78 48 79 49 80 50 81 54 82 51 83 53 84 52 85
REMARK H PARENT 38 5 27 10 18 17 10 22 22 31 34 39 34 40 35 41 35 42 61 48
REMARK H PARENT 5 61 65 68
REMARK Flexibility Score:  369.900
ROOT
ATOM      1  C   UNL     1      -2.714  -1.583  12.495  1.00  0.00     0.117 C 
ENDROOT
BRANCH   1   2
ATOM      2  N   UNL     1      -3.049  -2.161  11.194  1.00  0.00    -0.347 N 
ATOM      3  O   UNL     1      -1.312  -1.260   9.994  1.00  0.00    -0.273 OA
ATOM      4  C   UNL     1      -2.267  -2.027  10.063  1.00  0.00     0.243 C 
ATOM      5  H   UNL     1      -3.872  -2.738  11.106  1.00  0.00     0.164 HD
BRANCH   4   6
ATOM      6  C   UNL     1      -2.803  -2.810   8.838  1.00  0.00     0.171 C 
BRANCH   6   7
ATOM      7  N   UNL     1      -4.165  -3.301   9.097  1.00  0.00    -0.344 N 
ATOM      8  C   UNL     1      -4.418  -4.652   9.197  1.00  0.00     0.226 C 
ATOM      9  O   UNL     1      -3.544  -5.499   9.056  1.00  0.00    -0.275 OA
ATOM     10  H   UNL     1      -4.925  -2.635   9.152  1.00  0.00     0.164 HD
BRANCH   8  11
ATOM     11  C   UNL     1      -5.861  -4.997   9.521  1.00  0.00     0.109 C 
ATOM     12  C   UNL     1      -6.665  -3.719   9.763  1.00  0.00     0.021 C 
BRANCH  11  13
ATOM     13  C   UNL     1      -6.432  -5.926   8.432  1.00  0.00     0.204 C 
BRANCH  13  14
ATOM     14  N   UNL     1      -5.737  -5.767   7.151  1.00  0.00    -0.340 N 
ATOM     15  C   UNL     1      -6.243  -5.015   6.113  1.00  0.00     0.243 C 
ATOM     16  O   UNL     1      -7.288  -4.374   6.210  1.00  0.00    -0.273 OA
ATOM     17  H   UNL     1      -4.949  -6.389   6.951  1.00  0.00     0.164 HD
BRANCH  15  18
ATOM     18  C   UNL     1      -5.444  -5.162   4.795  1.00  0.00     0.171 C 
BRANCH  18  19
ATOM     19  N   UNL     1      -6.318  -5.852   3.849  1.00  0.00    -0.343 N 
ATOM     20  C   UNL     1      -6.646  -7.186   4.000  1.00  0.00     0.242 CG0
ATOM     21  O   UNL     1      -6.113  -7.887   4.857  1.00  0.00    -0.273 OA
ATOM     22  H   UNL     1      -6.693  -5.344   3.056  1.00  0.00     0.164 HD
ATOM     23  G   UNL     1      -7.643  -7.719   2.950  1.00  0.00     0.000 G0
ENDBRANCH  18  19
BRANCH  18  24
ATOM     24  C   UNL     1      -5.016  -3.788   4.265  1.00  0.00     0.038 C 
BRANCH  24  25
ATOM     25  C   UNL     1      -5.779  -3.316   3.009  1.00  0.00    -0.015 C 
ATOM     26  C   UNL     1      -4.925  -3.391   1.743  1.00  0.00     0.007 C 
ATOM     27  C   UNL     1      -6.271  -1.881   3.214  1.00  0.00     0.007 C 
ENDBRANCH  24  25
ENDBRANCH  18  24
ENDBRANCH  15  18
ENDBRANCH  13  14
BRANCH  13  28
ATOM     28  C   UNL     1      -6.361  -7.410   8.805  1.00  0.00     0.327 C 
ATOM     29  O   UNL     1      -7.261  -8.076   9.292  1.00  0.00    -0.250 OA
BRANCH  28  30
ATOM     30  O   UNL     1      -5.128  -7.934   8.655  1.00  0.00    -0.480 OA
ATOM     31  H   UNL     1      -4.825  -7.594   7.788  1.00  0.00     0.296 HD
ENDBRANCH  28  30
ENDBRANCH  13  28
ENDBRANCH  11  13
ENDBRANCH   8  11
ENDBRANCH   6   7
BRANCH   6  32
ATOM     32  C   UNL     1      -2.775  -1.897   7.606  1.00  0.00     0.037 C 
BRANCH  32  33
ATOM     33  C   UNL     1      -3.727  -0.701   7.750  1.00  0.00     0.026 C 
BRANCH  33  34
ATOM     34  C   UNL     1      -4.769  -0.645   6.633  1.00  0.00     0.146 C 
BRANCH  34  35
ATOM     35  N   UNL     1      -5.963  -1.357   7.067  1.00  0.00    -0.254 NA
ATOM     36  C   UNL     1      -7.110  -0.895   6.733  1.00  0.00     0.185 C 
ATOM     37  N   UNL     1      -8.217  -1.545   7.124  1.00  0.00    -0.370 N 
ATOM     38  N   UNL     1      -7.401   0.201   6.010  1.00  0.00    -0.370 N 
ATOM     39  H   UNL     1      -8.080  -2.389   7.665  1.00  0.00     0.159 HD
ATOM     40  H   UNL     1      -9.134  -1.349   6.761  1.00  0.00     0.159 HD
ATOM     41  H   UNL     1      -8.346   0.538   5.932  1.00  0.00     0.159 HD
ATOM     42  H   UNL     1      -6.665   0.797   5.663  1.00  0.00     0.159 HD
ENDBRANCH  34  35
ENDBRANCH  33  34
ENDBRANCH  32  33
ENDBRANCH   6  32
ENDBRANCH   4   6
ENDBRANCH   1   2
BRANCH   1  43
ATOM     43  C   UNL     1      -1.505  -2.362  13.088  1.00  0.00     0.102 C 
ATOM     44  C   UNL     1      -1.770  -3.868  13.254  1.00  0.00     0.020 C 
BRANCH  43  45
ATOM     45  C   UNL     1      -0.977  -1.680  14.353  1.00  0.00     0.225 C 
ATOM     46  O   UNL     1      -1.398  -1.936  15.478  1.00  0.00    -0.275 OA
ATOM     47  N   UNL     1      -0.054  -0.681  14.147  1.00  0.00    -0.342 N 
ATOM     48  H   UNL     1       0.389  -0.588  13.244  1.00  0.00     0.164 HD
BRANCH  47  49
ATOM     49  C   UNL     1       0.564   0.035  15.267  1.00  0.00     0.192 C 
BRANCH  49  50
ATOM     50  C   UNL     1      -0.207   1.329  15.539  1.00  0.00     0.047 C 
BRANCH  50  51
ATOM     51  C   UNL     1      -0.694   1.423  16.992  1.00  0.00     0.103 C 
BRANCH  51  52
ATOM     52  C   UNL     1      -2.170   1.056  17.127  1.00  0.00     0.226 C 
ATOM     53  O   UNL     1      -2.488  -0.004  17.669  1.00  0.00    -0.275 OA
BRANCH  52  54
ATOM     54  N   UNL     1      -3.098   2.014  16.677  1.00  0.00    -0.311 N 
ATOM     55  C   UNL     1      -4.163   1.651  15.733  1.00  0.00     0.153 C 
BRANCH  54  56
ATOM     56  C   UNL     1      -3.045   3.347  17.117  1.00  0.00     0.102 C 
ATOM     57  C   UNL     1      -2.853   4.412  16.321  1.00  0.00     0.043 C 
BRANCH  56  58
ATOM     58  C   UNL     1      -3.253   3.692  18.573  1.00  0.00     0.268 C 
ATOM     59  O   UNL     1      -4.014   3.074  19.305  1.00  0.00    -0.268 OA
ATOM     60  N   UNL     1      -2.455   4.725  19.003  1.00  0.00    -0.339 N 
ATOM     61  H   UNL     1      -1.858   5.192  18.331  1.00  0.00     0.164 HD
BRANCH  60  62
ATOM     62  C   UNL     1      -2.451   5.180  20.393  1.00  0.00     0.168 CG0
ATOM     63  C   UNL     1      -1.396   4.441  21.207  1.00  0.00     0.041 C 
ATOM     64  G   UNL     1      -3.852   4.980  21.006  1.00  0.00     0.000 G0
ENDBRANCH  60  62
ENDBRANCH  56  58
ENDBRANCH  54  56
ENDBRANCH  52  54
ENDBRANCH  51  52
ENDBRANCH  50  51
ENDBRANCH  49  50
BRANCH  49  65
ATOM     65  C   UNL     1       2.036   0.369  14.983  1.00  0.00     0.326 C 
ATOM     66  O   UNL     1       2.579   0.316  13.889  1.00  0.00    -0.250 OA
BRANCH  65  67
ATOM     67  O   UNL     1       2.763   0.691  16.076  1.00  0.00    -0.480 OA
ATOM     68  H   UNL     1       3.658   0.345  15.869  1.00  0.00     0.296 HD
ENDBRANCH  65  67
ENDBRANCH  49  65
ENDBRANCH  47  49
ENDBRANCH  43  45
ENDBRANCH   1  43
BRANCH   1  69
ATOM     69  C   UNL     1      -4.011  -1.532  13.283  1.00  0.00    -0.001 C 
ATOM     70  C   UNL     1      -5.090  -2.319  13.131  1.00  0.00     0.001 C 
BRANCH  70  71
ATOM     71  C   UNL     1      -6.328  -2.275  13.912  1.00  0.00    -0.055 C 
ATOM     72  C   UNL     1      -7.399  -2.940  13.429  1.00  0.00    -0.018 C 
ATOM     73  C   UNL     1      -6.317  -1.497  15.202  1.00  0.00     0.044 C 
BRANCH  72  74
ATOM     74  C   UNL     1      -8.797  -3.071  14.018  1.00  0.00     0.038 C 
ATOM     75  C   UNL     1      -9.165  -4.559  13.981  1.00  0.00     0.015 C 
BRANCH  74  76
ATOM     76  C   UNL     1      -9.762  -2.140  13.227  1.00  0.00     0.128 C 
BRANCH  76  77
ATOM     77  O   UNL     1      -9.667  -0.795  13.728  1.00  0.00    -0.381 OA
ATOM     78  C   UNL     1     -10.021  -0.670  15.099  1.00  0.00     0.195 C 
ENDBRANCH  76  77
BRANCH  76  79
ATOM     79  C   UNL     1      -9.596  -2.220  11.689  1.00  0.00     0.068 C 
BRANCH  79  80
ATOM     80  C   UNL     1      -9.139  -0.978  10.962  1.00  0.00    -0.045 A 
ATOM     81  C   UNL     1     -10.066  -0.078  10.419  1.00  0.00     0.004 A 
ATOM     82  C   UNL     1      -7.771  -0.720  10.792  1.00  0.00     0.004 A 
ATOM     83  C   UNL     1      -9.636   1.061   9.736  1.00  0.00     0.000 A 
ATOM     84  C   UNL     1      -7.342   0.419  10.108  1.00  0.00     0.000 A 
ATOM     85  C   UNL     1      -8.274   1.310   9.581  1.00  0.00     0.000 A 
ENDBRANCH  79  80
ENDBRANCH  76  79
ENDBRANCH  74  76
ENDBRANCH  72  74
ENDBRANCH  70  71
ENDBRANCH   1  69
TORSDOF 17
ENDMDL
MODEL 13
REMARK VINA RESULT:    -7.074      4.064     11.703
REMARK INTER + INTRA:         -29.848
REMARK INTER:                 -22.555
REMARK INTRA:                  -7.293
REMARK UNBOUND:                -8.713
REMARK SMILES C=C1C(=O)N[C@H](C)C(=O)N[C@@H](CC(C)C)C(=O)N[C@@H](C(=O)O)[C@H](C)C(=O)N[C@@H](CCCN=C(N)N)C(=O)N[C@@H](/C=C/C(C)=C/[C@H](C)[C@H](Cc2ccccc2)OC)[C@H](C)C(=O)N[C@@H](C(=O)O)CCC(=O)N1C
REMARK SMILES IDX 39 1 38 2 37 3 36 4 28 6 27 7 25 8 26 9 23 11 24 12 19 13
REMARK SMILES IDX 18 14 16 15 17 16 11 18 10 19 8 20 9 21 12 24 13 25 14 26
REMARK SMILES IDX 15 27 20 28 21 29 22 30 29 32 30 33 31 34 32 35 33 36 34 37
REMARK SMILES IDX 35 38 57 43 58 44 59 45 60 46 61 47 62 49 66 50 67 51 68 52
REMARK SMILES IDX 69 53 70 54 71 55 2 56 1 57 3 58 4 59 5 60 6 62 7 63 63 65
REMARK SMILES IDX 64 66 65 67 40 69 41 70 42 71 44 72 43 73 45 74 46 75 47 76
REMARK SMILES IDX 55 77 56 78 48 79 49 80 50 81 54 82 51 83 53 84 52 85
REMARK H PARENT 38 5 27 10 18 17 10 22 22 31 34 39 34 40 35 41 35 42 61 48
REMARK H PARENT 5 61 65 68
REMARK Flexibility Score:  369.900
ROOT
ATOM      1  C   UNL     1      -8.169  -2.634  16.859  1.00  0.00     0.117 C 
ENDROOT
BRANCH   1   2
ATOM      2  N   UNL     1      -8.033  -3.077  15.471  1.00  0.00    -0.347 N 
ATOM      3  O   UNL     1      -8.899  -1.206  14.460  1.00  0.00    -0.273 OA
ATOM      4  C   UNL     1      -8.326  -2.287  14.375  1.00  0.00     0.243 C 
ATOM      5  H   UNL     1      -7.659  -3.993  15.278  1.00  0.00     0.164 HD
BRANCH   4   6
ATOM      6  C   UNL     1      -8.014  -2.965  13.017  1.00  0.00     0.171 C 
BRANCH   6   7
ATOM      7  N   UNL     1      -8.465  -4.366  13.026  1.00  0.00    -0.344 N 
ATOM      8  C   UNL     1      -7.682  -5.360  12.481  1.00  0.00     0.226 C 
ATOM      9  O   UNL     1      -6.601  -5.133  11.951  1.00  0.00    -0.275 OA
ATOM     10  H   UNL     1      -9.383  -4.583  13.394  1.00  0.00     0.164 HD
BRANCH   8  11
ATOM     11  C   UNL     1      -8.261  -6.758  12.616  1.00  0.00     0.109 C 
ATOM     12  C   UNL     1      -9.194  -6.825  13.825  1.00  0.00     0.021 C 
BRANCH  11  13
ATOM     13  C   UNL     1      -8.898  -7.189  11.280  1.00  0.00     0.204 C 
BRANCH  13  14
ATOM     14  N   UNL     1      -8.240  -6.566  10.128  1.00  0.00    -0.340 N 
ATOM     15  C   UNL     1      -8.842  -6.451   8.894  1.00  0.00     0.243 C 
ATOM     16  O   UNL     1     -10.001  -6.809   8.688  1.00  0.00    -0.273 OA
ATOM     17  H   UNL     1      -7.234  -6.388  10.188  1.00  0.00     0.164 HD
BRANCH  15  18
ATOM     18  C   UNL     1      -7.886  -5.952   7.783  1.00  0.00     0.171 C 
BRANCH  18  19
ATOM     19  N   UNL     1      -7.772  -7.037   6.810  1.00  0.00    -0.343 N 
ATOM     20  C   UNL     1      -6.570  -7.348   6.203  1.00  0.00     0.242 CG0
ATOM     21  O   UNL     1      -5.574  -6.645   6.351  1.00  0.00    -0.273 OA
ATOM     22  H   UNL     1      -8.595  -7.576   6.567  1.00  0.00     0.164 HD
ATOM     23  G   UNL     1      -6.628  -8.573   5.267  1.00  0.00     0.000 G0
ENDBRANCH  18  19
BRANCH  18  24
ATOM     24  C   UNL     1      -8.429  -4.672   7.135  1.00  0.00     0.038 C 
BRANCH  24  25
ATOM     25  C   UNL     1      -7.648  -3.389   7.490  1.00  0.00    -0.015 C 
ATOM     26  C   UNL     1      -6.641  -3.610   8.618  1.00  0.00     0.007 C 
ATOM     27  C   UNL     1      -8.630  -2.283   7.886  1.00  0.00     0.007 C 
ENDBRANCH  24  25
ENDBRANCH  18  24
ENDBRANCH  15  18
ENDBRANCH  13  14
BRANCH  13  28
ATOM     28  C   UNL     1      -8.865  -8.704  11.057  1.00  0.00     0.327 C 
ATOM     29  O   UNL     1      -7.895  -9.434  11.195  1.00  0.00    -0.250 OA
BRANCH  28  30
ATOM     30  O   UNL     1     -10.021  -9.191  10.561  1.00  0.00    -0.480 OA
ATOM     31  H   UNL     1     -10.711  -8.817  11.146  1.00  0.00     0.296 HD
ENDBRANCH  28  30
ENDBRANCH  13  28
ENDBRANCH  11  13
ENDBRANCH   8  11
ENDBRANCH   6   7
BRANCH   6  32
ATOM     32  C   UNL     1      -8.695  -2.177  11.893  1.00  0.00     0.037 C 
BRANCH  32  33
ATOM     33  C   UNL     1      -9.959  -2.879  11.377  1.00  0.00     0.026 C 
BRANCH  33  34
ATOM     34  C   UNL     1     -11.219  -2.433  12.120  1.00  0.00     0.146 C 
BRANCH  34  35
ATOM     35  N   UNL     1     -11.616  -3.486  13.044  1.00  0.00    -0.254 NA
ATOM     36  C   UNL     1     -11.905  -3.168  14.251  1.00  0.00     0.185 C 
ATOM     37  N   UNL     1     -12.277  -4.129  15.110  1.00  0.00    -0.370 N 
ATOM     38  N   UNL     1     -11.897  -1.953  14.829  1.00  0.00    -0.370 N 
ATOM     39  H   UNL     1     -12.319  -5.072  14.746  1.00  0.00     0.159 HD
ATOM     40  H   UNL     1     -12.683  -3.943  16.011  1.00  0.00     0.159 HD
ATOM     41  H   UNL     1     -12.009  -1.850  15.824  1.00  0.00     0.159 HD
ATOM     42  H   UNL     1     -11.621  -1.138  14.305  1.00  0.00     0.159 HD
ENDBRANCH  34  35
ENDBRANCH  33  34
ENDBRANCH  32  33
ENDBRANCH   6  32
ENDBRANCH   4   6
ENDBRANCH   1   2
BRANCH   1  43
ATOM     43  C   UNL     1      -6.864  -1.893  17.272  1.00  0.00     0.102 C 
ATOM     44  C   UNL     1      -6.158  -2.527  18.482  1.00  0.00     0.020 C 
BRANCH  43  45
ATOM     45  C   UNL     1      -7.107  -0.388  17.412  1.00  0.00     0.225 C 
ATOM     46  O   UNL     1      -8.203   0.135  17.232  1.00  0.00    -0.275 OA
ATOM     47  N   UNL     1      -5.987   0.372  17.666  1.00  0.00    -0.342 N 
ATOM     48  H   UNL     1      -5.133  -0.080  17.960  1.00  0.00     0.164 HD
BRANCH  47  49
ATOM     49  C   UNL     1      -6.074   1.822  17.860  1.00  0.00     0.192 C 
BRANCH  49  50
ATOM     50  C   UNL     1      -4.689   2.449  17.680  1.00  0.00     0.047 C 
BRANCH  50  51
ATOM     51  C   UNL     1      -4.739   3.750  16.868  1.00  0.00     0.103 C 
BRANCH  51  52
ATOM     52  C   UNL     1      -3.528   3.901  15.950  1.00  0.00     0.226 C 
ATOM     53  O   UNL     1      -3.696   4.085  14.743  1.00  0.00    -0.275 OA
BRANCH  52  54
ATOM     54  N   UNL     1      -2.265   3.894  16.572  1.00  0.00    -0.311 N 
ATOM     55  C   UNL     1      -1.469   2.662  16.652  1.00  0.00     0.153 C 
BRANCH  54  56
ATOM     56  C   UNL     1      -1.718   5.060  17.132  1.00  0.00     0.102 C 
ATOM     57  C   UNL     1      -1.395   6.166  16.441  1.00  0.00     0.043 C 
BRANCH  56  58
ATOM     58  C   UNL     1      -1.487   5.171  18.620  1.00  0.00     0.268 C 
ATOM     59  O   UNL     1      -0.436   5.565  19.107  1.00  0.00    -0.268 OA
ATOM     60  N   UNL     1      -2.597   4.847  19.365  1.00  0.00    -0.339 N 
ATOM     61  H   UNL     1      -3.426   4.519  18.885  1.00  0.00     0.164 HD
BRANCH  60  62
ATOM     62  C   UNL     1      -2.612   4.946  20.823  1.00  0.00     0.168 CG0
ATOM     63  C   UNL     1      -4.029   5.157  21.343  1.00  0.00     0.041 C 
ATOM     64  G   UNL     1      -1.688   6.097  21.273  1.00  0.00     0.000 G0
ENDBRANCH  60  62
ENDBRANCH  56  58
ENDBRANCH  54  56
ENDBRANCH  52  54
ENDBRANCH  51  52
ENDBRANCH  50  51
ENDBRANCH  49  50
BRANCH  49  65
ATOM     65  C   UNL     1      -6.615   2.176  19.254  1.00  0.00     0.326 C 
ATOM     66  O   UNL     1      -7.771   2.480  19.511  1.00  0.00    -0.250 OA
BRANCH  65  67
ATOM     67  O   UNL     1      -5.684   2.192  20.233  1.00  0.00    -0.480 OA
ATOM     68  H   UNL     1      -6.064   1.607  20.923  1.00  0.00     0.296 HD
ENDBRANCH  65  67
ENDBRANCH  49  65
ENDBRANCH  47  49
ENDBRANCH  43  45
ENDBRANCH   1  43
BRANCH   1  69
ATOM     69  C   UNL     1      -8.603  -3.853  17.652  1.00  0.00    -0.001 C 
ATOM     70  C   UNL     1      -9.567  -4.734  17.334  1.00  0.00     0.001 C 
BRANCH  70  71
ATOM     71  C   UNL     1      -9.963  -5.919  18.097  1.00  0.00    -0.055 C 
ATOM     72  C   UNL     1      -9.273  -6.200  19.223  1.00  0.00    -0.018 C 
ATOM     73  C   UNL     1     -11.116  -6.737  17.577  1.00  0.00     0.044 C 
BRANCH  72  74
ATOM     74  C   UNL     1      -9.459  -7.347  20.206  1.00  0.00     0.038 C 
ATOM     75  C   UNL     1     -10.038  -6.750  21.494  1.00  0.00     0.015 C 
BRANCH  74  76
ATOM     76  C   UNL     1      -8.097  -8.082  20.381  1.00  0.00     0.128 C 
BRANCH  76  77
ATOM     77  O   UNL     1      -8.255  -9.482  20.096  1.00  0.00    -0.381 OA
ATOM     78  C   UNL     1      -9.497  -9.804  19.484  1.00  0.00     0.195 C 
ENDBRANCH  76  77
BRANCH  76  79
ATOM     79  C   UNL     1      -6.928  -7.438  19.594  1.00  0.00     0.068 C 
BRANCH  79  80
ATOM     80  C   UNL     1      -6.441  -8.141  18.350  1.00  0.00    -0.045 A 
ATOM     81  C   UNL     1      -5.400  -9.077  18.411  1.00  0.00     0.004 A 
ATOM     82  C   UNL     1      -7.008  -7.845  17.101  1.00  0.00     0.004 A 
ATOM     83  C   UNL     1      -4.945  -9.713  17.254  1.00  0.00     0.000 A 
ATOM     84  C   UNL     1      -6.552  -8.481  15.945  1.00  0.00     0.000 A 
ATOM     85  C   UNL     1      -5.522  -9.416  16.022  1.00  0.00     0.000 A 
ENDBRANCH  79  80
ENDBRANCH  76  79
ENDBRANCH  74  76
ENDBRANCH  72  74
ENDBRANCH  70  71
ENDBRANCH   1  69
TORSDOF 17
ENDMDL
MODEL 14
REMARK VINA RESULT:    -7.028      5.495     11.766
REMARK INTER + INTRA:         -29.710
REMARK INTER:                 -20.469
REMARK INTRA:                  -9.241
REMARK UNBOUND:                -8.713
REMARK SMILES C=C1C(=O)N[C@H](C)C(=O)N[C@@H](CC(C)C)C(=O)N[C@@H](C(=O)O)[C@H](C)C(=O)N[C@@H](CCCN=C(N)N)C(=O)N[C@@H](/C=C/C(C)=C/[C@H](C)[C@H](Cc2ccccc2)OC)[C@H](C)C(=O)N[C@@H](C(=O)O)CCC(=O)N1C
REMARK SMILES IDX 39 1 38 2 37 3 36 4 28 6 27 7 25 8 26 9 23 11 24 12 19 13
REMARK SMILES IDX 18 14 16 15 17 16 11 18 10 19 8 20 9 21 12 24 13 25 14 26
REMARK SMILES IDX 15 27 20 28 21 29 22 30 29 32 30 33 31 34 32 35 33 36 34 37
REMARK SMILES IDX 35 38 57 43 58 44 59 45 60 46 61 47 62 49 66 50 67 51 68 52
REMARK SMILES IDX 69 53 70 54 71 55 2 56 1 57 3 58 4 59 5 60 6 62 7 63 63 65
REMARK SMILES IDX 64 66 65 67 40 69 41 70 42 71 44 72 43 73 45 74 46 75 47 76
REMARK SMILES IDX 55 77 56 78 48 79 49 80 50 81 54 82 51 83 53 84 52 85
REMARK H PARENT 38 5 27 10 18 17 10 22 22 31 34 39 34 40 35 41 35 42 61 48
REMARK H PARENT 5 61 65 68
REMARK Flexibility Score:  369.900
ROOT
ATOM      1  C   UNL     1      -5.807  -0.981  10.597  1.00  0.00     0.117 C 
ENDROOT
BRANCH   1   2
ATOM      2  N   UNL     1      -5.386  -1.410   9.263  1.00  0.00    -0.347 N 
ATOM      3  O   UNL     1      -7.335  -0.926   8.150  1.00  0.00    -0.273 OA
ATOM      4  C   UNL     1      -6.156  -1.262   8.125  1.00  0.00     0.243 C 
ATOM      5  H   UNL     1      -4.463  -1.794   9.136  1.00  0.00     0.164 HD
BRANCH   4   6
ATOM      6  C   UNL     1      -5.442  -1.718   6.827  1.00  0.00     0.171 C 
BRANCH   6   7
ATOM      7  N   UNL     1      -6.327  -2.584   6.031  1.00  0.00    -0.344 N 
ATOM      8  C   UNL     1      -5.806  -3.597   5.255  1.00  0.00     0.226 C 
ATOM      9  O   UNL     1      -4.603  -3.812   5.170  1.00  0.00    -0.275 OA
ATOM     10  H   UNL     1      -7.321  -2.395   6.022  1.00  0.00     0.164 HD
BRANCH   8  11
ATOM     11  C   UNL     1      -6.850  -4.435   4.537  1.00  0.00     0.109 C 
ATOM     12  C   UNL     1      -6.277  -4.983   3.231  1.00  0.00     0.021 C 
BRANCH  11  13
ATOM     13  C   UNL     1      -7.411  -5.502   5.498  1.00  0.00     0.204 C 
BRANCH  13  14
ATOM     14  N   UNL     1      -6.406  -5.960   6.462  1.00  0.00    -0.340 N 
ATOM     15  C   UNL     1      -5.640  -7.089   6.267  1.00  0.00     0.243 C 
ATOM     16  O   UNL     1      -5.704  -7.760   5.239  1.00  0.00    -0.273 OA
ATOM     17  H   UNL     1      -6.410  -5.539   7.396  1.00  0.00     0.164 HD
BRANCH  15  18
ATOM     18  C   UNL     1      -4.802  -7.489   7.506  1.00  0.00     0.171 C 
BRANCH  18  19
ATOM     19  N   UNL     1      -3.424  -7.093   7.225  1.00  0.00    -0.343 N 
ATOM     20  C   UNL     1      -2.963  -5.818   7.490  1.00  0.00     0.242 CG0
ATOM     21  O   UNL     1      -3.723  -4.922   7.850  1.00  0.00    -0.273 OA
ATOM     22  H   UNL     1      -2.786  -7.767   6.818  1.00  0.00     0.164 HD
ATOM     23  G   UNL     1      -1.462  -5.610   7.201  1.00  0.00     0.000 G0
ENDBRANCH  18  19
BRANCH  18  24
ATOM     24  C   UNL     1      -5.338  -6.802   8.768  1.00  0.00     0.038 C 
BRANCH  24  25
ATOM     25  C   UNL     1      -5.887  -7.765   9.842  1.00  0.00    -0.015 C 
ATOM     26  C   UNL     1      -4.798  -8.656  10.441  1.00  0.00     0.007 C 
ATOM     27  C   UNL     1      -6.991  -8.636   9.237  1.00  0.00     0.007 C 
ENDBRANCH  24  25
ENDBRANCH  18  24
ENDBRANCH  15  18
ENDBRANCH  13  14
BRANCH  13  28
ATOM     28  C   UNL     1      -8.622  -5.016   6.300  1.00  0.00     0.327 C 
ATOM     29  O   UNL     1      -9.263  -5.670   7.108  1.00  0.00    -0.250 OA
BRANCH  28  30
ATOM     30  O   UNL     1      -9.025  -3.778   5.950  1.00  0.00    -0.480 OA
ATOM     31  H   UNL     1      -9.980  -3.765   6.168  1.00  0.00     0.296 HD
ENDBRANCH  28  30
ENDBRANCH  13  28
ENDBRANCH  11  13
ENDBRANCH   8  11
ENDBRANCH   6   7
BRANCH   6  32
ATOM     32  C   UNL     1      -5.018  -0.483   6.024  1.00  0.00     0.037 C 
BRANCH  32  33
ATOM     33  C   UNL     1      -6.134   0.014   5.094  1.00  0.00     0.026 C 
BRANCH  33  34
ATOM     34  C   UNL     1      -5.597   0.509   3.750  1.00  0.00     0.146 C 
BRANCH  34  35
ATOM     35  N   UNL     1      -5.219  -0.642   2.942  1.00  0.00    -0.254 NA
ATOM     36  C   UNL     1      -5.947  -0.951   1.934  1.00  0.00     0.185 C 
ATOM     37  N   UNL     1      -5.604  -2.007   1.180  1.00  0.00    -0.370 N 
ATOM     38  N   UNL     1      -7.063  -0.353   1.483  1.00  0.00    -0.370 N 
ATOM     39  H   UNL     1      -4.766  -2.506   1.450  1.00  0.00     0.159 HD
ATOM     40  H   UNL     1      -6.016  -2.208   0.285  1.00  0.00     0.159 HD
ATOM     41  H   UNL     1      -7.625  -0.774   0.761  1.00  0.00     0.159 HD
ATOM     42  H   UNL     1      -7.446   0.447   1.963  1.00  0.00     0.159 HD
ENDBRANCH  34  35
ENDBRANCH  33  34
ENDBRANCH  32  33
ENDBRANCH   6  32
ENDBRANCH   4   6
ENDBRANCH   1   2
BRANCH   1  43
ATOM     43  C   UNL     1      -4.601  -0.293  11.300  1.00  0.00     0.102 C 
ATOM     44  C   UNL     1      -3.618   0.368  10.319  1.00  0.00     0.020 C 
BRANCH  43  45
ATOM     45  C   UNL     1      -3.936  -1.239  12.304  1.00  0.00     0.225 C 
ATOM     46  O   UNL     1      -4.265  -1.303  13.485  1.00  0.00    -0.275 OA
ATOM     47  N   UNL     1      -2.868  -1.960  11.820  1.00  0.00    -0.342 N 
ATOM     48  H   UNL     1      -2.710  -2.012  10.824  1.00  0.00     0.164 HD
BRANCH  47  49
ATOM     49  C   UNL     1      -2.158  -2.932  12.658  1.00  0.00     0.192 C 
BRANCH  49  50
ATOM     50  C   UNL     1      -0.675  -2.560  12.731  1.00  0.00     0.047 C 
BRANCH  50  51
ATOM     51  C   UNL     1      -0.260  -1.597  11.610  1.00  0.00     0.103 C 
BRANCH  51  52
ATOM     52  C   UNL     1      -0.108  -2.310  10.268  1.00  0.00     0.226 C 
ATOM     53  O   UNL     1      -0.928  -2.105   9.372  1.00  0.00    -0.275 OA
BRANCH  52  54
ATOM     54  N   UNL     1       1.034  -3.118  10.114  1.00  0.00    -0.311 N 
ATOM     55  C   UNL     1       2.382  -2.533  10.125  1.00  0.00     0.153 C 
BRANCH  54  56
ATOM     56  C   UNL     1       0.930  -4.509   9.951  1.00  0.00     0.102 C 
ATOM     57  C   UNL     1       1.139  -5.415  10.920  1.00  0.00     0.043 C 
BRANCH  56  58
ATOM     58  C   UNL     1       0.513  -5.105   8.626  1.00  0.00     0.268 C 
ATOM     59  O   UNL     1       1.298  -5.644   7.858  1.00  0.00    -0.268 OA
ATOM     60  N   UNL     1      -0.842  -5.037   8.406  1.00  0.00    -0.339 N 
ATOM     61  H   UNL     1      -1.423  -4.564   9.087  1.00  0.00     0.164 HD
BRANCH  60  62
ATOM     62  C   UNL     1      -1.467  -5.610   7.214  1.00  0.00     0.168 CG0
ATOM     63  C   UNL     1      -1.244  -4.719   5.998  1.00  0.00     0.041 C 
ATOM     64  G   UNL     1      -2.974  -5.817   7.470  1.00  0.00     0.000 G0
ENDBRANCH  60  62
ENDBRANCH  56  58
ENDBRANCH  54  56
ENDBRANCH  52  54
ENDBRANCH  51  52
ENDBRANCH  50  51
ENDBRANCH  49  50
BRANCH  49  65
ATOM     65  C   UNL     1      -2.298  -4.361  12.111  1.00  0.00     0.326 C 
ATOM     66  O   UNL     1      -2.127  -5.387  12.753  1.00  0.00    -0.250 OA
BRANCH  65  67
ATOM     67  O   UNL     1      -2.582  -4.435  10.792  1.00  0.00    -0.480 OA
ATOM     68  H   UNL     1      -1.928  -3.829  10.380  1.00  0.00     0.296 HD
ENDBRANCH  65  67
ENDBRANCH  49  65
ENDBRANCH  47  49
ENDBRANCH  43  45
ENDBRANCH   1  43
BRANCH   1  69
ATOM     69  C   UNL     1      -6.442  -2.194  11.252  1.00  0.00    -0.001 C 
ATOM     70  C   UNL     1      -6.242  -3.488  10.943  1.00  0.00     0.001 C 
BRANCH  70  71
ATOM     71  C   UNL     1      -6.844  -4.652  11.597  1.00  0.00    -0.055 C 
ATOM     72  C   UNL     1      -8.141  -4.917  11.335  1.00  0.00    -0.018 C 
ATOM     73  C   UNL     1      -5.972  -5.475  12.508  1.00  0.00     0.044 C 
BRANCH  72  74
ATOM     74  C   UNL     1      -9.019  -6.044  11.859  1.00  0.00     0.038 C 
ATOM     75  C   UNL     1      -9.796  -6.607  10.663  1.00  0.00     0.015 C 
BRANCH  74  76
ATOM     76  C   UNL     1      -9.907  -5.492  13.013  1.00  0.00     0.128 C 
BRANCH  76  77
ATOM     77  O   UNL     1      -9.077  -4.983  14.071  1.00  0.00    -0.381 OA
ATOM     78  C   UNL     1      -9.729  -4.930  15.333  1.00  0.00     0.195 C 
ENDBRANCH  76  77
BRANCH  76  79
ATOM     79  C   UNL     1     -10.980  -4.474  12.550  1.00  0.00     0.068 C 
BRANCH  79  80
ATOM     80  C   UNL     1     -10.516  -3.097  12.137  1.00  0.00    -0.045 A 
ATOM     81  C   UNL     1     -10.095  -2.161  13.090  1.00  0.00     0.004 A 
ATOM     82  C   UNL     1     -10.528  -2.724  10.784  1.00  0.00     0.004 A 
ATOM     83  C   UNL     1      -9.682  -0.885  12.701  1.00  0.00     0.000 A 
ATOM     84  C   UNL     1     -10.114  -1.447  10.396  1.00  0.00     0.000 A 
ATOM     85  C   UNL     1      -9.690  -0.529  11.354  1.00  0.00     0.000 A 
ENDBRANCH  79  80
ENDBRANCH  76  79
ENDBRANCH  74  76
ENDBRANCH  72  74
ENDBRANCH  70  71
ENDBRANCH   1  69
TORSDOF 17
ENDMDL
MODEL 15
REMARK VINA RESULT:    -7.014      3.968     10.785
REMARK INTER + INTRA:         -29.668
REMARK INTER:                 -21.195
REMARK INTRA:                  -8.472
REMARK UNBOUND:                -8.713
REMARK SMILES C=C1C(=O)N[C@H](C)C(=O)N[C@@H](CC(C)C)C(=O)N[C@@H](C(=O)O)[C@H](C)C(=O)N[C@@H](CCCN=C(N)N)C(=O)N[C@@H](/C=C/C(C)=C/[C@H](C)[C@H](Cc2ccccc2)OC)[C@H](C)C(=O)N[C@@H](C(=O)O)CCC(=O)N1C
REMARK SMILES IDX 39 1 38 2 37 3 36 4 28 6 27 7 25 8 26 9 23 11 24 12 19 13
REMARK SMILES IDX 18 14 16 15 17 16 11 18 10 19 8 20 9 21 12 24 13 25 14 26
REMARK SMILES IDX 15 27 20 28 21 29 22 30 29 32 30 33 31 34 32 35 33 36 34 37
REMARK SMILES IDX 35 38 57 43 58 44 59 45 60 46 61 47 62 49 66 50 67 51 68 52
REMARK SMILES IDX 69 53 70 54 71 55 2 56 1 57 3 58 4 59 5 60 6 62 7 63 63 65
REMARK SMILES IDX 64 66 65 67 40 69 41 70 42 71 44 72 43 73 45 74 46 75 47 76
REMARK SMILES IDX 55 77 56 78 48 79 49 80 50 81 54 82 51 83 53 84 52 85
REMARK H PARENT 38 5 27 10 18 17 10 22 22 31 34 39 34 40 35 41 35 42 61 48
REMARK H PARENT 5 61 65 68
REMARK Flexibility Score:  369.900
ROOT
ATOM      1  C   UNL     1      -2.322  -3.046  13.412  1.00  0.00     0.117 C 
ENDROOT
BRANCH   1   2
ATOM      2  N   UNL     1      -3.774  -3.186  13.299  1.00  0.00    -0.347 N 
ATOM      3  O   UNL     1      -3.958  -5.285  14.212  1.00  0.00    -0.273 OA
ATOM      4  C   UNL     1      -4.488  -4.261  13.794  1.00  0.00     0.243 C 
ATOM      5  H   UNL     1      -4.312  -2.442  12.882  1.00  0.00     0.164 HD
BRANCH   4   6
ATOM      6  C   UNL     1      -6.022  -4.123  13.621  1.00  0.00     0.171 C 
BRANCH   6   7
ATOM      7  N   UNL     1      -6.645  -5.449  13.481  1.00  0.00    -0.344 N 
ATOM      8  C   UNL     1      -7.259  -5.816  12.303  1.00  0.00     0.226 C 
ATOM      9  O   UNL     1      -7.336  -5.067  11.337  1.00  0.00    -0.275 OA
ATOM     10  H   UNL     1      -6.661  -6.070  14.280  1.00  0.00     0.164 HD
BRANCH   8  11
ATOM     11  C   UNL     1      -7.805  -7.233  12.298  1.00  0.00     0.109 C 
ATOM     12  C   UNL     1      -9.288  -7.224  11.926  1.00  0.00     0.021 C 
BRANCH  11  13
ATOM     13  C   UNL     1      -6.919  -8.130  11.411  1.00  0.00     0.204 C 
BRANCH  13  14
ATOM     14  N   UNL     1      -6.666  -7.529  10.098  1.00  0.00    -0.340 N 
ATOM     15  C   UNL     1      -6.822  -8.220   8.915  1.00  0.00     0.243 C 
ATOM     16  O   UNL     1      -7.245  -9.374   8.876  1.00  0.00    -0.273 OA
ATOM     17  H   UNL     1      -6.172  -6.633  10.067  1.00  0.00     0.164 HD
BRANCH  15  18
ATOM     18  C   UNL     1      -6.299  -7.453   7.676  1.00  0.00     0.171 C 
BRANCH  18  19
ATOM     19  N   UNL     1      -7.282  -7.653   6.614  1.00  0.00    -0.343 N 
ATOM     20  C   UNL     1      -6.904  -7.878   5.304  1.00  0.00     0.242 CG0
ATOM     21  O   UNL     1      -5.732  -7.787   4.948  1.00  0.00    -0.273 OA
ATOM     22  H   UNL     1      -8.270  -7.622   6.838  1.00  0.00     0.164 HD
ATOM     23  G   UNL     1      -8.078  -8.146   4.340  1.00  0.00     0.000 G0
ENDBRANCH  18  19
BRANCH  18  24
ATOM     24  C   UNL     1      -6.116  -5.965   7.999  1.00  0.00     0.038 C 
BRANCH  24  25
ATOM     25  C   UNL     1      -6.920  -5.006   7.096  1.00  0.00    -0.015 C 
ATOM     26  C   UNL     1      -6.033  -4.254   6.103  1.00  0.00     0.007 C 
ATOM     27  C   UNL     1      -7.687  -4.004   7.963  1.00  0.00     0.007 C 
ENDBRANCH  24  25
ENDBRANCH  18  24
ENDBRANCH  15  18
ENDBRANCH  13  14
BRANCH  13  28
ATOM     28  C   UNL     1      -5.557  -8.443  12.037  1.00  0.00     0.327 C 
ATOM     29  O   UNL     1      -4.643  -9.059  11.510  1.00  0.00    -0.250 OA
BRANCH  28  30
ATOM     30  O   UNL     1      -5.470  -8.066  13.329  1.00  0.00    -0.480 OA
ATOM     31  H   UNL     1      -4.601  -7.617  13.391  1.00  0.00     0.296 HD
ENDBRANCH  28  30
ENDBRANCH  13  28
ENDBRANCH  11  13
ENDBRANCH   8  11
ENDBRANCH   6   7
BRANCH   6  32
ATOM     32  C   UNL     1      -6.599  -3.371  14.825  1.00  0.00     0.037 C 
BRANCH  32  33
ATOM     33  C   UNL     1      -6.985  -1.927  14.476  1.00  0.00     0.026 C 
BRANCH  33  34
ATOM     34  C   UNL     1      -8.214  -1.852  13.569  1.00  0.00     0.146 C 
BRANCH  34  35
ATOM     35  N   UNL     1      -9.221  -2.781  14.064  1.00  0.00    -0.254 NA
ATOM     36  C   UNL     1      -9.923  -3.436  13.217  1.00  0.00     0.185 C 
ATOM     37  N   UNL     1     -10.850  -4.298  13.663  1.00  0.00    -0.370 N 
ATOM     38  N   UNL     1      -9.878  -3.397  11.873  1.00  0.00    -0.370 N 
ATOM     39  H   UNL     1     -10.937  -4.392  14.667  1.00  0.00     0.159 HD
ATOM     40  H   UNL     1     -11.314  -4.969  13.075  1.00  0.00     0.159 HD
ATOM     41  H   UNL     1     -10.579  -3.857  11.315  1.00  0.00     0.159 HD
ATOM     42  H   UNL     1      -9.238  -2.780  11.399  1.00  0.00     0.159 HD
ENDBRANCH  34  35
ENDBRANCH  33  34
ENDBRANCH  32  33
ENDBRANCH   6  32
ENDBRANCH   4   6
ENDBRANCH   1   2
BRANCH   1  43
ATOM     43  C   UNL     1      -1.985  -1.543  13.632  1.00  0.00     0.102 C 
ATOM     44  C   UNL     1      -0.529  -1.186  13.289  1.00  0.00     0.020 C 
BRANCH  43  45
ATOM     45  C   UNL     1      -2.428  -1.079  15.023  1.00  0.00     0.225 C 
ATOM     46  O   UNL     1      -3.296  -1.651  15.677  1.00  0.00    -0.275 OA
ATOM     47  N   UNL     1      -1.854   0.090  15.467  1.00  0.00    -0.342 N 
ATOM     48  H   UNL     1      -1.042   0.461  14.994  1.00  0.00     0.164 HD
BRANCH  47  49
ATOM     49  C   UNL     1      -2.156   0.636  16.794  1.00  0.00     0.192 C 
BRANCH  49  50
ATOM     50  C   UNL     1      -3.023   1.889  16.650  1.00  0.00     0.047 C 
BRANCH  50  51
ATOM     51  C   UNL     1      -4.523   1.563  16.664  1.00  0.00     0.103 C 
BRANCH  51  52
ATOM     52  C   UNL     1      -5.357   2.724  17.203  1.00  0.00     0.226 C 
ATOM     53  O   UNL     1      -5.521   3.730  16.510  1.00  0.00    -0.275 OA
BRANCH  52  54
ATOM     54  N   UNL     1      -5.962   2.531  18.459  1.00  0.00    -0.311 N 
ATOM     55  C   UNL     1      -6.765   1.332  18.735  1.00  0.00     0.153 C 
BRANCH  54  56
ATOM     56  C   UNL     1      -5.817   3.470  19.493  1.00  0.00     0.102 C 
ATOM     57  C   UNL     1      -6.817   4.201  20.014  1.00  0.00     0.043 C 
BRANCH  56  58
ATOM     58  C   UNL     1      -4.476   3.699  20.150  1.00  0.00     0.268 C 
ATOM     59  O   UNL     1      -3.473   3.060  19.864  1.00  0.00    -0.268 OA
ATOM     60  N   UNL     1      -4.485   4.740  21.048  1.00  0.00    -0.339 N 
ATOM     61  H   UNL     1      -5.360   5.213  21.236  1.00  0.00     0.164 HD
BRANCH  60  62
ATOM     62  C   UNL     1      -3.278   5.173  21.750  1.00  0.00     0.168 CG0
ATOM     63  C   UNL     1      -2.897   6.595  21.358  1.00  0.00     0.041 C 
ATOM     64  G   UNL     1      -2.124   4.195  21.446  1.00  0.00     0.000 G0
ENDBRANCH  60  62
ENDBRANCH  56  58
ENDBRANCH  54  56
ENDBRANCH  52  54
ENDBRANCH  51  52
ENDBRANCH  50  51
ENDBRANCH  49  50
BRANCH  49  65
ATOM     65  C   UNL     1      -0.875   0.990  17.566  1.00  0.00     0.326 C 
ATOM     66  O   UNL     1       0.262   0.691  17.231  1.00  0.00    -0.250 OA
BRANCH  65  67
ATOM     67  O   UNL     1      -1.081   1.638  18.734  1.00  0.00    -0.480 OA
ATOM     68  H   UNL     1      -1.790   1.115  19.167  1.00  0.00     0.296 HD
ENDBRANCH  65  67
ENDBRANCH  49  65
ENDBRANCH  47  49
ENDBRANCH  43  45
ENDBRANCH   1  43
BRANCH   1  69
ATOM     69  C   UNL     1      -1.733  -3.761  12.210  1.00  0.00    -0.001 C 
ATOM     70  C   UNL     1      -0.917  -4.831  12.214  1.00  0.00     0.001 C 
BRANCH  70  71
ATOM     71  C   UNL     1      -0.372  -5.525  11.046  1.00  0.00    -0.055 C 
ATOM     72  C   UNL     1      -0.330  -4.851   9.878  1.00  0.00    -0.018 C 
ATOM     73  C   UNL     1       0.112  -6.940  11.233  1.00  0.00     0.044 C 
BRANCH  72  74
ATOM     74  C   UNL     1       0.179  -5.310   8.519  1.00  0.00     0.038 C 
ATOM     75  C   UNL     1       1.489  -4.560   8.249  1.00  0.00     0.015 C 
BRANCH  74  76
ATOM     76  C   UNL     1      -0.938  -5.075   7.460  1.00  0.00     0.128 C 
BRANCH  76  77
ATOM     77  O   UNL     1      -2.122  -5.805   7.825  1.00  0.00    -0.381 OA
ATOM     78  C   UNL     1      -2.746  -6.464   6.731  1.00  0.00     0.195 C 
ENDBRANCH  76  77
BRANCH  76  79
ATOM     79  C   UNL     1      -1.222  -3.581   7.165  1.00  0.00     0.068 C 
BRANCH  79  80
ATOM     80  C   UNL     1      -2.000  -2.793   8.191  1.00  0.00    -0.045 A 
ATOM     81  C   UNL     1      -3.341  -3.094   8.467  1.00  0.00     0.004 A 
ATOM     82  C   UNL     1      -1.396  -1.723   8.868  1.00  0.00     0.004 A 
ATOM     83  C   UNL     1      -4.058  -2.351   9.407  1.00  0.00     0.000 A 
ATOM     84  C   UNL     1      -2.115  -0.981   9.808  1.00  0.00     0.000 A 
ATOM     85  C   UNL     1      -3.445  -1.296  10.078  1.00  0.00     0.000 A 
ENDBRANCH  79  80
ENDBRANCH  76  79
ENDBRANCH  74  76
ENDBRANCH  72  74
ENDBRANCH  70  71
ENDBRANCH   1  69
TORSDOF 17
ENDMDL
MODEL 16
REMARK VINA RESULT:    -7.009      3.973     10.701
REMARK INTER + INTRA:         -29.654
REMARK INTER:                 -22.206
REMARK INTRA:                  -7.447
REMARK UNBOUND:                -8.713
REMARK SMILES C=C1C(=O)N[C@H](C)C(=O)N[C@@H](CC(C)C)C(=O)N[C@@H](C(=O)O)[C@H](C)C(=O)N[C@@H](CCCN=C(N)N)C(=O)N[C@@H](/C=C/C(C)=C/[C@H](C)[C@H](Cc2ccccc2)OC)[C@H](C)C(=O)N[C@@H](C(=O)O)CCC(=O)N1C
REMARK SMILES IDX 39 1 38 2 37 3 36 4 28 6 27 7 25 8 26 9 23 11 24 12 19 13
REMARK SMILES IDX 18 14 16 15 17 16 11 18 10 19 8 20 9 21 12 24 13 25 14 26
REMARK SMILES IDX 15 27 20 28 21 29 22 30 29 32 30 33 31 34 32 35 33 36 34 37
REMARK SMILES IDX 35 38 57 43 58 44 59 45 60 46 61 47 62 49 66 50 67 51 68 52
REMARK SMILES IDX 69 53 70 54 71 55 2 56 1 57 3 58 4 59 5 60 6 62 7 63 63 65
REMARK SMILES IDX 64 66 65 67 40 69 41 70 42 71 44 72 43 73 45 74 46 75 47 76
REMARK SMILES IDX 55 77 56 78 48 79 49 80 50 81 54 82 51 83 53 84 52 85
REMARK H PARENT 38 5 27 10 18 17 10 22 22 31 34 39 34 40 35 41 35 42 61 48
REMARK H PARENT 5 61 65 68
REMARK Flexibility Score:  369.900
ROOT
ATOM      1  C   UNL     1      -2.499  -3.030  14.219  1.00  0.00     0.117 C 
ENDROOT
BRANCH   1   2
ATOM      2  N   UNL     1      -3.860  -3.187  13.706  1.00  0.00    -0.347 N 
ATOM      3  O   UNL     1      -4.370  -5.156  14.770  1.00  0.00    -0.273 OA
ATOM      4  C   UNL     1      -4.722  -4.194  14.096  1.00  0.00     0.243 C 
ATOM      5  H   UNL     1      -4.229  -2.502  13.064  1.00  0.00     0.164 HD
BRANCH   4   6
ATOM      6  C   UNL     1      -6.135  -4.083  13.468  1.00  0.00     0.171 C 
BRANCH   6   7
ATOM      7  N   UNL     1      -6.788  -5.401  13.435  1.00  0.00    -0.344 N 
ATOM      8  C   UNL     1      -7.423  -5.843  12.295  1.00  0.00     0.226 C 
ATOM      9  O   UNL     1      -7.496  -5.166  11.276  1.00  0.00    -0.275 OA
ATOM     10  H   UNL     1      -6.807  -5.961  14.279  1.00  0.00     0.164 HD
BRANCH   8  11
ATOM     11  C   UNL     1      -7.999  -7.244  12.402  1.00  0.00     0.109 C 
ATOM     12  C   UNL     1      -9.461  -7.246  11.955  1.00  0.00     0.021 C 
BRANCH  11  13
ATOM     13  C   UNL     1      -7.091  -8.240  11.654  1.00  0.00     0.204 C 
BRANCH  13  14
ATOM     14  N   UNL     1      -6.548  -7.670  10.417  1.00  0.00    -0.340 N 
ATOM     15  C   UNL     1      -6.879  -8.145   9.166  1.00  0.00     0.243 C 
ATOM     16  O   UNL     1      -7.702  -9.043   8.997  1.00  0.00    -0.273 OA
ATOM     17  H   UNL     1      -5.752  -7.031  10.491  1.00  0.00     0.164 HD
BRANCH  15  18
ATOM     18  C   UNL     1      -6.029  -7.531   8.027  1.00  0.00     0.171 C 
BRANCH  18  19
ATOM     19  N   UNL     1      -6.963  -6.866   7.119  1.00  0.00    -0.343 N 
ATOM     20  C   UNL     1      -7.021  -7.180   5.775  1.00  0.00     0.242 CG0
ATOM     21  O   UNL     1      -6.202  -7.934   5.254  1.00  0.00    -0.273 OA
ATOM     22  H   UNL     1      -7.583  -6.151   7.481  1.00  0.00     0.164 HD
ATOM     23  G   UNL     1      -8.121  -6.432   4.994  1.00  0.00     0.000 G0
ENDBRANCH  18  19
BRANCH  18  24
ATOM     24  C   UNL     1      -4.997  -6.547   8.591  1.00  0.00     0.038 C 
BRANCH  24  25
ATOM     25  C   UNL     1      -4.954  -5.179   7.878  1.00  0.00    -0.015 C 
ATOM     26  C   UNL     1      -3.849  -5.102   6.824  1.00  0.00     0.007 C 
ATOM     27  C   UNL     1      -4.759  -4.066   8.911  1.00  0.00     0.007 C 
ENDBRANCH  24  25
ENDBRANCH  18  24
ENDBRANCH  15  18
ENDBRANCH  13  14
BRANCH  13  28
ATOM     28  C   UNL     1      -5.902  -8.720  12.492  1.00  0.00     0.327 C 
ATOM     29  O   UNL     1      -4.733  -8.743  12.141  1.00  0.00    -0.250 OA
BRANCH  28  30
ATOM     30  O   UNL     1      -6.270  -9.252  13.676  1.00  0.00    -0.480 OA
ATOM     31  H   UNL     1      -5.546  -9.874  13.896  1.00  0.00     0.296 HD
ENDBRANCH  28  30
ENDBRANCH  13  28
ENDBRANCH  11  13
ENDBRANCH   8  11
ENDBRANCH   6   7
BRANCH   6  32
ATOM     32  C   UNL     1      -6.967  -3.080  14.275  1.00  0.00     0.037 C 
BRANCH  32  33
ATOM     33  C   UNL     1      -7.596  -2.000  13.383  1.00  0.00     0.026 C 
BRANCH  33  34
ATOM     34  C   UNL     1      -9.053  -2.305  13.035  1.00  0.00     0.146 C 
BRANCH  34  35
ATOM     35  N   UNL     1      -9.746  -1.051  12.772  1.00  0.00    -0.254 NA
ATOM     36  C   UNL     1     -10.875  -0.842  13.340  1.00  0.00     0.185 C 
ATOM     37  N   UNL     1     -11.519   0.313  13.108  1.00  0.00    -0.370 N 
ATOM     38  N   UNL     1     -11.558  -1.638  14.180  1.00  0.00    -0.370 N 
ATOM     39  H   UNL     1     -11.062   0.972  12.492  1.00  0.00     0.159 HD
ATOM     40  H   UNL     1     -12.312   0.624  13.642  1.00  0.00     0.159 HD
ATOM     41  H   UNL     1     -12.504  -1.421  14.451  1.00  0.00     0.159 HD
ATOM     42  H   UNL     1     -11.200  -2.547  14.431  1.00  0.00     0.159 HD
ENDBRANCH  34  35
ENDBRANCH  33  34
ENDBRANCH  32  33
ENDBRANCH   6  32
ENDBRANCH   4   6
ENDBRANCH   1   2
BRANCH   1  43
ATOM     43  C   UNL     1      -2.319  -1.563  14.705  1.00  0.00     0.102 C 
ATOM     44  C   UNL     1      -1.198  -1.395  15.744  1.00  0.00     0.020 C 
BRANCH  43  45
ATOM     45  C   UNL     1      -3.659  -0.958  15.134  1.00  0.00     0.225 C 
ATOM     46  O   UNL     1      -4.417  -0.386  14.355  1.00  0.00    -0.275 OA
ATOM     47  N   UNL     1      -3.928  -1.009  16.482  1.00  0.00    -0.342 N 
ATOM     48  H   UNL     1      -3.376  -1.608  17.080  1.00  0.00     0.164 HD
BRANCH  47  49
ATOM     49  C   UNL     1      -5.188  -0.501  17.032  1.00  0.00     0.192 C 
BRANCH  49  50
ATOM     50  C   UNL     1      -4.920   0.767  17.846  1.00  0.00     0.047 C 
BRANCH  50  51
ATOM     51  C   UNL     1      -5.093   2.043  17.010  1.00  0.00     0.103 C 
BRANCH  51  52
ATOM     52  C   UNL     1      -4.555   3.278  17.730  1.00  0.00     0.226 C 
ATOM     53  O   UNL     1      -5.260   3.856  18.560  1.00  0.00    -0.275 OA
BRANCH  52  54
ATOM     54  N   UNL     1      -3.226   3.640  17.445  1.00  0.00    -0.311 N 
ATOM     55  C   UNL     1      -2.898   4.438  16.256  1.00  0.00     0.153 C 
BRANCH  54  56
ATOM     56  C   UNL     1      -2.166   3.259  18.285  1.00  0.00     0.102 C 
ATOM     57  C   UNL     1      -1.397   2.173  18.108  1.00  0.00     0.043 C 
BRANCH  56  58
ATOM     58  C   UNL     1      -1.776   4.108  19.473  1.00  0.00     0.268 C 
ATOM     59  O   UNL     1      -0.791   4.834  19.482  1.00  0.00    -0.268 OA
ATOM     60  N   UNL     1      -2.674   4.030  20.511  1.00  0.00    -0.339 N 
ATOM     61  H   UNL     1      -3.460   3.396  20.429  1.00  0.00     0.164 HD
BRANCH  60  62
ATOM     62  C   UNL     1      -2.521   4.818  21.733  1.00  0.00     0.168 CG0
ATOM     63  C   UNL     1      -3.343   6.099  21.664  1.00  0.00     0.041 C 
ATOM     64  G   UNL     1      -1.029   5.138  21.959  1.00  0.00     0.000 G0
ENDBRANCH  60  62
ENDBRANCH  56  58
ENDBRANCH  54  56
ENDBRANCH  52  54
ENDBRANCH  51  52
ENDBRANCH  50  51
ENDBRANCH  49  50
BRANCH  49  65
ATOM     65  C   UNL     1      -5.878  -1.543  17.927  1.00  0.00     0.326 C 
ATOM     66  O   UNL     1      -5.858  -2.753  17.753  1.00  0.00    -0.250 OA
BRANCH  65  67
ATOM     67  O   UNL     1      -6.598  -1.024  18.946  1.00  0.00    -0.480 OA
ATOM     68  H   UNL     1      -7.418  -0.707  18.511  1.00  0.00     0.296 HD
ENDBRANCH  65  67
ENDBRANCH  49  65
ENDBRANCH  47  49
ENDBRANCH  43  45
ENDBRANCH   1  43
BRANCH   1  69
ATOM     69  C   UNL     1      -1.574  -3.563  13.140  1.00  0.00    -0.001 C 
ATOM     70  C   UNL     1      -1.046  -4.797  13.053  1.00  0.00     0.001 C 
BRANCH  70  71
ATOM     71  C   UNL     1      -0.172  -5.307  11.995  1.00  0.00    -0.055 C 
ATOM     72  C   UNL     1       0.414  -4.407  11.177  1.00  0.00    -0.018 C 
ATOM     73  C   UNL     1       0.018  -6.798  11.898  1.00  0.00     0.044 C 
BRANCH  72  74
ATOM     74  C   UNL     1       1.361  -4.641  10.008  1.00  0.00     0.038 C 
ATOM     75  C   UNL     1       2.622  -3.811  10.274  1.00  0.00     0.015 C 
BRANCH  74  76
ATOM     76  C   UNL     1       0.617  -4.295   8.684  1.00  0.00     0.128 C 
BRANCH  76  77
ATOM     77  O   UNL     1       0.859  -5.318   7.704  1.00  0.00    -0.381 OA
ATOM     78  C   UNL     1      -0.069  -5.308   6.627  1.00  0.00     0.195 C 
ENDBRANCH  76  77
BRANCH  76  79
ATOM     79  C   UNL     1      -0.890  -3.987   8.871  1.00  0.00     0.068 C 
BRANCH  79  80
ATOM     80  C   UNL     1      -1.316  -2.539   8.911  1.00  0.00    -0.045 A 
ATOM     81  C   UNL     1      -1.109  -1.757  10.055  1.00  0.00     0.004 A 
ATOM     82  C   UNL     1      -1.955  -1.960   7.804  1.00  0.00     0.004 A 
ATOM     83  C   UNL     1      -1.519  -0.423  10.088  1.00  0.00     0.000 A 
ATOM     84  C   UNL     1      -2.366  -0.625   7.840  1.00  0.00     0.000 A 
ATOM     85  C   UNL     1      -2.146   0.143   8.980  1.00  0.00     0.000 A 
ENDBRANCH  79  80
ENDBRANCH  76  79
ENDBRANCH  74  76
ENDBRANCH  72  74
ENDBRANCH  70  71
ENDBRANCH   1  69
TORSDOF 17
ENDMDL
MODEL 17
REMARK VINA RESULT:    -7.009      4.818     11.743
REMARK INTER + INTRA:         -29.653
REMARK INTER:                 -21.626
REMARK INTRA:                  -8.027
REMARK UNBOUND:                -8.713
REMARK SMILES C=C1C(=O)N[C@H](C)C(=O)N[C@@H](CC(C)C)C(=O)N[C@@H](C(=O)O)[C@H](C)C(=O)N[C@@H](CCCN=C(N)N)C(=O)N[C@@H](/C=C/C(C)=C/[C@H](C)[C@H](Cc2ccccc2)OC)[C@H](C)C(=O)N[C@@H](C(=O)O)CCC(=O)N1C
REMARK SMILES IDX 39 1 38 2 37 3 36 4 28 6 27 7 25 8 26 9 23 11 24 12 19 13
REMARK SMILES IDX 18 14 16 15 17 16 11 18 10 19 8 20 9 21 12 24 13 25 14 26
REMARK SMILES IDX 15 27 20 28 21 29 22 30 29 32 30 33 31 34 32 35 33 36 34 37
REMARK SMILES IDX 35 38 57 43 58 44 59 45 60 46 61 47 62 49 66 50 67 51 68 52
REMARK SMILES IDX 69 53 70 54 71 55 2 56 1 57 3 58 4 59 5 60 6 62 7 63 63 65
REMARK SMILES IDX 64 66 65 67 40 69 41 70 42 71 44 72 43 73 45 74 46 75 47 76
REMARK SMILES IDX 55 77 56 78 48 79 49 80 50 81 54 82 51 83 53 84 52 85
REMARK H PARENT 38 5 27 10 18 17 10 22 22 31 34 39 34 40 35 41 35 42 61 48
REMARK H PARENT 5 61 65 68
REMARK Flexibility Score:  369.900
ROOT
ATOM      1  C   UNL     1      -3.665  -1.312  12.049  1.00  0.00     0.117 C 
ENDROOT
BRANCH   1   2
ATOM      2  N   UNL     1      -4.107  -1.813  10.748  1.00  0.00    -0.347 N 
ATOM      3  O   UNL     1      -4.984   0.147   9.938  1.00  0.00    -0.273 OA
ATOM      4  C   UNL     1      -4.651  -1.019   9.757  1.00  0.00     0.243 C 
ATOM      5  H   UNL     1      -3.970  -2.787  10.521  1.00  0.00     0.164 HD
BRANCH   4   6
ATOM      6  C   UNL     1      -4.954  -1.782   8.443  1.00  0.00     0.171 C 
BRANCH   6   7
ATOM      7  N   UNL     1      -6.314  -2.345   8.477  1.00  0.00    -0.344 N 
ATOM      8  C   UNL     1      -6.537  -3.614   8.966  1.00  0.00     0.226 C 
ATOM      9  O   UNL     1      -5.632  -4.335   9.368  1.00  0.00    -0.275 OA
ATOM     10  H   UNL     1      -7.078  -1.805   8.091  1.00  0.00     0.164 HD
BRANCH   8  11
ATOM     11  C   UNL     1      -7.997  -4.029   8.985  1.00  0.00     0.109 C 
ATOM     12  C   UNL     1      -8.896  -2.792   8.974  1.00  0.00     0.021 C 
BRANCH  11  13
ATOM     13  C   UNL     1      -8.268  -5.038   7.851  1.00  0.00     0.204 C 
BRANCH  13  14
ATOM     14  N   UNL     1      -7.037  -5.438   7.163  1.00  0.00    -0.340 N 
ATOM     15  C   UNL     1      -6.646  -4.902   5.955  1.00  0.00     0.243 C 
ATOM     16  O   UNL     1      -7.274  -4.004   5.398  1.00  0.00    -0.273 OA
ATOM     17  H   UNL     1      -6.554  -6.279   7.493  1.00  0.00     0.164 HD
BRANCH  15  18
ATOM     18  C   UNL     1      -5.430  -5.623   5.323  1.00  0.00     0.171 C 
BRANCH  18  19
ATOM     19  N   UNL     1      -5.940  -6.381   4.182  1.00  0.00    -0.343 N 
ATOM     20  C   UNL     1      -6.643  -7.559   4.345  1.00  0.00     0.242 CG0
ATOM     21  O   UNL     1      -6.757  -8.093   5.445  1.00  0.00    -0.273 OA
ATOM     22  H   UNL     1      -5.770  -6.039   3.242  1.00  0.00     0.164 HD
ATOM     23  G   UNL     1      -7.168  -8.174   3.031  1.00  0.00     0.000 G0
ENDBRANCH  18  19
BRANCH  18  24
ATOM     24  C   UNL     1      -4.363  -4.609   4.893  1.00  0.00     0.038 C 
BRANCH  24  25
ATOM     25  C   UNL     1      -2.934  -4.933   5.376  1.00  0.00    -0.015 C 
ATOM     26  C   UNL     1      -2.825  -6.333   5.982  1.00  0.00     0.007 C 
ATOM     27  C   UNL     1      -2.488  -3.890   6.403  1.00  0.00     0.007 C 
ENDBRANCH  24  25
ENDBRANCH  18  24
ENDBRANCH  15  18
ENDBRANCH  13  14
BRANCH  13  28
ATOM     28  C   UNL     1      -8.955  -6.319   8.334  1.00  0.00     0.327 C 
ATOM     29  O   UNL     1      -9.741  -6.411   9.265  1.00  0.00    -0.250 OA
BRANCH  28  30
ATOM     30  O   UNL     1      -8.523  -7.424   7.694  1.00  0.00    -0.480 OA
ATOM     31  H   UNL     1      -9.325  -7.979   7.601  1.00  0.00     0.296 HD
ENDBRANCH  28  30
ENDBRANCH  13  28
ENDBRANCH  11  13
ENDBRANCH   8  11
ENDBRANCH   6   7
BRANCH   6  32
ATOM     32  C   UNL     1      -4.787  -0.827   7.256  1.00  0.00     0.037 C 
BRANCH  32  33
ATOM     33  C   UNL     1      -6.076  -0.697   6.431  1.00  0.00     0.026 C 
BRANCH  33  34
ATOM     34  C   UNL     1      -5.872   0.116   5.152  1.00  0.00     0.146 C 
BRANCH  34  35
ATOM     35  N   UNL     1      -5.489  -0.788   4.076  1.00  0.00    -0.254 NA
ATOM     36  C   UNL     1      -5.532  -0.360   2.869  1.00  0.00     0.185 C 
ATOM     37  N   UNL     1      -5.177  -1.183   1.871  1.00  0.00    -0.370 N 
ATOM     38  N   UNL     1      -5.896   0.852   2.416  1.00  0.00    -0.370 N 
ATOM     39  H   UNL     1      -4.879  -2.114   2.134  1.00  0.00     0.159 HD
ATOM     40  H   UNL     1      -5.017  -0.875   0.927  1.00  0.00     0.159 HD
ATOM     41  H   UNL     1      -6.022   1.024   1.431  1.00  0.00     0.159 HD
ATOM     42  H   UNL     1      -6.204   1.568   3.055  1.00  0.00     0.159 HD
ENDBRANCH  34  35
ENDBRANCH  33  34
ENDBRANCH  32  33
ENDBRANCH   6  32
ENDBRANCH   4   6
ENDBRANCH   1   2
BRANCH   1  43
ATOM     43  C   UNL     1      -2.197  -1.770  12.284  1.00  0.00     0.102 C 
ATOM     44  C   UNL     1      -1.783  -2.968  11.413  1.00  0.00     0.020 C 
BRANCH  43  45
ATOM     45  C   UNL     1      -1.911  -1.959  13.777  1.00  0.00     0.225 C 
ATOM     46  O   UNL     1      -1.772  -3.062  14.299  1.00  0.00    -0.275 OA
ATOM     47  N   UNL     1      -1.912  -0.808  14.531  1.00  0.00    -0.342 N 
ATOM     48  H   UNL     1      -1.876   0.091  14.071  1.00  0.00     0.164 HD
BRANCH  47  49
ATOM     49  C   UNL     1      -1.619  -0.832  15.967  1.00  0.00     0.192 C 
BRANCH  49  50
ATOM     50  C   UNL     1      -2.766  -0.173  16.737  1.00  0.00     0.047 C 
BRANCH  50  51
ATOM     51  C   UNL     1      -3.692   0.638  15.821  1.00  0.00     0.103 C 
BRANCH  51  52
ATOM     52  C   UNL     1      -4.274   1.859  16.529  1.00  0.00     0.226 C 
ATOM     53  O   UNL     1      -5.155   1.711  17.378  1.00  0.00    -0.275 OA
BRANCH  52  54
ATOM     54  N   UNL     1      -3.696   3.103  16.211  1.00  0.00    -0.311 N 
ATOM     55  C   UNL     1      -4.398   4.064  15.351  1.00  0.00     0.153 C 
BRANCH  54  56
ATOM     56  C   UNL     1      -2.434   3.472  16.706  1.00  0.00     0.102 C 
ATOM     57  C   UNL     1      -1.379   3.807  15.946  1.00  0.00     0.043 C 
BRANCH  56  58
ATOM     58  C   UNL     1      -2.182   3.565  18.193  1.00  0.00     0.268 C 
ATOM     59  O   UNL     1      -1.775   2.626  18.863  1.00  0.00    -0.268 OA
ATOM     60  N   UNL     1      -2.392   4.826  18.698  1.00  0.00    -0.339 N 
ATOM     61  H   UNL     1      -2.740   5.548  18.078  1.00  0.00     0.164 HD
BRANCH  60  62
ATOM     62  C   UNL     1      -2.147   5.153  20.102  1.00  0.00     0.168 CG0
ATOM     63  C   UNL     1      -3.363   4.826  20.960  1.00  0.00     0.041 C 
ATOM     64  G   UNL     1      -1.774   6.644  20.228  1.00  0.00     0.000 G0
ENDBRANCH  60  62
ENDBRANCH  56  58
ENDBRANCH  54  56
ENDBRANCH  52  54
ENDBRANCH  51  52
ENDBRANCH  50  51
ENDBRANCH  49  50
BRANCH  49  65
ATOM     65  C   UNL     1      -0.304  -0.105  16.289  1.00  0.00     0.326 C 
ATOM     66  O   UNL     1       0.743  -0.222  15.670  1.00  0.00    -0.250 OA
BRANCH  65  67
ATOM     67  O   UNL     1      -0.347   0.675  17.392  1.00  0.00    -0.480 OA
ATOM     68  H   UNL     1       0.598   0.834  17.600  1.00  0.00     0.296 HD
ENDBRANCH  65  67
ENDBRANCH  49  65
ENDBRANCH  47  49
ENDBRANCH  43  45
ENDBRANCH   1  43
BRANCH   1  69
ATOM     69  C   UNL     1      -4.731  -1.726  13.048  1.00  0.00    -0.001 C 
ATOM     70  C   UNL     1      -5.266  -2.948  13.211  1.00  0.00     0.001 C 
BRANCH  70  71
ATOM     71  C   UNL     1      -6.280  -3.341  14.193  1.00  0.00    -0.055 C 
ATOM     72  C   UNL     1      -6.763  -4.599  14.127  1.00  0.00    -0.018 C 
ATOM     73  C   UNL     1      -6.705  -2.316  15.211  1.00  0.00     0.044 C 
BRANCH  72  74
ATOM     74  C   UNL     1      -7.805  -5.278  15.004  1.00  0.00     0.038 C 
ATOM     75  C   UNL     1      -7.268  -6.673  15.348  1.00  0.00     0.015 C 
BRANCH  74  76
ATOM     76  C   UNL     1      -9.171  -5.270  14.257  1.00  0.00     0.128 C 
BRANCH  76  77
ATOM     77  O   UNL     1      -9.732  -6.594  14.246  1.00  0.00    -0.381 OA
ATOM     78  C   UNL     1     -11.105  -6.635  14.612  1.00  0.00     0.195 C 
ENDBRANCH  76  77
BRANCH  76  79
ATOM     79  C   UNL     1     -10.166  -4.202  14.776  1.00  0.00     0.068 C 
BRANCH  79  80
ATOM     80  C   UNL     1     -10.122  -2.830  14.146  1.00  0.00    -0.045 A 
ATOM     81  C   UNL     1      -9.615  -2.645  12.853  1.00  0.00     0.004 A 
ATOM     82  C   UNL     1     -10.566  -1.709  14.863  1.00  0.00     0.004 A 
ATOM     83  C   UNL     1      -9.565  -1.371  12.284  1.00  0.00     0.000 A 
ATOM     84  C   UNL     1     -10.515  -0.435  14.293  1.00  0.00     0.000 A 
ATOM     85  C   UNL     1     -10.016  -0.267  13.003  1.00  0.00     0.000 A 
ENDBRANCH  79  80
ENDBRANCH  76  79
ENDBRANCH  74  76
ENDBRANCH  72  74
ENDBRANCH  70  71
ENDBRANCH   1  69
TORSDOF 17
ENDMDL
MODEL 18
REMARK VINA RESULT:    -6.990      4.648     10.582
REMARK INTER + INTRA:         -29.597
REMARK INTER:                 -23.458
REMARK INTRA:                  -6.139
REMARK UNBOUND:                -8.713
REMARK SMILES C=C1C(=O)N[C@H](C)C(=O)N[C@@H](CC(C)C)C(=O)N[C@@H](C(=O)O)[C@H](C)C(=O)N[C@@H](CCCN=C(N)N)C(=O)N[C@@H](/C=C/C(C)=C/[C@H](C)[C@H](Cc2ccccc2)OC)[C@H](C)C(=O)N[C@@H](C(=O)O)CCC(=O)N1C
REMARK SMILES IDX 39 1 38 2 37 3 36 4 28 6 27 7 25 8 26 9 23 11 24 12 19 13
REMARK SMILES IDX 18 14 16 15 17 16 11 18 10 19 8 20 9 21 12 24 13 25 14 26
REMARK SMILES IDX 15 27 20 28 21 29 22 30 29 32 30 33 31 34 32 35 33 36 34 37
REMARK SMILES IDX 35 38 57 43 58 44 59 45 60 46 61 47 62 49 66 50 67 51 68 52
REMARK SMILES IDX 69 53 70 54 71 55 2 56 1 57 3 58 4 59 5 60 6 62 7 63 63 65
REMARK SMILES IDX 64 66 65 67 40 69 41 70 42 71 44 72 43 73 45 74 46 75 47 76
REMARK SMILES IDX 55 77 56 78 48 79 49 80 50 81 54 82 51 83 53 84 52 85
REMARK H PARENT 38 5 27 10 18 17 10 22 22 31 34 39 34 40 35 41 35 42 61 48
REMARK H PARENT 5 61 65 68
REMARK Flexibility Score:  369.900
ROOT
ATOM      1  C   UNL     1      -5.302  -3.036  14.456  1.00  0.00     0.117 C 
ENDROOT
BRANCH   1   2
ATOM      2  N   UNL     1      -5.324  -3.166  12.999  1.00  0.00    -0.347 N 
ATOM      3  O   UNL     1      -4.197  -5.160  12.846  1.00  0.00    -0.273 OA
ATOM      4  C   UNL     1      -4.849  -4.268  12.314  1.00  0.00     0.243 C 
ATOM      5  H   UNL     1      -5.753  -2.441  12.444  1.00  0.00     0.164 HD
BRANCH   4   6
ATOM      6  C   UNL     1      -5.070  -4.192  10.782  1.00  0.00     0.171 C 
BRANCH   6   7
ATOM      7  N   UNL     1      -5.417  -2.820  10.379  1.00  0.00    -0.344 N 
ATOM      8  C   UNL     1      -6.340  -2.592   9.381  1.00  0.00     0.226 C 
ATOM      9  O   UNL     1      -6.891  -3.501   8.772  1.00  0.00    -0.275 OA
ATOM     10  H   UNL     1      -4.933  -2.044  10.813  1.00  0.00     0.164 HD
BRANCH   8  11
ATOM     11  C   UNL     1      -6.630  -1.124   9.120  1.00  0.00     0.109 C 
ATOM     12  C   UNL     1      -5.323  -0.333   9.057  1.00  0.00     0.021 C 
BRANCH  11  13
ATOM     13  C   UNL     1      -7.534  -0.984   7.879  1.00  0.00     0.204 C 
BRANCH  13  14
ATOM     14  N   UNL     1      -6.949  -1.624   6.696  1.00  0.00    -0.340 N 
ATOM     15  C   UNL     1      -6.399  -0.910   5.654  1.00  0.00     0.243 C 
ATOM     16  O   UNL     1      -6.305   0.316   5.671  1.00  0.00    -0.273 OA
ATOM     17  H   UNL     1      -7.131  -2.621   6.550  1.00  0.00     0.164 HD
BRANCH  15  18
ATOM     18  C   UNL     1      -6.037  -1.784   4.428  1.00  0.00     0.171 C 
BRANCH  18  19
ATOM     19  N   UNL     1      -5.350  -0.910   3.479  1.00  0.00    -0.343 N 
ATOM     20  C   UNL     1      -5.943  -0.510   2.296  1.00  0.00     0.242 CG0
ATOM     21  O   UNL     1      -7.018  -0.976   1.926  1.00  0.00    -0.273 OA
ATOM     22  H   UNL     1      -4.411  -0.589   3.686  1.00  0.00     0.164 HD
ATOM     23  G   UNL     1      -5.098   0.474   1.461  1.00  0.00     0.000 G0
ENDBRANCH  18  19
BRANCH  18  24
ATOM     24  C   UNL     1      -5.151  -2.963   4.847  1.00  0.00     0.038 C 
BRANCH  24  25
ATOM     25  C   UNL     1      -5.626  -4.340   4.335  1.00  0.00    -0.015 C 
ATOM     26  C   UNL     1      -5.895  -4.343   2.830  1.00  0.00     0.007 C 
ATOM     27  C   UNL     1      -6.892  -4.760   5.086  1.00  0.00     0.007 C 
ENDBRANCH  24  25
ENDBRANCH  18  24
ENDBRANCH  15  18
ENDBRANCH  13  14
BRANCH  13  28
ATOM     28  C   UNL     1      -8.929  -1.585   8.077  1.00  0.00     0.327 C 
ATOM     29  O   UNL     1      -9.661  -1.410   9.039  1.00  0.00    -0.250 OA
BRANCH  28  30
ATOM     30  O   UNL     1      -9.269  -2.462   7.111  1.00  0.00    -0.480 OA
ATOM     31  H   UNL     1      -8.532  -3.107   7.101  1.00  0.00     0.296 HD
ENDBRANCH  28  30
ENDBRANCH  13  28
ENDBRANCH  11  13
ENDBRANCH   8  11
ENDBRANCH   6   7
BRANCH   6  32
ATOM     32  C   UNL     1      -3.801  -4.668  10.065  1.00  0.00     0.037 C 
BRANCH  32  33
ATOM     33  C   UNL     1      -4.024  -5.982   9.305  1.00  0.00     0.026 C 
BRANCH  33  34
ATOM     34  C   UNL     1      -4.543  -5.756   7.884  1.00  0.00     0.146 C 
BRANCH  34  35
ATOM     35  N   UNL     1      -3.465  -5.208   7.072  1.00  0.00    -0.254 NA
ATOM     36  C   UNL     1      -2.760  -6.010   6.364  1.00  0.00     0.185 C 
ATOM     37  N   UNL     1      -1.768  -5.516   5.609  1.00  0.00    -0.370 N 
ATOM     38  N   UNL     1      -2.861  -7.347   6.249  1.00  0.00    -0.370 N 
ATOM     39  H   UNL     1      -1.635  -4.513   5.633  1.00  0.00     0.159 HD
ATOM     40  H   UNL     1      -1.289  -6.047   4.902  1.00  0.00     0.159 HD
ATOM     41  H   UNL     1      -2.158  -7.882   5.768  1.00  0.00     0.159 HD
ATOM     42  H   UNL     1      -3.555  -7.855   6.774  1.00  0.00     0.159 HD
ENDBRANCH  34  35
ENDBRANCH  33  34
ENDBRANCH  32  33
ENDBRANCH   6  32
ENDBRANCH   4   6
ENDBRANCH   1   2
BRANCH   1  43
ATOM     43  C   UNL     1      -6.734  -3.305  15.000  1.00  0.00     0.102 C 
ATOM     44  C   UNL     1      -7.227  -4.739  14.742  1.00  0.00     0.020 C 
BRANCH  43  45
ATOM     45  C   UNL     1      -7.711  -2.220  14.537  1.00  0.00     0.225 C 
ATOM     46  O   UNL     1      -7.651  -1.690  13.431  1.00  0.00    -0.275 OA
ATOM     47  N   UNL     1      -8.619  -1.798  15.481  1.00  0.00    -0.342 N 
ATOM     48  H   UNL     1      -8.755  -2.341  16.322  1.00  0.00     0.164 HD
BRANCH  47  49
ATOM     49  C   UNL     1      -9.637  -0.790  15.169  1.00  0.00     0.192 C 
BRANCH  49  50
ATOM     50  C   UNL     1      -9.800   0.162  16.357  1.00  0.00     0.047 C 
BRANCH  50  51
ATOM     51  C   UNL     1      -8.529   0.249  17.211  1.00  0.00     0.103 C 
BRANCH  51  52
ATOM     52  C   UNL     1      -8.324   1.646  17.793  1.00  0.00     0.226 C 
ATOM     53  O   UNL     1      -9.285   2.411  17.896  1.00  0.00    -0.275 OA
BRANCH  52  54
ATOM     54  N   UNL     1      -7.030   1.949  18.256  1.00  0.00    -0.311 N 
ATOM     55  C   UNL     1      -6.131   0.890  18.734  1.00  0.00     0.153 C 
BRANCH  54  56
ATOM     56  C   UNL     1      -6.549   3.269  18.274  1.00  0.00     0.102 C 
ATOM     57  C   UNL     1      -6.120   3.945  17.196  1.00  0.00     0.043 C 
BRANCH  56  58
ATOM     58  C   UNL     1      -6.521   4.067  19.556  1.00  0.00     0.268 C 
ATOM     59  O   UNL     1      -7.517   4.275  20.237  1.00  0.00    -0.268 OA
ATOM     60  N   UNL     1      -5.258   4.475  19.912  1.00  0.00    -0.339 N 
ATOM     61  H   UNL     1      -4.486   4.270  19.288  1.00  0.00     0.164 HD
BRANCH  60  62
ATOM     62  C   UNL     1      -4.995   5.207  21.150  1.00  0.00     0.168 CG0
ATOM     63  C   UNL     1      -3.508   5.205  21.482  1.00  0.00     0.041 C 
ATOM     64  G   UNL     1      -5.812   4.585  22.301  1.00  0.00     0.000 G0
ENDBRANCH  60  62
ENDBRANCH  56  58
ENDBRANCH  54  56
ENDBRANCH  52  54
ENDBRANCH  51  52
ENDBRANCH  50  51
ENDBRANCH  49  50
BRANCH  49  65
ATOM     65  C   UNL     1     -10.993  -1.437  14.845  1.00  0.00     0.326 C 
ATOM     66  O   UNL     1     -11.163  -2.405  14.118  1.00  0.00    -0.250 OA
BRANCH  65  67
ATOM     67  O   UNL     1     -12.060  -0.812  15.390  1.00  0.00    -0.480 OA
ATOM     68  H   UNL     1     -12.760  -1.500  15.382  1.00  0.00     0.296 HD
ENDBRANCH  65  67
ENDBRANCH  49  65
ENDBRANCH  47  49
ENDBRANCH  43  45
ENDBRANCH   1  43
BRANCH   1  69
ATOM     69  C   UNL     1      -4.644  -1.700  14.752  1.00  0.00    -0.001 C 
ATOM     70  C   UNL     1      -4.328  -1.194  15.957  1.00  0.00     0.001 C 
BRANCH  70  71
ATOM     71  C   UNL     1      -3.673   0.087  16.229  1.00  0.00    -0.055 C 
ATOM     72  C   UNL     1      -2.737   0.120  17.201  1.00  0.00    -0.018 C 
ATOM     73  C   UNL     1      -4.084   1.276  15.400  1.00  0.00     0.044 C 
BRANCH  72  74
ATOM     74  C   UNL     1      -1.901   1.292  17.694  1.00  0.00     0.038 C 
ATOM     75  C   UNL     1      -2.872   2.325  18.280  1.00  0.00     0.015 C 
BRANCH  74  76
ATOM     76  C   UNL     1      -1.025   1.813  16.517  1.00  0.00     0.128 C 
BRANCH  76  77
ATOM     77  O   UNL     1      -0.853   3.236  16.625  1.00  0.00    -0.381 OA
ATOM     78  C   UNL     1      -1.026   3.927  15.395  1.00  0.00     0.195 C 
ENDBRANCH  76  77
BRANCH  76  79
ATOM     79  C   UNL     1       0.318   1.058  16.350  1.00  0.00     0.068 C 
BRANCH  79  80
ATOM     80  C   UNL     1       0.538   0.281  15.075  1.00  0.00    -0.045 A 
ATOM     81  C   UNL     1      -0.488  -0.489  14.511  1.00  0.00     0.004 A 
ATOM     82  C   UNL     1       1.792   0.296  14.445  1.00  0.00     0.004 A 
ATOM     83  C   UNL     1      -0.272  -1.216  13.339  1.00  0.00     0.000 A 
ATOM     84  C   UNL     1       2.008  -0.432  13.273  1.00  0.00     0.000 A 
ATOM     85  C   UNL     1       0.976  -1.186  12.720  1.00  0.00     0.000 A 
ENDBRANCH  79  80
ENDBRANCH  76  79
ENDBRANCH  74  76
ENDBRANCH  72  74
ENDBRANCH  70  71
ENDBRANCH   1  69
TORSDOF 17
ENDMDL
MODEL 19
REMARK VINA RESULT:    -6.952      4.211     10.504
REMARK INTER + INTRA:         -29.483
REMARK INTER:                 -21.626
REMARK INTRA:                  -7.857
REMARK UNBOUND:                -8.713
REMARK SMILES C=C1C(=O)N[C@H](C)C(=O)N[C@@H](CC(C)C)C(=O)N[C@@H](C(=O)O)[C@H](C)C(=O)N[C@@H](CCCN=C(N)N)C(=O)N[C@@H](/C=C/C(C)=C/[C@H](C)[C@H](Cc2ccccc2)OC)[C@H](C)C(=O)N[C@@H](C(=O)O)CCC(=O)N1C
REMARK SMILES IDX 39 1 38 2 37 3 36 4 28 6 27 7 25 8 26 9 23 11 24 12 19 13
REMARK SMILES IDX 18 14 16 15 17 16 11 18 10 19 8 20 9 21 12 24 13 25 14 26
REMARK SMILES IDX 15 27 20 28 21 29 22 30 29 32 30 33 31 34 32 35 33 36 34 37
REMARK SMILES IDX 35 38 57 43 58 44 59 45 60 46 61 47 62 49 66 50 67 51 68 52
REMARK SMILES IDX 69 53 70 54 71 55 2 56 1 57 3 58 4 59 5 60 6 62 7 63 63 65
REMARK SMILES IDX 64 66 65 67 40 69 41 70 42 71 44 72 43 73 45 74 46 75 47 76
REMARK SMILES IDX 55 77 56 78 48 79 49 80 50 81 54 82 51 83 53 84 52 85
REMARK H PARENT 38 5 27 10 18 17 10 22 22 31 34 39 34 40 35 41 35 42 61 48
REMARK H PARENT 5 61 65 68
REMARK Flexibility Score:  369.900
ROOT
ATOM      1  C   UNL     1      -5.528  -3.064  14.394  1.00  0.00     0.117 C 
ENDROOT
BRANCH   1   2
ATOM      2  N   UNL     1      -5.583  -3.166  12.936  1.00  0.00    -0.347 N 
ATOM      3  O   UNL     1      -3.847  -4.643  12.659  1.00  0.00    -0.273 OA
ATOM      4  C   UNL     1      -4.794  -4.021  12.190  1.00  0.00     0.243 C 
ATOM      5  H   UNL     1      -6.266  -2.625  12.428  1.00  0.00     0.164 HD
BRANCH   4   6
ATOM      6  C   UNL     1      -5.112  -3.997  10.673  1.00  0.00     0.171 C 
BRANCH   6   7
ATOM      7  N   UNL     1      -6.326  -4.780  10.389  1.00  0.00    -0.344 N 
ATOM      8  C   UNL     1      -6.235  -6.072   9.921  1.00  0.00     0.226 C 
ATOM      9  O   UNL     1      -5.162  -6.620   9.698  1.00  0.00    -0.275 OA
ATOM     10  H   UNL     1      -7.230  -4.338  10.497  1.00  0.00     0.164 HD
BRANCH   8  11
ATOM     11  C   UNL     1      -7.573  -6.764   9.729  1.00  0.00     0.109 C 
ATOM     12  C   UNL     1      -8.685  -5.952  10.394  1.00  0.00     0.021 C 
BRANCH  11  13
ATOM     13  C   UNL     1      -7.796  -7.063   8.233  1.00  0.00     0.204 C 
BRANCH  13  14
ATOM     14  N   UNL     1      -7.045  -6.148   7.369  1.00  0.00    -0.340 N 
ATOM     15  C   UNL     1      -7.646  -5.151   6.632  1.00  0.00     0.243 C 
ATOM     16  O   UNL     1      -8.852  -4.920   6.694  1.00  0.00    -0.273 OA
ATOM     17  H   UNL     1      -6.070  -6.379   7.156  1.00  0.00     0.164 HD
BRANCH  15  18
ATOM     18  C   UNL     1      -6.686  -4.449   5.640  1.00  0.00     0.171 C 
BRANCH  18  19
ATOM     19  N   UNL     1      -6.866  -5.107   4.347  1.00  0.00    -0.343 N 
ATOM     20  C   UNL     1      -6.315  -6.345   4.076  1.00  0.00     0.242 CG0
ATOM     21  O   UNL     1      -5.539  -6.889   4.859  1.00  0.00    -0.273 OA
ATOM     22  H   UNL     1      -7.405  -4.644   3.624  1.00  0.00     0.164 HD
ATOM     23  G   UNL     1      -6.678  -6.914   2.689  1.00  0.00     0.000 G0
ENDBRANCH  18  19
BRANCH  18  24
ATOM     24  C   UNL     1      -6.996  -2.950   5.555  1.00  0.00     0.038 C 
BRANCH  24  25
ATOM     25  C   UNL     1      -5.827  -2.078   5.049  1.00  0.00    -0.015 C 
ATOM     26  C   UNL     1      -5.673  -0.784   5.848  1.00  0.00     0.007 C 
ATOM     27  C   UNL     1      -6.035  -1.748   3.568  1.00  0.00     0.007 C 
ENDBRANCH  24  25
ENDBRANCH  18  24
ENDBRANCH  15  18
ENDBRANCH  13  14
BRANCH  13  28
ATOM     28  C   UNL     1      -7.400  -8.489   7.837  1.00  0.00     0.327 C 
ATOM     29  O   UNL     1      -7.022  -9.370   8.594  1.00  0.00    -0.250 OA
BRANCH  28  30
ATOM     30  O   UNL     1      -7.387  -8.683   6.503  1.00  0.00    -0.480 OA
ATOM     31  H   UNL     1      -6.780  -9.441   6.375  1.00  0.00     0.296 HD
ENDBRANCH  28  30
ENDBRANCH  13  28
ENDBRANCH  11  13
ENDBRANCH   8  11
ENDBRANCH   6   7
BRANCH   6  32
ATOM     32  C   UNL     1      -5.278  -2.544  10.216  1.00  0.00     0.037 C 
BRANCH  32  33
ATOM     33  C   UNL     1      -6.417  -2.383   9.199  1.00  0.00     0.026 C 
BRANCH  33  34
ATOM     34  C   UNL     1      -7.573  -1.542   9.743  1.00  0.00     0.146 C 
BRANCH  34  35
ATOM     35  N   UNL     1      -8.728  -2.406   9.944  1.00  0.00    -0.254 NA
ATOM     36  C   UNL     1      -9.690  -1.985  10.677  1.00  0.00     0.185 C 
ATOM     37  N   UNL     1     -10.762  -2.770  10.864  1.00  0.00    -0.370 N 
ATOM     38  N   UNL     1      -9.807  -0.813  11.327  1.00  0.00    -0.370 N 
ATOM     39  H   UNL     1     -10.754  -3.668  10.397  1.00  0.00     0.159 HD
ATOM     40  H   UNL     1     -11.622  -2.449  11.275  1.00  0.00     0.159 HD
ATOM     41  H   UNL     1     -10.551  -0.655  11.986  1.00  0.00     0.159 HD
ATOM     42  H   UNL     1      -9.067  -0.130  11.288  1.00  0.00     0.159 HD
ENDBRANCH  34  35
ENDBRANCH  33  34
ENDBRANCH  32  33
ENDBRANCH   6  32
ENDBRANCH   4   6
ENDBRANCH   1   2
BRANCH   1  43
ATOM     43  C   UNL     1      -6.964  -3.258  14.959  1.00  0.00     0.102 C 
ATOM     44  C   UNL     1      -7.546  -4.656  14.688  1.00  0.00     0.020 C 
BRANCH  43  45
ATOM     45  C   UNL     1      -7.883  -2.109  14.532  1.00  0.00     0.225 C 
ATOM     46  O   UNL     1      -7.806  -1.561  13.436  1.00  0.00    -0.275 OA
ATOM     47  N   UNL     1      -8.752  -1.655  15.497  1.00  0.00    -0.342 N 
ATOM     48  H   UNL     1      -8.908  -2.207  16.329  1.00  0.00     0.164 HD
BRANCH  47  49
ATOM     49  C   UNL     1      -9.715  -0.585  15.219  1.00  0.00     0.192 C 
BRANCH  49  50
ATOM     50  C   UNL     1      -9.852   0.316  16.449  1.00  0.00     0.047 C 
BRANCH  50  51
ATOM     51  C   UNL     1      -8.555   0.386  17.267  1.00  0.00     0.103 C 
BRANCH  51  52
ATOM     52  C   UNL     1      -8.321   1.776  17.853  1.00  0.00     0.226 C 
ATOM     53  O   UNL     1      -9.270   2.551  17.984  1.00  0.00    -0.275 OA
BRANCH  52  54
ATOM     54  N   UNL     1      -7.013   2.061  18.287  1.00  0.00    -0.311 N 
ATOM     55  C   UNL     1      -6.115   0.990  18.739  1.00  0.00     0.153 C 
BRANCH  54  56
ATOM     56  C   UNL     1      -6.516   3.375  18.300  1.00  0.00     0.102 C 
ATOM     57  C   UNL     1      -6.128   4.061  17.212  1.00  0.00     0.043 C 
BRANCH  56  58
ATOM     58  C   UNL     1      -6.421   4.156  19.590  1.00  0.00     0.268 C 
ATOM     59  O   UNL     1      -7.396   4.445  20.270  1.00  0.00    -0.268 OA
ATOM     60  N   UNL     1      -5.128   4.448  19.951  1.00  0.00    -0.339 N 
ATOM     61  H   UNL     1      -4.376   4.182  19.326  1.00  0.00     0.164 HD
BRANCH  60  62
ATOM     62  C   UNL     1      -4.804   5.143  21.196  1.00  0.00     0.168 CG0
ATOM     63  C   UNL     1      -3.299   5.178  21.429  1.00  0.00     0.041 C 
ATOM     64  G   UNL     1      -5.523   4.453  22.374  1.00  0.00     0.000 G0
ENDBRANCH  60  62
ENDBRANCH  56  58
ENDBRANCH  54  56
ENDBRANCH  52  54
ENDBRANCH  51  52
ENDBRANCH  50  51
ENDBRANCH  49  50
BRANCH  49  65
ATOM     65  C   UNL     1     -11.095  -1.148  14.844  1.00  0.00     0.326 C 
ATOM     66  O   UNL     1     -11.346  -1.808  13.847  1.00  0.00    -0.250 OA
BRANCH  65  67
ATOM     67  O   UNL     1     -12.091  -0.810  15.693  1.00  0.00    -0.480 OA
ATOM     68  H   UNL     1     -11.760   0.006  16.125  1.00  0.00     0.296 HD
ENDBRANCH  65  67
ENDBRANCH  49  65
ENDBRANCH  47  49
ENDBRANCH  43  45
ENDBRANCH   1  43
BRANCH   1  69
ATOM     69  C   UNL     1      -4.786  -1.776  14.701  1.00  0.00    -0.001 C 
ATOM     70  C   UNL     1      -4.445  -1.298  15.911  1.00  0.00     0.001 C 
BRANCH  70  71
ATOM     71  C   UNL     1      -3.711  -0.063  16.194  1.00  0.00    -0.055 C 
ATOM     72  C   UNL     1      -2.701  -0.124  17.088  1.00  0.00    -0.018 C 
ATOM     73  C   UNL     1      -4.128   1.186  15.461  1.00  0.00     0.044 C 
BRANCH  72  74
ATOM     74  C   UNL     1      -1.774   0.982  17.570  1.00  0.00     0.038 C 
ATOM     75  C   UNL     1      -2.650   2.047  18.241  1.00  0.00     0.015 C 
BRANCH  74  76
ATOM     76  C   UNL     1      -0.934   1.494  16.363  1.00  0.00     0.128 C 
BRANCH  76  77
ATOM     77  O   UNL     1      -0.660   2.897  16.515  1.00  0.00    -0.381 OA
ATOM     78  C   UNL     1      -1.221   3.703  15.489  1.00  0.00     0.195 C 
ENDBRANCH  76  77
BRANCH  76  79
ATOM     79  C   UNL     1       0.342   0.660  16.086  1.00  0.00     0.068 C 
BRANCH  79  80
ATOM     80  C   UNL     1       0.418  -0.107  14.788  1.00  0.00    -0.045 A 
ATOM     81  C   UNL     1       1.571  -0.068  13.992  1.00  0.00     0.004 A 
ATOM     82  C   UNL     1      -0.684  -0.853  14.343  1.00  0.00     0.004 A 
ATOM     83  C   UNL     1       1.627  -0.769  12.786  1.00  0.00     0.000 A 
ATOM     84  C   UNL     1      -0.626  -1.553  13.136  1.00  0.00     0.000 A 
ATOM     85  C   UNL     1       0.529  -1.513  12.359  1.00  0.00     0.000 A 
ENDBRANCH  79  80
ENDBRANCH  76  79
ENDBRANCH  74  76
ENDBRANCH  72  74
ENDBRANCH  70  71
ENDBRANCH   1  69
TORSDOF 17
ENDMDL
MODEL 20
REMARK VINA RESULT:    -6.951      4.492     11.499
REMARK INTER + INTRA:         -29.481
REMARK INTER:                 -22.964
REMARK INTRA:                  -6.517
REMARK UNBOUND:                -8.713
REMARK SMILES C=C1C(=O)N[C@H](C)C(=O)N[C@@H](CC(C)C)C(=O)N[C@@H](C(=O)O)[C@H](C)C(=O)N[C@@H](CCCN=C(N)N)C(=O)N[C@@H](/C=C/C(C)=C/[C@H](C)[C@H](Cc2ccccc2)OC)[C@H](C)C(=O)N[C@@H](C(=O)O)CCC(=O)N1C
REMARK SMILES IDX 39 1 38 2 37 3 36 4 28 6 27 7 25 8 26 9 23 11 24 12 19 13
REMARK SMILES IDX 18 14 16 15 17 16 11 18 10 19 8 20 9 21 12 24 13 25 14 26
REMARK SMILES IDX 15 27 20 28 21 29 22 30 29 32 30 33 31 34 32 35 33 36 34 37
REMARK SMILES IDX 35 38 57 43 58 44 59 45 60 46 61 47 62 49 66 50 67 51 68 52
REMARK SMILES IDX 69 53 70 54 71 55 2 56 1 57 3 58 4 59 5 60 6 62 7 63 63 65
REMARK SMILES IDX 64 66 65 67 40 69 41 70 42 71 44 72 43 73 45 74 46 75 47 76
REMARK SMILES IDX 55 77 56 78 48 79 49 80 50 81 54 82 51 83 53 84 52 85
REMARK H PARENT 38 5 27 10 18 17 10 22 22 31 34 39 34 40 35 41 35 42 61 48
REMARK H PARENT 5 61 65 68
REMARK Flexibility Score:  369.900
ROOT
ATOM      1  C   UNL     1      -4.098  -1.837  12.782  1.00  0.00     0.117 C 
ENDROOT
BRANCH   1   2
ATOM      2  N   UNL     1      -3.691  -2.420  11.504  1.00  0.00    -0.347 N 
ATOM      3  O   UNL     1      -2.188  -0.800  10.885  1.00  0.00    -0.273 OA
ATOM      4  C   UNL     1      -2.698  -1.899  10.698  1.00  0.00     0.243 C 
ATOM      5  H   UNL     1      -4.115  -3.282  11.196  1.00  0.00     0.164 HD
BRANCH   4   6
ATOM      6  C   UNL     1      -2.402  -2.756   9.441  1.00  0.00     0.171 C 
BRANCH   6   7
ATOM      7  N   UNL     1      -3.184  -2.272   8.292  1.00  0.00    -0.344 N 
ATOM      8  C   UNL     1      -4.521  -2.582   8.172  1.00  0.00     0.226 C 
ATOM      9  O   UNL     1      -5.113  -3.282   8.985  1.00  0.00    -0.275 OA
ATOM     10  H   UNL     1      -2.714  -1.748   7.564  1.00  0.00     0.164 HD
BRANCH   8  11
ATOM     11  C   UNL     1      -5.200  -1.964   6.962  1.00  0.00     0.109 C 
ATOM     12  C   UNL     1      -4.609  -0.584   6.675  1.00  0.00     0.021 C 
BRANCH  11  13
ATOM     13  C   UNL     1      -5.153  -2.949   5.777  1.00  0.00     0.204 C 
BRANCH  13  14
ATOM     14  N   UNL     1      -5.472  -4.320   6.186  1.00  0.00    -0.340 N 
ATOM     15  C   UNL     1      -4.673  -5.399   5.875  1.00  0.00     0.243 C 
ATOM     16  O   UNL     1      -3.602  -5.278   5.283  1.00  0.00    -0.273 OA
ATOM     17  H   UNL     1      -6.412  -4.508   6.544  1.00  0.00     0.164 HD
BRANCH  15  18
ATOM     18  C   UNL     1      -5.312  -6.764   6.228  1.00  0.00     0.171 C 
BRANCH  18  19
ATOM     19  N   UNL     1      -5.514  -7.470   4.964  1.00  0.00    -0.343 N 
ATOM     20  C   UNL     1      -6.579  -7.184   4.132  1.00  0.00     0.242 CG0
ATOM     21  O   UNL     1      -7.477  -6.419   4.476  1.00  0.00    -0.273 OA
ATOM     22  H   UNL     1      -4.861  -8.195   4.689  1.00  0.00     0.164 HD
ATOM     23  G   UNL     1      -6.583  -7.976   2.807  1.00  0.00     0.000 G0
ENDBRANCH  18  19
BRANCH  18  24
ATOM     24  C   UNL     1      -4.405  -7.558   7.176  1.00  0.00     0.038 C 
BRANCH  24  25
ATOM     25  C   UNL     1      -4.489  -7.130   8.657  1.00  0.00    -0.015 C 
ATOM     26  C   UNL     1      -3.257  -6.346   9.110  1.00  0.00     0.007 C 
ATOM     27  C   UNL     1      -4.667  -8.367   9.541  1.00  0.00     0.007 C 
ENDBRANCH  24  25
ENDBRANCH  18  24
ENDBRANCH  15  18
ENDBRANCH  13  14
BRANCH  13  28
ATOM     28  C   UNL     1      -6.115  -2.577   4.645  1.00  0.00     0.327 C 
ATOM     29  O   UNL     1      -5.825  -1.992   3.612  1.00  0.00    -0.250 OA
BRANCH  28  30
ATOM     30  O   UNL     1      -7.403  -2.858   4.932  1.00  0.00    -0.480 OA
ATOM     31  H   UNL     1      -7.367  -3.734   5.368  1.00  0.00     0.296 HD
ENDBRANCH  28  30
ENDBRANCH  13  28
ENDBRANCH  11  13
ENDBRANCH   8  11
ENDBRANCH   6   7
BRANCH   6  32
ATOM     32  C   UNL     1      -0.900  -2.707   9.140  1.00  0.00     0.037 C 
BRANCH  32  33
ATOM     33  C   UNL     1      -0.289  -4.109   9.004  1.00  0.00     0.026 C 
BRANCH  33  34
ATOM     34  C   UNL     1       0.238  -4.649  10.334  1.00  0.00     0.146 C 
BRANCH  34  35
ATOM     35  N   UNL     1      -0.114  -6.058  10.442  1.00  0.00    -0.254 NA
ATOM     36  C   UNL     1       0.234  -6.699  11.495  1.00  0.00     0.185 C 
ATOM     37  N   UNL     1      -0.089  -7.997  11.607  1.00  0.00    -0.370 N 
ATOM     38  N   UNL     1       0.910  -6.255  12.569  1.00  0.00    -0.370 N 
ATOM     39  H   UNL     1      -0.610  -8.403  10.840  1.00  0.00     0.159 HD
ATOM     40  H   UNL     1      -0.008  -8.518  12.463  1.00  0.00     0.159 HD
ATOM     41  H   UNL     1       1.246  -6.892  13.273  1.00  0.00     0.159 HD
ATOM     42  H   UNL     1       1.232  -5.301  12.615  1.00  0.00     0.159 HD
ENDBRANCH  34  35
ENDBRANCH  33  34
ENDBRANCH  32  33
ENDBRANCH   6  32
ENDBRANCH   4   6
ENDBRANCH   1   2
BRANCH   1  43
ATOM     43  C   UNL     1      -3.359  -2.588  13.927  1.00  0.00     0.102 C 
ATOM     44  C   UNL     1      -3.821  -4.045  14.101  1.00  0.00     0.020 C 
BRANCH  43  45
ATOM     45  C   UNL     1      -3.377  -1.771  15.223  1.00  0.00     0.225 C 
ATOM     46  O   UNL     1      -4.223  -1.922  16.099  1.00  0.00    -0.275 OA
ATOM     47  N   UNL     1      -2.430  -0.776  15.309  1.00  0.00    -0.342 N 
ATOM     48  H   UNL     1      -1.657  -0.764  14.659  1.00  0.00     0.164 HD
BRANCH  47  49
ATOM     49  C   UNL     1      -2.306   0.061  16.506  1.00  0.00     0.192 C 
BRANCH  49  50
ATOM     50  C   UNL     1      -2.881   1.452  16.222  1.00  0.00     0.047 C 
BRANCH  50  51
ATOM     51  C   UNL     1      -4.111   1.760  17.087  1.00  0.00     0.103 C 
BRANCH  51  52
ATOM     52  C   UNL     1      -4.352   3.262  17.226  1.00  0.00     0.226 C 
ATOM     53  O   UNL     1      -5.288   3.668  17.916  1.00  0.00    -0.275 OA
BRANCH  52  54
ATOM     54  N   UNL     1      -3.417   4.108  16.600  1.00  0.00    -0.311 N 
ATOM     55  C   UNL     1      -3.531   4.436  15.173  1.00  0.00     0.153 C 
BRANCH  54  56
ATOM     56  C   UNL     1      -2.347   4.672  17.314  1.00  0.00     0.102 C 
ATOM     57  C   UNL     1      -1.482   5.572  16.819  1.00  0.00     0.043 C 
BRANCH  56  58
ATOM     58  C   UNL     1      -2.113   4.322  18.765  1.00  0.00     0.268 C 
ATOM     59  O   UNL     1      -1.400   3.394  19.124  1.00  0.00    -0.268 OA
ATOM     60  N   UNL     1      -2.727   5.190  19.636  1.00  0.00    -0.339 N 
ATOM     61  H   UNL     1      -3.310   5.928  19.258  1.00  0.00     0.164 HD
BRANCH  60  62
ATOM     62  C   UNL     1      -2.581   5.072  21.086  1.00  0.00     0.168 CG0
ATOM     63  C   UNL     1      -3.791   5.653  21.807  1.00  0.00     0.041 C 
ATOM     64  G   UNL     1      -1.286   5.781  21.534  1.00  0.00     0.000 G0
ENDBRANCH  60  62
ENDBRANCH  56  58
ENDBRANCH  54  56
ENDBRANCH  52  54
ENDBRANCH  51  52
ENDBRANCH  50  51
ENDBRANCH  49  50
BRANCH  49  65
ATOM     65  C   UNL     1      -0.842   0.197  16.953  1.00  0.00     0.326 C 
ATOM     66  O   UNL     1       0.105  -0.413  16.479  1.00  0.00    -0.250 OA
BRANCH  65  67
ATOM     67  O   UNL     1      -0.647   1.033  17.997  1.00  0.00    -0.480 OA
ATOM     68  H   UNL     1      -1.060   1.873  17.701  1.00  0.00     0.296 HD
ENDBRANCH  65  67
ENDBRANCH  49  65
ENDBRANCH  47  49
ENDBRANCH  43  45
ENDBRANCH   1  43
BRANCH   1  69
ATOM     69  C   UNL     1      -5.616  -1.820  12.777  1.00  0.00    -0.001 C 
ATOM     70  C   UNL     1      -6.426  -1.565  11.734  1.00  0.00     0.001 C 
BRANCH  70  71
ATOM     71  C   UNL     1      -7.891  -1.572  11.736  1.00  0.00    -0.055 C 
ATOM     72  C   UNL     1      -8.519  -1.240  12.883  1.00  0.00    -0.018 C 
ATOM     73  C   UNL     1      -8.593  -1.943  10.456  1.00  0.00     0.044 C 
BRANCH  72  74
ATOM     74  C   UNL     1     -10.010  -1.159  13.177  1.00  0.00     0.038 C 
ATOM     75  C   UNL     1     -10.457   0.273  12.859  1.00  0.00     0.015 C 
BRANCH  74  76
ATOM     76  C   UNL     1     -10.257  -1.609  14.647  1.00  0.00     0.128 C 
BRANCH  76  77
ATOM     77  O   UNL     1     -11.167  -2.721  14.674  1.00  0.00    -0.381 OA
ATOM     78  C   UNL     1     -10.851  -3.695  15.659  1.00  0.00     0.195 C 
ENDBRANCH  76  77
BRANCH  76  79
ATOM     79  C   UNL     1      -8.958  -1.878  15.449  1.00  0.00     0.068 C 
BRANCH  79  80
ATOM     80  C   UNL     1      -8.526  -0.845  16.461  1.00  0.00    -0.045 A 
ATOM     81  C   UNL     1      -7.378  -1.035  17.241  1.00  0.00     0.004 A 
ATOM     82  C   UNL     1      -9.289   0.317  16.656  1.00  0.00     0.004 A 
ATOM     83  C   UNL     1      -6.992  -0.081  18.186  1.00  0.00     0.000 A 
ATOM     84  C   UNL     1      -8.902   1.270  17.601  1.00  0.00     0.000 A 
ATOM     85  C   UNL     1      -7.754   1.071  18.364  1.00  0.00     0.000 A 
ENDBRANCH  79  80
ENDBRANCH  76  79
ENDBRANCH  74  76
ENDBRANCH  72  74
ENDBRANCH  70  71
ENDBRANCH   1  69
TORSDOF 17
ENDMDL
MODEL 21
REMARK VINA RESULT:    -6.935      4.910     11.270
REMARK INTER + INTRA:         -29.434
REMARK INTER:                 -23.553
REMARK INTRA:                  -5.881
REMARK UNBOUND:                -8.713
REMARK SMILES C=C1C(=O)N[C@H](C)C(=O)N[C@@H](CC(C)C)C(=O)N[C@@H](C(=O)O)[C@H](C)C(=O)N[C@@H](CCCN=C(N)N)C(=O)N[C@@H](/C=C/C(C)=C/[C@H](C)[C@H](Cc2ccccc2)OC)[C@H](C)C(=O)N[C@@H](C(=O)O)CCC(=O)N1C
REMARK SMILES IDX 39 1 38 2 37 3 36 4 28 6 27 7 25 8 26 9 23 11 24 12 19 13
REMARK SMILES IDX 18 14 16 15 17 16 11 18 10 19 8 20 9 21 12 24 13 25 14 26
REMARK SMILES IDX 15 27 20 28 21 29 22 30 29 32 30 33 31 34 32 35 33 36 34 37
REMARK SMILES IDX 35 38 57 43 58 44 59 45 60 46 61 47 62 49 66 50 67 51 68 52
REMARK SMILES IDX 69 53 70 54 71 55 2 56 1 57 3 58 4 59 5 60 6 62 7 63 63 65
REMARK SMILES IDX 64 66 65 67 40 69 41 70 42 71 44 72 43 73 45 74 46 75 47 76
REMARK SMILES IDX 55 77 56 78 48 79 49 80 50 81 54 82 51 83 53 84 52 85
REMARK H PARENT 38 5 27 10 18 17 10 22 22 31 34 39 34 40 35 41 35 42 61 48
REMARK H PARENT 5 61 65 68
REMARK Flexibility Score:  369.900
ROOT
ATOM      1  C   UNL     1      -5.864  -4.002  13.428  1.00  0.00     0.117 C 
ENDROOT
BRANCH   1   2
ATOM      2  N   UNL     1      -6.139  -3.765  12.011  1.00  0.00    -0.347 N 
ATOM      3  O   UNL     1      -6.783  -5.897  11.456  1.00  0.00    -0.273 OA
ATOM      4  C   UNL     1      -6.666  -4.714  11.156  1.00  0.00     0.243 C 
ATOM      5  H   UNL     1      -5.988  -2.845  11.625  1.00  0.00     0.164 HD
BRANCH   4   6
ATOM      6  C   UNL     1      -6.942  -4.181   9.727  1.00  0.00     0.171 C 
BRANCH   6   7
ATOM      7  N   UNL     1      -6.518  -2.776   9.611  1.00  0.00    -0.344 N 
ATOM      8  C   UNL     1      -7.384  -1.818   9.131  1.00  0.00     0.226 C 
ATOM      9  O   UNL     1      -8.522  -2.082   8.762  1.00  0.00    -0.275 OA
ATOM     10  H   UNL     1      -5.563  -2.531   9.843  1.00  0.00     0.164 HD
BRANCH   8  11
ATOM     11  C   UNL     1      -6.816  -0.409   9.124  1.00  0.00     0.109 C 
ATOM     12  C   UNL     1      -5.323  -0.442   9.452  1.00  0.00     0.021 C 
BRANCH  11  13
ATOM     13  C   UNL     1      -7.173   0.290   7.797  1.00  0.00     0.204 C 
BRANCH  13  14
ATOM     14  N   UNL     1      -7.118  -0.630   6.657  1.00  0.00    -0.340 N 
ATOM     15  C   UNL     1      -6.032  -0.710   5.812  1.00  0.00     0.243 C 
ATOM     16  O   UNL     1      -5.005  -0.058   5.993  1.00  0.00    -0.273 OA
ATOM     17  H   UNL     1      -7.987  -1.084   6.364  1.00  0.00     0.164 HD
BRANCH  15  18
ATOM     18  C   UNL     1      -6.282  -1.594   4.565  1.00  0.00     0.171 C 
BRANCH  18  19
ATOM     19  N   UNL     1      -5.403  -1.090   3.513  1.00  0.00    -0.343 N 
ATOM     20  C   UNL     1      -5.894  -0.664   2.294  1.00  0.00     0.242 CG0
ATOM     21  O   UNL     1      -7.075  -0.813   1.989  1.00  0.00    -0.273 OA
ATOM     22  H   UNL     1      -4.402  -1.056   3.674  1.00  0.00     0.164 HD
ATOM     23  G   UNL     1      -4.825  -0.094   1.340  1.00  0.00     0.000 G0
ENDBRANCH  18  19
BRANCH  18  24
ATOM     24  C   UNL     1      -5.997  -3.067   4.880  1.00  0.00     0.038 C 
BRANCH  24  25
ATOM     25  C   UNL     1      -5.097  -3.783   3.850  1.00  0.00    -0.015 C 
ATOM     26  C   UNL     1      -5.899  -4.632   2.863  1.00  0.00     0.007 C 
ATOM     27  C   UNL     1      -4.080  -4.664   4.580  1.00  0.00     0.007 C 
ENDBRANCH  24  25
ENDBRANCH  18  24
ENDBRANCH  15  18
ENDBRANCH  13  14
BRANCH  13  28
ATOM     28  C   UNL     1      -8.569   0.922   7.804  1.00  0.00     0.327 C 
ATOM     29  O   UNL     1      -9.186   1.299   8.788  1.00  0.00    -0.250 OA
BRANCH  28  30
ATOM     30  O   UNL     1      -9.151   0.930   6.588  1.00  0.00    -0.480 OA
ATOM     31  H   UNL     1      -8.971   0.037   6.228  1.00  0.00     0.296 HD
ENDBRANCH  28  30
ENDBRANCH  13  28
ENDBRANCH  11  13
ENDBRANCH   8  11
ENDBRANCH   6   7
BRANCH   6  32
ATOM     32  C   UNL     1      -6.206  -5.060   8.711  1.00  0.00     0.037 C 
BRANCH  32  33
ATOM     33  C   UNL     1      -7.175  -5.823   7.796  1.00  0.00     0.026 C 
BRANCH  33  34
ATOM     34  C   UNL     1      -6.528  -7.051   7.153  1.00  0.00     0.146 C 
BRANCH  34  35
ATOM     35  N   UNL     1      -7.166  -7.298   5.867  1.00  0.00    -0.254 NA
ATOM     36  C   UNL     1      -6.443  -7.698   4.889  1.00  0.00     0.185 C 
ATOM     37  N   UNL     1      -7.021  -7.934   3.701  1.00  0.00    -0.370 N 
ATOM     38  N   UNL     1      -5.119  -7.934   4.858  1.00  0.00    -0.370 N 
ATOM     39  H   UNL     1      -8.021  -7.789   3.646  1.00  0.00     0.159 HD
ATOM     40  H   UNL     1      -6.562  -8.410   2.944  1.00  0.00     0.159 HD
ATOM     41  H   UNL     1      -4.642  -8.112   3.990  1.00  0.00     0.159 HD
ATOM     42  H   UNL     1      -4.552  -7.783   5.678  1.00  0.00     0.159 HD
ENDBRANCH  34  35
ENDBRANCH  33  34
ENDBRANCH  32  33
ENDBRANCH   6  32
ENDBRANCH   4   6
ENDBRANCH   1   2
BRANCH   1  43
ATOM     43  C   UNL     1      -6.976  -3.314  14.271  1.00  0.00     0.102 C 
ATOM     44  C   UNL     1      -7.770  -2.254  13.487  1.00  0.00     0.020 C 
BRANCH  43  45
ATOM     45  C   UNL     1      -6.423  -2.812  15.608  1.00  0.00     0.225 C 
ATOM     46  O   UNL     1      -6.163  -3.557  16.548  1.00  0.00    -0.275 OA
ATOM     47  N   UNL     1      -6.319  -1.445  15.730  1.00  0.00    -0.342 N 
ATOM     48  H   UNL     1      -6.389  -0.862  14.908  1.00  0.00     0.164 HD
BRANCH  47  49
ATOM     49  C   UNL     1      -5.771  -0.824  16.940  1.00  0.00     0.192 C 
BRANCH  49  50
ATOM     50  C   UNL     1      -6.751   0.229  17.465  1.00  0.00     0.047 C 
BRANCH  50  51
ATOM     51  C   UNL     1      -6.141   1.085  18.584  1.00  0.00     0.103 C 
BRANCH  51  52
ATOM     52  C   UNL     1      -7.047   2.251  18.973  1.00  0.00     0.226 C 
ATOM     53  O   UNL     1      -8.146   2.026  19.483  1.00  0.00    -0.275 OA
BRANCH  52  54
ATOM     54  N   UNL     1      -6.520   3.543  18.787  1.00  0.00    -0.311 N 
ATOM     55  C   UNL     1      -6.356   4.106  17.440  1.00  0.00     0.153 C 
BRANCH  54  56
ATOM     56  C   UNL     1      -6.139   4.342  19.877  1.00  0.00     0.102 C 
ATOM     57  C   UNL     1      -6.959   5.166  20.550  1.00  0.00     0.043 C 
BRANCH  56  58
ATOM     58  C   UNL     1      -4.730   4.293  20.419  1.00  0.00     0.268 C 
ATOM     59  O   UNL     1      -4.123   3.249  20.612  1.00  0.00    -0.268 OA
ATOM     60  N   UNL     1      -4.180   5.539  20.608  1.00  0.00    -0.339 N 
ATOM     61  H   UNL     1      -4.753   6.356  20.435  1.00  0.00     0.164 HD
BRANCH  60  62
ATOM     62  C   UNL     1      -2.804   5.721  21.067  1.00  0.00     0.168 CG0
ATOM     63  C   UNL     1      -1.818   5.566  19.915  1.00  0.00     0.041 C 
ATOM     64  G   UNL     1      -2.494   4.709  22.190  1.00  0.00     0.000 G0
ENDBRANCH  60  62
ENDBRANCH  56  58
ENDBRANCH  54  56
ENDBRANCH  52  54
ENDBRANCH  51  52
ENDBRANCH  50  51
ENDBRANCH  49  50
BRANCH  49  65
ATOM     65  C   UNL     1      -4.410  -0.164  16.672  1.00  0.00     0.326 C 
ATOM     66  O   UNL     1      -4.192   0.703  15.838  1.00  0.00    -0.250 OA
BRANCH  65  67
ATOM     67  O   UNL     1      -3.390  -0.657  17.408  1.00  0.00    -0.480 OA
ATOM     68  H   UNL     1      -3.839  -1.196  18.095  1.00  0.00     0.296 HD
ENDBRANCH  65  67
ENDBRANCH  49  65
ENDBRANCH  47  49
ENDBRANCH  43  45
ENDBRANCH   1  43
BRANCH   1  69
ATOM     69  C   UNL     1      -4.418  -3.599  13.653  1.00  0.00    -0.001 C 
ATOM     70  C   UNL     1      -3.500  -3.295  12.719  1.00  0.00     0.001 C 
BRANCH  70  71
ATOM     71  C   UNL     1      -2.113  -2.886  12.949  1.00  0.00    -0.055 C 
ATOM     72  C   UNL     1      -1.230  -3.070  11.945  1.00  0.00    -0.018 C 
ATOM     73  C   UNL     1      -1.771  -2.281  14.286  1.00  0.00     0.044 C 
BRANCH  72  74
ATOM     74  C   UNL     1       0.256  -2.743  11.897  1.00  0.00     0.038 C 
ATOM     75  C   UNL     1       0.382  -1.274  11.474  1.00  0.00     0.015 C 
BRANCH  74  76
ATOM     76  C   UNL     1       0.963  -3.758  10.951  1.00  0.00     0.128 C 
BRANCH  76  77
ATOM     77  O   UNL     1       2.250  -4.112  11.485  1.00  0.00    -0.381 OA
ATOM     78  C   UNL     1       3.332  -3.432  10.863  1.00  0.00     0.195 C 
ENDBRANCH  76  77
BRANCH  76  79
ATOM     79  C   UNL     1       0.099  -4.995  10.598  1.00  0.00     0.068 C 
BRANCH  79  80
ATOM     80  C   UNL     1      -0.312  -5.182   9.158  1.00  0.00    -0.045 A 
ATOM     81  C   UNL     1      -1.646  -5.443   8.816  1.00  0.00     0.004 A 
ATOM     82  C   UNL     1       0.647  -5.126   8.135  1.00  0.00     0.004 A 
ATOM     83  C   UNL     1      -2.016  -5.629   7.482  1.00  0.00     0.000 A 
ATOM     84  C   UNL     1       0.276  -5.313   6.802  1.00  0.00     0.000 A 
ATOM     85  C   UNL     1      -1.055  -5.562   6.476  1.00  0.00     0.000 A 
ENDBRANCH  79  80
ENDBRANCH  76  79
ENDBRANCH  74  76
ENDBRANCH  72  74
ENDBRANCH  70  71
ENDBRANCH   1  69
TORSDOF 17
ENDMDL
MODEL 22
REMARK VINA RESULT:    -6.924      4.077     10.242
REMARK INTER + INTRA:         -29.399
REMARK INTER:                 -21.739
REMARK INTRA:                  -7.659
REMARK UNBOUND:                -8.713
REMARK SMILES C=C1C(=O)N[C@H](C)C(=O)N[C@@H](CC(C)C)C(=O)N[C@@H](C(=O)O)[C@H](C)C(=O)N[C@@H](CCCN=C(N)N)C(=O)N[C@@H](/C=C/C(C)=C/[C@H](C)[C@H](Cc2ccccc2)OC)[C@H](C)C(=O)N[C@@H](C(=O)O)CCC(=O)N1C
REMARK SMILES IDX 39 1 38 2 37 3 36 4 28 6 27 7 25 8 26 9 23 11 24 12 19 13
REMARK SMILES IDX 18 14 16 15 17 16 11 18 10 19 8 20 9 21 12 24 13 25 14 26
REMARK SMILES IDX 15 27 20 28 21 29 22 30 29 32 30 33 31 34 32 35 33 36 34 37
REMARK SMILES IDX 35 38 57 43 58 44 59 45 60 46 61 47 62 49 66 50 67 51 68 52
REMARK SMILES IDX 69 53 70 54 71 55 2 56 1 57 3 58 4 59 5 60 6 62 7 63 63 65
REMARK SMILES IDX 64 66 65 67 40 69 41 70 42 71 44 72 43 73 45 74 46 75 47 76
REMARK SMILES IDX 55 77 56 78 48 79 49 80 50 81 54 82 51 83 53 84 52 85
REMARK H PARENT 38 5 27 10 18 17 10 22 22 31 34 39 34 40 35 41 35 42 61 48
REMARK H PARENT 5 61 65 68
REMARK Flexibility Score:  369.900
ROOT
ATOM      1  C   UNL     1      -4.614  -3.432  14.267  1.00  0.00     0.117 C 
ENDROOT
BRANCH   1   2
ATOM      2  N   UNL     1      -5.850  -3.872  13.620  1.00  0.00    -0.347 N 
ATOM      3  O   UNL     1      -7.176  -3.943  15.492  1.00  0.00    -0.273 OA
ATOM      4  C   UNL     1      -7.061  -4.004  14.273  1.00  0.00     0.243 C 
ATOM      5  H   UNL     1      -5.853  -4.047  12.626  1.00  0.00     0.164 HD
BRANCH   4   6
ATOM      6  C   UNL     1      -8.232  -4.401  13.339  1.00  0.00     0.171 C 
BRANCH   6   7
ATOM      7  N   UNL     1      -8.310  -5.864  13.204  1.00  0.00    -0.344 N 
ATOM      8  C   UNL     1      -8.320  -6.455  11.959  1.00  0.00     0.226 C 
ATOM      9  O   UNL     1      -8.289  -5.807  10.920  1.00  0.00    -0.275 OA
ATOM     10  H   UNL     1      -8.404  -6.430  14.038  1.00  0.00     0.164 HD
BRANCH   8  11
ATOM     11  C   UNL     1      -8.347  -7.974  11.988  1.00  0.00     0.109 C 
ATOM     12  C   UNL     1      -9.442  -8.498  11.059  1.00  0.00     0.021 C 
BRANCH  11  13
ATOM     13  C   UNL     1      -6.936  -8.526  11.704  1.00  0.00     0.204 C 
BRANCH  13  14
ATOM     14  N   UNL     1      -6.227  -7.734  10.694  1.00  0.00    -0.340 N 
ATOM     15  C   UNL     1      -6.120  -8.123   9.376  1.00  0.00     0.243 C 
ATOM     16  O   UNL     1      -6.666  -9.135   8.941  1.00  0.00    -0.273 OA
ATOM     17  H   UNL     1      -5.628  -6.969  11.017  1.00  0.00     0.164 HD
BRANCH  15  18
ATOM     18  C   UNL     1      -5.155  -7.241   8.547  1.00  0.00     0.171 C 
BRANCH  18  19
ATOM     19  N   UNL     1      -5.555  -7.384   7.148  1.00  0.00    -0.343 N 
ATOM     20  C   UNL     1      -6.671  -6.746   6.640  1.00  0.00     0.242 CG0
ATOM     21  O   UNL     1      -7.451  -6.138   7.369  1.00  0.00    -0.273 OA
ATOM     22  H   UNL     1      -5.006  -7.971   6.531  1.00  0.00     0.164 HD
ATOM     23  G   UNL     1      -6.888  -6.952   5.127  1.00  0.00     0.000 G0
ENDBRANCH  18  19
BRANCH  18  24
ATOM     24  C   UNL     1      -5.228  -5.780   9.006  1.00  0.00     0.038 C 
BRANCH  24  25
ATOM     25  C   UNL     1      -3.992  -5.288   9.788  1.00  0.00    -0.015 C 
ATOM     26  C   UNL     1      -4.019  -3.779  10.037  1.00  0.00     0.007 C 
ATOM     27  C   UNL     1      -2.718  -5.661   9.025  1.00  0.00     0.007 C 
ENDBRANCH  24  25
ENDBRANCH  18  24
ENDBRANCH  15  18
ENDBRANCH  13  14
BRANCH  13  28
ATOM     28  C   UNL     1      -6.045  -8.577  12.949  1.00  0.00     0.327 C 
ATOM     29  O   UNL     1      -5.693  -7.622  13.625  1.00  0.00    -0.250 OA
BRANCH  28  30
ATOM     30  O   UNL     1      -5.556  -9.808  13.198  1.00  0.00    -0.480 OA
ATOM     31  H   UNL     1      -5.299 -10.149  12.316  1.00  0.00     0.296 HD
ENDBRANCH  28  30
ENDBRANCH  13  28
ENDBRANCH  11  13
ENDBRANCH   8  11
ENDBRANCH   6   7
BRANCH   6  32
ATOM     32  C   UNL     1      -9.540  -3.834  13.903  1.00  0.00     0.037 C 
BRANCH  32  33
ATOM     33  C   UNL     1      -9.836  -2.424  13.373  1.00  0.00     0.026 C 
BRANCH  33  34
ATOM     34  C   UNL     1      -9.652  -2.317  11.859  1.00  0.00     0.146 C 
BRANCH  34  35
ATOM     35  N   UNL     1      -9.050  -1.028  11.548  1.00  0.00    -0.254 NA
ATOM     36  C   UNL     1      -9.808  -0.078  11.142  1.00  0.00     0.185 C 
ATOM     37  N   UNL     1      -9.265   1.116  10.858  1.00  0.00    -0.370 N 
ATOM     38  N   UNL     1     -11.138  -0.085  10.943  1.00  0.00    -0.370 N 
ATOM     39  H   UNL     1      -8.266   1.204  10.992  1.00  0.00     0.159 HD
ATOM     40  H   UNL     1      -9.805   1.950  10.704  1.00  0.00     0.159 HD
ATOM     41  H   UNL     1     -11.600   0.685  10.487  1.00  0.00     0.159 HD
ATOM     42  H   UNL     1     -11.676  -0.923  11.102  1.00  0.00     0.159 HD
ENDBRANCH  34  35
ENDBRANCH  33  34
ENDBRANCH  32  33
ENDBRANCH   6  32
ENDBRANCH   4   6
ENDBRANCH   1   2
BRANCH   1  43
ATOM     43  C   UNL     1      -4.638  -1.880  14.379  1.00  0.00     0.102 C 
ATOM     44  C   UNL     1      -4.026  -1.169  13.160  1.00  0.00     0.020 C 
BRANCH  43  45
ATOM     45  C   UNL     1      -4.065  -1.416  15.722  1.00  0.00     0.225 C 
ATOM     46  O   UNL     1      -4.507  -1.790  16.804  1.00  0.00    -0.275 OA
ATOM     47  N   UNL     1      -3.071  -0.469  15.646  1.00  0.00    -0.342 N 
ATOM     48  H   UNL     1      -2.619  -0.287  14.760  1.00  0.00     0.164 HD
BRANCH  47  49
ATOM     49  C   UNL     1      -2.405   0.041  16.848  1.00  0.00     0.192 C 
BRANCH  49  50
ATOM     50  C   UNL     1      -2.694   1.537  17.001  1.00  0.00     0.047 C 
BRANCH  50  51
ATOM     51  C   UNL     1      -3.980   1.958  16.277  1.00  0.00     0.103 C 
BRANCH  51  52
ATOM     52  C   UNL     1      -5.164   2.080  17.235  1.00  0.00     0.226 C 
ATOM     53  O   UNL     1      -5.771   1.067  17.587  1.00  0.00    -0.275 OA
BRANCH  52  54
ATOM     54  N   UNL     1      -5.444   3.370  17.724  1.00  0.00    -0.311 N 
ATOM     55  C   UNL     1      -5.887   4.441  16.821  1.00  0.00     0.153 C 
BRANCH  54  56
ATOM     56  C   UNL     1      -5.317   3.679  19.088  1.00  0.00     0.102 C 
ATOM     57  C   UNL     1      -4.204   3.497  19.817  1.00  0.00     0.043 C 
BRANCH  56  58
ATOM     58  C   UNL     1      -6.461   4.307  19.850  1.00  0.00     0.268 C 
ATOM     59  O   UNL     1      -7.591   3.839  19.866  1.00  0.00    -0.268 OA
ATOM     60  N   UNL     1      -6.085   5.415  20.572  1.00  0.00    -0.339 N 
ATOM     61  H   UNL     1      -5.130   5.745  20.496  1.00  0.00     0.164 HD
BRANCH  60  62
ATOM     62  C   UNL     1      -7.021   6.139  21.430  1.00  0.00     0.168 CG0
ATOM     63  C   UNL     1      -6.417   7.452  21.912  1.00  0.00     0.041 C 
ATOM     64  G   UNL     1      -7.421   5.251  22.626  1.00  0.00     0.000 G0
ENDBRANCH  60  62
ENDBRANCH  56  58
ENDBRANCH  54  56
ENDBRANCH  52  54
ENDBRANCH  51  52
ENDBRANCH  50  51
ENDBRANCH  49  50
BRANCH  49  65
ATOM     65  C   UNL     1      -0.885  -0.180  16.791  1.00  0.00     0.326 C 
ATOM     66  O   UNL     1      -0.036   0.696  16.872  1.00  0.00    -0.250 OA
BRANCH  65  67
ATOM     67  O   UNL     1      -0.509  -1.460  16.577  1.00  0.00    -0.480 OA
ATOM     68  H   UNL     1       0.451  -1.390  16.387  1.00  0.00     0.296 HD
ENDBRANCH  65  67
ENDBRANCH  49  65
ENDBRANCH  47  49
ENDBRANCH  43  45
ENDBRANCH   1  43
BRANCH   1  69
ATOM     69  C   UNL     1      -3.479  -4.095  13.508  1.00  0.00    -0.001 C 
ATOM     70  C   UNL     1      -3.160  -5.401  13.493  1.00  0.00     0.001 C 
BRANCH  70  71
ATOM     71  C   UNL     1      -2.075  -6.033  12.739  1.00  0.00    -0.055 C 
ATOM     72  C   UNL     1      -0.957  -5.308  12.522  1.00  0.00    -0.018 C 
ATOM     73  C   UNL     1      -2.279  -7.448  12.266  1.00  0.00     0.044 C 
BRANCH  72  74
ATOM     74  C   UNL     1       0.316  -5.698  11.784  1.00  0.00     0.038 C 
ATOM     75  C   UNL     1       1.154  -6.549  12.746  1.00  0.00     0.015 C 
BRANCH  74  76
ATOM     76  C   UNL     1       1.017  -4.404  11.276  1.00  0.00     0.128 C 
BRANCH  76  77
ATOM     77  O   UNL     1       2.437  -4.504  11.478  1.00  0.00    -0.381 OA
ATOM     78  C   UNL     1       3.172  -3.431  10.904  1.00  0.00     0.195 C 
ENDBRANCH  76  77
BRANCH  76  79
ATOM     79  C   UNL     1       0.644  -4.015   9.823  1.00  0.00     0.068 C 
BRANCH  79  80
ATOM     80  C   UNL     1      -0.286  -2.843   9.621  1.00  0.00    -0.045 A 
ATOM     81  C   UNL     1      -0.540  -1.937  10.659  1.00  0.00     0.004 A 
ATOM     82  C   UNL     1      -0.935  -2.658   8.391  1.00  0.00     0.004 A 
ATOM     83  C   UNL     1      -1.413  -0.863  10.469  1.00  0.00     0.000 A 
ATOM     84  C   UNL     1      -1.807  -1.585   8.202  1.00  0.00     0.000 A 
ATOM     85  C   UNL     1      -2.045  -0.686   9.240  1.00  0.00     0.000 A 
ENDBRANCH  79  80
ENDBRANCH  76  79
ENDBRANCH  74  76
ENDBRANCH  72  74
ENDBRANCH  70  71
ENDBRANCH   1  69
TORSDOF 17
ENDMDL
MODEL 23
REMARK VINA RESULT:    -6.921      4.239     10.516
REMARK INTER + INTRA:         -29.390
REMARK INTER:                 -22.051
REMARK INTRA:                  -7.339
REMARK UNBOUND:                -8.713
REMARK SMILES C=C1C(=O)N[C@H](C)C(=O)N[C@@H](CC(C)C)C(=O)N[C@@H](C(=O)O)[C@H](C)C(=O)N[C@@H](CCCN=C(N)N)C(=O)N[C@@H](/C=C/C(C)=C/[C@H](C)[C@H](Cc2ccccc2)OC)[C@H](C)C(=O)N[C@@H](C(=O)O)CCC(=O)N1C
REMARK SMILES IDX 39 1 38 2 37 3 36 4 28 6 27 7 25 8 26 9 23 11 24 12 19 13
REMARK SMILES IDX 18 14 16 15 17 16 11 18 10 19 8 20 9 21 12 24 13 25 14 26
REMARK SMILES IDX 15 27 20 28 21 29 22 30 29 32 30 33 31 34 32 35 33 36 34 37
REMARK SMILES IDX 35 38 57 43 58 44 59 45 60 46 61 47 62 49 66 50 67 51 68 52
REMARK SMILES IDX 69 53 70 54 71 55 2 56 1 57 3 58 4 59 5 60 6 62 7 63 63 65
REMARK SMILES IDX 64 66 65 67 40 69 41 70 42 71 44 72 43 73 45 74 46 75 47 76
REMARK SMILES IDX 55 77 56 78 48 79 49 80 50 81 54 82 51 83 53 84 52 85
REMARK H PARENT 38 5 27 10 18 17 10 22 22 31 34 39 34 40 35 41 35 42 61 48
REMARK H PARENT 5 61 65 68
REMARK Flexibility Score:  369.900
ROOT
ATOM      1  C   UNL     1      -3.761  -3.468  14.294  1.00  0.00     0.117 C 
ENDROOT
BRANCH   1   2
ATOM      2  N   UNL     1      -5.013  -3.952  13.710  1.00  0.00    -0.347 N 
ATOM      3  O   UNL     1      -5.377  -5.699  15.154  1.00  0.00    -0.273 OA
ATOM      4  C   UNL     1      -5.770  -4.976  14.245  1.00  0.00     0.243 C 
ATOM      5  H   UNL     1      -5.389  -3.492  12.895  1.00  0.00     0.164 HD
BRANCH   4   6
ATOM      6  C   UNL     1      -7.095  -5.235  13.483  1.00  0.00     0.171 C 
BRANCH   6   7
ATOM      7  N   UNL     1      -7.106  -6.594  12.919  1.00  0.00    -0.344 N 
ATOM      8  C   UNL     1      -7.608  -6.827  11.656  1.00  0.00     0.226 C 
ATOM      9  O   UNL     1      -8.082  -5.937  10.960  1.00  0.00    -0.275 OA
ATOM     10  H   UNL     1      -6.785  -7.366  13.490  1.00  0.00     0.164 HD
BRANCH   8  11
ATOM     11  C   UNL     1      -7.499  -8.270  11.196  1.00  0.00     0.109 C 
ATOM     12  C   UNL     1      -8.863  -8.776  10.724  1.00  0.00     0.021 C 
BRANCH  11  13
ATOM     13  C   UNL     1      -6.365  -8.403  10.161  1.00  0.00     0.204 C 
BRANCH  13  14
ATOM     14  N   UNL     1      -6.430  -7.360   9.133  1.00  0.00    -0.340 N 
ATOM     15  C   UNL     1      -6.878  -7.598   7.852  1.00  0.00     0.243 C 
ATOM     16  O   UNL     1      -7.313  -8.692   7.497  1.00  0.00    -0.273 OA
ATOM     17  H   UNL     1      -5.947  -6.476   9.315  1.00  0.00     0.164 HD
BRANCH  15  18
ATOM     18  C   UNL     1      -6.662  -6.404   6.889  1.00  0.00     0.171 C 
BRANCH  18  19
ATOM     19  N   UNL     1      -7.498  -6.655   5.717  1.00  0.00    -0.343 N 
ATOM     20  C   UNL     1      -7.019  -6.495   4.432  1.00  0.00     0.242 CG0
ATOM     21  O   UNL     1      -5.912  -6.008   4.214  1.00  0.00    -0.273 OA
ATOM     22  H   UNL     1      -8.460  -6.949   5.846  1.00  0.00     0.164 HD
ATOM     23  G   UNL     1      -8.022  -6.882   3.325  1.00  0.00     0.000 G0
ENDBRANCH  18  19
BRANCH  18  24
ATOM     24  C   UNL     1      -7.033  -5.083   7.573  1.00  0.00     0.038 C 
BRANCH  24  25
ATOM     25  C   UNL     1      -6.357  -3.833   6.970  1.00  0.00    -0.015 C 
ATOM     26  C   UNL     1      -5.132  -3.388   7.769  1.00  0.00     0.007 C 
ATOM     27  C   UNL     1      -7.368  -2.686   6.896  1.00  0.00     0.007 C 
ENDBRANCH  24  25
ENDBRANCH  18  24
ENDBRANCH  15  18
ENDBRANCH  13  14
BRANCH  13  28
ATOM     28  C   UNL     1      -4.967  -8.339  10.785  1.00  0.00     0.327 C 
ATOM     29  O   UNL     1      -4.630  -7.646  11.732  1.00  0.00    -0.250 OA
BRANCH  28  30
ATOM     30  O   UNL     1      -4.052  -9.060  10.106  1.00  0.00    -0.480 OA
ATOM     31  H   UNL     1      -3.206  -8.593  10.273  1.00  0.00     0.296 HD
ENDBRANCH  28  30
ENDBRANCH  13  28
ENDBRANCH  11  13
ENDBRANCH   8  11
ENDBRANCH   6   7
BRANCH   6  32
ATOM     32  C   UNL     1      -8.275  -5.030  14.440  1.00  0.00     0.037 C 
BRANCH  32  33
ATOM     33  C   UNL     1      -8.737  -3.567  14.483  1.00  0.00     0.026 C 
BRANCH  33  34
ATOM     34  C   UNL     1      -9.685  -3.287  15.650  1.00  0.00     0.146 C 
BRANCH  34  35
ATOM     35  N   UNL     1     -10.896  -2.665  15.133  1.00  0.00    -0.254 NA
ATOM     36  C   UNL     1     -11.015  -1.392  15.211  1.00  0.00     0.185 C 
ATOM     37  N   UNL     1     -12.124  -0.808  14.733  1.00  0.00    -0.370 N 
ATOM     38  N   UNL     1     -10.155  -0.494  15.724  1.00  0.00    -0.370 N 
ATOM     39  H   UNL     1     -12.817  -1.419  14.320  1.00  0.00     0.159 HD
ATOM     40  H   UNL     1     -12.217   0.184  14.599  1.00  0.00     0.159 HD
ATOM     41  H   UNL     1     -10.423   0.468  15.854  1.00  0.00     0.159 HD
ATOM     42  H   UNL     1      -9.284  -0.793  16.134  1.00  0.00     0.159 HD
ENDBRANCH  34  35
ENDBRANCH  33  34
ENDBRANCH  32  33
ENDBRANCH   6  32
ENDBRANCH   4   6
ENDBRANCH   1   2
BRANCH   1  43
ATOM     43  C   UNL     1      -3.881  -1.933  14.520  1.00  0.00     0.102 C 
ATOM     44  C   UNL     1      -2.632  -1.311  15.167  1.00  0.00     0.020 C 
BRANCH  43  45
ATOM     45  C   UNL     1      -5.191  -1.583  15.233  1.00  0.00     0.225 C 
ATOM     46  O   UNL     1      -6.207  -1.236  14.637  1.00  0.00    -0.275 OA
ATOM     47  N   UNL     1      -5.136  -1.589  16.608  1.00  0.00    -0.342 N 
ATOM     48  H   UNL     1      -4.351  -2.019  17.075  1.00  0.00     0.164 HD
BRANCH  47  49
ATOM     49  C   UNL     1      -6.322  -1.309  17.423  1.00  0.00     0.192 C 
BRANCH  49  50
ATOM     50  C   UNL     1      -6.113  -0.011  18.206  1.00  0.00     0.047 C 
BRANCH  50  51
ATOM     51  C   UNL     1      -6.844   1.179  17.568  1.00  0.00     0.103 C 
BRANCH  51  52
ATOM     52  C   UNL     1      -7.262   2.218  18.606  1.00  0.00     0.226 C 
ATOM     53  O   UNL     1      -8.073   1.913  19.482  1.00  0.00    -0.275 OA
BRANCH  52  54
ATOM     54  N   UNL     1      -6.621   3.469  18.534  1.00  0.00    -0.311 N 
ATOM     55  C   UNL     1      -6.351   4.107  17.240  1.00  0.00     0.153 C 
BRANCH  54  56
ATOM     56  C   UNL     1      -6.221   4.154  19.694  1.00  0.00     0.102 C 
ATOM     57  C   UNL     1      -7.016   4.946  20.431  1.00  0.00     0.043 C 
BRANCH  56  58
ATOM     58  C   UNL     1      -4.820   4.003  20.239  1.00  0.00     0.268 C 
ATOM     59  O   UNL     1      -4.213   2.940  20.239  1.00  0.00    -0.268 OA
ATOM     60  N   UNL     1      -4.278   5.189  20.672  1.00  0.00    -0.339 N 
ATOM     61  H   UNL     1      -4.851   6.024  20.648  1.00  0.00     0.164 HD
BRANCH  60  62
ATOM     62  C   UNL     1      -2.910   5.281  21.180  1.00  0.00     0.168 CG0
ATOM     63  C   UNL     1      -1.906   5.357  20.036  1.00  0.00     0.041 C 
ATOM     64  G   UNL     1      -2.613   4.070  22.087  1.00  0.00     0.000 G0
ENDBRANCH  60  62
ENDBRANCH  56  58
ENDBRANCH  54  56
ENDBRANCH  52  54
ENDBRANCH  51  52
ENDBRANCH  50  51
ENDBRANCH  49  50
BRANCH  49  65
ATOM     65  C   UNL     1      -6.619  -2.453  18.404  1.00  0.00     0.326 C 
ATOM     66  O   UNL     1      -7.379  -3.388  18.197  1.00  0.00    -0.250 OA
BRANCH  65  67
ATOM     67  O   UNL     1      -6.006  -2.341  19.603  1.00  0.00    -0.480 OA
ATOM     68  H   UNL     1      -5.383  -1.594  19.475  1.00  0.00     0.296 HD
ENDBRANCH  65  67
ENDBRANCH  49  65
ENDBRANCH  47  49
ENDBRANCH  43  45
ENDBRANCH   1  43
BRANCH   1  69
ATOM     69  C   UNL     1      -2.648  -3.994  13.406  1.00  0.00    -0.001 C 
ATOM     70  C   UNL     1      -2.385  -5.276  13.098  1.00  0.00     0.001 C 
BRANCH  70  71
ATOM     71  C   UNL     1      -1.321  -5.770  12.223  1.00  0.00    -0.055 C 
ATOM     72  C   UNL     1      -0.474  -4.864  11.692  1.00  0.00    -0.018 C 
ATOM     73  C   UNL     1      -1.241  -7.256  11.983  1.00  0.00     0.044 C 
BRANCH  72  74
ATOM     74  C   UNL     1       0.712  -5.082  10.762  1.00  0.00     0.038 C 
ATOM     75  C   UNL     1       1.983  -4.933  11.607  1.00  0.00     0.015 C 
BRANCH  74  76
ATOM     76  C   UNL     1       0.602  -4.089   9.568  1.00  0.00     0.128 C 
BRANCH  76  77
ATOM     77  O   UNL     1       1.368  -4.576   8.453  1.00  0.00    -0.381 OA
ATOM     78  C   UNL     1       2.534  -3.810   8.184  1.00  0.00     0.195 C 
ENDBRANCH  76  77
BRANCH  76  79
ATOM     79  C   UNL     1      -0.855  -3.728   9.182  1.00  0.00     0.068 C 
BRANCH  79  80
ATOM     80  C   UNL     1      -1.547  -4.586   8.151  1.00  0.00    -0.045 A 
ATOM     81  C   UNL     1      -1.458  -4.287   6.785  1.00  0.00     0.004 A 
ATOM     82  C   UNL     1      -2.318  -5.688   8.551  1.00  0.00     0.004 A 
ATOM     83  C   UNL     1      -2.113  -5.078   5.839  1.00  0.00     0.000 A 
ATOM     84  C   UNL     1      -2.973  -6.478   7.603  1.00  0.00     0.000 A 
ATOM     85  C   UNL     1      -2.870  -6.174   6.248  1.00  0.00     0.000 A 
ENDBRANCH  79  80
ENDBRANCH  76  79
ENDBRANCH  74  76
ENDBRANCH  72  74
ENDBRANCH  70  71
ENDBRANCH   1  69
TORSDOF 17
ENDMDL
MODEL 24
REMARK VINA RESULT:    -6.903      4.593     11.239
REMARK INTER + INTRA:         -29.336
REMARK INTER:                 -22.788
REMARK INTRA:                  -6.548
REMARK UNBOUND:                -8.713
REMARK SMILES C=C1C(=O)N[C@H](C)C(=O)N[C@@H](CC(C)C)C(=O)N[C@@H](C(=O)O)[C@H](C)C(=O)N[C@@H](CCCN=C(N)N)C(=O)N[C@@H](/C=C/C(C)=C/[C@H](C)[C@H](Cc2ccccc2)OC)[C@H](C)C(=O)N[C@@H](C(=O)O)CCC(=O)N1C
REMARK SMILES IDX 39 1 38 2 37 3 36 4 28 6 27 7 25 8 26 9 23 11 24 12 19 13
REMARK SMILES IDX 18 14 16 15 17 16 11 18 10 19 8 20 9 21 12 24 13 25 14 26
REMARK SMILES IDX 15 27 20 28 21 29 22 30 29 32 30 33 31 34 32 35 33 36 34 37
REMARK SMILES IDX 35 38 57 43 58 44 59 45 60 46 61 47 62 49 66 50 67 51 68 52
REMARK SMILES IDX 69 53 70 54 71 55 2 56 1 57 3 58 4 59 5 60 6 62 7 63 63 65
REMARK SMILES IDX 64 66 65 67 40 69 41 70 42 71 44 72 43 73 45 74 46 75 47 76
REMARK SMILES IDX 55 77 56 78 48 79 49 80 50 81 54 82 51 83 53 84 52 85
REMARK H PARENT 38 5 27 10 18 17 10 22 22 31 34 39 34 40 35 41 35 42 61 48
REMARK H PARENT 5 61 65 68
REMARK Flexibility Score:  369.900
ROOT
ATOM      1  C   UNL     1      -4.971  -3.058  12.246  1.00  0.00     0.117 C 
ENDROOT
BRANCH   1   2
ATOM      2  N   UNL     1      -6.071  -3.061  11.282  1.00  0.00    -0.347 N 
ATOM      3  O   UNL     1      -7.742  -3.713  12.716  1.00  0.00    -0.273 OA
ATOM      4  C   UNL     1      -7.390  -3.300  11.615  1.00  0.00     0.243 C 
ATOM      5  H   UNL     1      -5.885  -2.828  10.319  1.00  0.00     0.164 HD
BRANCH   4   6
ATOM      6  C   UNL     1      -8.370  -3.159  10.422  1.00  0.00     0.171 C 
BRANCH   6   7
ATOM      7  N   UNL     1      -7.641  -2.788   9.199  1.00  0.00    -0.344 N 
ATOM      8  C   UNL     1      -8.211  -1.946   8.269  1.00  0.00     0.226 C 
ATOM      9  O   UNL     1      -9.341  -1.489   8.397  1.00  0.00    -0.275 OA
ATOM     10  H   UNL     1      -6.732  -3.199   9.026  1.00  0.00     0.164 HD
BRANCH   8  11
ATOM     11  C   UNL     1      -7.313  -1.615   7.091  1.00  0.00     0.109 C 
ATOM     12  C   UNL     1      -7.256  -0.102   6.881  1.00  0.00     0.021 C 
BRANCH  11  13
ATOM     13  C   UNL     1      -5.942  -2.296   7.273  1.00  0.00     0.204 C 
BRANCH  13  14
ATOM     14  N   UNL     1      -5.605  -3.169   6.144  1.00  0.00    -0.340 N 
ATOM     15  C   UNL     1      -6.373  -4.255   5.782  1.00  0.00     0.243 C 
ATOM     16  O   UNL     1      -7.430  -4.533   6.345  1.00  0.00    -0.273 OA
ATOM     17  H   UNL     1      -4.670  -3.086   5.734  1.00  0.00     0.164 HD
BRANCH  15  18
ATOM     18  C   UNL     1      -5.714  -5.145   4.700  1.00  0.00     0.171 C 
BRANCH  18  19
ATOM     19  N   UNL     1      -4.806  -4.284   3.945  1.00  0.00    -0.343 N 
ATOM     20  C   UNL     1      -5.015  -3.998   2.609  1.00  0.00     0.242 CG0
ATOM     21  O   UNL     1      -5.895  -4.559   1.961  1.00  0.00    -0.273 OA
ATOM     22  H   UNL     1      -3.997  -3.887   4.408  1.00  0.00     0.164 HD
ATOM     23  G   UNL     1      -3.998  -3.009   2.003  1.00  0.00     0.000 G0
ENDBRANCH  18  19
BRANCH  18  24
ATOM     24  C   UNL     1      -4.968  -6.320   5.345  1.00  0.00     0.038 C 
BRANCH  24  25
ATOM     25  C   UNL     1      -5.549  -6.788   6.696  1.00  0.00    -0.015 C 
ATOM     26  C   UNL     1      -4.463  -7.214   7.684  1.00  0.00     0.007 C 
ATOM     27  C   UNL     1      -6.519  -7.949   6.465  1.00  0.00     0.007 C 
ENDBRANCH  24  25
ENDBRANCH  18  24
ENDBRANCH  15  18
ENDBRANCH  13  14
BRANCH  13  28
ATOM     28  C   UNL     1      -4.789  -1.300   7.436  1.00  0.00     0.327 C 
ATOM     29  O   UNL     1      -4.023  -0.932   6.559  1.00  0.00    -0.250 OA
BRANCH  28  30
ATOM     30  O   UNL     1      -4.597  -0.919   8.715  1.00  0.00    -0.480 OA
ATOM     31  H   UNL     1      -4.074  -0.094   8.645  1.00  0.00     0.296 HD
ENDBRANCH  28  30
ENDBRANCH  13  28
ENDBRANCH  11  13
ENDBRANCH   8  11
ENDBRANCH   6   7
BRANCH   6  32
ATOM     32  C   UNL     1      -9.124  -4.480  10.231  1.00  0.00     0.037 C 
BRANCH  32  33
ATOM     33  C   UNL     1      -8.252  -5.553   9.563  1.00  0.00     0.026 C 
BRANCH  33  34
ATOM     34  C   UNL     1      -9.041  -6.816   9.216  1.00  0.00     0.146 C 
BRANCH  34  35
ATOM     35  N   UNL     1      -8.371  -7.965   9.808  1.00  0.00    -0.254 NA
ATOM     36  C   UNL     1      -8.752  -8.373  10.961  1.00  0.00     0.185 C 
ATOM     37  N   UNL     1      -8.145  -9.435  11.513  1.00  0.00    -0.370 N 
ATOM     38  N   UNL     1      -9.721  -7.880  11.753  1.00  0.00    -0.370 N 
ATOM     39  H   UNL     1      -7.410  -9.870  10.972  1.00  0.00     0.159 HD
ATOM     40  H   UNL     1      -8.496  -9.917  12.323  1.00  0.00     0.159 HD
ATOM     41  H   UNL     1      -9.833  -8.202  12.701  1.00  0.00     0.159 HD
ATOM     42  H   UNL     1     -10.251  -7.070  11.472  1.00  0.00     0.159 HD
ENDBRANCH  34  35
ENDBRANCH  33  34
ENDBRANCH  32  33
ENDBRANCH   6  32
ENDBRANCH   4   6
ENDBRANCH   1   2
BRANCH   1  43
ATOM     43  C   UNL     1      -4.815  -1.618  12.816  1.00  0.00     0.102 C 
ATOM     44  C   UNL     1      -4.057  -0.666  11.876  1.00  0.00     0.020 C 
BRANCH  43  45
ATOM     45  C   UNL     1      -4.265  -1.649  14.245  1.00  0.00     0.225 C 
ATOM     46  O   UNL     1      -4.588  -2.498  15.071  1.00  0.00    -0.275 OA
ATOM     47  N   UNL     1      -3.445  -0.598  14.587  1.00  0.00    -0.342 N 
ATOM     48  H   UNL     1      -3.071   0.000  13.863  1.00  0.00     0.164 HD
BRANCH  47  49
ATOM     49  C   UNL     1      -2.817  -0.514  15.909  1.00  0.00     0.192 C 
BRANCH  49  50
ATOM     50  C   UNL     1      -2.849   0.935  16.402  1.00  0.00     0.047 C 
BRANCH  50  51
ATOM     51  C   UNL     1      -3.794   1.122  17.597  1.00  0.00     0.103 C 
BRANCH  51  52
ATOM     52  C   UNL     1      -4.122   2.593  17.844  1.00  0.00     0.226 C 
ATOM     53  O   UNL     1      -4.222   3.365  16.888  1.00  0.00    -0.275 OA
BRANCH  52  54
ATOM     54  N   UNL     1      -4.368   2.965  19.179  1.00  0.00    -0.311 N 
ATOM     55  C   UNL     1      -5.607   2.565  19.859  1.00  0.00     0.153 C 
BRANCH  54  56
ATOM     56  C   UNL     1      -3.440   3.724  19.910  1.00  0.00     0.102 C 
ATOM     57  C   UNL     1      -2.111   3.710  19.714  1.00  0.00     0.043 C 
BRANCH  56  58
ATOM     58  C   UNL     1      -3.897   4.682  20.985  1.00  0.00     0.268 C 
ATOM     59  O   UNL     1      -3.331   4.800  22.063  1.00  0.00    -0.268 OA
ATOM     60  N   UNL     1      -4.970   5.451  20.601  1.00  0.00    -0.339 N 
ATOM     61  H   UNL     1      -5.389   5.285  19.694  1.00  0.00     0.164 HD
BRANCH  60  62
ATOM     62  C   UNL     1      -5.534   6.487  21.465  1.00  0.00     0.168 CG0
ATOM     63  C   UNL     1      -6.861   6.037  22.065  1.00  0.00     0.041 C 
ATOM     64  G   UNL     1      -5.714   7.791  20.659  1.00  0.00     0.000 G0
ENDBRANCH  60  62
ENDBRANCH  56  58
ENDBRANCH  54  56
ENDBRANCH  52  54
ENDBRANCH  51  52
ENDBRANCH  50  51
ENDBRANCH  49  50
BRANCH  49  65
ATOM     65  C   UNL     1      -1.362  -1.009  15.878  1.00  0.00     0.326 C 
ATOM     66  O   UNL     1      -0.652  -1.189  16.856  1.00  0.00    -0.250 OA
BRANCH  65  67
ATOM     67  O   UNL     1      -0.856  -1.194  14.639  1.00  0.00    -0.480 OA
ATOM     68  H   UNL     1      -0.617  -2.146  14.626  1.00  0.00     0.296 HD
ENDBRANCH  65  67
ENDBRANCH  49  65
ENDBRANCH  47  49
ENDBRANCH  43  45
ENDBRANCH   1  43
BRANCH   1  69
ATOM     69  C   UNL     1      -3.789  -3.699  11.543  1.00  0.00    -0.001 C 
ATOM     70  C   UNL     1      -2.852  -4.499  12.083  1.00  0.00     0.001 C 
BRANCH  70  71
ATOM     71  C   UNL     1      -1.728  -5.130  11.389  1.00  0.00    -0.055 C 
ATOM     72  C   UNL     1      -0.481  -4.737  11.727  1.00  0.00    -0.018 C 
ATOM     73  C   UNL     1      -2.040  -6.178  10.353  1.00  0.00     0.044 C 
BRANCH  72  74
ATOM     74  C   UNL     1       0.859  -5.213  11.184  1.00  0.00     0.038 C 
ATOM     75  C   UNL     1       1.572  -5.951  12.323  1.00  0.00     0.015 C 
BRANCH  74  76
ATOM     76  C   UNL     1       1.632  -3.987  10.615  1.00  0.00     0.128 C 
BRANCH  76  77
ATOM     77  O   UNL     1       2.928  -3.896  11.230  1.00  0.00    -0.381 OA
ATOM     78  C   UNL     1       3.838  -3.062  10.524  1.00  0.00     0.195 C 
ENDBRANCH  76  77
BRANCH  76  79
ATOM     79  C   UNL     1       1.699  -3.948   9.067  1.00  0.00     0.068 C 
BRANCH  79  80
ATOM     80  C   UNL     1       0.423  -4.191   8.298  1.00  0.00    -0.045 A 
ATOM     81  C   UNL     1       0.282  -5.311   7.469  1.00  0.00     0.004 A 
ATOM     82  C   UNL     1      -0.638  -3.277   8.382  1.00  0.00     0.004 A 
ATOM     83  C   UNL     1      -0.896  -5.521   6.750  1.00  0.00     0.000 A 
ATOM     84  C   UNL     1      -1.816  -3.487   7.662  1.00  0.00     0.000 A 
ATOM     85  C   UNL     1      -1.946  -4.610   6.848  1.00  0.00     0.000 A 
ENDBRANCH  79  80
ENDBRANCH  76  79
ENDBRANCH  74  76
ENDBRANCH  72  74
ENDBRANCH  70  71
ENDBRANCH   1  69
TORSDOF 17
ENDMDL
MODEL 25
REMARK VINA RESULT:    -6.903      4.430     10.702
REMARK INTER + INTRA:         -29.336
REMARK INTER:                 -20.865
REMARK INTRA:                  -8.471
REMARK UNBOUND:                -8.713
REMARK SMILES C=C1C(=O)N[C@H](C)C(=O)N[C@@H](CC(C)C)C(=O)N[C@@H](C(=O)O)[C@H](C)C(=O)N[C@@H](CCCN=C(N)N)C(=O)N[C@@H](/C=C/C(C)=C/[C@H](C)[C@H](Cc2ccccc2)OC)[C@H](C)C(=O)N[C@@H](C(=O)O)CCC(=O)N1C
REMARK SMILES IDX 39 1 38 2 37 3 36 4 28 6 27 7 25 8 26 9 23 11 24 12 19 13
REMARK SMILES IDX 18 14 16 15 17 16 11 18 10 19 8 20 9 21 12 24 13 25 14 26
REMARK SMILES IDX 15 27 20 28 21 29 22 30 29 32 30 33 31 34 32 35 33 36 34 37
REMARK SMILES IDX 35 38 57 43 58 44 59 45 60 46 61 47 62 49 66 50 67 51 68 52
REMARK SMILES IDX 69 53 70 54 71 55 2 56 1 57 3 58 4 59 5 60 6 62 7 63 63 65
REMARK SMILES IDX 64 66 65 67 40 69 41 70 42 71 44 72 43 73 45 74 46 75 47 76
REMARK SMILES IDX 55 77 56 78 48 79 49 80 50 81 54 82 51 83 53 84 52 85
REMARK H PARENT 38 5 27 10 18 17 10 22 22 31 34 39 34 40 35 41 35 42 61 48
REMARK H PARENT 5 61 65 68
REMARK Flexibility Score:  369.900
ROOT
ATOM      1  C   UNL     1      -2.620  -0.365  15.761  1.00  0.00     0.117 C 
ENDROOT
BRANCH   1   2
ATOM      2  N   UNL     1      -2.266  -1.454  14.850  1.00  0.00    -0.347 N 
ATOM      3  O   UNL     1      -3.708  -0.917  13.146  1.00  0.00    -0.273 OA
ATOM      4  C   UNL     1      -2.776  -1.590  13.573  1.00  0.00     0.243 C 
ATOM      5  H   UNL     1      -1.573  -2.130  15.132  1.00  0.00     0.164 HD
BRANCH   4   6
ATOM      6  C   UNL     1      -2.173  -2.780  12.784  1.00  0.00     0.171 C 
BRANCH   6   7
ATOM      7  N   UNL     1      -3.214  -3.452  11.991  1.00  0.00    -0.344 N 
ATOM      8  C   UNL     1      -3.744  -4.655  12.404  1.00  0.00     0.226 C 
ATOM      9  O   UNL     1      -3.369  -5.229  13.419  1.00  0.00    -0.275 OA
ATOM     10  H   UNL     1      -3.502  -3.042  11.111  1.00  0.00     0.164 HD
BRANCH   8  11
ATOM     11  C   UNL     1      -4.847  -5.193  11.508  1.00  0.00     0.109 C 
ATOM     12  C   UNL     1      -6.152  -5.312  12.294  1.00  0.00     0.021 C 
BRANCH  11  13
ATOM     13  C   UNL     1      -4.938  -4.342  10.225  1.00  0.00     0.204 C 
BRANCH  13  14
ATOM     14  N   UNL     1      -4.880  -5.164   9.013  1.00  0.00    -0.340 N 
ATOM     15  C   UNL     1      -4.164  -4.798   7.894  1.00  0.00     0.243 C 
ATOM     16  O   UNL     1      -3.472  -3.782   7.856  1.00  0.00    -0.273 OA
ATOM     17  H   UNL     1      -5.546  -5.936   8.923  1.00  0.00     0.164 HD
BRANCH  15  18
ATOM     18  C   UNL     1      -4.417  -5.713   6.670  1.00  0.00     0.171 C 
BRANCH  18  19
ATOM     19  N   UNL     1      -3.505  -6.847   6.799  1.00  0.00    -0.343 N 
ATOM     20  C   UNL     1      -2.221  -6.811   6.292  1.00  0.00     0.242 CG0
ATOM     21  O   UNL     1      -1.831  -5.878   5.594  1.00  0.00    -0.273 OA
ATOM     22  H   UNL     1      -3.821  -7.688   7.268  1.00  0.00     0.164 HD
ATOM     23  G   UNL     1      -1.381  -8.069   6.593  1.00  0.00     0.000 G0
ENDBRANCH  18  19
BRANCH  18  24
ATOM     24  C   UNL     1      -5.881  -6.170   6.630  1.00  0.00     0.038 C 
BRANCH  24  25
ATOM     25  C   UNL     1      -6.104  -7.561   6.001  1.00  0.00    -0.015 C 
ATOM     26  C   UNL     1      -6.651  -7.478   4.576  1.00  0.00     0.007 C 
ATOM     27  C   UNL     1      -7.064  -8.373   6.875  1.00  0.00     0.007 C 
ENDBRANCH  24  25
ENDBRANCH  18  24
ENDBRANCH  15  18
ENDBRANCH  13  14
BRANCH  13  28
ATOM     28  C   UNL     1      -6.219  -3.506  10.146  1.00  0.00     0.327 C 
ATOM     29  O   UNL     1      -7.195  -3.744   9.452  1.00  0.00    -0.250 OA
BRANCH  28  30
ATOM     30  O   UNL     1      -6.146  -2.359  10.852  1.00  0.00    -0.480 OA
ATOM     31  H   UNL     1      -5.380  -1.886  10.465  1.00  0.00     0.296 HD
ENDBRANCH  28  30
ENDBRANCH  13  28
ENDBRANCH  11  13
ENDBRANCH   8  11
ENDBRANCH   6   7
BRANCH   6  32
ATOM     32  C   UNL     1      -1.044  -2.266  11.883  1.00  0.00     0.037 C 
BRANCH  32  33
ATOM     33  C   UNL     1      -1.460  -2.218  10.405  1.00  0.00     0.026 C 
BRANCH  33  34
ATOM     34  C   UNL     1      -1.757  -0.797   9.927  1.00  0.00     0.146 C 
BRANCH  34  35
ATOM     35  N   UNL     1      -2.860  -0.842   8.977  1.00  0.00    -0.254 NA
ATOM     36  C   UNL     1      -4.012  -0.427   9.352  1.00  0.00     0.185 C 
ATOM     37  N   UNL     1      -5.034  -0.460   8.483  1.00  0.00    -0.370 N 
ATOM     38  N   UNL     1      -4.385   0.065  10.547  1.00  0.00    -0.370 N 
ATOM     39  H   UNL     1      -4.830  -0.809   7.555  1.00  0.00     0.159 HD
ATOM     40  H   UNL     1      -5.913   0.002   8.640  1.00  0.00     0.159 HD
ATOM     41  H   UNL     1      -5.354   0.227  10.764  1.00  0.00     0.159 HD
ATOM     42  H   UNL     1      -3.721   0.132  11.303  1.00  0.00     0.159 HD
ENDBRANCH  34  35
ENDBRANCH  33  34
ENDBRANCH  32  33
ENDBRANCH   6  32
ENDBRANCH   4   6
ENDBRANCH   1   2
BRANCH   1  43
ATOM     43  C   UNL     1      -1.345   0.053  16.550  1.00  0.00     0.102 C 
ATOM     44  C   UNL     1      -1.018  -0.883  17.725  1.00  0.00     0.020 C 
BRANCH  43  45
ATOM     45  C   UNL     1      -1.398   1.536  16.933  1.00  0.00     0.225 C 
ATOM     46  O   UNL     1      -1.062   1.956  18.036  1.00  0.00    -0.275 OA
ATOM     47  N   UNL     1      -1.939   2.373  15.985  1.00  0.00    -0.342 N 
ATOM     48  H   UNL     1      -2.067   2.042  15.039  1.00  0.00     0.164 HD
BRANCH  47  49
ATOM     49  C   UNL     1      -2.020   3.821  16.198  1.00  0.00     0.192 C 
BRANCH  49  50
ATOM     50  C   UNL     1      -3.415   4.321  15.812  1.00  0.00     0.047 C 
BRANCH  50  51
ATOM     51  C   UNL     1      -4.486   3.232  15.962  1.00  0.00     0.103 C 
BRANCH  51  52
ATOM     52  C   UNL     1      -4.940   3.070  17.411  1.00  0.00     0.226 C 
ATOM     53  O   UNL     1      -4.302   2.341  18.172  1.00  0.00    -0.275 OA
BRANCH  52  54
ATOM     54  N   UNL     1      -6.045   3.845  17.811  1.00  0.00    -0.311 N 
ATOM     55  C   UNL     1      -6.647   4.830  16.903  1.00  0.00     0.153 C 
BRANCH  54  56
ATOM     56  C   UNL     1      -6.615   3.703  19.087  1.00  0.00     0.102 C 
ATOM     57  C   UNL     1      -7.513   2.765  19.428  1.00  0.00     0.043 C 
BRANCH  56  58
ATOM     58  C   UNL     1      -6.204   4.608  20.225  1.00  0.00     0.268 C 
ATOM     59  O   UNL     1      -6.999   5.280  20.867  1.00  0.00    -0.268 OA
ATOM     60  N   UNL     1      -4.859   4.548  20.504  1.00  0.00    -0.339 N 
ATOM     61  H   UNL     1      -4.265   3.974  19.918  1.00  0.00     0.164 HD
BRANCH  60  62
ATOM     62  C   UNL     1      -4.259   5.297  21.607  1.00  0.00     0.168 CG0
ATOM     63  C   UNL     1      -2.738   5.203  21.569  1.00  0.00     0.041 C 
ATOM     64  G   UNL     1      -4.804   4.766  22.949  1.00  0.00     0.000 G0
ENDBRANCH  60  62
ENDBRANCH  56  58
ENDBRANCH  54  56
ENDBRANCH  52  54
ENDBRANCH  51  52
ENDBRANCH  50  51
ENDBRANCH  49  50
BRANCH  49  65
ATOM     65  C   UNL     1      -0.963   4.576  15.377  1.00  0.00     0.326 C 
ATOM     66  O   UNL     1       0.102   4.114  14.994  1.00  0.00    -0.250 OA
BRANCH  65  67
ATOM     67  O   UNL     1      -1.259   5.871  15.130  1.00  0.00    -0.480 OA
ATOM     68  H   UNL     1      -0.989   5.996  14.195  1.00  0.00     0.296 HD
ENDBRANCH  65  67
ENDBRANCH  49  65
ENDBRANCH  47  49
ENDBRANCH  43  45
ENDBRANCH   1  43
BRANCH   1  69
ATOM     69  C   UNL     1      -3.838  -0.837  16.533  1.00  0.00    -0.001 C 
ATOM     70  C   UNL     1      -5.121  -0.495  16.323  1.00  0.00     0.001 C 
BRANCH  70  71
ATOM     71  C   UNL     1      -6.292  -0.974  17.062  1.00  0.00    -0.055 C 
ATOM     72  C   UNL     1      -6.253  -2.231  17.552  1.00  0.00    -0.018 C 
ATOM     73  C   UNL     1      -7.452  -0.028  17.229  1.00  0.00     0.044 C 
BRANCH  72  74
ATOM     74  C   UNL     1      -7.306  -2.986  18.351  1.00  0.00     0.038 C 
ATOM     75  C   UNL     1      -6.634  -3.468  19.642  1.00  0.00     0.015 C 
BRANCH  74  76
ATOM     76  C   UNL     1      -7.895  -4.118  17.459  1.00  0.00     0.128 C 
BRANCH  76  77
ATOM     77  O   UNL     1      -7.918  -5.356  18.189  1.00  0.00    -0.381 OA
ATOM     78  C   UNL     1      -9.228  -5.850  18.434  1.00  0.00     0.195 C 
ENDBRANCH  76  77
BRANCH  76  79
ATOM     79  C   UNL     1      -9.265  -3.770  16.825  1.00  0.00     0.068 C 
BRANCH  79  80
ATOM     80  C   UNL     1      -9.284  -2.794  15.673  1.00  0.00    -0.045 A 
ATOM     81  C   UNL     1     -10.208  -1.741  15.635  1.00  0.00     0.004 A 
ATOM     82  C   UNL     1      -8.389  -2.944  14.604  1.00  0.00     0.004 A 
ATOM     83  C   UNL     1     -10.229  -0.851  14.559  1.00  0.00     0.000 A 
ATOM     84  C   UNL     1      -8.410  -2.053  13.529  1.00  0.00     0.000 A 
ATOM     85  C   UNL     1      -9.329  -1.006  13.507  1.00  0.00     0.000 A 
ENDBRANCH  79  80
ENDBRANCH  76  79
ENDBRANCH  74  76
ENDBRANCH  72  74
ENDBRANCH  70  71
ENDBRANCH   1  69
TORSDOF 17
ENDMDL
MODEL 26
REMARK VINA RESULT:    -6.891      4.747      8.727
REMARK INTER + INTRA:         -29.302
REMARK INTER:                 -22.168
REMARK INTRA:                  -7.134
REMARK UNBOUND:                -8.713
REMARK SMILES C=C1C(=O)N[C@H](C)C(=O)N[C@@H](CC(C)C)C(=O)N[C@@H](C(=O)O)[C@H](C)C(=O)N[C@@H](CCCN=C(N)N)C(=O)N[C@@H](/C=C/C(C)=C/[C@H](C)[C@H](Cc2ccccc2)OC)[C@H](C)C(=O)N[C@@H](C(=O)O)CCC(=O)N1C
REMARK SMILES IDX 39 1 38 2 37 3 36 4 28 6 27 7 25 8 26 9 23 11 24 12 19 13
REMARK SMILES IDX 18 14 16 15 17 16 11 18 10 19 8 20 9 21 12 24 13 25 14 26
REMARK SMILES IDX 15 27 20 28 21 29 22 30 29 32 30 33 31 34 32 35 33 36 34 37
REMARK SMILES IDX 35 38 57 43 58 44 59 45 60 46 61 47 62 49 66 50 67 51 68 52
REMARK SMILES IDX 69 53 70 54 71 55 2 56 1 57 3 58 4 59 5 60 6 62 7 63 63 65
REMARK SMILES IDX 64 66 65 67 40 69 41 70 42 71 44 72 43 73 45 74 46 75 47 76
REMARK SMILES IDX 55 77 56 78 48 79 49 80 50 81 54 82 51 83 53 84 52 85
REMARK H PARENT 38 5 27 10 18 17 10 22 22 31 34 39 34 40 35 41 35 42 61 48
REMARK H PARENT 5 61 65 68
REMARK Flexibility Score:  369.900
ROOT
ATOM      1  C   UNL     1      -4.762  -5.874  11.337  1.00  0.00     0.117 C 
ENDROOT
BRANCH   1   2
ATOM      2  N   UNL     1      -4.704  -5.562  12.765  1.00  0.00    -0.347 N 
ATOM      3  O   UNL     1      -6.864  -4.825  13.013  1.00  0.00    -0.273 OA
ATOM      4  C   UNL     1      -5.790  -5.147  13.511  1.00  0.00     0.243 C 
ATOM      5  H   UNL     1      -3.839  -5.698  13.266  1.00  0.00     0.164 HD
BRANCH   4   6
ATOM      6  C   UNL     1      -5.479  -4.967  15.018  1.00  0.00     0.171 C 
BRANCH   6   7
ATOM      7  N   UNL     1      -5.809  -3.600  15.452  1.00  0.00    -0.344 N 
ATOM      8  C   UNL     1      -4.883  -2.585  15.342  1.00  0.00     0.226 C 
ATOM      9  O   UNL     1      -3.752  -2.767  14.908  1.00  0.00    -0.275 OA
ATOM     10  H   UNL     1      -6.710  -3.424  15.879  1.00  0.00     0.164 HD
BRANCH   8  11
ATOM     11  C   UNL     1      -5.393  -1.223  15.780  1.00  0.00     0.109 C 
ATOM     12  C   UNL     1      -6.915  -1.164  15.648  1.00  0.00     0.021 C 
BRANCH  11  13
ATOM     13  C   UNL     1      -4.851  -0.890  17.184  1.00  0.00     0.204 C 
BRANCH  13  14
ATOM     14  N   UNL     1      -4.936   0.542  17.484  1.00  0.00    -0.340 N 
ATOM     15  C   UNL     1      -3.826   1.326  17.716  1.00  0.00     0.243 C 
ATOM     16  O   UNL     1      -2.680   0.890  17.628  1.00  0.00    -0.273 OA
ATOM     17  H   UNL     1      -5.854   0.930  17.719  1.00  0.00     0.164 HD
BRANCH  15  18
ATOM     18  C   UNL     1      -4.169   2.751  18.214  1.00  0.00     0.171 C 
BRANCH  18  19
ATOM     19  N   UNL     1      -3.395   2.965  19.435  1.00  0.00    -0.343 N 
ATOM     20  C   UNL     1      -3.889   3.705  20.492  1.00  0.00     0.242 CG0
ATOM     21  O   UNL     1      -4.944   4.328  20.403  1.00  0.00    -0.273 OA
ATOM     22  H   UNL     1      -2.466   2.566  19.512  1.00  0.00     0.164 HD
ATOM     23  G   UNL     1      -2.962   3.754  21.724  1.00  0.00     0.000 G0
ENDBRANCH  18  19
BRANCH  18  24
ATOM     24  C   UNL     1      -3.829   3.795  17.144  1.00  0.00     0.038 C 
BRANCH  24  25
ATOM     25  C   UNL     1      -4.766   3.789  15.917  1.00  0.00    -0.015 C 
ATOM     26  C   UNL     1      -4.021   4.066  14.611  1.00  0.00     0.007 C 
ATOM     27  C   UNL     1      -5.874   4.828  16.109  1.00  0.00     0.007 C 
ENDBRANCH  24  25
ENDBRANCH  18  24
ENDBRANCH  15  18
ENDBRANCH  13  14
BRANCH  13  28
ATOM     28  C   UNL     1      -5.584  -1.633  18.306  1.00  0.00     0.327 C 
ATOM     29  O   UNL     1      -5.520  -2.829  18.543  1.00  0.00    -0.250 OA
BRANCH  28  30
ATOM     30  O   UNL     1      -6.443  -0.847  18.986  1.00  0.00    -0.480 OA
ATOM     31  H   UNL     1      -6.110   0.062  18.836  1.00  0.00     0.296 HD
ENDBRANCH  28  30
ENDBRANCH  13  28
ENDBRANCH  11  13
ENDBRANCH   8  11
ENDBRANCH   6   7
BRANCH   6  32
ATOM     32  C   UNL     1      -6.272  -6.003  15.823  1.00  0.00     0.037 C 
BRANCH  32  33
ATOM     33  C   UNL     1      -7.592  -5.432  16.361  1.00  0.00     0.026 C 
BRANCH  33  34
ATOM     34  C   UNL     1      -8.704  -6.480  16.415  1.00  0.00     0.146 C 
BRANCH  34  35
ATOM     35  N   UNL     1      -8.669  -7.265  15.189  1.00  0.00    -0.254 NA
ATOM     36  C   UNL     1      -9.262  -6.808  14.149  1.00  0.00     0.185 C 
ATOM     37  N   UNL     1      -9.231  -7.521  13.013  1.00  0.00    -0.370 N 
ATOM     38  N   UNL     1      -9.948  -5.661  14.004  1.00  0.00    -0.370 N 
ATOM     39  H   UNL     1      -8.723  -8.396  13.039  1.00  0.00     0.159 HD
ATOM     40  H   UNL     1      -9.517  -7.157  12.120  1.00  0.00     0.159 HD
ATOM     41  H   UNL     1     -10.488  -5.479  13.174  1.00  0.00     0.159 HD
ATOM     42  H   UNL     1     -10.066  -5.032  14.783  1.00  0.00     0.159 HD
ENDBRANCH  34  35
ENDBRANCH  33  34
ENDBRANCH  32  33
ENDBRANCH   6  32
ENDBRANCH   4   6
ENDBRANCH   1   2
BRANCH   1  43
ATOM     43  C   UNL     1      -4.949  -7.410  11.173  1.00  0.00     0.102 C 
ATOM     44  C   UNL     1      -3.624  -8.192  11.182  1.00  0.00     0.020 C 
BRANCH  43  45
ATOM     45  C   UNL     1      -5.851  -7.731   9.978  1.00  0.00     0.225 C 
ATOM     46  O   UNL     1      -5.764  -8.771   9.331  1.00  0.00    -0.275 OA
ATOM     47  N   UNL     1      -6.718  -6.729   9.605  1.00  0.00    -0.342 N 
ATOM     48  H   UNL     1      -6.884  -5.953  10.230  1.00  0.00     0.164 HD
BRANCH  47  49
ATOM     49  C   UNL     1      -7.666  -6.908   8.501  1.00  0.00     0.192 C 
BRANCH  49  50
ATOM     50  C   UNL     1      -7.754  -5.617   7.684  1.00  0.00     0.047 C 
BRANCH  50  51
ATOM     51  C   UNL     1      -6.450  -4.809   7.731  1.00  0.00     0.103 C 
BRANCH  51  52
ATOM     52  C   UNL     1      -6.173  -4.089   6.412  1.00  0.00     0.226 C 
ATOM     53  O   UNL     1      -6.552  -2.926   6.261  1.00  0.00    -0.275 OA
BRANCH  52  54
ATOM     54  N   UNL     1      -5.418  -4.797   5.458  1.00  0.00    -0.311 N 
ATOM     55  C   UNL     1      -4.041  -5.220   5.747  1.00  0.00     0.153 C 
BRANCH  54  56
ATOM     56  C   UNL     1      -5.951  -5.129   4.202  1.00  0.00     0.102 C 
ATOM     57  C   UNL     1      -6.652  -6.243   3.935  1.00  0.00     0.043 C 
BRANCH  56  58
ATOM     58  C   UNL     1      -5.805  -4.193   3.026  1.00  0.00     0.268 C 
ATOM     59  O   UNL     1      -5.894  -4.560   1.862  1.00  0.00    -0.268 OA
ATOM     60  N   UNL     1      -5.628  -2.881   3.398  1.00  0.00    -0.339 N 
ATOM     61  H   UNL     1      -5.554  -2.661   4.384  1.00  0.00     0.164 HD
BRANCH  60  62
ATOM     62  C   UNL     1      -5.526  -1.801   2.418  1.00  0.00     0.168 CG0
ATOM     63  C   UNL     1      -6.204  -0.535   2.928  1.00  0.00     0.041 C 
ATOM     64  G   UNL     1      -6.150  -2.254   1.082  1.00  0.00     0.000 G0
ENDBRANCH  60  62
ENDBRANCH  56  58
ENDBRANCH  54  56
ENDBRANCH  52  54
ENDBRANCH  51  52
ENDBRANCH  50  51
ENDBRANCH  49  50
BRANCH  49  65
ATOM     65  C   UNL     1      -9.066  -7.283   9.012  1.00  0.00     0.326 C 
ATOM     66  O   UNL     1     -10.119  -6.807   8.613  1.00  0.00    -0.250 OA
BRANCH  65  67
ATOM     67  O   UNL     1      -9.076  -8.177  10.025  1.00  0.00    -0.480 OA
ATOM     68  H   UNL     1      -9.016  -7.617  10.829  1.00  0.00     0.296 HD
ENDBRANCH  65  67
ENDBRANCH  49  65
ENDBRANCH  47  49
ENDBRANCH  43  45
ENDBRANCH   1  43
BRANCH   1  69
ATOM     69  C   UNL     1      -3.550  -5.211  10.708  1.00  0.00    -0.001 C 
ATOM     70  C   UNL     1      -3.525  -4.416   9.624  1.00  0.00     0.001 C 
BRANCH  70  71
ATOM     71  C   UNL     1      -2.351  -3.764   9.039  1.00  0.00    -0.055 C 
ATOM     72  C   UNL     1      -1.461  -4.542   8.388  1.00  0.00    -0.018 C 
ATOM     73  C   UNL     1      -2.224  -2.272   9.197  1.00  0.00     0.044 C 
BRANCH  72  74
ATOM     74  C   UNL     1      -0.168  -4.148   7.687  1.00  0.00     0.038 C 
ATOM     75  C   UNL     1      -0.232  -4.719   6.265  1.00  0.00     0.015 C 
BRANCH  74  76
ATOM     76  C   UNL     1       1.036  -4.648   8.539  1.00  0.00     0.128 C 
BRANCH  76  77
ATOM     77  O   UNL     1       2.270  -4.355   7.863  1.00  0.00    -0.381 OA
ATOM     78  C   UNL     1       3.098  -3.433   8.559  1.00  0.00     0.195 C 
ENDBRANCH  76  77
BRANCH  76  79
ATOM     79  C   UNL     1       1.021  -4.147  10.005  1.00  0.00     0.068 C 
BRANCH  79  80
ATOM     80  C   UNL     1       0.398  -5.039  11.051  1.00  0.00    -0.045 A 
ATOM     81  C   UNL     1       0.482  -6.434  10.953  1.00  0.00     0.004 A 
ATOM     82  C   UNL     1      -0.304  -4.480  12.130  1.00  0.00     0.004 A 
ATOM     83  C   UNL     1      -0.109  -7.253  11.917  1.00  0.00     0.000 A 
ATOM     84  C   UNL     1      -0.895  -5.300  13.093  1.00  0.00     0.000 A 
ATOM     85  C   UNL     1      -0.797  -6.686  12.988  1.00  0.00     0.000 A 
ENDBRANCH  79  80
ENDBRANCH  76  79
ENDBRANCH  74  76
ENDBRANCH  72  74
ENDBRANCH  70  71
ENDBRANCH   1  69
TORSDOF 17
ENDMDL
MODEL 27
REMARK VINA RESULT:    -6.881      4.290     10.308
REMARK INTER + INTRA:         -29.272
REMARK INTER:                 -19.987
REMARK INTRA:                  -9.285
REMARK UNBOUND:                -8.713
REMARK SMILES C=C1C(=O)N[C@H](C)C(=O)N[C@@H](CC(C)C)C(=O)N[C@@H](C(=O)O)[C@H](C)C(=O)N[C@@H](CCCN=C(N)N)C(=O)N[C@@H](/C=C/C(C)=C/[C@H](C)[C@H](Cc2ccccc2)OC)[C@H](C)C(=O)N[C@@H](C(=O)O)CCC(=O)N1C
REMARK SMILES IDX 39 1 38 2 37 3 36 4 28 6 27 7 25 8 26 9 23 11 24 12 19 13
REMARK SMILES IDX 18 14 16 15 17 16 11 18 10 19 8 20 9 21 12 24 13 25 14 26
REMARK SMILES IDX 15 27 20 28 21 29 22 30 29 32 30 33 31 34 32 35 33 36 34 37
REMARK SMILES IDX 35 38 57 43 58 44 59 45 60 46 61 47 62 49 66 50 67 51 68 52
REMARK SMILES IDX 69 53 70 54 71 55 2 56 1 57 3 58 4 59 5 60 6 62 7 63 63 65
REMARK SMILES IDX 64 66 65 67 40 69 41 70 42 71 44 72 43 73 45 74 46 75 47 76
REMARK SMILES IDX 55 77 56 78 48 79 49 80 50 81 54 82 51 83 53 84 52 85
REMARK H PARENT 38 5 27 10 18 17 10 22 22 31 34 39 34 40 35 41 35 42 61 48
REMARK H PARENT 5 61 65 68
REMARK Flexibility Score:  369.900
ROOT
ATOM      1  C   UNL     1      -4.324  -3.855  14.427  1.00  0.00     0.117 C 
ENDROOT
BRANCH   1   2
ATOM      2  N   UNL     1      -5.560  -4.611  14.219  1.00  0.00    -0.347 N 
ATOM      3  O   UNL     1      -5.345  -6.055  15.990  1.00  0.00    -0.273 OA
ATOM      4  C   UNL     1      -6.018  -5.594  15.074  1.00  0.00     0.243 C 
ATOM      5  H   UNL     1      -6.153  -4.383  13.435  1.00  0.00     0.164 HD
BRANCH   4   6
ATOM      6  C   UNL     1      -7.395  -6.179  14.670  1.00  0.00     0.171 C 
BRANCH   6   7
ATOM      7  N   UNL     1      -7.310  -6.838  13.357  1.00  0.00    -0.344 N 
ATOM      8  C   UNL     1      -8.095  -6.416  12.307  1.00  0.00     0.226 C 
ATOM      9  O   UNL     1      -8.906  -5.504  12.413  1.00  0.00    -0.275 OA
ATOM     10  H   UNL     1      -6.700  -7.639  13.249  1.00  0.00     0.164 HD
BRANCH   8  11
ATOM     11  C   UNL     1      -7.851  -7.160  11.005  1.00  0.00     0.109 C 
ATOM     12  C   UNL     1      -8.563  -8.512  11.030  1.00  0.00     0.021 C 
BRANCH  11  13
ATOM     13  C   UNL     1      -8.219  -6.256   9.811  1.00  0.00     0.204 C 
BRANCH  13  14
ATOM     14  N   UNL     1      -7.305  -6.438   8.679  1.00  0.00    -0.340 N 
ATOM     15  C   UNL     1      -6.903  -5.400   7.867  1.00  0.00     0.243 C 
ATOM     16  O   UNL     1      -7.236  -4.234   8.072  1.00  0.00    -0.273 OA
ATOM     17  H   UNL     1      -7.116  -7.394   8.364  1.00  0.00     0.164 HD
BRANCH  15  18
ATOM     18  C   UNL     1      -6.111  -5.862   6.619  1.00  0.00     0.171 C 
BRANCH  18  19
ATOM     19  N   UNL     1      -6.967  -5.608   5.462  1.00  0.00    -0.343 N 
ATOM     20  C   UNL     1      -7.112  -6.532   4.446  1.00  0.00     0.242 CG0
ATOM     21  O   UNL     1      -6.428  -7.552   4.401  1.00  0.00    -0.273 OA
ATOM     22  H   UNL     1      -7.465  -4.727   5.396  1.00  0.00     0.164 HD
ATOM     23  G   UNL     1      -8.116  -6.121   3.349  1.00  0.00     0.000 G0
ENDBRANCH  18  19
BRANCH  18  24
ATOM     24  C   UNL     1      -4.781  -5.106   6.512  1.00  0.00     0.038 C 
BRANCH  24  25
ATOM     25  C   UNL     1      -3.683  -5.842   5.715  1.00  0.00    -0.015 C 
ATOM     26  C   UNL     1      -3.284  -7.170   6.359  1.00  0.00     0.007 C 
ATOM     27  C   UNL     1      -2.452  -4.943   5.584  1.00  0.00     0.007 C 
ENDBRANCH  24  25
ENDBRANCH  18  24
ENDBRANCH  15  18
ENDBRANCH  13  14
BRANCH  13  28
ATOM     28  C   UNL     1      -9.640  -6.492   9.291  1.00  0.00     0.327 C 
ATOM     29  O   UNL     1      -9.943  -7.002   8.223  1.00  0.00    -0.250 OA
BRANCH  28  30
ATOM     30  O   UNL     1     -10.590  -5.965  10.090  1.00  0.00    -0.480 OA
ATOM     31  H   UNL     1     -10.631  -6.579  10.853  1.00  0.00     0.296 HD
ENDBRANCH  28  30
ENDBRANCH  13  28
ENDBRANCH  11  13
ENDBRANCH   8  11
ENDBRANCH   6   7
BRANCH   6  32
ATOM     32  C   UNL     1      -7.859  -7.165  15.748  1.00  0.00     0.037 C 
BRANCH  32  33
ATOM     33  C   UNL     1      -9.387  -7.180  15.900  1.00  0.00     0.026 C 
BRANCH  33  34
ATOM     34  C   UNL     1      -9.942  -5.833  16.364  1.00  0.00     0.146 C 
BRANCH  34  35
ATOM     35  N   UNL     1     -10.705  -5.239  15.275  1.00  0.00    -0.254 NA
ATOM     36  C   UNL     1     -10.438  -4.037  14.922  1.00  0.00     0.185 C 
ATOM     37  N   UNL     1     -11.131  -3.482  13.916  1.00  0.00    -0.370 N 
ATOM     38  N   UNL     1      -9.520  -3.193  15.426  1.00  0.00    -0.370 N 
ATOM     39  H   UNL     1     -11.835  -4.060  13.476  1.00  0.00     0.159 HD
ATOM     40  H   UNL     1     -10.869  -2.620  13.470  1.00  0.00     0.159 HD
ATOM     41  H   UNL     1      -9.501  -2.223  15.156  1.00  0.00     0.159 HD
ATOM     42  H   UNL     1      -8.937  -3.472  16.199  1.00  0.00     0.159 HD
ENDBRANCH  34  35
ENDBRANCH  33  34
ENDBRANCH  32  33
ENDBRANCH   6  32
ENDBRANCH   4   6
ENDBRANCH   1   2
BRANCH   1  43
ATOM     43  C   UNL     1      -4.646  -2.337  14.303  1.00  0.00     0.102 C 
ATOM     44  C   UNL     1      -3.429  -1.431  14.556  1.00  0.00     0.020 C 
BRANCH  43  45
ATOM     45  C   UNL     1      -5.879  -1.967  15.133  1.00  0.00     0.225 C 
ATOM     46  O   UNL     1      -6.969  -1.705  14.634  1.00  0.00    -0.275 OA
ATOM     47  N   UNL     1      -5.668  -1.852  16.488  1.00  0.00    -0.342 N 
ATOM     48  H   UNL     1      -4.818  -2.215  16.895  1.00  0.00     0.164 HD
BRANCH  47  49
ATOM     49  C   UNL     1      -6.764  -1.538  17.410  1.00  0.00     0.192 C 
BRANCH  49  50
ATOM     50  C   UNL     1      -6.335  -0.414  18.356  1.00  0.00     0.047 C 
BRANCH  50  51
ATOM     51  C   UNL     1      -6.684   0.975  17.806  1.00  0.00     0.103 C 
BRANCH  51  52
ATOM     52  C   UNL     1      -5.443   1.740  17.352  1.00  0.00     0.226 C 
ATOM     53  O   UNL     1      -4.594   1.172  16.661  1.00  0.00    -0.275 OA
BRANCH  52  54
ATOM     54  N   UNL     1      -5.385   3.103  17.699  1.00  0.00    -0.311 N 
ATOM     55  C   UNL     1      -5.518   4.150  16.677  1.00  0.00     0.153 C 
BRANCH  54  56
ATOM     56  C   UNL     1      -5.203   3.512  19.031  1.00  0.00     0.102 C 
ATOM     57  C   UNL     1      -4.062   3.380  19.726  1.00  0.00     0.043 C 
BRANCH  56  58
ATOM     58  C   UNL     1      -6.314   4.200  19.788  1.00  0.00     0.268 C 
ATOM     59  O   UNL     1      -7.452   3.755  19.859  1.00  0.00    -0.268 OA
ATOM     60  N   UNL     1      -5.900   5.337  20.441  1.00  0.00    -0.339 N 
ATOM     61  H   UNL     1      -4.943   5.645  20.322  1.00  0.00     0.164 HD
BRANCH  60  62
ATOM     62  C   UNL     1      -6.800   6.122  21.284  1.00  0.00     0.168 CG0
ATOM     63  C   UNL     1      -6.116   7.389  21.782  1.00  0.00     0.041 C 
ATOM     64  G   UNL     1      -7.282   5.260  22.469  1.00  0.00     0.000 G0
ENDBRANCH  60  62
ENDBRANCH  56  58
ENDBRANCH  54  56
ENDBRANCH  52  54
ENDBRANCH  51  52
ENDBRANCH  50  51
ENDBRANCH  49  50
BRANCH  49  65
ATOM     65  C   UNL     1      -7.180  -2.767  18.234  1.00  0.00     0.326 C 
ATOM     66  O   UNL     1      -8.136  -3.491  17.997  1.00  0.00    -0.250 OA
BRANCH  65  67
ATOM     67  O   UNL     1      -6.427  -2.989  19.334  1.00  0.00    -0.480 OA
ATOM     68  H   UNL     1      -5.520  -2.749  19.045  1.00  0.00     0.296 HD
ENDBRANCH  65  67
ENDBRANCH  49  65
ENDBRANCH  47  49
ENDBRANCH  43  45
ENDBRANCH   1  43
BRANCH   1  69
ATOM     69  C   UNL     1      -3.292  -4.464  13.496  1.00  0.00    -0.001 C 
ATOM     70  C   UNL     1      -2.011  -4.759  13.777  1.00  0.00     0.001 C 
BRANCH  70  71
ATOM     71  C   UNL     1      -1.029  -5.366  12.876  1.00  0.00    -0.055 C 
ATOM     72  C   UNL     1      -0.372  -4.553  12.024  1.00  0.00    -0.018 C 
ATOM     73  C   UNL     1      -0.817  -6.855  12.971  1.00  0.00     0.044 C 
BRANCH  72  74
ATOM     74  C   UNL     1       0.690  -4.898  10.989  1.00  0.00     0.038 C 
ATOM     75  C   UNL     1       2.052  -4.557  11.607  1.00  0.00     0.015 C 
BRANCH  74  76
ATOM     76  C   UNL     1       0.366  -4.141   9.667  1.00  0.00     0.128 C 
BRANCH  76  77
ATOM     77  O   UNL     1       1.578  -3.882   8.940  1.00  0.00    -0.381 OA
ATOM     78  C   UNL     1       1.650  -4.555   7.690  1.00  0.00     0.195 C 
ENDBRANCH  76  77
BRANCH  76  79
ATOM     79  C   UNL     1      -0.719  -4.828   8.799  1.00  0.00     0.068 C 
BRANCH  79  80
ATOM     80  C   UNL     1      -2.111  -4.946   9.370  1.00  0.00    -0.045 A 
ATOM     81  C   UNL     1      -2.635  -6.190   9.744  1.00  0.00     0.004 A 
ATOM     82  C   UNL     1      -2.918  -3.806   9.509  1.00  0.00     0.004 A 
ATOM     83  C   UNL     1      -3.929  -6.293  10.258  1.00  0.00     0.000 A 
ATOM     84  C   UNL     1      -4.212  -3.910  10.022  1.00  0.00     0.000 A 
ATOM     85  C   UNL     1      -4.717  -5.152  10.398  1.00  0.00     0.000 A 
ENDBRANCH  79  80
ENDBRANCH  76  79
ENDBRANCH  74  76
ENDBRANCH  72  74
ENDBRANCH  70  71
ENDBRANCH   1  69
TORSDOF 17
ENDMDL
MODEL 28
REMARK VINA RESULT:    -6.865      4.430     11.030
REMARK INTER + INTRA:         -29.222
REMARK INTER:                 -22.186
REMARK INTRA:                  -7.036
REMARK UNBOUND:                -8.713
REMARK SMILES C=C1C(=O)N[C@H](C)C(=O)N[C@@H](CC(C)C)C(=O)N[C@@H](C(=O)O)[C@H](C)C(=O)N[C@@H](CCCN=C(N)N)C(=O)N[C@@H](/C=C/C(C)=C/[C@H](C)[C@H](Cc2ccccc2)OC)[C@H](C)C(=O)N[C@@H](C(=O)O)CCC(=O)N1C
REMARK SMILES IDX 39 1 38 2 37 3 36 4 28 6 27 7 25 8 26 9 23 11 24 12 19 13
REMARK SMILES IDX 18 14 16 15 17 16 11 18 10 19 8 20 9 21 12 24 13 25 14 26
REMARK SMILES IDX 15 27 20 28 21 29 22 30 29 32 30 33 31 34 32 35 33 36 34 37
REMARK SMILES IDX 35 38 57 43 58 44 59 45 60 46 61 47 62 49 66 50 67 51 68 52
REMARK SMILES IDX 69 53 70 54 71 55 2 56 1 57 3 58 4 59 5 60 6 62 7 63 63 65
REMARK SMILES IDX 64 66 65 67 40 69 41 70 42 71 44 72 43 73 45 74 46 75 47 76
REMARK SMILES IDX 55 77 56 78 48 79 49 80 50 81 54 82 51 83 53 84 52 85
REMARK H PARENT 38 5 27 10 18 17 10 22 22 31 34 39 34 40 35 41 35 42 61 48
REMARK H PARENT 5 61 65 68
REMARK Flexibility Score:  369.900
ROOT
ATOM      1  C   UNL     1      -4.271  -3.599  13.392  1.00  0.00     0.117 C 
ENDROOT
BRANCH   1   2
ATOM      2  N   UNL     1      -5.317  -4.117  12.509  1.00  0.00    -0.347 N 
ATOM      3  O   UNL     1      -6.812  -4.748  14.132  1.00  0.00    -0.273 OA
ATOM      4  C   UNL     1      -6.547  -4.567  12.948  1.00  0.00     0.243 C 
ATOM      5  H   UNL     1      -5.171  -4.107  11.511  1.00  0.00     0.164 HD
BRANCH   4   6
ATOM      6  C   UNL     1      -7.504  -4.981  11.802  1.00  0.00     0.171 C 
BRANCH   6   7
ATOM      7  N   UNL     1      -7.156  -6.319  11.298  1.00  0.00    -0.344 N 
ATOM      8  C   UNL     1      -6.984  -6.538   9.948  1.00  0.00     0.226 C 
ATOM      9  O   UNL     1      -7.131  -5.655   9.112  1.00  0.00    -0.275 OA
ATOM     10  H   UNL     1      -7.091  -7.088  11.952  1.00  0.00     0.164 HD
BRANCH   8  11
ATOM     11  C   UNL     1      -6.573  -7.956   9.592  1.00  0.00     0.109 C 
ATOM     12  C   UNL     1      -7.407  -8.466   8.417  1.00  0.00     0.021 C 
BRANCH  11  13
ATOM     13  C   UNL     1      -5.047  -8.019   9.380  1.00  0.00     0.204 C 
BRANCH  13  14
ATOM     14  N   UNL     1      -4.523  -6.792   8.773  1.00  0.00    -0.340 N 
ATOM     15  C   UNL     1      -4.294  -6.665   7.421  1.00  0.00     0.243 C 
ATOM     16  O   UNL     1      -4.570  -7.554   6.617  1.00  0.00    -0.273 OA
ATOM     17  H   UNL     1      -4.133  -6.078   9.394  1.00  0.00     0.164 HD
BRANCH  15  18
ATOM     18  C   UNL     1      -3.547  -5.362   7.039  1.00  0.00     0.171 C 
BRANCH  18  19
ATOM     19  N   UNL     1      -3.136  -5.509   5.645  1.00  0.00    -0.343 N 
ATOM     20  C   UNL     1      -1.846  -5.237   5.233  1.00  0.00     0.242 CG0
ATOM     21  O   UNL     1      -1.021  -4.733   5.992  1.00  0.00    -0.273 OA
ATOM     22  H   UNL     1      -3.815  -5.812   4.955  1.00  0.00     0.164 HD
ATOM     23  G   UNL     1      -1.580  -5.524   3.741  1.00  0.00     0.000 G0
ENDBRANCH  18  19
BRANCH  18  24
ATOM     24  C   UNL     1      -4.455  -4.142   7.233  1.00  0.00     0.038 C 
BRANCH  24  25
ATOM     25  C   UNL     1      -5.112  -3.616   5.939  1.00  0.00    -0.015 C 
ATOM     26  C   UNL     1      -5.150  -2.088   5.881  1.00  0.00     0.007 C 
ATOM     27  C   UNL     1      -6.534  -4.171   5.821  1.00  0.00     0.007 C 
ENDBRANCH  24  25
ENDBRANCH  18  24
ENDBRANCH  15  18
ENDBRANCH  13  14
BRANCH  13  28
ATOM     28  C   UNL     1      -4.266  -8.254  10.677  1.00  0.00     0.327 C 
ATOM     29  O   UNL     1      -3.083  -8.013  10.862  1.00  0.00    -0.250 OA
BRANCH  28  30
ATOM     30  O   UNL     1      -4.991  -8.885  11.623  1.00  0.00    -0.480 OA
ATOM     31  H   UNL     1      -5.150  -8.198  12.303  1.00  0.00     0.296 HD
ENDBRANCH  28  30
ENDBRANCH  13  28
ENDBRANCH  11  13
ENDBRANCH   8  11
ENDBRANCH   6   7
BRANCH   6  32
ATOM     32  C   UNL     1      -8.948  -4.949  12.316  1.00  0.00     0.037 C 
BRANCH  32  33
ATOM     33  C   UNL     1      -9.839  -4.017  11.484  1.00  0.00     0.026 C 
BRANCH  33  34
ATOM     34  C   UNL     1      -9.371  -2.562  11.532  1.00  0.00     0.146 C 
BRANCH  34  35
ATOM     35  N   UNL     1     -10.146  -1.852  12.540  1.00  0.00    -0.254 NA
ATOM     36  C   UNL     1     -10.798  -0.806  12.190  1.00  0.00     0.185 C 
ATOM     37  N   UNL     1     -11.519  -0.147  13.110  1.00  0.00    -0.370 N 
ATOM     38  N   UNL     1     -10.881  -0.229  10.978  1.00  0.00    -0.370 N 
ATOM     39  H   UNL     1     -11.516  -0.528  14.048  1.00  0.00     0.159 HD
ATOM     40  H   UNL     1     -12.188   0.568  12.884  1.00  0.00     0.159 HD
ATOM     41  H   UNL     1     -11.314   0.672  10.859  1.00  0.00     0.159 HD
ATOM     42  H   UNL     1     -10.375  -0.609  10.193  1.00  0.00     0.159 HD
ENDBRANCH  34  35
ENDBRANCH  33  34
ENDBRANCH  32  33
ENDBRANCH   6  32
ENDBRANCH   4   6
ENDBRANCH   1   2
BRANCH   1  43
ATOM     43  C   UNL     1      -4.535  -2.085  13.638  1.00  0.00     0.102 C 
ATOM     44  C   UNL     1      -4.144  -1.194  12.447  1.00  0.00     0.020 C 
BRANCH  43  45
ATOM     45  C   UNL     1      -3.939  -1.633  14.975  1.00  0.00     0.225 C 
ATOM     46  O   UNL     1      -4.402  -1.966  16.062  1.00  0.00    -0.275 OA
ATOM     47  N   UNL     1      -2.894  -0.742  14.886  1.00  0.00    -0.342 N 
ATOM     48  H   UNL     1      -2.432  -0.599  13.999  1.00  0.00     0.164 HD
BRANCH  47  49
ATOM     49  C   UNL     1      -2.203  -0.251  16.082  1.00  0.00     0.192 C 
BRANCH  49  50
ATOM     50  C   UNL     1      -2.261   1.278  16.118  1.00  0.00     0.047 C 
BRANCH  50  51
ATOM     51  C   UNL     1      -2.033   1.836  17.530  1.00  0.00     0.103 C 
BRANCH  51  52
ATOM     52  C   UNL     1      -2.875   3.081  17.797  1.00  0.00     0.226 C 
ATOM     53  O   UNL     1      -3.902   2.990  18.474  1.00  0.00    -0.275 OA
BRANCH  52  54
ATOM     54  N   UNL     1      -2.370   4.298  17.303  1.00  0.00    -0.311 N 
ATOM     55  C   UNL     1      -2.680   4.747  15.939  1.00  0.00     0.153 C 
BRANCH  54  56
ATOM     56  C   UNL     1      -1.557   5.129  18.092  1.00  0.00     0.102 C 
ATOM     57  C   UNL     1      -0.747   6.088  17.616  1.00  0.00     0.043 C 
BRANCH  56  58
ATOM     58  C   UNL     1      -1.575   5.024  19.599  1.00  0.00     0.268 C 
ATOM     59  O   UNL     1      -0.651   4.555  20.249  1.00  0.00    -0.268 OA
ATOM     60  N   UNL     1      -2.704   5.569  20.165  1.00  0.00    -0.339 N 
ATOM     61  H   UNL     1      -3.429   5.928  19.556  1.00  0.00     0.164 HD
BRANCH  60  62
ATOM     62  C   UNL     1      -2.897   5.630  21.613  1.00  0.00     0.168 CG0
ATOM     63  C   UNL     1      -4.301   6.109  21.958  1.00  0.00     0.041 C 
ATOM     64  G   UNL     1      -1.835   6.558  22.238  1.00  0.00     0.000 G0
ENDBRANCH  60  62
ENDBRANCH  56  58
ENDBRANCH  54  56
ENDBRANCH  52  54
ENDBRANCH  51  52
ENDBRANCH  50  51
ENDBRANCH  49  50
BRANCH  49  65
ATOM     65  C   UNL     1      -0.735  -0.705  16.114  1.00  0.00     0.326 C 
ATOM     66  O   UNL     1      -0.271  -1.558  16.858  1.00  0.00    -0.250 OA
BRANCH  65  67
ATOM     67  O   UNL     1       0.081  -0.037  15.270  1.00  0.00    -0.480 OA
ATOM     68  H   UNL     1      -0.540   0.446  14.682  1.00  0.00     0.296 HD
ENDBRANCH  65  67
ENDBRANCH  49  65
ENDBRANCH  47  49
ENDBRANCH  43  45
ENDBRANCH   1  43
BRANCH   1  69
ATOM     69  C   UNL     1      -2.949  -4.022  12.777  1.00  0.00    -0.001 C 
ATOM     70  C   UNL     1      -2.238  -5.130  13.052  1.00  0.00     0.001 C 
BRANCH  70  71
ATOM     71  C   UNL     1      -0.974  -5.539  12.436  1.00  0.00    -0.055 C 
ATOM     72  C   UNL     1      -0.457  -4.743  11.477  1.00  0.00    -0.018 C 
ATOM     73  C   UNL     1      -0.336  -6.814  12.923  1.00  0.00     0.044 C 
BRANCH  72  74
ATOM     74  C   UNL     1       0.826  -4.910  10.675  1.00  0.00     0.038 C 
ATOM     75  C   UNL     1       1.992  -4.561  11.609  1.00  0.00     0.015 C 
BRANCH  74  76
ATOM     76  C   UNL     1       0.732  -4.033   9.392  1.00  0.00     0.128 C 
BRANCH  76  77
ATOM     77  O   UNL     1       1.576  -4.577   8.363  1.00  0.00    -0.381 OA
ATOM     78  C   UNL     1       2.747  -3.809   8.119  1.00  0.00     0.195 C 
ENDBRANCH  76  77
BRANCH  76  79
ATOM     79  C   UNL     1      -0.717  -3.779   8.907  1.00  0.00     0.068 C 
BRANCH  79  80
ATOM     80  C   UNL     1      -1.233  -2.361   8.932  1.00  0.00    -0.045 A 
ATOM     81  C   UNL     1      -1.901  -1.816   7.827  1.00  0.00     0.004 A 
ATOM     82  C   UNL     1      -1.026  -1.553  10.061  1.00  0.00     0.004 A 
ATOM     83  C   UNL     1      -2.363  -0.498   7.853  1.00  0.00     0.000 A 
ATOM     84  C   UNL     1      -1.488  -0.235  10.085  1.00  0.00     0.000 A 
ATOM     85  C   UNL     1      -2.157   0.291   8.983  1.00  0.00     0.000 A 
ENDBRANCH  79  80
ENDBRANCH  76  79
ENDBRANCH  74  76
ENDBRANCH  72  74
ENDBRANCH  70  71
ENDBRANCH   1  69
TORSDOF 17
ENDMDL
MODEL 29
REMARK VINA RESULT:    -6.856      3.824     10.377
REMARK INTER + INTRA:         -29.197
REMARK INTER:                 -21.041
REMARK INTRA:                  -8.156
REMARK UNBOUND:                -8.713
REMARK SMILES C=C1C(=O)N[C@H](C)C(=O)N[C@@H](CC(C)C)C(=O)N[C@@H](C(=O)O)[C@H](C)C(=O)N[C@@H](CCCN=C(N)N)C(=O)N[C@@H](/C=C/C(C)=C/[C@H](C)[C@H](Cc2ccccc2)OC)[C@H](C)C(=O)N[C@@H](C(=O)O)CCC(=O)N1C
REMARK SMILES IDX 39 1 38 2 37 3 36 4 28 6 27 7 25 8 26 9 23 11 24 12 19 13
REMARK SMILES IDX 18 14 16 15 17 16 11 18 10 19 8 20 9 21 12 24 13 25 14 26
REMARK SMILES IDX 15 27 20 28 21 29 22 30 29 32 30 33 31 34 32 35 33 36 34 37
REMARK SMILES IDX 35 38 57 43 58 44 59 45 60 46 61 47 62 49 66 50 67 51 68 52
REMARK SMILES IDX 69 53 70 54 71 55 2 56 1 57 3 58 4 59 5 60 6 62 7 63 63 65
REMARK SMILES IDX 64 66 65 67 40 69 41 70 42 71 44 72 43 73 45 74 46 75 47 76
REMARK SMILES IDX 55 77 56 78 48 79 49 80 50 81 54 82 51 83 53 84 52 85
REMARK H PARENT 38 5 27 10 18 17 10 22 22 31 34 39 34 40 35 41 35 42 61 48
REMARK H PARENT 5 61 65 68
REMARK Flexibility Score:  369.900
ROOT
ATOM      1  C   UNL     1      -7.210  -3.843  14.517  1.00  0.00     0.117 C 
ENDROOT
BRANCH   1   2
ATOM      2  N   UNL     1      -7.666  -2.630  13.837  1.00  0.00    -0.347 N 
ATOM      3  O   UNL     1      -9.696  -3.421  13.112  1.00  0.00    -0.273 OA
ATOM      4  C   UNL     1      -8.916  -2.487  13.266  1.00  0.00     0.243 C 
ATOM      5  H   UNL     1      -7.066  -1.820  13.816  1.00  0.00     0.164 HD
BRANCH   4   6
ATOM      6  C   UNL     1      -9.179  -1.073  12.687  1.00  0.00     0.171 C 
BRANCH   6   7
ATOM      7  N   UNL     1      -9.461  -1.152  11.245  1.00  0.00    -0.344 N 
ATOM      8  C   UNL     1      -8.474  -0.885  10.321  1.00  0.00     0.226 C 
ATOM      9  O   UNL     1      -7.339  -0.553  10.643  1.00  0.00    -0.275 OA
ATOM     10  H   UNL     1     -10.404  -1.357  10.940  1.00  0.00     0.164 HD
BRANCH   8  11
ATOM     11  C   UNL     1      -8.906  -1.063   8.876  1.00  0.00     0.109 C 
ATOM     12  C   UNL     1      -8.065  -0.171   7.962  1.00  0.00     0.021 C 
BRANCH  11  13
ATOM     13  C   UNL     1      -8.896  -2.560   8.508  1.00  0.00     0.204 C 
BRANCH  13  14
ATOM     14  N   UNL     1      -7.720  -2.925   7.712  1.00  0.00    -0.340 N 
ATOM     15  C   UNL     1      -7.761  -3.862   6.703  1.00  0.00     0.243 C 
ATOM     16  O   UNL     1      -8.803  -4.416   6.358  1.00  0.00    -0.273 OA
ATOM     17  H   UNL     1      -6.802  -2.619   8.044  1.00  0.00     0.164 HD
BRANCH  15  18
ATOM     18  C   UNL     1      -6.364  -4.234   6.147  1.00  0.00     0.171 C 
BRANCH  18  19
ATOM     19  N   UNL     1      -6.272  -3.637   4.816  1.00  0.00    -0.343 N 
ATOM     20  C   UNL     1      -6.271  -4.408   3.670  1.00  0.00     0.242 CG0
ATOM     21  O   UNL     1      -6.214  -5.634   3.719  1.00  0.00    -0.273 OA
ATOM     22  H   UNL     1      -6.200  -2.629   4.726  1.00  0.00     0.164 HD
ATOM     23  G   UNL     1      -6.247  -3.598   2.357  1.00  0.00     0.000 G0
ENDBRANCH  18  19
BRANCH  18  24
ATOM     24  C   UNL     1      -5.257  -3.716   7.073  1.00  0.00     0.038 C 
BRANCH  24  25
ATOM     25  C   UNL     1      -4.240  -2.772   6.397  1.00  0.00    -0.015 C 
ATOM     26  C   UNL     1      -2.793  -3.135   6.732  1.00  0.00     0.007 C 
ATOM     27  C   UNL     1      -4.519  -1.327   6.817  1.00  0.00     0.007 C 
ENDBRANCH  24  25
ENDBRANCH  18  24
ENDBRANCH  15  18
ENDBRANCH  13  14
BRANCH  13  28
ATOM     28  C   UNL     1      -8.920  -3.482   9.731  1.00  0.00     0.327 C 
ATOM     29  O   UNL     1      -7.950  -3.987  10.275  1.00  0.00    -0.250 OA
BRANCH  28  30
ATOM     30  O   UNL     1     -10.169  -3.807  10.123  1.00  0.00    -0.480 OA
ATOM     31  H   UNL     1     -10.034  -4.394  10.896  1.00  0.00     0.296 HD
ENDBRANCH  28  30
ENDBRANCH  13  28
ENDBRANCH  11  13
ENDBRANCH   8  11
ENDBRANCH   6   7
BRANCH   6  32
ATOM     32  C   UNL     1     -10.350  -0.431  13.440  1.00  0.00     0.037 C 
BRANCH  32  33
ATOM     33  C   UNL     1     -10.183  -0.528  14.962  1.00  0.00     0.026 C 
BRANCH  33  34
ATOM     34  C   UNL     1     -11.450  -1.025  15.659  1.00  0.00     0.146 C 
BRANCH  34  35
ATOM     35  N   UNL     1     -12.233  -1.805  14.711  1.00  0.00    -0.254 NA
ATOM     36  C   UNL     1     -12.249  -3.081  14.830  1.00  0.00     0.185 C 
ATOM     37  N   UNL     1     -12.970  -3.809  13.964  1.00  0.00    -0.370 N 
ATOM     38  N   UNL     1     -11.622  -3.852  15.736  1.00  0.00    -0.370 N 
ATOM     39  H   UNL     1     -13.481  -3.298  13.256  1.00  0.00     0.159 HD
ATOM     40  H   UNL     1     -13.173  -4.786  14.093  1.00  0.00     0.159 HD
ATOM     41  H   UNL     1     -11.601  -4.854  15.640  1.00  0.00     0.159 HD
ATOM     42  H   UNL     1     -11.030  -3.439  16.439  1.00  0.00     0.159 HD
ENDBRANCH  34  35
ENDBRANCH  33  34
ENDBRANCH  32  33
ENDBRANCH   6  32
ENDBRANCH   4   6
ENDBRANCH   1   2
BRANCH   1  43
ATOM     43  C   UNL     1      -6.782  -3.468  15.965  1.00  0.00     0.102 C 
ATOM     44  C   UNL     1      -7.829  -3.841  17.028  1.00  0.00     0.020 C 
BRANCH  43  45
ATOM     45  C   UNL     1      -6.311  -2.013  16.040  1.00  0.00     0.225 C 
ATOM     46  O   UNL     1      -5.493  -1.532  15.261  1.00  0.00    -0.275 OA
ATOM     47  N   UNL     1      -6.795  -1.288  17.105  1.00  0.00    -0.342 N 
ATOM     48  H   UNL     1      -7.573  -1.645  17.641  1.00  0.00     0.164 HD
BRANCH  47  49
ATOM     49  C   UNL     1      -6.457   0.127  17.285  1.00  0.00     0.192 C 
BRANCH  49  50
ATOM     50  C   UNL     1      -5.016   0.253  17.785  1.00  0.00     0.047 C 
BRANCH  50  51
ATOM     51  C   UNL     1      -4.217   1.304  17.002  1.00  0.00     0.103 C 
BRANCH  51  52
ATOM     52  C   UNL     1      -3.843   2.504  17.870  1.00  0.00     0.226 C 
ATOM     53  O   UNL     1      -4.708   3.058  18.551  1.00  0.00    -0.275 OA
BRANCH  52  54
ATOM     54  N   UNL     1      -2.481   2.860  17.892  1.00  0.00    -0.311 N 
ATOM     55  C   UNL     1      -1.433   1.835  17.981  1.00  0.00     0.153 C 
BRANCH  54  56
ATOM     56  C   UNL     1      -2.075   4.203  17.825  1.00  0.00     0.102 C 
ATOM     57  C   UNL     1      -1.959   4.915  16.692  1.00  0.00     0.043 C 
BRANCH  56  58
ATOM     58  C   UNL     1      -1.771   4.984  19.082  1.00  0.00     0.268 C 
ATOM     59  O   UNL     1      -1.008   5.941  19.107  1.00  0.00    -0.268 OA
ATOM     60  N   UNL     1      -2.486   4.552  20.173  1.00  0.00    -0.339 N 
ATOM     61  H   UNL     1      -3.089   3.745  20.072  1.00  0.00     0.164 HD
BRANCH  60  62
ATOM     62  C   UNL     1      -2.390   5.209  21.476  1.00  0.00     0.168 CG0
ATOM     63  C   UNL     1      -3.586   6.122  21.718  1.00  0.00     0.041 C 
ATOM     64  G   UNL     1      -1.071   6.003  21.560  1.00  0.00     0.000 G0
ENDBRANCH  60  62
ENDBRANCH  56  58
ENDBRANCH  54  56
ENDBRANCH  52  54
ENDBRANCH  51  52
ENDBRANCH  50  51
ENDBRANCH  49  50
BRANCH  49  65
ATOM     65  C   UNL     1      -7.404   0.814  18.282  1.00  0.00     0.326 C 
ATOM     66  O   UNL     1      -8.555   1.154  18.050  1.00  0.00    -0.250 OA
BRANCH  65  67
ATOM     67  O   UNL     1      -6.852   1.092  19.483  1.00  0.00    -0.480 OA
ATOM     68  H   UNL     1      -5.889   0.997  19.323  1.00  0.00     0.296 HD
ENDBRANCH  65  67
ENDBRANCH  49  65
ENDBRANCH  47  49
ENDBRANCH  43  45
ENDBRANCH   1  43
BRANCH   1  69
ATOM     69  C   UNL     1      -6.192  -4.488  13.595  1.00  0.00    -0.001 C 
ATOM     70  C   UNL     1      -4.903  -4.759  13.863  1.00  0.00     0.001 C 
BRANCH  70  71
ATOM     71  C   UNL     1      -3.935  -5.402  12.972  1.00  0.00    -0.055 C 
ATOM     72  C   UNL     1      -2.624  -5.183  13.208  1.00  0.00    -0.018 C 
ATOM     73  C   UNL     1      -4.469  -6.268  11.862  1.00  0.00     0.044 C 
BRANCH  72  74
ATOM     74  C   UNL     1      -1.409  -5.714  12.459  1.00  0.00     0.038 C 
ATOM     75  C   UNL     1      -0.526  -6.436  13.484  1.00  0.00     0.015 C 
BRANCH  74  76
ATOM     76  C   UNL     1      -0.718  -4.530  11.721  1.00  0.00     0.128 C 
BRANCH  76  77
ATOM     77  O   UNL     1       0.693  -4.779  11.607  1.00  0.00    -0.381 OA
ATOM     78  C   UNL     1       1.115  -5.075  10.282  1.00  0.00     0.195 C 
ENDBRANCH  76  77
BRANCH  76  79
ATOM     79  C   UNL     1      -1.375  -4.164  10.366  1.00  0.00     0.068 C 
BRANCH  79  80
ATOM     80  C   UNL     1      -2.027  -2.809  10.239  1.00  0.00    -0.045 A 
ATOM     81  C   UNL     1      -1.290  -1.689   9.831  1.00  0.00     0.004 A 
ATOM     82  C   UNL     1      -3.383  -2.644  10.557  1.00  0.00     0.004 A 
ATOM     83  C   UNL     1      -1.897  -0.435   9.730  1.00  0.00     0.000 A 
ATOM     84  C   UNL     1      -3.990  -1.390  10.456  1.00  0.00     0.000 A 
ATOM     85  C   UNL     1      -3.247  -0.287  10.041  1.00  0.00     0.000 A 
ENDBRANCH  79  80
ENDBRANCH  76  79
ENDBRANCH  74  76
ENDBRANCH  72  74
ENDBRANCH  70  71
ENDBRANCH   1  69
TORSDOF 17
ENDMDL
MODEL 30
REMARK VINA RESULT:    -6.841      4.576      9.965
REMARK INTER + INTRA:         -29.150
REMARK INTER:                 -22.229
REMARK INTRA:                  -6.921
REMARK UNBOUND:                -8.713
REMARK SMILES C=C1C(=O)N[C@H](C)C(=O)N[C@@H](CC(C)C)C(=O)N[C@@H](C(=O)O)[C@H](C)C(=O)N[C@@H](CCCN=C(N)N)C(=O)N[C@@H](/C=C/C(C)=C/[C@H](C)[C@H](Cc2ccccc2)OC)[C@H](C)C(=O)N[C@@H](C(=O)O)CCC(=O)N1C
REMARK SMILES IDX 39 1 38 2 37 3 36 4 28 6 27 7 25 8 26 9 23 11 24 12 19 13
REMARK SMILES IDX 18 14 16 15 17 16 11 18 10 19 8 20 9 21 12 24 13 25 14 26
REMARK SMILES IDX 15 27 20 28 21 29 22 30 29 32 30 33 31 34 32 35 33 36 34 37
REMARK SMILES IDX 35 38 57 43 58 44 59 45 60 46 61 47 62 49 66 50 67 51 68 52
REMARK SMILES IDX 69 53 70 54 71 55 2 56 1 57 3 58 4 59 5 60 6 62 7 63 63 65
REMARK SMILES IDX 64 66 65 67 40 69 41 70 42 71 44 72 43 73 45 74 46 75 47 76
REMARK SMILES IDX 55 77 56 78 48 79 49 80 50 81 54 82 51 83 53 84 52 85
REMARK H PARENT 38 5 27 10 18 17 10 22 22 31 34 39 34 40 35 41 35 42 61 48
REMARK H PARENT 5 61 65 68
REMARK Flexibility Score:  369.900
ROOT
ATOM      1  C   UNL     1      -5.057  -3.250  11.901  1.00  0.00     0.117 C 
ENDROOT
BRANCH   1   2
ATOM      2  N   UNL     1      -5.099  -2.092  11.007  1.00  0.00    -0.347 N 
ATOM      3  O   UNL     1      -6.760  -2.835   9.608  1.00  0.00    -0.273 OA
ATOM      4  C   UNL     1      -6.013  -1.938   9.983  1.00  0.00     0.243 C 
ATOM      5  H   UNL     1      -4.461  -1.325  11.161  1.00  0.00     0.164 HD
BRANCH   4   6
ATOM      6  C   UNL     1      -5.897  -0.581   9.243  1.00  0.00     0.171 C 
BRANCH   6   7
ATOM      7  N   UNL     1      -6.303  -0.727   7.836  1.00  0.00    -0.344 N 
ATOM      8  C   UNL     1      -5.358  -0.873   6.843  1.00  0.00     0.226 C 
ATOM      9  O   UNL     1      -4.154  -0.866   7.071  1.00  0.00    -0.275 OA
ATOM     10  H   UNL     1      -7.286  -0.669   7.600  1.00  0.00     0.164 HD
BRANCH   8  11
ATOM     11  C   UNL     1      -5.936  -1.067   5.452  1.00  0.00     0.109 C 
ATOM     12  C   UNL     1      -5.897   0.251   4.678  1.00  0.00     0.021 C 
BRANCH  11  13
ATOM     13  C   UNL     1      -5.234  -2.250   4.756  1.00  0.00     0.204 C 
BRANCH  13  14
ATOM     14  N   UNL     1      -5.448  -3.514   5.466  1.00  0.00    -0.340 N 
ATOM     15  C   UNL     1      -4.608  -4.598   5.334  1.00  0.00     0.243 C 
ATOM     16  O   UNL     1      -3.583  -4.561   4.656  1.00  0.00    -0.273 OA
ATOM     17  H   UNL     1      -6.353  -3.662   5.921  1.00  0.00     0.164 HD
BRANCH  15  18
ATOM     18  C   UNL     1      -5.146  -5.884   6.010  1.00  0.00     0.171 C 
BRANCH  18  19
ATOM     19  N   UNL     1      -5.640  -6.745   4.938  1.00  0.00    -0.343 N 
ATOM     20  C   UNL     1      -6.641  -7.674   5.153  1.00  0.00     0.242 CG0
ATOM     21  O   UNL     1      -7.068  -7.911   6.280  1.00  0.00    -0.273 OA
ATOM     22  H   UNL     1      -5.237  -6.668   4.012  1.00  0.00     0.164 HD
ATOM     23  G   UNL     1      -7.085  -8.435   3.886  1.00  0.00     0.000 G0
ENDBRANCH  18  19
BRANCH  18  24
ATOM     24  C   UNL     1      -4.040  -6.572   6.820  1.00  0.00     0.038 C 
BRANCH  24  25
ATOM     25  C   UNL     1      -4.292  -6.621   8.342  1.00  0.00    -0.015 C 
ATOM     26  C   UNL     1      -4.397  -8.051   8.872  1.00  0.00     0.007 C 
ATOM     27  C   UNL     1      -5.572  -5.852   8.677  1.00  0.00     0.007 C 
ENDBRANCH  24  25
ENDBRANCH  18  24
ENDBRANCH  15  18
ENDBRANCH  13  14
BRANCH  13  28
ATOM     28  C   UNL     1      -5.694  -2.458   3.310  1.00  0.00     0.327 C 
ATOM     29  O   UNL     1      -4.973  -2.658   2.344  1.00  0.00    -0.250 OA
BRANCH  28  30
ATOM     30  O   UNL     1      -7.021  -2.283   3.146  1.00  0.00    -0.480 OA
ATOM     31  H   UNL     1      -7.360  -3.180   2.950  1.00  0.00     0.296 HD
ENDBRANCH  28  30
ENDBRANCH  13  28
ENDBRANCH  11  13
ENDBRANCH   8  11
ENDBRANCH   6   7
BRANCH   6  32
ATOM     32  C   UNL     1      -6.766   0.459   9.958  1.00  0.00     0.037 C 
BRANCH  32  33
ATOM     33  C   UNL     1      -8.102   0.691   9.239  1.00  0.00     0.026 C 
BRANCH  33  34
ATOM     34  C   UNL     1      -9.200  -0.256   9.726  1.00  0.00     0.146 C 
BRANCH  34  35
ATOM     35  N   UNL     1      -9.955   0.404  10.782  1.00  0.00    -0.254 NA
ATOM     36  C   UNL     1      -9.877  -0.059  11.974  1.00  0.00     0.185 C 
ATOM     37  N   UNL     1     -10.565   0.544  12.956  1.00  0.00    -0.370 N 
ATOM     38  N   UNL     1      -9.176  -1.114  12.426  1.00  0.00    -0.370 N 
ATOM     39  H   UNL     1     -11.111   1.355  12.696  1.00  0.00     0.159 HD
ATOM     40  H   UNL     1     -10.422   0.353  13.933  1.00  0.00     0.159 HD
ATOM     41  H   UNL     1      -9.306  -1.464  13.361  1.00  0.00     0.159 HD
ATOM     42  H   UNL     1      -8.624  -1.672  11.794  1.00  0.00     0.159 HD
ENDBRANCH  34  35
ENDBRANCH  33  34
ENDBRANCH  32  33
ENDBRANCH   6  32
ENDBRANCH   4   6
ENDBRANCH   1   2
BRANCH   1  43
ATOM     43  C   UNL     1      -5.258  -2.755  13.362  1.00  0.00     0.102 C 
ATOM     44  C   UNL     1      -3.992  -2.870  14.227  1.00  0.00     0.020 C 
BRANCH  43  45
ATOM     45  C   UNL     1      -6.501  -3.391  13.992  1.00  0.00     0.225 C 
ATOM     46  O   UNL     1      -7.490  -3.717  13.342  1.00  0.00    -0.275 OA
ATOM     47  N   UNL     1      -6.483  -3.494  15.364  1.00  0.00    -0.342 N 
ATOM     48  H   UNL     1      -5.614  -3.366  15.864  1.00  0.00     0.164 HD
BRANCH  47  49
ATOM     49  C   UNL     1      -7.588  -4.114  16.101  1.00  0.00     0.192 C 
BRANCH  49  50
ATOM     50  C   UNL     1      -8.304  -3.055  16.942  1.00  0.00     0.047 C 
BRANCH  50  51
ATOM     51  C   UNL     1      -7.798  -1.636  16.647  1.00  0.00     0.103 C 
BRANCH  51  52
ATOM     52  C   UNL     1      -6.908  -1.100  17.767  1.00  0.00     0.226 C 
ATOM     53  O   UNL     1      -6.645  -1.818  18.733  1.00  0.00    -0.275 OA
BRANCH  52  54
ATOM     54  N   UNL     1      -6.373   0.188  17.580  1.00  0.00    -0.311 N 
ATOM     55  C   UNL     1      -5.143   0.389  16.801  1.00  0.00     0.153 C 
BRANCH  54  56
ATOM     56  C   UNL     1      -6.993   1.325  18.123  1.00  0.00     0.102 C 
ATOM     57  C   UNL     1      -8.310   1.443  18.358  1.00  0.00     0.043 C 
BRANCH  56  58
ATOM     58  C   UNL     1      -6.180   2.528  18.538  1.00  0.00     0.268 C 
ATOM     59  O   UNL     1      -6.159   3.574  17.903  1.00  0.00    -0.268 OA
ATOM     60  N   UNL     1      -5.522   2.349  19.732  1.00  0.00    -0.339 N 
ATOM     61  H   UNL     1      -5.582   1.448  20.191  1.00  0.00     0.164 HD
BRANCH  60  62
ATOM     62  C   UNL     1      -4.727   3.410  20.349  1.00  0.00     0.168 CG0
ATOM     63  C   UNL     1      -3.285   3.369  19.858  1.00  0.00     0.041 C 
ATOM     64  G   UNL     1      -4.784   3.272  21.884  1.00  0.00     0.000 G0
ENDBRANCH  60  62
ENDBRANCH  56  58
ENDBRANCH  54  56
ENDBRANCH  52  54
ENDBRANCH  51  52
ENDBRANCH  50  51
ENDBRANCH  49  50
BRANCH  49  65
ATOM     65  C   UNL     1      -7.094  -5.244  17.018  1.00  0.00     0.326 C 
ATOM     66  O   UNL     1      -5.976  -5.737  16.999  1.00  0.00    -0.250 OA
BRANCH  65  67
ATOM     67  O   UNL     1      -8.030  -5.736  17.860  1.00  0.00    -0.480 OA
ATOM     68  H   UNL     1      -7.693  -5.490  18.749  1.00  0.00     0.296 HD
ENDBRANCH  65  67
ENDBRANCH  49  65
ENDBRANCH  47  49
ENDBRANCH  43  45
ENDBRANCH   1  43
BRANCH   1  69
ATOM     69  C   UNL     1      -3.790  -4.010  11.551  1.00  0.00    -0.001 C 
ATOM     70  C   UNL     1      -3.574  -5.332  11.662  1.00  0.00     0.001 C 
BRANCH  70  71
ATOM     71  C   UNL     1      -2.354  -6.057  11.301  1.00  0.00    -0.055 C 
ATOM     72  C   UNL     1      -1.470  -5.435  10.494  1.00  0.00    -0.018 C 
ATOM     73  C   UNL     1      -2.168  -7.443  11.863  1.00  0.00     0.044 C 
BRANCH  72  74
ATOM     74  C   UNL     1      -0.134  -5.934   9.962  1.00  0.00     0.038 C 
ATOM     75  C   UNL     1       0.814  -6.055  11.162  1.00  0.00     0.015 C 
BRANCH  74  76
ATOM     76  C   UNL     1       0.352  -4.969   8.841  1.00  0.00     0.128 C 
BRANCH  76  77
ATOM     77  O   UNL     1       0.068  -5.535   7.550  1.00  0.00    -0.381 OA
ATOM     78  C   UNL     1      -0.594  -4.639   6.667  1.00  0.00     0.195 C 
ENDBRANCH  76  77
BRANCH  76  79
ATOM     79  C   UNL     1      -0.173  -3.519   8.989  1.00  0.00     0.068 C 
BRANCH  79  80
ATOM     80  C   UNL     1       0.310  -2.709  10.168  1.00  0.00    -0.045 A 
ATOM     81  C   UNL     1      -0.582  -1.947  10.934  1.00  0.00     0.004 A 
ATOM     82  C   UNL     1       1.673  -2.685  10.499  1.00  0.00     0.004 A 
ATOM     83  C   UNL     1      -0.126  -1.189  12.014  1.00  0.00     0.000 A 
ATOM     84  C   UNL     1       2.129  -1.926  11.579  1.00  0.00     0.000 A 
ATOM     85  C   UNL     1       1.229  -1.180  12.337  1.00  0.00     0.000 A 
ENDBRANCH  79  80
ENDBRANCH  76  79
ENDBRANCH  74  76
ENDBRANCH  72  74
ENDBRANCH  70  71
ENDBRANCH   1  69
TORSDOF 17
ENDMDL
MODEL 31
REMARK VINA RESULT:    -6.836      5.255     11.405
REMARK INTER + INTRA:         -29.136
REMARK INTER:                 -20.720
REMARK INTRA:                  -8.416
REMARK UNBOUND:                -8.713
REMARK SMILES C=C1C(=O)N[C@H](C)C(=O)N[C@@H](CC(C)C)C(=O)N[C@@H](C(=O)O)[C@H](C)C(=O)N[C@@H](CCCN=C(N)N)C(=O)N[C@@H](/C=C/C(C)=C/[C@H](C)[C@H](Cc2ccccc2)OC)[C@H](C)C(=O)N[C@@H](C(=O)O)CCC(=O)N1C
REMARK SMILES IDX 39 1 38 2 37 3 36 4 28 6 27 7 25 8 26 9 23 11 24 12 19 13
REMARK SMILES IDX 18 14 16 15 17 16 11 18 10 19 8 20 9 21 12 24 13 25 14 26
REMARK SMILES IDX 15 27 20 28 21 29 22 30 29 32 30 33 31 34 32 35 33 36 34 37
REMARK SMILES IDX 35 38 57 43 58 44 59 45 60 46 61 47 62 49 66 50 67 51 68 52
REMARK SMILES IDX 69 53 70 54 71 55 2 56 1 57 3 58 4 59 5 60 6 62 7 63 63 65
REMARK SMILES IDX 64 66 65 67 40 69 41 70 42 71 44 72 43 73 45 74 46 75 47 76
REMARK SMILES IDX 55 77 56 78 48 79 49 80 50 81 54 82 51 83 53 84 52 85
REMARK H PARENT 38 5 27 10 18 17 10 22 22 31 34 39 34 40 35 41 35 42 61 48
REMARK H PARENT 5 61 65 68
REMARK Flexibility Score:  369.900
ROOT
ATOM      1  C   UNL     1      -8.871  -1.234   9.467  1.00  0.00     0.117 C 
ENDROOT
BRANCH   1   2
ATOM      2  N   UNL     1      -8.154  -2.305   8.775  1.00  0.00    -0.347 N 
ATOM      3  O   UNL     1      -9.624  -2.593   7.036  1.00  0.00    -0.273 OA
ATOM      4  C   UNL     1      -8.543  -2.838   7.561  1.00  0.00     0.243 C 
ATOM      5  H   UNL     1      -7.293  -2.657   9.166  1.00  0.00     0.164 HD
BRANCH   4   6
ATOM      6  C   UNL     1      -7.562  -3.900   7.003  1.00  0.00     0.171 C 
BRANCH   6   7
ATOM      7  N   UNL     1      -8.002  -5.253   7.377  1.00  0.00    -0.344 N 
ATOM      8  C   UNL     1      -7.092  -6.283   7.483  1.00  0.00     0.226 C 
ATOM      9  O   UNL     1      -5.898  -6.135   7.254  1.00  0.00    -0.275 OA
ATOM     10  H   UNL     1      -8.990  -5.429   7.509  1.00  0.00     0.164 HD
BRANCH   8  11
ATOM     11  C   UNL     1      -7.693  -7.604   7.931  1.00  0.00     0.109 C 
ATOM     12  C   UNL     1      -7.021  -8.764   7.195  1.00  0.00     0.021 C 
BRANCH  11  13
ATOM     13  C   UNL     1      -7.651  -7.701   9.469  1.00  0.00     0.204 C 
BRANCH  13  14
ATOM     14  N   UNL     1      -6.742  -6.714  10.059  1.00  0.00    -0.340 N 
ATOM     15  C   UNL     1      -5.659  -7.065  10.837  1.00  0.00     0.243 C 
ATOM     16  O   UNL     1      -5.344  -8.236  11.040  1.00  0.00    -0.273 OA
ATOM     17  H   UNL     1      -7.031  -5.732  10.056  1.00  0.00     0.164 HD
BRANCH  15  18
ATOM     18  C   UNL     1      -4.971  -5.857  11.520  1.00  0.00     0.171 C 
BRANCH  18  19
ATOM     19  N   UNL     1      -3.557  -5.921  11.156  1.00  0.00    -0.343 N 
ATOM     20  C   UNL     1      -2.557  -5.887  12.109  1.00  0.00     0.242 CG0
ATOM     21  O   UNL     1      -2.804  -5.669  13.293  1.00  0.00    -0.273 OA
ATOM     22  H   UNL     1      -3.297  -5.985  10.179  1.00  0.00     0.164 HD
ATOM     23  G   UNL     1      -1.131  -6.045  11.542  1.00  0.00     0.000 G0
ENDBRANCH  18  19
BRANCH  18  24
ATOM     24  C   UNL     1      -5.610  -4.540  11.063  1.00  0.00     0.038 C 
BRANCH  24  25
ATOM     25  C   UNL     1      -6.442  -3.818  12.144  1.00  0.00    -0.015 C 
ATOM     26  C   UNL     1      -6.111  -2.329  12.240  1.00  0.00     0.007 C 
ATOM     27  C   UNL     1      -6.211  -4.486  13.502  1.00  0.00     0.007 C 
ENDBRANCH  24  25
ENDBRANCH  18  24
ENDBRANCH  15  18
ENDBRANCH  13  14
BRANCH  13  28
ATOM     28  C   UNL     1      -9.022  -7.505  10.124  1.00  0.00     0.327 C 
ATOM     29  O   UNL     1      -9.336  -7.839  11.256  1.00  0.00    -0.250 OA
BRANCH  28  30
ATOM     30  O   UNL     1      -9.946  -7.010   9.276  1.00  0.00    -0.480 OA
ATOM     31  H   UNL     1     -10.716  -6.809   9.849  1.00  0.00     0.296 HD
ENDBRANCH  28  30
ENDBRANCH  13  28
ENDBRANCH  11  13
ENDBRANCH   8  11
ENDBRANCH   6   7
BRANCH   6  32
ATOM     32  C   UNL     1      -7.476  -3.754   5.479  1.00  0.00     0.037 C 
BRANCH  32  33
ATOM     33  C   UNL     1      -6.027  -3.627   4.990  1.00  0.00     0.026 C 
BRANCH  33  34
ATOM     34  C   UNL     1      -5.916  -2.835   3.687  1.00  0.00     0.146 C 
BRANCH  34  35
ATOM     35  N   UNL     1      -4.954  -3.497   2.816  1.00  0.00    -0.254 NA
ATOM     36  C   UNL     1      -4.939  -3.189   1.572  1.00  0.00     0.185 C 
ATOM     37  N   UNL     1      -4.053  -3.789   0.762  1.00  0.00    -0.370 N 
ATOM     38  N   UNL     1      -5.711  -2.311   0.910  1.00  0.00    -0.370 N 
ATOM     39  H   UNL     1      -3.426  -4.459   1.189  1.00  0.00     0.159 HD
ATOM     40  H   UNL     1      -3.861  -3.482  -0.176  1.00  0.00     0.159 HD
ATOM     41  H   UNL     1      -5.697  -2.259  -0.096  1.00  0.00     0.159 HD
ATOM     42  H   UNL     1      -6.433  -1.798   1.391  1.00  0.00     0.159 HD
ENDBRANCH  34  35
ENDBRANCH  33  34
ENDBRANCH  32  33
ENDBRANCH   6  32
ENDBRANCH   4   6
ENDBRANCH   1   2
BRANCH   1  43
ATOM     43  C   UNL     1      -7.946   0.015   9.540  1.00  0.00     0.102 C 
ATOM     44  C   UNL     1      -8.684   1.339   9.278  1.00  0.00     0.020 C 
BRANCH  43  45
ATOM     45  C   UNL     1      -6.693  -0.178   8.681  1.00  0.00     0.225 C 
ATOM     46  O   UNL     1      -6.686  -0.031   7.462  1.00  0.00    -0.275 OA
ATOM     47  N   UNL     1      -5.577  -0.624   9.352  1.00  0.00    -0.342 N 
ATOM     48  H   UNL     1      -5.556  -0.594  10.362  1.00  0.00     0.164 HD
BRANCH  47  49
ATOM     49  C   UNL     1      -4.297  -0.820   8.666  1.00  0.00     0.192 C 
BRANCH  49  50
ATOM     50  C   UNL     1      -4.210  -2.254   8.138  1.00  0.00     0.047 C 
BRANCH  50  51
ATOM     51  C   UNL     1      -2.965  -2.989   8.654  1.00  0.00     0.103 C 
BRANCH  51  52
ATOM     52  C   UNL     1      -2.005  -3.354   7.523  1.00  0.00     0.226 C 
ATOM     53  O   UNL     1      -1.624  -2.481   6.741  1.00  0.00    -0.275 OA
BRANCH  52  54
ATOM     54  N   UNL     1      -1.548  -4.685   7.494  1.00  0.00    -0.311 N 
ATOM     55  C   UNL     1      -2.379  -5.758   6.935  1.00  0.00     0.153 C 
BRANCH  54  56
ATOM     56  C   UNL     1      -0.281  -5.035   7.992  1.00  0.00     0.102 C 
ATOM     57  C   UNL     1       0.820  -5.200   7.242  1.00  0.00     0.043 C 
BRANCH  56  58
ATOM     58  C   UNL     1      -0.053  -5.213   9.474  1.00  0.00     0.268 C 
ATOM     59  O   UNL     1       0.941  -4.798  10.054  1.00  0.00    -0.268 OA
ATOM     60  N   UNL     1      -1.104  -5.828  10.112  1.00  0.00    -0.339 N 
ATOM     61  H   UNL     1      -1.888  -6.153   9.558  1.00  0.00     0.164 HD
BRANCH  60  62
ATOM     62  C   UNL     1      -1.119  -6.044  11.559  1.00  0.00     0.168 CG0
ATOM     63  C   UNL     1      -0.574  -7.423  11.911  1.00  0.00     0.041 C 
ATOM     64  G   UNL     1      -2.556  -5.872  12.092  1.00  0.00     0.000 G0
ENDBRANCH  60  62
ENDBRANCH  56  58
ENDBRANCH  54  56
ENDBRANCH  52  54
ENDBRANCH  51  52
ENDBRANCH  50  51
ENDBRANCH  49  50
BRANCH  49  65
ATOM     65  C   UNL     1      -3.106  -0.547   9.598  1.00  0.00     0.326 C 
ATOM     66  O   UNL     1      -3.018  -0.910  10.762  1.00  0.00    -0.250 OA
BRANCH  65  67
ATOM     67  O   UNL     1      -2.126   0.208   9.056  1.00  0.00    -0.480 OA
ATOM     68  H   UNL     1      -1.400   0.152   9.713  1.00  0.00     0.296 HD
ENDBRANCH  65  67
ENDBRANCH  49  65
ENDBRANCH  47  49
ENDBRANCH  43  45
ENDBRANCH   1  43
BRANCH   1  69
ATOM     69  C   UNL     1      -9.391  -1.838  10.759  1.00  0.00    -0.001 C 
ATOM     70  C   UNL     1      -9.988  -3.032  10.921  1.00  0.00     0.001 C 
BRANCH  70  71
ATOM     71  C   UNL     1     -10.466  -3.613  12.177  1.00  0.00    -0.055 C 
ATOM     72  C   UNL     1     -10.270  -2.907  13.310  1.00  0.00    -0.018 C 
ATOM     73  C   UNL     1     -11.149  -4.955  12.115  1.00  0.00     0.044 C 
BRANCH  72  74
ATOM     74  C   UNL     1     -10.658  -3.254  14.741  1.00  0.00     0.038 C 
ATOM     75  C   UNL     1     -11.908  -2.435  15.082  1.00  0.00     0.015 C 
BRANCH  74  76
ATOM     76  C   UNL     1      -9.434  -2.995  15.668  1.00  0.00     0.128 C 
BRANCH  76  77
ATOM     77  O   UNL     1      -8.915  -4.244  16.156  1.00  0.00    -0.381 OA
ATOM     78  C   UNL     1      -9.363  -5.375  15.421  1.00  0.00     0.195 C 
ENDBRANCH  76  77
BRANCH  76  79
ATOM     79  C   UNL     1      -8.342  -2.099  15.033  1.00  0.00     0.068 C 
BRANCH  79  80
ATOM     80  C   UNL     1      -7.525  -1.221  15.951  1.00  0.00    -0.045 A 
ATOM     81  C   UNL     1      -8.143  -0.411  16.913  1.00  0.00     0.004 A 
ATOM     82  C   UNL     1      -6.128  -1.182  15.833  1.00  0.00     0.004 A 
ATOM     83  C   UNL     1      -7.382   0.409  17.749  1.00  0.00     0.000 A 
ATOM     84  C   UNL     1      -5.368  -0.361  16.669  1.00  0.00     0.000 A 
ATOM     85  C   UNL     1      -5.994   0.433  17.628  1.00  0.00     0.000 A 
ENDBRANCH  79  80
ENDBRANCH  76  79
ENDBRANCH  74  76
ENDBRANCH  72  74
ENDBRANCH  70  71
ENDBRANCH   1  69
TORSDOF 17
ENDMDL
MODEL 32
REMARK VINA RESULT:    -6.834      4.608     10.943
REMARK INTER + INTRA:         -29.132
REMARK INTER:                 -22.379
REMARK INTRA:                  -6.752
REMARK UNBOUND:                -8.713
REMARK SMILES C=C1C(=O)N[C@H](C)C(=O)N[C@@H](CC(C)C)C(=O)N[C@@H](C(=O)O)[C@H](C)C(=O)N[C@@H](CCCN=C(N)N)C(=O)N[C@@H](/C=C/C(C)=C/[C@H](C)[C@H](Cc2ccccc2)OC)[C@H](C)C(=O)N[C@@H](C(=O)O)CCC(=O)N1C
REMARK SMILES IDX 39 1 38 2 37 3 36 4 28 6 27 7 25 8 26 9 23 11 24 12 19 13
REMARK SMILES IDX 18 14 16 15 17 16 11 18 10 19 8 20 9 21 12 24 13 25 14 26
REMARK SMILES IDX 15 27 20 28 21 29 22 30 29 32 30 33 31 34 32 35 33 36 34 37
REMARK SMILES IDX 35 38 57 43 58 44 59 45 60 46 61 47 62 49 66 50 67 51 68 52
REMARK SMILES IDX 69 53 70 54 71 55 2 56 1 57 3 58 4 59 5 60 6 62 7 63 63 65
REMARK SMILES IDX 64 66 65 67 40 69 41 70 42 71 44 72 43 73 45 74 46 75 47 76
REMARK SMILES IDX 55 77 56 78 48 79 49 80 50 81 54 82 51 83 53 84 52 85
REMARK H PARENT 38 5 27 10 18 17 10 22 22 31 34 39 34 40 35 41 35 42 61 48
REMARK H PARENT 5 61 65 68
REMARK Flexibility Score:  369.900
ROOT
ATOM      1  C   UNL     1      -5.293  -3.448  13.095  1.00  0.00     0.117 C 
ENDROOT
BRANCH   1   2
ATOM      2  N   UNL     1      -6.419  -3.584  12.170  1.00  0.00    -0.347 N 
ATOM      3  O   UNL     1      -7.870  -4.647  13.595  1.00  0.00    -0.273 OA
ATOM      4  C   UNL     1      -7.654  -4.092  12.523  1.00  0.00     0.243 C 
ATOM      5  H   UNL     1      -6.324  -3.246  11.224  1.00  0.00     0.164 HD
BRANCH   4   6
ATOM      6  C   UNL     1      -8.697  -4.046  11.378  1.00  0.00     0.171 C 
BRANCH   6   7
ATOM      7  N   UNL     1      -8.100  -3.478  10.160  1.00  0.00    -0.344 N 
ATOM      8  C   UNL     1      -8.839  -2.667   9.326  1.00  0.00     0.226 C 
ATOM      9  O   UNL     1     -10.016  -2.400   9.539  1.00  0.00    -0.275 OA
ATOM     10  H   UNL     1      -7.150  -3.730   9.915  1.00  0.00     0.164 HD
BRANCH   8  11
ATOM     11  C   UNL     1      -8.066  -2.115   8.141  1.00  0.00     0.109 C 
ATOM     12  C   UNL     1      -8.184  -0.592   8.099  1.00  0.00     0.021 C 
BRANCH  11  13
ATOM     13  C   UNL     1      -6.621  -2.653   8.167  1.00  0.00     0.204 C 
BRANCH  13  14
ATOM     14  N   UNL     1      -6.138  -3.000   6.826  1.00  0.00    -0.340 N 
ATOM     15  C   UNL     1      -6.436  -4.197   6.211  1.00  0.00     0.243 C 
ATOM     16  O   UNL     1      -7.180  -5.034   6.719  1.00  0.00    -0.273 OA
ATOM     17  H   UNL     1      -5.400  -2.422   6.417  1.00  0.00     0.164 HD
BRANCH  15  18
ATOM     18  C   UNL     1      -5.650  -4.429   4.897  1.00  0.00     0.171 C 
BRANCH  18  19
ATOM     19  N   UNL     1      -5.694  -5.865   4.630  1.00  0.00    -0.343 N 
ATOM     20  C   UNL     1      -4.724  -6.725   5.107  1.00  0.00     0.242 CG0
ATOM     21  O   UNL     1      -3.710  -6.307   5.662  1.00  0.00    -0.273 OA
ATOM     22  H   UNL     1      -6.453  -6.245   4.076  1.00  0.00     0.164 HD
ATOM     23  G   UNL     1      -4.981  -8.213   4.793  1.00  0.00     0.000 G0
ENDBRANCH  18  19
BRANCH  18  24
ATOM     24  C   UNL     1      -6.269  -3.625   3.747  1.00  0.00     0.038 C 
BRANCH  24  25
ATOM     25  C   UNL     1      -5.250  -2.878   2.861  1.00  0.00    -0.015 C 
ATOM     26  C   UNL     1      -5.820  -1.586   2.274  1.00  0.00     0.007 C 
ATOM     27  C   UNL     1      -4.782  -3.796   1.728  1.00  0.00     0.007 C 
ENDBRANCH  24  25
ENDBRANCH  18  24
ENDBRANCH  15  18
ENDBRANCH  13  14
BRANCH  13  28
ATOM     28  C   UNL     1      -5.619  -1.662   8.767  1.00  0.00     0.327 C 
ATOM     29  O   UNL     1      -5.515  -1.365   9.947  1.00  0.00    -0.250 OA
BRANCH  28  30
ATOM     30  O   UNL     1      -4.889  -1.018   7.834  1.00  0.00    -0.480 OA
ATOM     31  H   UNL     1      -4.135  -0.642   8.335  1.00  0.00     0.296 HD
ENDBRANCH  28  30
ENDBRANCH  13  28
ENDBRANCH  11  13
ENDBRANCH   8  11
ENDBRANCH   6   7
BRANCH   6  32
ATOM     32  C   UNL     1      -9.224  -5.462  11.120  1.00  0.00     0.037 C 
BRANCH  32  33
ATOM     33  C   UNL     1      -8.110  -6.425  10.687  1.00  0.00     0.026 C 
BRANCH  33  34
ATOM     34  C   UNL     1      -8.656  -7.709  10.063  1.00  0.00     0.146 C 
BRANCH  34  35
ATOM     35  N   UNL     1      -8.511  -7.626   8.616  1.00  0.00    -0.254 NA
ATOM     36  C   UNL     1      -7.557  -8.273   8.056  1.00  0.00     0.185 C 
ATOM     37  N   UNL     1      -7.418  -8.208   6.723  1.00  0.00    -0.370 N 
ATOM     38  N   UNL     1      -6.620  -9.054   8.622  1.00  0.00    -0.370 N 
ATOM     39  H   UNL     1      -8.094  -7.646   6.222  1.00  0.00     0.159 HD
ATOM     40  H   UNL     1      -6.813  -8.815   6.197  1.00  0.00     0.159 HD
ATOM     41  H   UNL     1      -5.837  -9.397   8.089  1.00  0.00     0.159 HD
ATOM     42  H   UNL     1      -6.594  -9.181   9.621  1.00  0.00     0.159 HD
ENDBRANCH  34  35
ENDBRANCH  33  34
ENDBRANCH  32  33
ENDBRANCH   6  32
ENDBRANCH   4   6
ENDBRANCH   1   2
BRANCH   1  43
ATOM     43  C   UNL     1      -5.220  -1.969  13.572  1.00  0.00     0.102 C 
ATOM     44  C   UNL     1      -3.782  -1.436  13.694  1.00  0.00     0.020 C 
BRANCH  43  45
ATOM     45  C   UNL     1      -6.072  -1.752  14.826  1.00  0.00     0.225 C 
ATOM     46  O   UNL     1      -7.284  -1.564  14.789  1.00  0.00    -0.275 OA
ATOM     47  N   UNL     1      -5.375  -1.686  16.011  1.00  0.00    -0.342 N 
ATOM     48  H   UNL     1      -4.412  -1.991  16.043  1.00  0.00     0.164 HD
BRANCH  47  49
ATOM     49  C   UNL     1      -6.062  -1.518  17.295  1.00  0.00     0.192 C 
BRANCH  49  50
ATOM     50  C   UNL     1      -5.576  -0.235  17.975  1.00  0.00     0.047 C 
BRANCH  50  51
ATOM     51  C   UNL     1      -6.583   0.914  17.836  1.00  0.00     0.103 C 
BRANCH  51  52
ATOM     52  C   UNL     1      -6.187   2.128  18.674  1.00  0.00     0.226 C 
ATOM     53  O   UNL     1      -6.555   2.205  19.848  1.00  0.00    -0.275 OA
BRANCH  52  54
ATOM     54  N   UNL     1      -5.342   3.068  18.056  1.00  0.00    -0.311 N 
ATOM     55  C   UNL     1      -5.877   4.067  17.122  1.00  0.00     0.153 C 
BRANCH  54  56
ATOM     56  C   UNL     1      -3.960   3.091  18.312  1.00  0.00     0.102 C 
ATOM     57  C   UNL     1      -3.012   2.701  17.445  1.00  0.00     0.043 C 
BRANCH  56  58
ATOM     58  C   UNL     1      -3.423   3.621  19.620  1.00  0.00     0.268 C 
ATOM     59  O   UNL     1      -2.319   3.328  20.059  1.00  0.00    -0.268 OA
ATOM     60  N   UNL     1      -4.272   4.514  20.231  1.00  0.00    -0.339 N 
ATOM     61  H   UNL     1      -5.174   4.695  19.808  1.00  0.00     0.164 HD
BRANCH  60  62
ATOM     62  C   UNL     1      -3.921   5.195  21.476  1.00  0.00     0.168 CG0
ATOM     63  C   UNL     1      -5.121   5.939  22.049  1.00  0.00     0.041 C 
ATOM     64  G   UNL     1      -2.748   6.164  21.223  1.00  0.00     0.000 G0
ENDBRANCH  60  62
ENDBRANCH  56  58
ENDBRANCH  54  56
ENDBRANCH  52  54
ENDBRANCH  51  52
ENDBRANCH  50  51
ENDBRANCH  49  50
BRANCH  49  65
ATOM     65  C   UNL     1      -5.817  -2.713  18.230  1.00  0.00     0.326 C 
ATOM     66  O   UNL     1      -5.126  -2.697  19.238  1.00  0.00    -0.250 OA
BRANCH  65  67
ATOM     67  O   UNL     1      -6.390  -3.869  17.829  1.00  0.00    -0.480 OA
ATOM     68  H   UNL     1      -5.642  -4.378  17.447  1.00  0.00     0.296 HD
ENDBRANCH  65  67
ENDBRANCH  49  65
ENDBRANCH  47  49
ENDBRANCH  43  45
ENDBRANCH   1  43
BRANCH   1  69
ATOM     69  C   UNL     1      -4.092  -4.053  12.393  1.00  0.00    -0.001 C 
ATOM     70  C   UNL     1      -3.668  -5.328  12.451  1.00  0.00     0.001 C 
BRANCH  70  71
ATOM     71  C   UNL     1      -2.518  -5.905  11.751  1.00  0.00    -0.055 C 
ATOM     72  C   UNL     1      -1.317  -5.847  12.363  1.00  0.00    -0.018 C 
ATOM     73  C   UNL     1      -2.759  -6.530  10.402  1.00  0.00     0.044 C 
BRANCH  72  74
ATOM     74  C   UNL     1       0.034  -6.359  11.885  1.00  0.00     0.038 C 
ATOM     75  C   UNL     1       0.817  -6.801  13.127  1.00  0.00     0.015 C 
BRANCH  74  76
ATOM     76  C   UNL     1       0.722  -5.246  11.042  1.00  0.00     0.128 C 
BRANCH  76  77
ATOM     77  O   UNL     1       1.975  -4.878  11.643  1.00  0.00    -0.381 OA
ATOM     78  C   UNL     1       2.621  -3.790  10.997  1.00  0.00     0.195 C 
ENDBRANCH  76  77
BRANCH  76  79
ATOM     79  C   UNL     1       0.857  -5.589   9.537  1.00  0.00     0.068 C 
BRANCH  79  80
ATOM     80  C   UNL     1      -0.005  -4.829   8.558  1.00  0.00    -0.045 A 
ATOM     81  C   UNL     1      -0.774  -3.734   8.973  1.00  0.00     0.004 A 
ATOM     82  C   UNL     1      -0.071  -5.229   7.215  1.00  0.00     0.004 A 
ATOM     83  C   UNL     1      -1.580  -3.045   8.064  1.00  0.00     0.000 A 
ATOM     84  C   UNL     1      -0.878  -4.539   6.307  1.00  0.00     0.000 A 
ATOM     85  C   UNL     1      -1.631  -3.447   6.731  1.00  0.00     0.000 A 
ENDBRANCH  79  80
ENDBRANCH  76  79
ENDBRANCH  74  76
ENDBRANCH  72  74
ENDBRANCH  70  71
ENDBRANCH   1  69
TORSDOF 17
ENDMDL
MODEL 33
REMARK VINA RESULT:    -6.829      4.520      9.866
REMARK INTER + INTRA:         -29.114
REMARK INTER:                 -23.117
REMARK INTRA:                  -5.997
REMARK UNBOUND:                -8.713
REMARK SMILES C=C1C(=O)N[C@H](C)C(=O)N[C@@H](CC(C)C)C(=O)N[C@@H](C(=O)O)[C@H](C)C(=O)N[C@@H](CCCN=C(N)N)C(=O)N[C@@H](/C=C/C(C)=C/[C@H](C)[C@H](Cc2ccccc2)OC)[C@H](C)C(=O)N[C@@H](C(=O)O)CCC(=O)N1C
REMARK SMILES IDX 39 1 38 2 37 3 36 4 28 6 27 7 25 8 26 9 23 11 24 12 19 13
REMARK SMILES IDX 18 14 16 15 17 16 11 18 10 19 8 20 9 21 12 24 13 25 14 26
REMARK SMILES IDX 15 27 20 28 21 29 22 30 29 32 30 33 31 34 32 35 33 36 34 37
REMARK SMILES IDX 35 38 57 43 58 44 59 45 60 46 61 47 62 49 66 50 67 51 68 52
REMARK SMILES IDX 69 53 70 54 71 55 2 56 1 57 3 58 4 59 5 60 6 62 7 63 63 65
REMARK SMILES IDX 64 66 65 67 40 69 41 70 42 71 44 72 43 73 45 74 46 75 47 76
REMARK SMILES IDX 55 77 56 78 48 79 49 80 50 81 54 82 51 83 53 84 52 85
REMARK H PARENT 38 5 27 10 18 17 10 22 22 31 34 39 34 40 35 41 35 42 61 48
REMARK H PARENT 5 61 65 68
REMARK Flexibility Score:  369.900
ROOT
ATOM      1  C   UNL     1      -4.108  -1.985  13.700  1.00  0.00     0.117 C 
ENDROOT
BRANCH   1   2
ATOM      2  N   UNL     1      -2.860  -2.345  13.025  1.00  0.00    -0.347 N 
ATOM      3  O   UNL     1      -1.411  -1.315  14.477  1.00  0.00    -0.273 OA
ATOM      4  C   UNL     1      -1.603  -2.058  13.520  1.00  0.00     0.243 C 
ATOM      5  H   UNL     1      -2.897  -2.879  12.170  1.00  0.00     0.164 HD
BRANCH   4   6
ATOM      6  C   UNL     1      -0.448  -2.625  12.655  1.00  0.00     0.171 C 
BRANCH   6   7
ATOM      7  N   UNL     1      -0.916  -3.774  11.863  1.00  0.00    -0.344 N 
ATOM      8  C   UNL     1      -0.025  -4.721  11.405  1.00  0.00     0.226 C 
ATOM      9  O   UNL     1       1.181  -4.646  11.608  1.00  0.00    -0.275 OA
ATOM     10  H   UNL     1      -1.896  -3.835  11.618  1.00  0.00     0.164 HD
BRANCH   8  11
ATOM     11  C   UNL     1      -0.668  -5.872  10.651  1.00  0.00     0.109 C 
ATOM     12  C   UNL     1      -1.950  -6.313  11.359  1.00  0.00     0.021 C 
BRANCH  11  13
ATOM     13  C   UNL     1      -0.845  -5.490   9.168  1.00  0.00     0.204 C 
BRANCH  13  14
ATOM     14  N   UNL     1      -2.209  -5.741   8.692  1.00  0.00    -0.340 N 
ATOM     15  C   UNL     1      -2.491  -6.134   7.402  1.00  0.00     0.243 C 
ATOM     16  O   UNL     1      -1.611  -6.361   6.574  1.00  0.00    -0.273 OA
ATOM     17  H   UNL     1      -2.987  -5.427   9.278  1.00  0.00     0.164 HD
BRANCH  15  18
ATOM     18  C   UNL     1      -4.004  -6.135   7.073  1.00  0.00     0.171 C 
BRANCH  18  19
ATOM     19  N   UNL     1      -4.214  -7.183   6.076  1.00  0.00    -0.343 N 
ATOM     20  C   UNL     1      -5.184  -7.075   5.098  1.00  0.00     0.242 CG0
ATOM     21  O   UNL     1      -6.001  -6.157   5.101  1.00  0.00    -0.273 OA
ATOM     22  H   UNL     1      -3.639  -8.018   6.102  1.00  0.00     0.164 HD
ATOM     23  G   UNL     1      -5.204  -8.242   4.089  1.00  0.00     0.000 G0
ENDBRANCH  18  19
BRANCH  18  24
ATOM     24  C   UNL     1      -4.833  -6.388   8.338  1.00  0.00     0.038 C 
BRANCH  24  25
ATOM     25  C   UNL     1      -5.187  -7.869   8.591  1.00  0.00    -0.015 C 
ATOM     26  C   UNL     1      -6.693  -8.125   8.558  1.00  0.00     0.007 C 
ATOM     27  C   UNL     1      -4.619  -8.309   9.943  1.00  0.00     0.007 C 
ENDBRANCH  24  25
ENDBRANCH  18  24
ENDBRANCH  15  18
ENDBRANCH  13  14
BRANCH  13  28
ATOM     28  C   UNL     1      -0.527  -4.019   8.882  1.00  0.00     0.327 C 
ATOM     29  O   UNL     1      -1.334  -3.103   8.825  1.00  0.00    -0.250 OA
BRANCH  28  30
ATOM     30  O   UNL     1       0.767  -3.809   8.566  1.00  0.00    -0.480 OA
ATOM     31  H   UNL     1       0.985  -2.957   8.998  1.00  0.00     0.296 HD
ENDBRANCH  28  30
ENDBRANCH  13  28
ENDBRANCH  11  13
ENDBRANCH   8  11
ENDBRANCH   6   7
BRANCH   6  32
ATOM     32  C   UNL     1       0.091  -1.516  11.745  1.00  0.00     0.037 C 
BRANCH  32  33
ATOM     33  C   UNL     1       1.516  -1.094  12.128  1.00  0.00     0.026 C 
BRANCH  33  34
ATOM     34  C   UNL     1       2.559  -1.568  11.114  1.00  0.00     0.146 C 
BRANCH  34  35
ATOM     35  N   UNL     1       3.851  -0.996  11.468  1.00  0.00    -0.254 NA
ATOM     36  C   UNL     1       4.905  -1.703  11.290  1.00  0.00     0.185 C 
ATOM     37  N   UNL     1       6.101  -1.184  11.608  1.00  0.00    -0.370 N 
ATOM     38  N   UNL     1       5.012  -2.954  10.808  1.00  0.00    -0.370 N 
ATOM     39  H   UNL     1       6.105  -0.239  11.969  1.00  0.00     0.159 HD
ATOM     40  H   UNL     1       6.976  -1.600  11.340  1.00  0.00     0.159 HD
ATOM     41  H   UNL     1       5.885  -3.454  10.848  1.00  0.00     0.159 HD
ATOM     42  H   UNL     1       4.189  -3.473  10.544  1.00  0.00     0.159 HD
ENDBRANCH  34  35
ENDBRANCH  33  34
ENDBRANCH  32  33
ENDBRANCH   6  32
ENDBRANCH   4   6
ENDBRANCH   1   2
BRANCH   1  43
ATOM     43  C   UNL     1      -4.466  -3.112  14.712  1.00  0.00     0.102 C 
ATOM     44  C   UNL     1      -4.369  -4.526  14.113  1.00  0.00     0.020 C 
BRANCH  43  45
ATOM     45  C   UNL     1      -5.800  -2.823  15.407  1.00  0.00     0.225 C 
ATOM     46  O   UNL     1      -6.888  -3.126  14.925  1.00  0.00    -0.275 OA
ATOM     47  N   UNL     1      -5.714  -2.108  16.580  1.00  0.00    -0.342 N 
ATOM     48  H   UNL     1      -4.818  -2.001  17.035  1.00  0.00     0.164 HD
BRANCH  47  49
ATOM     49  C   UNL     1      -6.905  -1.789  17.372  1.00  0.00     0.192 C 
BRANCH  49  50
ATOM     50  C   UNL     1      -6.590  -0.643  18.337  1.00  0.00     0.047 C 
BRANCH  50  51
ATOM     51  C   UNL     1      -6.780   0.734  17.686  1.00  0.00     0.103 C 
BRANCH  51  52
ATOM     52  C   UNL     1      -5.447   1.392  17.335  1.00  0.00     0.226 C 
ATOM     53  O   UNL     1      -4.755   0.923  16.429  1.00  0.00    -0.275 OA
BRANCH  52  54
ATOM     54  N   UNL     1      -5.124   2.567  18.039  1.00  0.00    -0.311 N 
ATOM     55  C   UNL     1      -3.862   2.679  18.783  1.00  0.00     0.153 C 
BRANCH  54  56
ATOM     56  C   UNL     1      -5.988   3.674  18.053  1.00  0.00     0.102 C 
ATOM     57  C   UNL     1      -6.271   4.441  16.987  1.00  0.00     0.043 C 
BRANCH  56  58
ATOM     58  C   UNL     1      -6.725   4.067  19.312  1.00  0.00     0.268 C 
ATOM     59  O   UNL     1      -7.596   3.375  19.821  1.00  0.00    -0.268 OA
ATOM     60  N   UNL     1      -6.271   5.243  19.858  1.00  0.00    -0.339 N 
ATOM     61  H   UNL     1      -5.552   5.763  19.369  1.00  0.00     0.164 HD
BRANCH  60  62
ATOM     62  C   UNL     1      -6.802   5.776  21.112  1.00  0.00     0.168 CG0
ATOM     63  C   UNL     1      -6.117   7.084  21.485  1.00  0.00     0.041 C 
ATOM     64  G   UNL     1      -6.629   4.729  22.233  1.00  0.00     0.000 G0
ENDBRANCH  60  62
ENDBRANCH  56  58
ENDBRANCH  54  56
ENDBRANCH  52  54
ENDBRANCH  51  52
ENDBRANCH  50  51
ENDBRANCH  49  50
BRANCH  49  65
ATOM     65  C   UNL     1      -7.396  -3.006  18.172  1.00  0.00     0.326 C 
ATOM     66  O   UNL     1      -6.876  -3.446  19.187  1.00  0.00    -0.250 OA
BRANCH  65  67
ATOM     67  O   UNL     1      -8.462  -3.641  17.636  1.00  0.00    -0.480 OA
ATOM     68  H   UNL     1      -8.218  -3.743  16.690  1.00  0.00     0.296 HD
ENDBRANCH  65  67
ENDBRANCH  49  65
ENDBRANCH  47  49
ENDBRANCH  43  45
ENDBRANCH   1  43
BRANCH   1  69
ATOM     69  C   UNL     1      -5.099  -1.641  12.604  1.00  0.00    -0.001 C 
ATOM     70  C   UNL     1      -4.842  -1.038  11.429  1.00  0.00     0.001 C 
BRANCH  70  71
ATOM     71  C   UNL     1      -5.804  -0.731  10.369  1.00  0.00    -0.055 C 
ATOM     72  C   UNL     1      -7.114  -0.725  10.693  1.00  0.00    -0.018 C 
ATOM     73  C   UNL     1      -5.264  -0.434   8.995  1.00  0.00     0.044 C 
BRANCH  72  74
ATOM     74  C   UNL     1      -8.323  -0.441   9.813  1.00  0.00     0.038 C 
ATOM     75  C   UNL     1      -8.750   1.007  10.084  1.00  0.00     0.015 C 
BRANCH  74  76
ATOM     76  C   UNL     1      -9.417  -1.510  10.103  1.00  0.00     0.128 C 
BRANCH  76  77
ATOM     77  O   UNL     1      -9.646  -2.309   8.930  1.00  0.00    -0.381 OA
ATOM     78  C   UNL     1      -8.821  -1.955   7.828  1.00  0.00     0.195 C 
ENDBRANCH  76  77
BRANCH  76  79
ATOM     79  C   UNL     1      -9.142  -2.365  11.366  1.00  0.00     0.068 C 
BRANCH  79  80
ATOM     80  C   UNL     1      -9.911  -2.037  12.623  1.00  0.00    -0.045 A 
ATOM     81  C   UNL     1     -10.353  -0.732  12.879  1.00  0.00     0.004 A 
ATOM     82  C   UNL     1     -10.171  -3.035  13.574  1.00  0.00     0.004 A 
ATOM     83  C   UNL     1     -11.051  -0.434  14.051  1.00  0.00     0.000 A 
ATOM     84  C   UNL     1     -10.869  -2.736  14.746  1.00  0.00     0.000 A 
ATOM     85  C   UNL     1     -11.310  -1.436  14.983  1.00  0.00     0.000 A 
ENDBRANCH  79  80
ENDBRANCH  76  79
ENDBRANCH  74  76
ENDBRANCH  72  74
ENDBRANCH  70  71
ENDBRANCH   1  69
TORSDOF 17
ENDMDL
MODEL 34
REMARK VINA RESULT:    -6.822      4.138     11.032
REMARK INTER + INTRA:         -29.096
REMARK INTER:                 -20.219
REMARK INTRA:                  -8.877
REMARK UNBOUND:                -8.713
REMARK SMILES C=C1C(=O)N[C@H](C)C(=O)N[C@@H](CC(C)C)C(=O)N[C@@H](C(=O)O)[C@H](C)C(=O)N[C@@H](CCCN=C(N)N)C(=O)N[C@@H](/C=C/C(C)=C/[C@H](C)[C@H](Cc2ccccc2)OC)[C@H](C)C(=O)N[C@@H](C(=O)O)CCC(=O)N1C
REMARK SMILES IDX 39 1 38 2 37 3 36 4 28 6 27 7 25 8 26 9 23 11 24 12 19 13
REMARK SMILES IDX 18 14 16 15 17 16 11 18 10 19 8 20 9 21 12 24 13 25 14 26
REMARK SMILES IDX 15 27 20 28 21 29 22 30 29 32 30 33 31 34 32 35 33 36 34 37
REMARK SMILES IDX 35 38 57 43 58 44 59 45 60 46 61 47 62 49 66 50 67 51 68 52
REMARK SMILES IDX 69 53 70 54 71 55 2 56 1 57 3 58 4 59 5 60 6 62 7 63 63 65
REMARK SMILES IDX 64 66 65 67 40 69 41 70 42 71 44 72 43 73 45 74 46 75 47 76
REMARK SMILES IDX 55 77 56 78 48 79 49 80 50 81 54 82 51 83 53 84 52 85
REMARK H PARENT 38 5 27 10 18 17 10 22 22 31 34 39 34 40 35 41 35 42 61 48
REMARK H PARENT 5 61 65 68
REMARK Flexibility Score:  369.900
ROOT
ATOM      1  C   UNL     1      -2.698  -0.579  15.228  1.00  0.00     0.117 C 
ENDROOT
BRANCH   1   2
ATOM      2  N   UNL     1      -2.535  -1.731  14.340  1.00  0.00    -0.347 N 
ATOM      3  O   UNL     1      -3.957  -1.044  12.673  1.00  0.00    -0.273 OA
ATOM      4  C   UNL     1      -3.110  -1.828  13.087  1.00  0.00     0.243 C 
ATOM      5  H   UNL     1      -1.931  -2.489  14.619  1.00  0.00     0.164 HD
BRANCH   4   6
ATOM      6  C   UNL     1      -2.709  -3.111  12.316  1.00  0.00     0.171 C 
BRANCH   6   7
ATOM      7  N   UNL     1      -3.776  -3.506  11.383  1.00  0.00    -0.344 N 
ATOM      8  C   UNL     1      -4.613  -4.561  11.678  1.00  0.00     0.226 C 
ATOM      9  O   UNL     1      -4.500  -5.227  12.700  1.00  0.00    -0.275 OA
ATOM     10  H   UNL     1      -3.858  -3.022  10.497  1.00  0.00     0.164 HD
BRANCH   8  11
ATOM     11  C   UNL     1      -5.696  -4.808  10.643  1.00  0.00     0.109 C 
ATOM     12  C   UNL     1      -7.011  -5.171  11.334  1.00  0.00     0.021 C 
BRANCH  11  13
ATOM     13  C   UNL     1      -5.780  -3.608   9.679  1.00  0.00     0.204 C 
BRANCH  13  14
ATOM     14  N   UNL     1      -6.232  -4.004   8.342  1.00  0.00    -0.340 N 
ATOM     15  C   UNL     1      -5.371  -4.162   7.277  1.00  0.00     0.243 C 
ATOM     16  O   UNL     1      -4.153  -4.039   7.389  1.00  0.00    -0.273 OA
ATOM     17  H   UNL     1      -7.236  -3.974   8.145  1.00  0.00     0.164 HD
BRANCH  15  18
ATOM     18  C   UNL     1      -6.093  -4.378   5.924  1.00  0.00     0.171 C 
BRANCH  18  19
ATOM     19  N   UNL     1      -7.161  -5.345   6.170  1.00  0.00    -0.343 N 
ATOM     20  C   UNL     1      -7.396  -6.404   5.314  1.00  0.00     0.242 CG0
ATOM     21  O   UNL     1      -6.807  -6.507   4.241  1.00  0.00    -0.273 OA
ATOM     22  H   UNL     1      -7.752  -5.237   6.986  1.00  0.00     0.164 HD
ATOM     23  G   UNL     1      -8.512  -7.363   5.779  1.00  0.00     0.000 G0
ENDBRANCH  18  19
BRANCH  18  24
ATOM     24  C   UNL     1      -6.647  -3.053   5.388  1.00  0.00     0.038 C 
BRANCH  24  25
ATOM     25  C   UNL     1      -6.272  -2.743   3.924  1.00  0.00    -0.015 C 
ATOM     26  C   UNL     1      -5.138  -3.630   3.410  1.00  0.00     0.007 C 
ATOM     27  C   UNL     1      -5.874  -1.270   3.795  1.00  0.00     0.007 C 
ENDBRANCH  24  25
ENDBRANCH  18  24
ENDBRANCH  15  18
ENDBRANCH  13  14
BRANCH  13  28
ATOM     28  C   UNL     1      -6.725  -2.505  10.168  1.00  0.00     0.327 C 
ATOM     29  O   UNL     1      -7.879  -2.330   9.808  1.00  0.00    -0.250 OA
BRANCH  28  30
ATOM     30  O   UNL     1      -6.124  -1.621  10.990  1.00  0.00    -0.480 OA
ATOM     31  H   UNL     1      -6.593  -1.728  11.844  1.00  0.00     0.296 HD
ENDBRANCH  28  30
ENDBRANCH  13  28
ENDBRANCH  11  13
ENDBRANCH   8  11
ENDBRANCH   6   7
BRANCH   6  32
ATOM     32  C   UNL     1      -1.394  -2.860  11.568  1.00  0.00     0.037 C 
BRANCH  32  33
ATOM     33  C   UNL     1      -1.569  -2.943  10.046  1.00  0.00     0.026 C 
BRANCH  33  34
ATOM     34  C   UNL     1      -1.445  -1.579   9.366  1.00  0.00     0.146 C 
BRANCH  34  35
ATOM     35  N   UNL     1      -2.468  -1.472   8.336  1.00  0.00    -0.254 NA
ATOM     36  C   UNL     1      -3.540  -0.822   8.599  1.00  0.00     0.185 C 
ATOM     37  N   UNL     1      -4.488  -0.714   7.655  1.00  0.00    -0.370 N 
ATOM     38  N   UNL     1      -3.889  -0.194   9.736  1.00  0.00    -0.370 N 
ATOM     39  H   UNL     1      -4.294  -1.153   6.765  1.00  0.00     0.159 HD
ATOM     40  H   UNL     1      -5.268  -0.083   7.721  1.00  0.00     0.159 HD
ATOM     41  H   UNL     1      -4.820   0.165   9.868  1.00  0.00     0.159 HD
ATOM     42  H   UNL     1      -3.277  -0.207  10.537  1.00  0.00     0.159 HD
ENDBRANCH  34  35
ENDBRANCH  33  34
ENDBRANCH  32  33
ENDBRANCH   6  32
ENDBRANCH   4   6
ENDBRANCH   1   2
BRANCH   1  43
ATOM     43  C   UNL     1      -1.301  -0.184  15.788  1.00  0.00     0.102 C 
ATOM     44  C   UNL     1      -0.646  -1.289  16.634  1.00  0.00     0.020 C 
BRANCH  43  45
ATOM     45  C   UNL     1      -1.352   1.181  16.480  1.00  0.00     0.225 C 
ATOM     46  O   UNL     1      -1.078   1.342  17.666  1.00  0.00    -0.275 OA
ATOM     47  N   UNL     1      -1.820   2.220  15.709  1.00  0.00    -0.342 N 
ATOM     48  H   UNL     1      -1.895   2.105  14.708  1.00  0.00     0.164 HD
BRANCH  47  49
ATOM     49  C   UNL     1      -1.890   3.589  16.228  1.00  0.00     0.192 C 
BRANCH  49  50
ATOM     50  C   UNL     1      -3.226   4.223  15.829  1.00  0.00     0.047 C 
BRANCH  50  51
ATOM     51  C   UNL     1      -4.375   3.206  15.828  1.00  0.00     0.103 C 
BRANCH  51  52
ATOM     52  C   UNL     1      -4.867   2.895  17.240  1.00  0.00     0.226 C 
ATOM     53  O   UNL     1      -4.358   1.968  17.873  1.00  0.00    -0.275 OA
BRANCH  52  54
ATOM     54  N   UNL     1      -5.844   3.759  17.768  1.00  0.00    -0.311 N 
ATOM     55  C   UNL     1      -6.445   4.816  16.943  1.00  0.00     0.153 C 
BRANCH  54  56
ATOM     56  C   UNL     1      -6.285   3.642  19.097  1.00  0.00     0.102 C 
ATOM     57  C   UNL     1      -7.393   2.989  19.484  1.00  0.00     0.043 C 
BRANCH  56  58
ATOM     58  C   UNL     1      -5.483   4.230  20.234  1.00  0.00     0.268 C 
ATOM     59  O   UNL     1      -4.485   3.694  20.697  1.00  0.00    -0.268 OA
ATOM     60  N   UNL     1      -5.950   5.454  20.648  1.00  0.00    -0.339 N 
ATOM     61  H   UNL     1      -6.790   5.825  20.220  1.00  0.00     0.164 HD
BRANCH  60  62
ATOM     62  C   UNL     1      -5.285   6.229  21.695  1.00  0.00     0.168 CG0
ATOM     63  C   UNL     1      -5.836   7.648  21.759  1.00  0.00     0.041 C 
ATOM     64  G   UNL     1      -3.764   6.246  21.437  1.00  0.00     0.000 G0
ENDBRANCH  60  62
ENDBRANCH  56  58
ENDBRANCH  54  56
ENDBRANCH  52  54
ENDBRANCH  51  52
ENDBRANCH  50  51
ENDBRANCH  49  50
BRANCH  49  65
ATOM     65  C   UNL     1      -0.737   4.455  15.698  1.00  0.00     0.326 C 
ATOM     66  O   UNL     1       0.174   4.065  14.983  1.00  0.00    -0.250 OA
BRANCH  65  67
ATOM     67  O   UNL     1      -0.748   5.735  16.133  1.00  0.00    -0.480 OA
ATOM     68  H   UNL     1       0.090   5.814  16.639  1.00  0.00     0.296 HD
ENDBRANCH  65  67
ENDBRANCH  49  65
ENDBRANCH  47  49
ENDBRANCH  43  45
ENDBRANCH   1  43
BRANCH   1  69
ATOM     69  C   UNL     1      -3.801  -0.949  16.203  1.00  0.00    -0.001 C 
ATOM     70  C   UNL     1      -5.123  -0.748  16.056  1.00  0.00     0.001 C 
BRANCH  70  71
ATOM     71  C   UNL     1      -6.180  -1.129  16.994  1.00  0.00    -0.055 C 
ATOM     72  C   UNL     1      -6.151  -2.380  17.499  1.00  0.00    -0.018 C 
ATOM     73  C   UNL     1      -7.221  -0.095  17.337  1.00  0.00     0.044 C 
BRANCH  72  74
ATOM     74  C   UNL     1      -7.104  -3.044  18.483  1.00  0.00     0.038 C 
ATOM     75  C   UNL     1      -6.280  -3.437  19.715  1.00  0.00     0.015 C 
BRANCH  74  76
ATOM     76  C   UNL     1      -7.815  -4.231  17.768  1.00  0.00     0.128 C 
BRANCH  76  77
ATOM     77  O   UNL     1      -7.940  -5.344  18.670  1.00  0.00    -0.381 OA
ATOM     78  C   UNL     1      -7.400  -6.555  18.159  1.00  0.00     0.195 C 
ENDBRANCH  76  77
BRANCH  76  79
ATOM     79  C   UNL     1      -9.160  -3.848  17.100  1.00  0.00     0.068 C 
BRANCH  79  80
ATOM     80  C   UNL     1      -9.112  -3.013  15.843  1.00  0.00    -0.045 A 
ATOM     81  C   UNL     1      -8.271  -3.361  14.778  1.00  0.00     0.004 A 
ATOM     82  C   UNL     1      -9.894  -1.854  15.734  1.00  0.00     0.004 A 
ATOM     83  C   UNL     1      -8.222  -2.576  13.624  1.00  0.00     0.000 A 
ATOM     84  C   UNL     1      -9.844  -1.069  14.580  1.00  0.00     0.000 A 
ATOM     85  C   UNL     1      -9.010  -1.431  13.524  1.00  0.00     0.000 A 
ENDBRANCH  79  80
ENDBRANCH  76  79
ENDBRANCH  74  76
ENDBRANCH  72  74
ENDBRANCH  70  71
ENDBRANCH   1  69
TORSDOF 17
ENDMDL
MODEL 35
REMARK VINA RESULT:    -6.805      4.643     10.933
REMARK INTER + INTRA:         -29.044
REMARK INTER:                 -22.817
REMARK INTRA:                  -6.227
REMARK UNBOUND:                -8.713
REMARK SMILES C=C1C(=O)N[C@H](C)C(=O)N[C@@H](CC(C)C)C(=O)N[C@@H](C(=O)O)[C@H](C)C(=O)N[C@@H](CCCN=C(N)N)C(=O)N[C@@H](/C=C/C(C)=C/[C@H](C)[C@H](Cc2ccccc2)OC)[C@H](C)C(=O)N[C@@H](C(=O)O)CCC(=O)N1C
REMARK SMILES IDX 39 1 38 2 37 3 36 4 28 6 27 7 25 8 26 9 23 11 24 12 19 13
REMARK SMILES IDX 18 14 16 15 17 16 11 18 10 19 8 20 9 21 12 24 13 25 14 26
REMARK SMILES IDX 15 27 20 28 21 29 22 30 29 32 30 33 31 34 32 35 33 36 34 37
REMARK SMILES IDX 35 38 57 43 58 44 59 45 60 46 61 47 62 49 66 50 67 51 68 52
REMARK SMILES IDX 69 53 70 54 71 55 2 56 1 57 3 58 4 59 5 60 6 62 7 63 63 65
REMARK SMILES IDX 64 66 65 67 40 69 41 70 42 71 44 72 43 73 45 74 46 75 47 76
REMARK SMILES IDX 55 77 56 78 48 79 49 80 50 81 54 82 51 83 53 84 52 85
REMARK H PARENT 38 5 27 10 18 17 10 22 22 31 34 39 34 40 35 41 35 42 61 48
REMARK H PARENT 5 61 65 68
REMARK Flexibility Score:  369.900
ROOT
ATOM      1  C   UNL     1      -3.826  -1.224  13.047  1.00  0.00     0.117 C 
ENDROOT
BRANCH   1   2
ATOM      2  N   UNL     1      -3.209  -1.407  11.733  1.00  0.00    -0.347 N 
ATOM      3  O   UNL     1      -4.672  -0.121  10.518  1.00  0.00    -0.273 OA
ATOM      4  C   UNL     1      -3.630  -0.765  10.585  1.00  0.00     0.243 C 
ATOM      5  H   UNL     1      -2.395  -1.996  11.646  1.00  0.00     0.164 HD
BRANCH   4   6
ATOM      6  C   UNL     1      -2.752  -1.066   9.344  1.00  0.00     0.171 C 
BRANCH   6   7
ATOM      7  N   UNL     1      -2.677  -2.517   9.107  1.00  0.00    -0.344 N 
ATOM      8  C   UNL     1      -1.461  -3.165   9.097  1.00  0.00     0.226 C 
ATOM      9  O   UNL     1      -0.398  -2.578   9.258  1.00  0.00    -0.275 OA
ATOM     10  H   UNL     1      -3.528  -3.025   8.903  1.00  0.00     0.164 HD
BRANCH   8  11
ATOM     11  C   UNL     1      -1.555  -4.667   8.894  1.00  0.00     0.109 C 
ATOM     12  C   UNL     1      -0.185  -5.313   9.104  1.00  0.00     0.021 C 
BRANCH  11  13
ATOM     13  C   UNL     1      -2.684  -5.242   9.773  1.00  0.00     0.204 C 
BRANCH  13  14
ATOM     14  N   UNL     1      -3.597  -6.098   9.008  1.00  0.00    -0.340 N 
ATOM     15  C   UNL     1      -4.762  -5.629   8.440  1.00  0.00     0.243 C 
ATOM     16  O   UNL     1      -5.088  -4.444   8.484  1.00  0.00    -0.273 OA
ATOM     17  H   UNL     1      -3.465  -7.111   9.062  1.00  0.00     0.164 HD
BRANCH  15  18
ATOM     18  C   UNL     1      -5.664  -6.749   7.864  1.00  0.00     0.171 C 
BRANCH  18  19
ATOM     19  N   UNL     1      -5.041  -7.188   6.617  1.00  0.00    -0.343 N 
ATOM     20  C   UNL     1      -5.788  -7.476   5.491  1.00  0.00     0.242 CG0
ATOM     21  O   UNL     1      -7.016  -7.505   5.524  1.00  0.00    -0.273 OA
ATOM     22  H   UNL     1      -4.033  -7.291   6.574  1.00  0.00     0.164 HD
ATOM     23  G   UNL     1      -4.952  -7.846   4.249  1.00  0.00     0.000 G0
ENDBRANCH  18  19
BRANCH  18  24
ATOM     24  C   UNL     1      -5.796  -7.905   8.863  1.00  0.00     0.038 C 
BRANCH  24  25
ATOM     25  C   UNL     1      -6.618  -7.573  10.127  1.00  0.00    -0.015 C 
ATOM     26  C   UNL     1      -5.882  -7.937  11.416  1.00  0.00     0.007 C 
ATOM     27  C   UNL     1      -7.960  -8.308  10.075  1.00  0.00     0.007 C 
ENDBRANCH  24  25
ENDBRANCH  18  24
ENDBRANCH  15  18
ENDBRANCH  13  14
BRANCH  13  28
ATOM     28  C   UNL     1      -2.168  -6.071  10.953  1.00  0.00     0.327 C 
ATOM     29  O   UNL     1      -2.290  -7.278  11.097  1.00  0.00    -0.250 OA
BRANCH  28  30
ATOM     30  O   UNL     1      -1.636  -5.317  11.936  1.00  0.00    -0.480 OA
ATOM     31  H   UNL     1      -1.612  -4.413  11.560  1.00  0.00     0.296 HD
ENDBRANCH  28  30
ENDBRANCH  13  28
ENDBRANCH  11  13
ENDBRANCH   8  11
ENDBRANCH   6   7
BRANCH   6  32
ATOM     32  C   UNL     1      -3.336  -0.342   8.126  1.00  0.00     0.037 C 
BRANCH  32  33
ATOM     33  C   UNL     1      -4.106  -1.295   7.200  1.00  0.00     0.026 C 
BRANCH  33  34
ATOM     34  C   UNL     1      -5.251  -0.597   6.464  1.00  0.00     0.146 C 
BRANCH  34  35
ATOM     35  N   UNL     1      -4.772  -0.153   5.163  1.00  0.00    -0.254 NA
ATOM     36  C   UNL     1      -5.627   0.243   4.296  1.00  0.00     0.185 C 
ATOM     37  N   UNL     1      -5.196   0.660   3.095  1.00  0.00    -0.370 N 
ATOM     38  N   UNL     1      -6.966   0.316   4.401  1.00  0.00    -0.370 N 
ATOM     39  H   UNL     1      -4.196   0.645   2.941  1.00  0.00     0.159 HD
ATOM     40  H   UNL     1      -5.778   1.144   2.432  1.00  0.00     0.159 HD
ATOM     41  H   UNL     1      -7.542   0.513   3.600  1.00  0.00     0.159 HD
ATOM     42  H   UNL     1      -7.430   0.019   5.246  1.00  0.00     0.159 HD
ENDBRANCH  34  35
ENDBRANCH  33  34
ENDBRANCH  32  33
ENDBRANCH   6  32
ENDBRANCH   4   6
ENDBRANCH   1   2
BRANCH   1  43
ATOM     43  C   UNL     1      -2.819  -1.695  14.136  1.00  0.00     0.102 C 
ATOM     44  C   UNL     1      -2.693  -3.225  14.233  1.00  0.00     0.020 C 
BRANCH  43  45
ATOM     45  C   UNL     1      -3.099  -1.009  15.477  1.00  0.00     0.225 C 
ATOM     46  O   UNL     1      -3.913  -1.435  16.292  1.00  0.00    -0.275 OA
ATOM     47  N   UNL     1      -2.443   0.184  15.680  1.00  0.00    -0.342 N 
ATOM     48  H   UNL     1      -1.673   0.440  15.079  1.00  0.00     0.164 HD
BRANCH  47  49
ATOM     49  C   UNL     1      -2.587   0.933  16.932  1.00  0.00     0.192 C 
BRANCH  49  50
ATOM     50  C   UNL     1      -3.256   2.281  16.651  1.00  0.00     0.047 C 
BRANCH  50  51
ATOM     51  C   UNL     1      -4.777   2.153  16.487  1.00  0.00     0.103 C 
BRANCH  51  52
ATOM     52  C   UNL     1      -5.517   3.372  17.033  1.00  0.00     0.226 C 
ATOM     53  O   UNL     1      -5.466   4.441  16.422  1.00  0.00    -0.275 OA
BRANCH  52  54
ATOM     54  N   UNL     1      -6.291   3.169  18.191  1.00  0.00    -0.311 N 
ATOM     55  C   UNL     1      -7.456   2.275  18.174  1.00  0.00     0.153 C 
BRANCH  54  56
ATOM     56  C   UNL     1      -5.977   3.806  19.403  1.00  0.00     0.102 C 
ATOM     57  C   UNL     1      -6.853   4.477  20.168  1.00  0.00     0.043 C 
BRANCH  56  58
ATOM     58  C   UNL     1      -4.580   3.739  19.974  1.00  0.00     0.268 C 
ATOM     59  O   UNL     1      -3.906   2.717  19.976  1.00  0.00    -0.268 OA
ATOM     60  N   UNL     1      -4.123   4.953  20.429  1.00  0.00    -0.339 N 
ATOM     61  H   UNL     1      -4.748   5.749  20.402  1.00  0.00     0.164 HD
BRANCH  60  62
ATOM     62  C   UNL     1      -2.774   5.126  20.965  1.00  0.00     0.168 CG0
ATOM     63  C   UNL     1      -1.771   5.386  19.848  1.00  0.00     0.041 C 
ATOM     64  G   UNL     1      -2.375   3.876  21.776  1.00  0.00     0.000 G0
ENDBRANCH  60  62
ENDBRANCH  56  58
ENDBRANCH  54  56
ENDBRANCH  52  54
ENDBRANCH  51  52
ENDBRANCH  50  51
ENDBRANCH  49  50
BRANCH  49  65
ATOM     65  C   UNL     1      -1.228   1.171  17.609  1.00  0.00     0.326 C 
ATOM     66  O   UNL     1      -0.157   0.718  17.232  1.00  0.00    -0.250 OA
BRANCH  65  67
ATOM     67  O   UNL     1      -1.284   1.903  18.744  1.00  0.00    -0.480 OA
ATOM     68  H   UNL     1      -0.448   2.417  18.729  1.00  0.00     0.296 HD
ENDBRANCH  65  67
ENDBRANCH  49  65
ENDBRANCH  47  49
ENDBRANCH  43  45
ENDBRANCH   1  43
BRANCH   1  69
ATOM     69  C   UNL     1      -5.189  -1.888  12.972  1.00  0.00    -0.001 C 
ATOM     70  C   UNL     1      -6.287  -1.582  13.684  1.00  0.00     0.001 C 
BRANCH  70  71
ATOM     71  C   UNL     1      -7.603  -2.216  13.588  1.00  0.00    -0.055 C 
ATOM     72  C   UNL     1      -8.657  -1.559  14.117  1.00  0.00    -0.018 C 
ATOM     73  C   UNL     1      -7.690  -3.552  12.897  1.00  0.00     0.044 C 
BRANCH  72  74
ATOM     74  C   UNL     1     -10.123  -1.966  14.161  1.00  0.00     0.038 C 
ATOM     75  C   UNL     1     -10.213  -3.240  15.011  1.00  0.00     0.015 C 
BRANCH  74  76
ATOM     76  C   UNL     1     -10.645  -2.116  12.702  1.00  0.00     0.128 C 
BRANCH  76  77
ATOM     77  O   UNL     1     -11.843  -2.912  12.689  1.00  0.00    -0.381 OA
ATOM     78  C   UNL     1     -11.818  -3.966  11.736  1.00  0.00     0.195 C 
ENDBRANCH  76  77
BRANCH  76  79
ATOM     79  C   UNL     1     -10.811  -0.771  11.952  1.00  0.00     0.068 C 
BRANCH  79  80
ATOM     80  C   UNL     1      -9.753  -0.387  10.946  1.00  0.00    -0.045 A 
ATOM     81  C   UNL     1      -9.461   0.957  10.682  1.00  0.00     0.004 A 
ATOM     82  C   UNL     1      -9.060  -1.379  10.235  1.00  0.00     0.004 A 
ATOM     83  C   UNL     1      -8.491   1.304   9.739  1.00  0.00     0.000 A 
ATOM     84  C   UNL     1      -8.090  -1.032   9.293  1.00  0.00     0.000 A 
ATOM     85  C   UNL     1      -7.805   0.309   9.046  1.00  0.00     0.000 A 
ENDBRANCH  79  80
ENDBRANCH  76  79
ENDBRANCH  74  76
ENDBRANCH  72  74
ENDBRANCH  70  71
ENDBRANCH   1  69
TORSDOF 17
ENDMDL
MODEL 36
REMARK VINA RESULT:    -6.800      4.496     10.518
REMARK INTER + INTRA:         -29.028
REMARK INTER:                 -22.775
REMARK INTRA:                  -6.253
REMARK UNBOUND:                -8.713
REMARK SMILES C=C1C(=O)N[C@H](C)C(=O)N[C@@H](CC(C)C)C(=O)N[C@@H](C(=O)O)[C@H](C)C(=O)N[C@@H](CCCN=C(N)N)C(=O)N[C@@H](/C=C/C(C)=C/[C@H](C)[C@H](Cc2ccccc2)OC)[C@H](C)C(=O)N[C@@H](C(=O)O)CCC(=O)N1C
REMARK SMILES IDX 39 1 38 2 37 3 36 4 28 6 27 7 25 8 26 9 23 11 24 12 19 13
REMARK SMILES IDX 18 14 16 15 17 16 11 18 10 19 8 20 9 21 12 24 13 25 14 26
REMARK SMILES IDX 15 27 20 28 21 29 22 30 29 32 30 33 31 34 32 35 33 36 34 37
REMARK SMILES IDX 35 38 57 43 58 44 59 45 60 46 61 47 62 49 66 50 67 51 68 52
REMARK SMILES IDX 69 53 70 54 71 55 2 56 1 57 3 58 4 59 5 60 6 62 7 63 63 65
REMARK SMILES IDX 64 66 65 67 40 69 41 70 42 71 44 72 43 73 45 74 46 75 47 76
REMARK SMILES IDX 55 77 56 78 48 79 49 80 50 81 54 82 51 83 53 84 52 85
REMARK H PARENT 38 5 27 10 18 17 10 22 22 31 34 39 34 40 35 41 35 42 61 48
REMARK H PARENT 5 61 65 68
REMARK Flexibility Score:  369.900
ROOT
ATOM      1  C   UNL     1      -4.835  -2.577  13.286  1.00  0.00     0.117 C 
ENDROOT
BRANCH   1   2
ATOM      2  N   UNL     1      -5.994  -2.534  12.395  1.00  0.00    -0.347 N 
ATOM      3  O   UNL     1      -6.151  -4.785  11.974  1.00  0.00    -0.273 OA
ATOM      4  C   UNL     1      -6.618  -3.655  11.881  1.00  0.00     0.243 C 
ATOM      5  H   UNL     1      -6.410  -1.643  12.168  1.00  0.00     0.164 HD
BRANCH   4   6
ATOM      6  C   UNL     1      -7.876  -3.335  11.035  1.00  0.00     0.171 C 
BRANCH   6   7
ATOM      7  N   UNL     1      -7.495  -3.005   9.652  1.00  0.00    -0.344 N 
ATOM      8  C   UNL     1      -7.698  -1.738   9.151  1.00  0.00     0.226 C 
ATOM      9  O   UNL     1      -8.216  -0.843   9.808  1.00  0.00    -0.275 OA
ATOM     10  H   UNL     1      -7.127  -3.736   9.057  1.00  0.00     0.164 HD
BRANCH   8  11
ATOM     11  C   UNL     1      -7.203  -1.541   7.728  1.00  0.00     0.109 C 
ATOM     12  C   UNL     1      -7.438  -0.097   7.285  1.00  0.00     0.021 C 
BRANCH  11  13
ATOM     13  C   UNL     1      -5.745  -2.026   7.612  1.00  0.00     0.204 C 
BRANCH  13  14
ATOM     14  N   UNL     1      -5.521  -2.816   6.397  1.00  0.00    -0.340 N 
ATOM     15  C   UNL     1      -5.712  -4.180   6.345  1.00  0.00     0.243 C 
ATOM     16  O   UNL     1      -6.142  -4.823   7.300  1.00  0.00    -0.273 OA
ATOM     17  H   UNL     1      -5.023  -2.372   5.621  1.00  0.00     0.164 HD
BRANCH  15  18
ATOM     18  C   UNL     1      -5.216  -4.824   5.027  1.00  0.00     0.171 C 
BRANCH  18  19
ATOM     19  N   UNL     1      -4.930  -6.225   5.328  1.00  0.00    -0.343 N 
ATOM     20  C   UNL     1      -3.646  -6.668   5.583  1.00  0.00     0.242 CG0
ATOM     21  O   UNL     1      -2.671  -5.934   5.437  1.00  0.00    -0.273 OA
ATOM     22  H   UNL     1      -5.690  -6.896   5.346  1.00  0.00     0.164 HD
ATOM     23  G   UNL     1      -3.550  -8.161   5.958  1.00  0.00     0.000 G0
ENDBRANCH  18  19
BRANCH  18  24
ATOM     24  C   UNL     1      -6.277  -4.691   3.927  1.00  0.00     0.038 C 
BRANCH  24  25
ATOM     25  C   UNL     1      -5.886  -3.751   2.766  1.00  0.00    -0.015 C 
ATOM     26  C   UNL     1      -4.394  -3.810   2.442  1.00  0.00     0.007 C 
ATOM     27  C   UNL     1      -6.282  -2.313   3.113  1.00  0.00     0.007 C 
ENDBRANCH  24  25
ENDBRANCH  18  24
ENDBRANCH  15  18
ENDBRANCH  13  14
BRANCH  13  28
ATOM     28  C   UNL     1      -4.727  -0.882   7.603  1.00  0.00     0.327 C 
ATOM     29  O   UNL     1      -4.440  -0.162   8.548  1.00  0.00    -0.250 OA
BRANCH  28  30
ATOM     30  O   UNL     1      -4.219  -0.635   6.379  1.00  0.00    -0.480 OA
ATOM     31  H   UNL     1      -3.444  -1.232   6.314  1.00  0.00     0.296 HD
ENDBRANCH  28  30
ENDBRANCH  13  28
ENDBRANCH  11  13
ENDBRANCH   8  11
ENDBRANCH   6   7
BRANCH   6  32
ATOM     32  C   UNL     1      -8.824  -4.539  11.069  1.00  0.00     0.037 C 
BRANCH  32  33
ATOM     33  C   UNL     1      -8.938  -5.226   9.701  1.00  0.00     0.026 C 
BRANCH  33  34
ATOM     34  C   UNL     1      -8.035  -6.455   9.587  1.00  0.00     0.146 C 
BRANCH  34  35
ATOM     35  N   UNL     1      -8.287  -7.330  10.723  1.00  0.00    -0.254 NA
ATOM     36  C   UNL     1      -7.488  -8.309  10.934  1.00  0.00     0.185 C 
ATOM     37  N   UNL     1      -7.708  -9.119  11.981  1.00  0.00    -0.370 N 
ATOM     38  N   UNL     1      -6.400  -8.678  10.234  1.00  0.00    -0.370 N 
ATOM     39  H   UNL     1      -8.505  -8.901  12.565  1.00  0.00     0.159 HD
ATOM     40  H   UNL     1      -7.040  -9.794  12.312  1.00  0.00     0.159 HD
ATOM     41  H   UNL     1      -5.933  -9.550  10.418  1.00  0.00     0.159 HD
ATOM     42  H   UNL     1      -6.124  -8.167   9.409  1.00  0.00     0.159 HD
ENDBRANCH  34  35
ENDBRANCH  33  34
ENDBRANCH  32  33
ENDBRANCH   6  32
ENDBRANCH   4   6
ENDBRANCH   1   2
BRANCH   1  43
ATOM     43  C   UNL     1      -4.917  -1.371  14.266  1.00  0.00     0.102 C 
ATOM     44  C   UNL     1      -3.579  -1.046  14.950  1.00  0.00     0.020 C 
BRANCH  43  45
ATOM     45  C   UNL     1      -6.089  -1.532  15.238  1.00  0.00     0.225 C 
ATOM     46  O   UNL     1      -7.103  -2.170  14.968  1.00  0.00    -0.275 OA
ATOM     47  N   UNL     1      -5.981  -0.832  16.418  1.00  0.00    -0.342 N 
ATOM     48  H   UNL     1      -5.088  -0.442  16.688  1.00  0.00     0.164 HD
BRANCH  47  49
ATOM     49  C   UNL     1      -7.010  -0.919  17.458  1.00  0.00     0.192 C 
BRANCH  49  50
ATOM     50  C   UNL     1      -6.853   0.249  18.436  1.00  0.00     0.047 C 
BRANCH  50  51
ATOM     51  C   UNL     1      -7.628   1.495  17.983  1.00  0.00     0.103 C 
BRANCH  51  52
ATOM     52  C   UNL     1      -7.171   2.753  18.719  1.00  0.00     0.226 C 
ATOM     53  O   UNL     1      -7.717   3.073  19.777  1.00  0.00    -0.275 OA
BRANCH  52  54
ATOM     54  N   UNL     1      -6.077   3.441  18.164  1.00  0.00    -0.311 N 
ATOM     55  C   UNL     1      -6.270   4.441  17.105  1.00  0.00     0.153 C 
BRANCH  54  56
ATOM     56  C   UNL     1      -4.763   3.204  18.603  1.00  0.00     0.102 C 
ATOM     57  C   UNL     1      -3.875   2.414  17.978  1.00  0.00     0.043 C 
BRANCH  56  58
ATOM     58  C   UNL     1      -4.224   3.887  19.837  1.00  0.00     0.268 C 
ATOM     59  O   UNL     1      -3.097   3.691  20.273  1.00  0.00    -0.268 OA
ATOM     60  N   UNL     1      -5.101   4.796  20.379  1.00  0.00    -0.339 N 
ATOM     61  H   UNL     1      -6.020   4.893  19.965  1.00  0.00     0.164 HD
BRANCH  60  62
ATOM     62  C   UNL     1      -4.756   5.615  21.541  1.00  0.00     0.168 CG0
ATOM     63  C   UNL     1      -5.696   6.807  21.668  1.00  0.00     0.041 C 
ATOM     64  G   UNL     1      -3.291   6.084  21.426  1.00  0.00     0.000 G0
ENDBRANCH  60  62
ENDBRANCH  56  58
ENDBRANCH  54  56
ENDBRANCH  52  54
ENDBRANCH  51  52
ENDBRANCH  50  51
ENDBRANCH  49  50
BRANCH  49  65
ATOM     65  C   UNL     1      -6.924  -2.244  18.231  1.00  0.00     0.326 C 
ATOM     66  O   UNL     1      -6.100  -2.511  19.095  1.00  0.00    -0.250 OA
BRANCH  65  67
ATOM     67  O   UNL     1      -7.821  -3.179  17.848  1.00  0.00    -0.480 OA
ATOM     68  H   UNL     1      -8.136  -2.855  16.978  1.00  0.00     0.296 HD
ENDBRANCH  65  67
ENDBRANCH  49  65
ENDBRANCH  47  49
ENDBRANCH  43  45
ENDBRANCH   1  43
BRANCH   1  69
ATOM     69  C   UNL     1      -3.617  -2.713  12.391  1.00  0.00    -0.001 C 
ATOM     70  C   UNL     1      -3.284  -1.941  11.341  1.00  0.00     0.001 C 
BRANCH  70  71
ATOM     71  C   UNL     1      -2.094  -2.069  10.497  1.00  0.00    -0.055 C 
ATOM     72  C   UNL     1      -1.704  -3.312  10.146  1.00  0.00    -0.018 C 
ATOM     73  C   UNL     1      -1.395  -0.803  10.073  1.00  0.00     0.044 C 
BRANCH  72  74
ATOM     74  C   UNL     1      -0.525  -3.745   9.287  1.00  0.00     0.038 C 
ATOM     75  C   UNL     1      -1.067  -4.714   8.229  1.00  0.00     0.015 C 
BRANCH  74  76
ATOM     76  C   UNL     1       0.578  -4.339  10.213  1.00  0.00     0.128 C 
BRANCH  76  77
ATOM     77  O   UNL     1       0.528  -5.775  10.176  1.00  0.00    -0.381 OA
ATOM     78  C   UNL     1       0.338  -6.372  11.452  1.00  0.00     0.195 C 
ENDBRANCH  76  77
BRANCH  76  79
ATOM     79  C   UNL     1       1.997  -3.781   9.939  1.00  0.00     0.068 C 
BRANCH  79  80
ATOM     80  C   UNL     1       2.443  -2.568  10.719  1.00  0.00    -0.045 A 
ATOM     81  C   UNL     1       1.582  -1.937  11.627  1.00  0.00     0.004 A 
ATOM     82  C   UNL     1       3.726  -2.034  10.525  1.00  0.00     0.004 A 
ATOM     83  C   UNL     1       1.997  -0.807  12.335  1.00  0.00     0.000 A 
ATOM     84  C   UNL     1       4.139  -0.903  11.233  1.00  0.00     0.000 A 
ATOM     85  C   UNL     1       3.276  -0.291  12.138  1.00  0.00     0.000 A 
ENDBRANCH  79  80
ENDBRANCH  76  79
ENDBRANCH  74  76
ENDBRANCH  72  74
ENDBRANCH  70  71
ENDBRANCH   1  69
TORSDOF 17
ENDMDL
MODEL 37
REMARK VINA RESULT:    -6.791      4.807      9.502
REMARK INTER + INTRA:         -29.003
REMARK INTER:                 -21.491
REMARK INTRA:                  -7.513
REMARK UNBOUND:                -8.713
REMARK SMILES C=C1C(=O)N[C@H](C)C(=O)N[C@@H](CC(C)C)C(=O)N[C@@H](C(=O)O)[C@H](C)C(=O)N[C@@H](CCCN=C(N)N)C(=O)N[C@@H](/C=C/C(C)=C/[C@H](C)[C@H](Cc2ccccc2)OC)[C@H](C)C(=O)N[C@@H](C(=O)O)CCC(=O)N1C
REMARK SMILES IDX 39 1 38 2 37 3 36 4 28 6 27 7 25 8 26 9 23 11 24 12 19 13
REMARK SMILES IDX 18 14 16 15 17 16 11 18 10 19 8 20 9 21 12 24 13 25 14 26
REMARK SMILES IDX 15 27 20 28 21 29 22 30 29 32 30 33 31 34 32 35 33 36 34 37
REMARK SMILES IDX 35 38 57 43 58 44 59 45 60 46 61 47 62 49 66 50 67 51 68 52
REMARK SMILES IDX 69 53 70 54 71 55 2 56 1 57 3 58 4 59 5 60 6 62 7 63 63 65
REMARK SMILES IDX 64 66 65 67 40 69 41 70 42 71 44 72 43 73 45 74 46 75 47 76
REMARK SMILES IDX 55 77 56 78 48 79 49 80 50 81 54 82 51 83 53 84 52 85
REMARK H PARENT 38 5 27 10 18 17 10 22 22 31 34 39 34 40 35 41 35 42 61 48
REMARK H PARENT 5 61 65 68
REMARK Flexibility Score:  369.900
ROOT
ATOM      1  C   UNL     1      -4.171  -2.445  13.901  1.00  0.00     0.117 C 
ENDROOT
BRANCH   1   2
ATOM      2  N   UNL     1      -4.787  -1.984  12.656  1.00  0.00    -0.347 N 
ATOM      3  O   UNL     1      -6.960  -2.527  13.162  1.00  0.00    -0.273 OA
ATOM      4  C   UNL     1      -6.149  -1.978  12.423  1.00  0.00     0.243 C 
ATOM      5  H   UNL     1      -4.204  -1.597  11.929  1.00  0.00     0.164 HD
BRANCH   4   6
ATOM      6  C   UNL     1      -6.545  -1.359  11.058  1.00  0.00     0.171 C 
BRANCH   6   7
ATOM      7  N   UNL     1      -5.467  -1.549  10.075  1.00  0.00    -0.344 N 
ATOM      8  C   UNL     1      -4.567  -0.538   9.815  1.00  0.00     0.226 C 
ATOM      9  O   UNL     1      -4.629   0.558  10.361  1.00  0.00    -0.275 OA
ATOM     10  H   UNL     1      -5.424  -2.416   9.555  1.00  0.00     0.164 HD
BRANCH   8  11
ATOM     11  C   UNL     1      -3.483  -0.907   8.818  1.00  0.00     0.109 C 
ATOM     12  C   UNL     1      -2.140  -1.058   9.533  1.00  0.00     0.021 C 
BRANCH  11  13
ATOM     13  C   UNL     1      -3.924  -2.136   7.999  1.00  0.00     0.204 C 
BRANCH  13  14
ATOM     14  N   UNL     1      -4.546  -1.757   6.727  1.00  0.00    -0.340 N 
ATOM     15  C   UNL     1      -5.903  -1.844   6.502  1.00  0.00     0.243 C 
ATOM     16  O   UNL     1      -6.696  -2.188   7.376  1.00  0.00    -0.273 OA
ATOM     17  H   UNL     1      -3.936  -1.610   5.918  1.00  0.00     0.164 HD
BRANCH  15  18
ATOM     18  C   UNL     1      -6.304  -1.591   5.028  1.00  0.00     0.171 C 
BRANCH  18  19
ATOM     19  N   UNL     1      -5.253  -0.758   4.446  1.00  0.00    -0.343 N 
ATOM     20  C   UNL     1      -5.542   0.285   3.587  1.00  0.00     0.242 CG0
ATOM     21  O   UNL     1      -6.682   0.477   3.169  1.00  0.00    -0.273 OA
ATOM     22  H   UNL     1      -4.284  -0.951   4.670  1.00  0.00     0.164 HD
ATOM     23  G   UNL     1      -4.312   1.099   3.137  1.00  0.00     0.000 G0
ENDBRANCH  18  19
BRANCH  18  24
ATOM     24  C   UNL     1      -6.453  -2.918   4.273  1.00  0.00     0.038 C 
BRANCH  24  25
ATOM     25  C   UNL     1      -5.171  -3.403   3.563  1.00  0.00    -0.015 C 
ATOM     26  C   UNL     1      -5.424  -3.808   2.111  1.00  0.00     0.007 C 
ATOM     27  C   UNL     1      -4.573  -4.584   4.331  1.00  0.00     0.007 C 
ENDBRANCH  24  25
ENDBRANCH  18  24
ENDBRANCH  15  18
ENDBRANCH  13  14
BRANCH  13  28
ATOM     28  C   UNL     1      -2.771  -3.090   7.674  1.00  0.00     0.327 C 
ATOM     29  O   UNL     1      -2.000  -2.998   6.730  1.00  0.00    -0.250 OA
BRANCH  28  30
ATOM     30  O   UNL     1      -2.730  -4.167   8.485  1.00  0.00    -0.480 OA
ATOM     31  H   UNL     1      -3.668  -4.432   8.580  1.00  0.00     0.296 HD
ENDBRANCH  28  30
ENDBRANCH  13  28
ENDBRANCH  11  13
ENDBRANCH   8  11
ENDBRANCH   6   7
BRANCH   6  32
ATOM     32  C   UNL     1      -7.848  -2.003  10.573  1.00  0.00     0.037 C 
BRANCH  32  33
ATOM     33  C   UNL     1      -8.766  -0.994   9.868  1.00  0.00     0.026 C 
BRANCH  33  34
ATOM     34  C   UNL     1      -8.928   0.303  10.662  1.00  0.00     0.146 C 
BRANCH  34  35
ATOM     35  N   UNL     1     -10.262   0.334  11.245  1.00  0.00    -0.254 NA
ATOM     36  C   UNL     1     -10.418  -0.083  12.446  1.00  0.00     0.185 C 
ATOM     37  N   UNL     1     -11.643  -0.054  12.994  1.00  0.00    -0.370 N 
ATOM     38  N   UNL     1      -9.498  -0.573  13.296  1.00  0.00    -0.370 N 
ATOM     39  H   UNL     1     -12.390   0.313  12.418  1.00  0.00     0.159 HD
ATOM     40  H   UNL     1     -11.816  -0.197  13.974  1.00  0.00     0.159 HD
ATOM     41  H   UNL     1      -9.769  -0.999  14.167  1.00  0.00     0.159 HD
ATOM     42  H   UNL     1      -8.536  -0.668  13.011  1.00  0.00     0.159 HD
ENDBRANCH  34  35
ENDBRANCH  33  34
ENDBRANCH  32  33
ENDBRANCH   6  32
ENDBRANCH   4   6
ENDBRANCH   1   2
BRANCH   1  43
ATOM     43  C   UNL     1      -3.668  -1.204  14.693  1.00  0.00     0.102 C 
ATOM     44  C   UNL     1      -2.243  -1.368  15.247  1.00  0.00     0.020 C 
BRANCH  43  45
ATOM     45  C   UNL     1      -4.696  -0.768  15.742  1.00  0.00     0.225 C 
ATOM     46  O   UNL     1      -4.634   0.305  16.335  1.00  0.00    -0.275 OA
ATOM     47  N   UNL     1      -5.657  -1.701  16.054  1.00  0.00    -0.342 N 
ATOM     48  H   UNL     1      -5.785  -2.506  15.457  1.00  0.00     0.164 HD
BRANCH  47  49
ATOM     49  C   UNL     1      -6.726  -1.409  17.014  1.00  0.00     0.192 C 
BRANCH  49  50
ATOM     50  C   UNL     1      -6.518  -2.239  18.283  1.00  0.00     0.047 C 
BRANCH  50  51
ATOM     51  C   UNL     1      -5.857  -3.593  17.992  1.00  0.00     0.103 C 
BRANCH  51  52
ATOM     52  C   UNL     1      -5.576  -4.380  19.270  1.00  0.00     0.226 C 
ATOM     53  O   UNL     1      -5.028  -3.822  20.223  1.00  0.00    -0.275 OA
BRANCH  52  54
ATOM     54  N   UNL     1      -6.041  -5.708  19.304  1.00  0.00    -0.311 N 
ATOM     55  C   UNL     1      -7.426  -6.014  19.685  1.00  0.00     0.153 C 
BRANCH  54  56
ATOM     56  C   UNL     1      -5.204  -6.786  18.971  1.00  0.00     0.102 C 
ATOM     57  C   UNL     1      -5.195  -7.413  17.784  1.00  0.00     0.043 C 
BRANCH  56  58
ATOM     58  C   UNL     1      -4.181  -7.305  19.954  1.00  0.00     0.268 C 
ATOM     59  O   UNL     1      -4.061  -6.867  21.090  1.00  0.00    -0.268 OA
ATOM     60  N   UNL     1      -3.449  -8.360  19.465  1.00  0.00    -0.339 N 
ATOM     61  H   UNL     1      -3.601  -8.657  18.508  1.00  0.00     0.164 HD
BRANCH  60  62
ATOM     62  C   UNL     1      -2.447  -9.055  20.273  1.00  0.00     0.168 CG0
ATOM     63  C   UNL     1      -2.983 -10.386  20.783  1.00  0.00     0.041 C 
ATOM     64  G   UNL     1      -2.016  -8.153  21.448  1.00  0.00     0.000 G0
ENDBRANCH  60  62
ENDBRANCH  56  58
ENDBRANCH  54  56
ENDBRANCH  52  54
ENDBRANCH  51  52
ENDBRANCH  50  51
ENDBRANCH  49  50
BRANCH  49  65
ATOM     65  C   UNL     1      -8.113  -1.715  16.427  1.00  0.00     0.326 C 
ATOM     66  O   UNL     1      -8.489  -2.807  16.025  1.00  0.00    -0.250 OA
BRANCH  65  67
ATOM     67  O   UNL     1      -8.928  -0.643  16.319  1.00  0.00    -0.480 OA
ATOM     68  H   UNL     1      -9.707  -0.993  15.834  1.00  0.00     0.296 HD
ENDBRANCH  65  67
ENDBRANCH  49  65
ENDBRANCH  47  49
ENDBRANCH  43  45
ENDBRANCH   1  43
BRANCH   1  69
ATOM     69  C   UNL     1      -3.173  -3.518  13.507  1.00  0.00    -0.001 C 
ATOM     70  C   UNL     1      -3.245  -4.356  12.458  1.00  0.00     0.001 C 
BRANCH  70  71
ATOM     71  C   UNL     1      -2.264  -5.374  12.076  1.00  0.00    -0.055 C 
ATOM     72  C   UNL     1      -1.116  -4.955  11.502  1.00  0.00    -0.018 C 
ATOM     73  C   UNL     1      -2.601  -6.815  12.358  1.00  0.00     0.044 C 
BRANCH  72  74
ATOM     74  C   UNL     1       0.070  -5.774  11.012  1.00  0.00     0.038 C 
ATOM     75  C   UNL     1       0.986  -6.012  12.218  1.00  0.00     0.015 C 
BRANCH  74  76
ATOM     76  C   UNL     1       0.738  -5.024   9.822  1.00  0.00     0.128 C 
BRANCH  76  77
ATOM     77  O   UNL     1       0.379  -5.655   8.581  1.00  0.00    -0.381 OA
ATOM     78  C   UNL     1       0.846  -4.960   7.432  1.00  0.00     0.195 C 
ENDBRANCH  76  77
BRANCH  76  79
ATOM     79  C   UNL     1       0.479  -3.497   9.815  1.00  0.00     0.068 C 
BRANCH  79  80
ATOM     80  C   UNL     1       1.465  -2.609  10.534  1.00  0.00    -0.045 A 
ATOM     81  C   UNL     1       1.041  -1.711  11.522  1.00  0.00     0.004 A 
ATOM     82  C   UNL     1       2.828  -2.651  10.201  1.00  0.00     0.004 A 
ATOM     83  C   UNL     1       1.958  -0.883  12.173  1.00  0.00     0.000 A 
ATOM     84  C   UNL     1       3.744  -1.821  10.852  1.00  0.00     0.000 A 
ATOM     85  C   UNL     1       3.310  -0.939  11.839  1.00  0.00     0.000 A 
ENDBRANCH  79  80
ENDBRANCH  76  79
ENDBRANCH  74  76
ENDBRANCH  72  74
ENDBRANCH  70  71
ENDBRANCH   1  69
TORSDOF 17
ENDMDL
MODEL 38
REMARK VINA RESULT:    -6.788      5.202     11.410
REMARK INTER + INTRA:         -28.994
REMARK INTER:                 -22.932
REMARK INTRA:                  -6.063
REMARK UNBOUND:                -8.713
REMARK SMILES C=C1C(=O)N[C@H](C)C(=O)N[C@@H](CC(C)C)C(=O)N[C@@H](C(=O)O)[C@H](C)C(=O)N[C@@H](CCCN=C(N)N)C(=O)N[C@@H](/C=C/C(C)=C/[C@H](C)[C@H](Cc2ccccc2)OC)[C@H](C)C(=O)N[C@@H](C(=O)O)CCC(=O)N1C
REMARK SMILES IDX 39 1 38 2 37 3 36 4 28 6 27 7 25 8 26 9 23 11 24 12 19 13
REMARK SMILES IDX 18 14 16 15 17 16 11 18 10 19 8 20 9 21 12 24 13 25 14 26
REMARK SMILES IDX 15 27 20 28 21 29 22 30 29 32 30 33 31 34 32 35 33 36 34 37
REMARK SMILES IDX 35 38 57 43 58 44 59 45 60 46 61 47 62 49 66 50 67 51 68 52
REMARK SMILES IDX 69 53 70 54 71 55 2 56 1 57 3 58 4 59 5 60 6 62 7 63 63 65
REMARK SMILES IDX 64 66 65 67 40 69 41 70 42 71 44 72 43 73 45 74 46 75 47 76
REMARK SMILES IDX 55 77 56 78 48 79 49 80 50 81 54 82 51 83 53 84 52 85
REMARK H PARENT 38 5 27 10 18 17 10 22 22 31 34 39 34 40 35 41 35 42 61 48
REMARK H PARENT 5 61 65 68
REMARK Flexibility Score:  369.900
ROOT
ATOM      1  C   UNL     1      -4.018  -7.468  12.551  1.00  0.00     0.117 C 
ENDROOT
BRANCH   1   2
ATOM      2  N   UNL     1      -4.985  -7.116  11.511  1.00  0.00    -0.347 N 
ATOM      3  O   UNL     1      -4.782  -9.016  10.239  1.00  0.00    -0.273 OA
ATOM      4  C   UNL     1      -5.358  -7.961  10.484  1.00  0.00     0.243 C 
ATOM      5  H   UNL     1      -5.457  -6.226  11.555  1.00  0.00     0.164 HD
BRANCH   4   6
ATOM      6  C   UNL     1      -6.464  -7.378   9.568  1.00  0.00     0.171 C 
BRANCH   6   7
ATOM      7  N   UNL     1      -5.954  -7.192   8.200  1.00  0.00    -0.344 N 
ATOM      8  C   UNL     1      -5.665  -5.932   7.723  1.00  0.00     0.226 C 
ATOM      9  O   UNL     1      -5.835  -4.919   8.391  1.00  0.00    -0.275 OA
ATOM     10  H   UNL     1      -5.864  -7.999   7.595  1.00  0.00     0.164 HD
BRANCH   8  11
ATOM     11  C   UNL     1      -5.096  -5.911   6.315  1.00  0.00     0.109 C 
ATOM     12  C   UNL     1      -4.291  -7.184   6.054  1.00  0.00     0.021 C 
BRANCH  11  13
ATOM     13  C   UNL     1      -6.224  -5.638   5.301  1.00  0.00     0.204 C 
BRANCH  13  14
ATOM     14  N   UNL     1      -5.811  -4.696   4.256  1.00  0.00    -0.340 N 
ATOM     15  C   UNL     1      -6.055  -3.342   4.330  1.00  0.00     0.243 C 
ATOM     16  O   UNL     1      -6.584  -2.819   5.310  1.00  0.00    -0.273 OA
ATOM     17  H   UNL     1      -5.507  -5.079   3.357  1.00  0.00     0.164 HD
BRANCH  15  18
ATOM     18  C   UNL     1      -5.717  -2.580   3.025  1.00  0.00     0.171 C 
BRANCH  18  19
ATOM     19  N   UNL     1      -5.896  -3.529   1.928  1.00  0.00    -0.343 N 
ATOM     20  C   UNL     1      -4.860  -3.861   1.076  1.00  0.00     0.242 CG0
ATOM     21  O   UNL     1      -3.781  -3.275   1.117  1.00  0.00    -0.273 OA
ATOM     22  H   UNL     1      -6.804  -3.955   1.781  1.00  0.00     0.164 HD
ATOM     23  G   UNL     1      -5.216  -4.937   0.030  1.00  0.00     0.000 G0
ENDBRANCH  18  19
BRANCH  18  24
ATOM     24  C   UNL     1      -6.627  -1.356   2.862  1.00  0.00     0.038 C 
BRANCH  24  25
ATOM     25  C   UNL     1      -5.915   0.003   3.031  1.00  0.00    -0.015 C 
ATOM     26  C   UNL     1      -6.271   0.691   4.349  1.00  0.00     0.007 C 
ATOM     27  C   UNL     1      -6.271   0.920   1.858  1.00  0.00     0.007 C 
ENDBRANCH  24  25
ENDBRANCH  18  24
ENDBRANCH  15  18
ENDBRANCH  13  14
BRANCH  13  28
ATOM     28  C   UNL     1      -6.724  -6.904   4.599  1.00  0.00     0.327 C 
ATOM     29  O   UNL     1      -6.646  -7.147   3.404  1.00  0.00    -0.250 OA
BRANCH  28  30
ATOM     30  O   UNL     1      -7.396  -7.735   5.422  1.00  0.00    -0.480 OA
ATOM     31  H   UNL     1      -7.095  -7.481   6.319  1.00  0.00     0.296 HD
ENDBRANCH  28  30
ENDBRANCH  13  28
ENDBRANCH  11  13
ENDBRANCH   8  11
ENDBRANCH   6   7
BRANCH   6  32
ATOM     32  C   UNL     1      -7.674  -8.320   9.577  1.00  0.00     0.037 C 
BRANCH  32  33
ATOM     33  C   UNL     1      -8.494  -8.197  10.869  1.00  0.00     0.026 C 
BRANCH  33  34
ATOM     34  C   UNL     1      -9.288  -6.892  10.936  1.00  0.00     0.146 C 
BRANCH  34  35
ATOM     35  N   UNL     1      -8.487  -5.890  11.626  1.00  0.00    -0.254 NA
ATOM     36  C   UNL     1      -8.208  -4.799  11.015  1.00  0.00     0.185 C 
ATOM     37  N   UNL     1      -7.475  -3.867  11.643  1.00  0.00    -0.370 N 
ATOM     38  N   UNL     1      -8.552  -4.415   9.773  1.00  0.00    -0.370 N 
ATOM     39  H   UNL     1      -7.185  -4.078  12.589  1.00  0.00     0.159 HD
ATOM     40  H   UNL     1      -7.362  -2.927  11.304  1.00  0.00     0.159 HD
ATOM     41  H   UNL     1      -8.153  -3.591   9.353  1.00  0.00     0.159 HD
ATOM     42  H   UNL     1      -9.091  -5.025   9.178  1.00  0.00     0.159 HD
ENDBRANCH  34  35
ENDBRANCH  33  34
ENDBRANCH  32  33
ENDBRANCH   6  32
ENDBRANCH   4   6
ENDBRANCH   1   2
BRANCH   1  43
ATOM     43  C   UNL     1      -4.510  -6.880  13.904  1.00  0.00     0.102 C 
ATOM     44  C   UNL     1      -5.584  -7.740  14.591  1.00  0.00     0.020 C 
BRANCH  43  45
ATOM     45  C   UNL     1      -4.896  -5.405  13.755  1.00  0.00     0.225 C 
ATOM     46  O   UNL     1      -4.710  -4.764  12.725  1.00  0.00    -0.275 OA
ATOM     47  N   UNL     1      -5.388  -4.804  14.891  1.00  0.00    -0.342 N 
ATOM     48  H   UNL     1      -5.675  -5.374  15.675  1.00  0.00     0.164 HD
BRANCH  47  49
ATOM     49  C   UNL     1      -5.832  -3.407  14.888  1.00  0.00     0.192 C 
BRANCH  49  50
ATOM     50  C   UNL     1      -5.145  -2.646  16.025  1.00  0.00     0.047 C 
BRANCH  50  51
ATOM     51  C   UNL     1      -4.656  -1.259  15.586  1.00  0.00     0.103 C 
BRANCH  51  52
ATOM     52  C   UNL     1      -4.014  -0.487  16.737  1.00  0.00     0.226 C 
ATOM     53  O   UNL     1      -2.902  -0.822  17.151  1.00  0.00    -0.275 OA
BRANCH  52  54
ATOM     54  N   UNL     1      -4.720   0.634  17.211  1.00  0.00    -0.311 N 
ATOM     55  C   UNL     1      -6.048   0.488  17.822  1.00  0.00     0.153 C 
BRANCH  54  56
ATOM     56  C   UNL     1      -4.183   1.929  17.123  1.00  0.00     0.102 C 
ATOM     57  C   UNL     1      -4.395   2.782  16.108  1.00  0.00     0.043 C 
BRANCH  56  58
ATOM     58  C   UNL     1      -3.330   2.491  18.236  1.00  0.00     0.268 C 
ATOM     59  O   UNL     1      -2.139   2.240  18.358  1.00  0.00    -0.268 OA
ATOM     60  N   UNL     1      -4.012   3.360  19.053  1.00  0.00    -0.339 N 
ATOM     61  H   UNL     1      -5.001   3.507  18.892  1.00  0.00     0.164 HD
BRANCH  60  62
ATOM     62  C   UNL     1      -3.361   4.066  20.156  1.00  0.00     0.168 CG0
ATOM     63  C   UNL     1      -4.388   4.602  21.145  1.00  0.00     0.041 C 
ATOM     64  G   UNL     1      -2.493   5.212  19.596  1.00  0.00     0.000 G0
ENDBRANCH  60  62
ENDBRANCH  56  58
ENDBRANCH  54  56
ENDBRANCH  52  54
ENDBRANCH  51  52
ENDBRANCH  50  51
ENDBRANCH  49  50
BRANCH  49  65
ATOM     65  C   UNL     1      -7.356  -3.296  15.048  1.00  0.00     0.326 C 
ATOM     66  O   UNL     1      -8.174  -4.112  14.648  1.00  0.00    -0.250 OA
BRANCH  65  67
ATOM     67  O   UNL     1      -7.779  -2.157  15.639  1.00  0.00    -0.480 OA
ATOM     68  H   UNL     1      -8.143  -1.631  14.894  1.00  0.00     0.296 HD
ENDBRANCH  65  67
ENDBRANCH  49  65
ENDBRANCH  47  49
ENDBRANCH  43  45
ENDBRANCH   1  43
BRANCH   1  69
ATOM     69  C   UNL     1      -2.657  -7.053  12.022  1.00  0.00    -0.001 C 
ATOM     70  C   UNL     1      -1.550  -6.783  12.736  1.00  0.00     0.001 C 
BRANCH  70  71
ATOM     71  C   UNL     1      -0.236  -6.404  12.213  1.00  0.00    -0.055 C 
ATOM     72  C   UNL     1      -0.197  -5.710  11.057  1.00  0.00    -0.018 C 
ATOM     73  C   UNL     1       0.979  -6.809  13.007  1.00  0.00     0.044 C 
BRANCH  72  74
ATOM     74  C   UNL     1       1.007  -5.185  10.288  1.00  0.00     0.038 C 
ATOM     75  C   UNL     1       1.726  -4.185  11.201  1.00  0.00     0.015 C 
BRANCH  74  76
ATOM     76  C   UNL     1       0.518  -4.597   8.931  1.00  0.00     0.128 C 
BRANCH  76  77
ATOM     77  O   UNL     1       0.901  -5.467   7.853  1.00  0.00    -0.381 OA
ATOM     78  C   UNL     1       0.110  -5.309   6.683  1.00  0.00     0.195 C 
ENDBRANCH  76  77
BRANCH  76  79
ATOM     79  C   UNL     1      -0.990  -4.240   8.907  1.00  0.00     0.068 C 
BRANCH  79  80
ATOM     80  C   UNL     1      -1.371  -2.780   8.938  1.00  0.00    -0.045 A 
ATOM     81  C   UNL     1      -1.084  -1.983  10.054  1.00  0.00     0.004 A 
ATOM     82  C   UNL     1      -2.048  -2.202   7.853  1.00  0.00     0.004 A 
ATOM     83  C   UNL     1      -1.453  -0.636  10.081  1.00  0.00     0.000 A 
ATOM     84  C   UNL     1      -2.416  -0.856   7.881  1.00  0.00     0.000 A 
ATOM     85  C   UNL     1      -2.118  -0.073   8.994  1.00  0.00     0.000 A 
ENDBRANCH  79  80
ENDBRANCH  76  79
ENDBRANCH  74  76
ENDBRANCH  72  74
ENDBRANCH  70  71
ENDBRANCH   1  69
TORSDOF 17
ENDMDL
MODEL 39
REMARK VINA RESULT:    -6.785      4.584      9.262
REMARK INTER + INTRA:         -28.983
REMARK INTER:                 -22.756
REMARK INTRA:                  -6.227
REMARK UNBOUND:                -8.713
REMARK SMILES C=C1C(=O)N[C@H](C)C(=O)N[C@@H](CC(C)C)C(=O)N[C@@H](C(=O)O)[C@H](C)C(=O)N[C@@H](CCCN=C(N)N)C(=O)N[C@@H](/C=C/C(C)=C/[C@H](C)[C@H](Cc2ccccc2)OC)[C@H](C)C(=O)N[C@@H](C(=O)O)CCC(=O)N1C
REMARK SMILES IDX 39 1 38 2 37 3 36 4 28 6 27 7 25 8 26 9 23 11 24 12 19 13
REMARK SMILES IDX 18 14 16 15 17 16 11 18 10 19 8 20 9 21 12 24 13 25 14 26
REMARK SMILES IDX 15 27 20 28 21 29 22 30 29 32 30 33 31 34 32 35 33 36 34 37
REMARK SMILES IDX 35 38 57 43 58 44 59 45 60 46 61 47 62 49 66 50 67 51 68 52
REMARK SMILES IDX 69 53 70 54 71 55 2 56 1 57 3 58 4 59 5 60 6 62 7 63 63 65
REMARK SMILES IDX 64 66 65 67 40 69 41 70 42 71 44 72 43 73 45 74 46 75 47 76
REMARK SMILES IDX 55 77 56 78 48 79 49 80 50 81 54 82 51 83 53 84 52 85
REMARK H PARENT 38 5 27 10 18 17 10 22 22 31 34 39 34 40 35 41 35 42 61 48
REMARK H PARENT 5 61 65 68
REMARK Flexibility Score:  369.900
ROOT
ATOM      1  C   UNL     1      -9.142  -2.282  15.123  1.00  0.00     0.117 C 
ENDROOT
BRANCH   1   2
ATOM      2  N   UNL     1      -8.559  -2.407  13.787  1.00  0.00    -0.347 N 
ATOM      3  O   UNL     1      -8.375  -4.694  13.738  1.00  0.00    -0.273 OA
ATOM      4  C   UNL     1      -8.306  -3.613  13.163  1.00  0.00     0.243 C 
ATOM      5  H   UNL     1      -8.369  -1.574  13.251  1.00  0.00     0.164 HD
BRANCH   4   6
ATOM      6  C   UNL     1      -7.768  -3.466  11.717  1.00  0.00     0.171 C 
BRANCH   6   7
ATOM      7  N   UNL     1      -8.286  -2.235  11.098  1.00  0.00    -0.344 N 
ATOM      8  C   UNL     1      -9.182  -2.297  10.053  1.00  0.00     0.226 C 
ATOM      9  O   UNL     1      -9.571  -3.358   9.579  1.00  0.00    -0.275 OA
ATOM     10  H   UNL     1      -7.936  -1.341  11.418  1.00  0.00     0.164 HD
BRANCH   8  11
ATOM     11  C   UNL     1      -9.663  -0.944   9.561  1.00  0.00     0.109 C 
ATOM     12  C   UNL     1     -10.538  -0.278  10.623  1.00  0.00     0.021 C 
BRANCH  11  13
ATOM     13  C   UNL     1      -8.460  -0.102   9.090  1.00  0.00     0.204 C 
BRANCH  13  14
ATOM     14  N   UNL     1      -7.937  -0.561   7.800  1.00  0.00    -0.340 N 
ATOM     15  C   UNL     1      -6.596  -0.776   7.570  1.00  0.00     0.243 C 
ATOM     16  O   UNL     1      -5.747  -0.657   8.451  1.00  0.00    -0.273 OA
ATOM     17  H   UNL     1      -8.563  -0.532   6.990  1.00  0.00     0.164 HD
BRANCH  15  18
ATOM     18  C   UNL     1      -6.260  -1.053   6.084  1.00  0.00     0.171 C 
BRANCH  18  19
ATOM     19  N   UNL     1      -5.914   0.235   5.486  1.00  0.00    -0.343 N 
ATOM     20  C   UNL     1      -6.206   0.528   4.168  1.00  0.00     0.242 CG0
ATOM     21  O   UNL     1      -6.649  -0.324   3.402  1.00  0.00    -0.273 OA
ATOM     22  H   UNL     1      -5.440   0.933   6.048  1.00  0.00     0.164 HD
ATOM     23  G   UNL     1      -5.837   1.963   3.738  1.00  0.00     0.000 G0
ENDBRANCH  18  19
BRANCH  18  24
ATOM     24  C   UNL     1      -5.104  -2.055   5.968  1.00  0.00     0.038 C 
BRANCH  24  25
ATOM     25  C   UNL     1      -5.506  -3.441   5.420  1.00  0.00    -0.015 C 
ATOM     26  C   UNL     1      -4.785  -3.787   4.117  1.00  0.00     0.007 C 
ATOM     27  C   UNL     1      -7.020  -3.488   5.199  1.00  0.00     0.007 C 
ENDBRANCH  24  25
ENDBRANCH  18  24
ENDBRANCH  15  18
ENDBRANCH  13  14
BRANCH  13  28
ATOM     28  C   UNL     1      -8.786   1.387   8.945  1.00  0.00     0.327 C 
ATOM     29  O   UNL     1      -8.733   2.228   9.829  1.00  0.00    -0.250 OA
BRANCH  28  30
ATOM     30  O   UNL     1      -9.271   1.706   7.728  1.00  0.00    -0.480 OA
ATOM     31  H   UNL     1     -10.236   1.556   7.806  1.00  0.00     0.296 HD
ENDBRANCH  28  30
ENDBRANCH  13  28
ENDBRANCH  11  13
ENDBRANCH   8  11
ENDBRANCH   6   7
BRANCH   6  32
ATOM     32  C   UNL     1      -6.236  -3.461  11.748  1.00  0.00     0.037 C 
BRANCH  32  33
ATOM     33  C   UNL     1      -5.644  -4.831  11.388  1.00  0.00     0.026 C 
BRANCH  33  34
ATOM     34  C   UNL     1      -6.721  -5.861  11.045  1.00  0.00     0.146 C 
BRANCH  34  35
ATOM     35  N   UNL     1      -6.278  -7.172  11.499  1.00  0.00    -0.254 NA
ATOM     36  C   UNL     1      -7.043  -7.843  12.277  1.00  0.00     0.185 C 
ATOM     37  N   UNL     1      -6.648  -9.055  12.698  1.00  0.00    -0.370 N 
ATOM     38  N   UNL     1      -8.250  -7.511  12.768  1.00  0.00    -0.370 N 
ATOM     39  H   UNL     1      -5.751  -9.381  12.362  1.00  0.00     0.159 HD
ATOM     40  H   UNL     1      -7.255  -9.709  13.160  1.00  0.00     0.159 HD
ATOM     41  H   UNL     1      -8.692  -8.065  13.483  1.00  0.00     0.159 HD
ATOM     42  H   UNL     1      -8.666  -6.619  12.547  1.00  0.00     0.159 HD
ENDBRANCH  34  35
ENDBRANCH  33  34
ENDBRANCH  32  33
ENDBRANCH   6  32
ENDBRANCH   4   6
ENDBRANCH   1   2
BRANCH   1  43
ATOM     43  C   UNL     1     -10.683  -2.467  15.010  1.00  0.00     0.102 C 
ATOM     44  C   UNL     1     -11.480  -1.208  15.393  1.00  0.00     0.020 C 
BRANCH  43  45
ATOM     45  C   UNL     1     -11.140  -3.736  15.736  1.00  0.00     0.225 C 
ATOM     46  O   UNL     1     -12.321  -4.041  15.875  1.00  0.00    -0.275 OA
ATOM     47  N   UNL     1     -10.138  -4.480  16.315  1.00  0.00    -0.342 N 
ATOM     48  H   UNL     1      -9.175  -4.302  16.066  1.00  0.00     0.164 HD
BRANCH  47  49
ATOM     49  C   UNL     1     -10.423  -5.738  17.012  1.00  0.00     0.192 C 
BRANCH  49  50
ATOM     50  C   UNL     1      -9.555  -5.838  18.269  1.00  0.00     0.047 C 
BRANCH  50  51
ATOM     51  C   UNL     1      -8.599  -4.645  18.413  1.00  0.00     0.103 C 
BRANCH  51  52
ATOM     52  C   UNL     1      -7.176  -4.996  17.982  1.00  0.00     0.226 C 
ATOM     53  O   UNL     1      -6.891  -5.023  16.784  1.00  0.00    -0.275 OA
BRANCH  52  54
ATOM     54  N   UNL     1      -6.241  -5.196  19.014  1.00  0.00    -0.311 N 
ATOM     55  C   UNL     1      -5.609  -4.058  19.694  1.00  0.00     0.153 C 
BRANCH  54  56
ATOM     56  C   UNL     1      -5.881  -6.487  19.436  1.00  0.00     0.102 C 
ATOM     57  C   UNL     1      -4.762  -7.132  19.067  1.00  0.00     0.043 C 
BRANCH  56  58
ATOM     58  C   UNL     1      -6.744  -7.253  20.411  1.00  0.00     0.268 C 
ATOM     59  O   UNL     1      -7.555  -6.715  21.153  1.00  0.00    -0.268 OA
ATOM     60  N   UNL     1      -6.572  -8.614  20.331  1.00  0.00    -0.339 N 
ATOM     61  H   UNL     1      -5.871  -8.980  19.698  1.00  0.00     0.164 HD
BRANCH  60  62
ATOM     62  C   UNL     1      -7.353  -9.547  21.142  1.00  0.00     0.168 CG0
ATOM     63  C   UNL     1      -8.103 -10.541  20.263  1.00  0.00     0.041 C 
ATOM     64  G   UNL     1      -8.335  -8.759  22.035  1.00  0.00     0.000 G0
ENDBRANCH  60  62
ENDBRANCH  56  58
ENDBRANCH  54  56
ENDBRANCH  52  54
ENDBRANCH  51  52
ENDBRANCH  50  51
ENDBRANCH  49  50
BRANCH  49  65
ATOM     65  C   UNL     1     -10.158  -6.956  16.113  1.00  0.00     0.326 C 
ATOM     66  O   UNL     1      -9.056  -7.365  15.777  1.00  0.00    -0.250 OA
BRANCH  65  67
ATOM     67  O   UNL     1     -11.270  -7.558  15.637  1.00  0.00    -0.480 OA
ATOM     68  H   UNL     1     -11.817  -6.810  15.312  1.00  0.00     0.296 HD
ENDBRANCH  65  67
ENDBRANCH  49  65
ENDBRANCH  47  49
ENDBRANCH  43  45
ENDBRANCH   1  43
BRANCH   1  69
ATOM     69  C   UNL     1      -8.599  -0.989  15.704  1.00  0.00    -0.001 C 
ATOM     70  C   UNL     1      -8.074  -0.800  16.927  1.00  0.00     0.001 C 
BRANCH  70  71
ATOM     71  C   UNL     1      -7.533   0.448  17.469  1.00  0.00    -0.055 C 
ATOM     72  C   UNL     1      -6.204   0.656  17.358  1.00  0.00    -0.018 C 
ATOM     73  C   UNL     1      -8.498   1.414  18.105  1.00  0.00     0.044 C 
BRANCH  72  74
ATOM     74  C   UNL     1      -5.374   1.845  17.820  1.00  0.00     0.038 C 
ATOM     75  C   UNL     1      -6.023   3.105  17.233  1.00  0.00     0.015 C 
BRANCH  74  76
ATOM     76  C   UNL     1      -3.893   1.616  17.397  1.00  0.00     0.128 C 
BRANCH  76  77
ATOM     77  O   UNL     1      -3.644   0.211  17.223  1.00  0.00    -0.381 OA
ATOM     78  C   UNL     1      -3.074  -0.117  15.963  1.00  0.00     0.195 C 
ENDBRANCH  76  77
BRANCH  76  79
ATOM     79  C   UNL     1      -3.450   2.459  16.175  1.00  0.00     0.068 C 
BRANCH  79  80
ATOM     80  C   UNL     1      -2.592   3.675  16.428  1.00  0.00    -0.045 A 
ATOM     81  C   UNL     1      -2.280   4.079  17.733  1.00  0.00     0.004 A 
ATOM     82  C   UNL     1      -2.115   4.441  15.353  1.00  0.00     0.004 A 
ATOM     83  C   UNL     1      -1.498   5.214  17.959  1.00  0.00     0.000 A 
ATOM     84  C   UNL     1      -1.334   5.576  15.580  1.00  0.00     0.000 A 
ATOM     85  C   UNL     1      -1.024   5.961  16.883  1.00  0.00     0.000 A 
ENDBRANCH  79  80
ENDBRANCH  76  79
ENDBRANCH  74  76
ENDBRANCH  72  74
ENDBRANCH  70  71
ENDBRANCH   1  69
TORSDOF 17
ENDMDL
MODEL 40
REMARK VINA RESULT:    -6.764      4.843     11.250
REMARK INTER + INTRA:         -28.921
REMARK INTER:                 -23.025
REMARK INTRA:                  -5.896
REMARK UNBOUND:                -8.713
REMARK SMILES C=C1C(=O)N[C@H](C)C(=O)N[C@@H](CC(C)C)C(=O)N[C@@H](C(=O)O)[C@H](C)C(=O)N[C@@H](CCCN=C(N)N)C(=O)N[C@@H](/C=C/C(C)=C/[C@H](C)[C@H](Cc2ccccc2)OC)[C@H](C)C(=O)N[C@@H](C(=O)O)CCC(=O)N1C
REMARK SMILES IDX 39 1 38 2 37 3 36 4 28 6 27 7 25 8 26 9 23 11 24 12 19 13
REMARK SMILES IDX 18 14 16 15 17 16 11 18 10 19 8 20 9 21 12 24 13 25 14 26
REMARK SMILES IDX 15 27 20 28 21 29 22 30 29 32 30 33 31 34 32 35 33 36 34 37
REMARK SMILES IDX 35 38 57 43 58 44 59 45 60 46 61 47 62 49 66 50 67 51 68 52
REMARK SMILES IDX 69 53 70 54 71 55 2 56 1 57 3 58 4 59 5 60 6 62 7 63 63 65
REMARK SMILES IDX 64 66 65 67 40 69 41 70 42 71 44 72 43 73 45 74 46 75 47 76
REMARK SMILES IDX 55 77 56 78 48 79 49 80 50 81 54 82 51 83 53 84 52 85
REMARK H PARENT 38 5 27 10 18 17 10 22 22 31 34 39 34 40 35 41 35 42 61 48
REMARK H PARENT 5 61 65 68
REMARK Flexibility Score:  369.900
ROOT
ATOM      1  C   UNL     1      -4.037  -1.110  12.921  1.00  0.00     0.117 C 
ENDROOT
BRANCH   1   2
ATOM      2  N   UNL     1      -3.631  -1.378  11.541  1.00  0.00    -0.347 N 
ATOM      3  O   UNL     1      -4.396   0.573  10.605  1.00  0.00    -0.273 OA
ATOM      4  C   UNL     1      -3.761  -0.472  10.507  1.00  0.00     0.243 C 
ATOM      5  H   UNL     1      -3.180  -2.253  11.319  1.00  0.00     0.164 HD
BRANCH   4   6
ATOM      6  C   UNL     1      -3.174  -0.972   9.162  1.00  0.00     0.171 C 
BRANCH   6   7
ATOM      7  N   UNL     1      -3.289  -2.435   9.063  1.00  0.00    -0.344 N 
ATOM      8  C   UNL     1      -2.165  -3.232   9.094  1.00  0.00     0.226 C 
ATOM      9  O   UNL     1      -1.033  -2.773   9.181  1.00  0.00    -0.275 OA
ATOM     10  H   UNL     1      -4.203  -2.848   8.923  1.00  0.00     0.164 HD
BRANCH   8  11
ATOM     11  C   UNL     1      -2.453  -4.722   9.037  1.00  0.00     0.109 C 
ATOM     12  C   UNL     1      -1.985  -5.398  10.325  1.00  0.00     0.021 C 
BRANCH  11  13
ATOM     13  C   UNL     1      -3.936  -4.954   8.685  1.00  0.00     0.204 C 
BRANCH  13  14
ATOM     14  N   UNL     1      -4.126  -5.246   7.261  1.00  0.00    -0.340 N 
ATOM     15  C   UNL     1      -5.242  -4.847   6.558  1.00  0.00     0.243 C 
ATOM     16  O   UNL     1      -6.131  -4.163   7.062  1.00  0.00    -0.273 OA
ATOM     17  H   UNL     1      -3.506  -5.933   6.825  1.00  0.00     0.164 HD
BRANCH  15  18
ATOM     18  C   UNL     1      -5.321  -5.445   5.132  1.00  0.00     0.171 C 
BRANCH  18  19
ATOM     19  N   UNL     1      -4.401  -4.670   4.301  1.00  0.00    -0.343 N 
ATOM     20  C   UNL     1      -4.771  -4.184   3.062  1.00  0.00     0.242 CG0
ATOM     21  O   UNL     1      -5.842  -4.492   2.544  1.00  0.00    -0.273 OA
ATOM     22  H   UNL     1      -3.462  -4.487   4.637  1.00  0.00     0.164 HD
ATOM     23  G   UNL     1      -3.695  -3.324   2.368  1.00  0.00     0.000 G0
ENDBRANCH  18  19
BRANCH  18  24
ATOM     24  C   UNL     1      -4.948  -6.932   5.147  1.00  0.00     0.038 C 
BRANCH  24  25
ATOM     25  C   UNL     1      -6.124  -7.894   4.874  1.00  0.00    -0.015 C 
ATOM     26  C   UNL     1      -7.021  -7.414   3.733  1.00  0.00     0.007 C 
ATOM     27  C   UNL     1      -6.956  -8.063   6.148  1.00  0.00     0.007 C 
ENDBRANCH  24  25
ENDBRANCH  18  24
ENDBRANCH  15  18
ENDBRANCH  13  14
BRANCH  13  28
ATOM     28  C   UNL     1      -4.571  -6.104   9.473  1.00  0.00     0.327 C 
ATOM     29  O   UNL     1      -5.142  -6.014  10.549  1.00  0.00    -0.250 OA
BRANCH  28  30
ATOM     30  O   UNL     1      -4.345  -7.312   8.919  1.00  0.00    -0.480 OA
ATOM     31  H   UNL     1      -4.887  -7.928   9.455  1.00  0.00     0.296 HD
ENDBRANCH  28  30
ENDBRANCH  13  28
ENDBRANCH  11  13
ENDBRANCH   8  11
ENDBRANCH   6   7
BRANCH   6  32
ATOM     32  C   UNL     1      -3.909  -0.285   8.006  1.00  0.00     0.037 C 
BRANCH  32  33
ATOM     33  C   UNL     1      -4.394  -1.289   6.950  1.00  0.00     0.026 C 
BRANCH  33  34
ATOM     34  C   UNL     1      -5.457  -0.697   6.024  1.00  0.00     0.146 C 
BRANCH  34  35
ATOM     35  N   UNL     1      -5.142  -1.066   4.651  1.00  0.00    -0.254 NA
ATOM     36  C   UNL     1      -5.554  -0.311   3.702  1.00  0.00     0.185 C 
ATOM     37  N   UNL     1      -5.265  -0.638   2.433  1.00  0.00    -0.370 N 
ATOM     38  N   UNL     1      -6.271   0.824   3.777  1.00  0.00    -0.370 N 
ATOM     39  H   UNL     1      -4.716  -1.477   2.294  1.00  0.00     0.159 HD
ATOM     40  H   UNL     1      -5.398  -0.017   1.654  1.00  0.00     0.159 HD
ATOM     41  H   UNL     1      -6.654   1.254   2.950  1.00  0.00     0.159 HD
ATOM     42  H   UNL     1      -6.574   1.182   4.669  1.00  0.00     0.159 HD
ENDBRANCH  34  35
ENDBRANCH  33  34
ENDBRANCH  32  33
ENDBRANCH   6  32
ENDBRANCH   4   6
ENDBRANCH   1   2
BRANCH   1  43
ATOM     43  C   UNL     1      -2.980  -1.733  13.878  1.00  0.00     0.102 C 
ATOM     44  C   UNL     1      -2.943  -3.270  13.833  1.00  0.00     0.020 C 
BRANCH  43  45
ATOM     45  C   UNL     1      -3.110  -1.156  15.291  1.00  0.00     0.225 C 
ATOM     46  O   UNL     1      -3.771  -1.691  16.176  1.00  0.00    -0.275 OA
ATOM     47  N   UNL     1      -2.509   0.066  15.490  1.00  0.00    -0.342 N 
ATOM     48  H   UNL     1      -1.849   0.415  14.809  1.00  0.00     0.164 HD
BRANCH  47  49
ATOM     49  C   UNL     1      -2.521   0.722  16.801  1.00  0.00     0.192 C 
BRANCH  49  50
ATOM     50  C   UNL     1      -3.266   2.055  16.702  1.00  0.00     0.047 C 
BRANCH  50  51
ATOM     51  C   UNL     1      -4.789   1.876  16.758  1.00  0.00     0.103 C 
BRANCH  51  52
ATOM     52  C   UNL     1      -5.493   3.117  17.302  1.00  0.00     0.226 C 
ATOM     53  O   UNL     1      -5.644   4.101  16.574  1.00  0.00    -0.275 OA
BRANCH  52  54
ATOM     54  N   UNL     1      -6.004   3.026  18.610  1.00  0.00    -0.311 N 
ATOM     55  C   UNL     1      -7.046   2.047  18.949  1.00  0.00     0.153 C 
BRANCH  54  56
ATOM     56  C   UNL     1      -5.534   3.859  19.639  1.00  0.00     0.102 C 
ATOM     57  C   UNL     1      -6.311   4.627  20.420  1.00  0.00     0.043 C 
BRANCH  56  58
ATOM     58  C   UNL     1      -4.064   3.916  19.980  1.00  0.00     0.268 C 
ATOM     59  O   UNL     1      -3.337   2.932  19.974  1.00  0.00    -0.268 OA
ATOM     60  N   UNL     1      -3.617   5.191  20.233  1.00  0.00    -0.339 N 
ATOM     61  H   UNL     1      -4.286   5.952  20.229  1.00  0.00     0.164 HD
BRANCH  60  62
ATOM     62  C   UNL     1      -2.213   5.481  20.523  1.00  0.00     0.168 CG0
ATOM     63  C   UNL     1      -1.396   5.566  19.240  1.00  0.00     0.041 C 
ATOM     64  G   UNL     1      -1.645   4.397  21.462  1.00  0.00     0.000 G0
ENDBRANCH  60  62
ENDBRANCH  56  58
ENDBRANCH  54  56
ENDBRANCH  52  54
ENDBRANCH  51  52
ENDBRANCH  50  51
ENDBRANCH  49  50
BRANCH  49  65
ATOM     65  C   UNL     1      -1.097   0.972  17.322  1.00  0.00     0.326 C 
ATOM     66  O   UNL     1      -0.082   0.433  16.905  1.00  0.00    -0.250 OA
BRANCH  65  67
ATOM     67  O   UNL     1      -1.021   1.826  18.367  1.00  0.00    -0.480 OA
ATOM     68  H   UNL     1      -1.553   2.597  18.074  1.00  0.00     0.296 HD
ENDBRANCH  65  67
ENDBRANCH  49  65
ENDBRANCH  47  49
ENDBRANCH  43  45
ENDBRANCH   1  43
BRANCH   1  69
ATOM     69  C   UNL     1      -5.482  -1.560  13.032  1.00  0.00    -0.001 C 
ATOM     70  C   UNL     1      -6.198  -1.739  14.157  1.00  0.00     0.001 C 
BRANCH  70  71
ATOM     71  C   UNL     1      -7.599  -2.153  14.251  1.00  0.00    -0.055 C 
ATOM     72  C   UNL     1      -8.399  -1.904  13.193  1.00  0.00    -0.018 C 
ATOM     73  C   UNL     1      -8.047  -2.834  15.518  1.00  0.00     0.044 C 
BRANCH  72  74
ATOM     74  C   UNL     1      -9.877  -2.220  13.007  1.00  0.00     0.038 C 
ATOM     75  C   UNL     1      -9.967  -3.424  12.063  1.00  0.00     0.015 C 
BRANCH  74  76
ATOM     76  C   UNL     1     -10.603  -0.938  12.503  1.00  0.00     0.128 C 
BRANCH  76  77
ATOM     77  O   UNL     1     -11.611  -0.541  13.448  1.00  0.00    -0.381 OA
ATOM     78  C   UNL     1     -11.496  -1.184  14.710  1.00  0.00     0.195 C 
ENDBRANCH  76  77
BRANCH  76  79
ATOM     79  C   UNL     1      -9.646   0.220  12.125  1.00  0.00     0.068 C 
BRANCH  79  80
ATOM     80  C   UNL     1      -9.078   0.241  10.727  1.00  0.00    -0.045 A 
ATOM     81  C   UNL     1      -7.962  -0.537  10.389  1.00  0.00     0.004 A 
ATOM     82  C   UNL     1      -9.646   1.066   9.745  1.00  0.00     0.004 A 
ATOM     83  C   UNL     1      -7.434  -0.502   9.097  1.00  0.00     0.000 A 
ATOM     84  C   UNL     1      -9.117   1.101   8.453  1.00  0.00     0.000 A 
ATOM     85  C   UNL     1      -8.012   0.316   8.129  1.00  0.00     0.000 A 
ENDBRANCH  79  80
ENDBRANCH  76  79
ENDBRANCH  74  76
ENDBRANCH  72  74
ENDBRANCH  70  71
ENDBRANCH   1  69
TORSDOF 17
ENDMDL
MODEL 41
REMARK VINA RESULT:    -6.757      5.869      9.994
REMARK INTER + INTRA:         -28.901
REMARK INTER:                 -21.857
REMARK INTRA:                  -7.044
REMARK UNBOUND:                -8.713
REMARK SMILES C=C1C(=O)N[C@H](C)C(=O)N[C@@H](CC(C)C)C(=O)N[C@@H](C(=O)O)[C@H](C)C(=O)N[C@@H](CCCN=C(N)N)C(=O)N[C@@H](/C=C/C(C)=C/[C@H](C)[C@H](Cc2ccccc2)OC)[C@H](C)C(=O)N[C@@H](C(=O)O)CCC(=O)N1C
REMARK SMILES IDX 39 1 38 2 37 3 36 4 28 6 27 7 25 8 26 9 23 11 24 12 19 13
REMARK SMILES IDX 18 14 16 15 17 16 11 18 10 19 8 20 9 21 12 24 13 25 14 26
REMARK SMILES IDX 15 27 20 28 21 29 22 30 29 32 30 33 31 34 32 35 33 36 34 37
REMARK SMILES IDX 35 38 57 43 58 44 59 45 60 46 61 47 62 49 66 50 67 51 68 52
REMARK SMILES IDX 69 53 70 54 71 55 2 56 1 57 3 58 4 59 5 60 6 62 7 63 63 65
REMARK SMILES IDX 64 66 65 67 40 69 41 70 42 71 44 72 43 73 45 74 46 75 47 76
REMARK SMILES IDX 55 77 56 78 48 79 49 80 50 81 54 82 51 83 53 84 52 85
REMARK H PARENT 38 5 27 10 18 17 10 22 22 31 34 39 34 40 35 41 35 42 61 48
REMARK H PARENT 5 61 65 68
REMARK Flexibility Score:  369.900
ROOT
ATOM      1  C   UNL     1      -5.000  -5.249   9.260  1.00  0.00     0.117 C 
ENDROOT
BRANCH   1   2
ATOM      2  N   UNL     1      -5.818  -5.155  10.469  1.00  0.00    -0.347 N 
ATOM      3  O   UNL     1      -7.835  -4.749   9.452  1.00  0.00    -0.273 OA
ATOM      4  C   UNL     1      -7.191  -5.003  10.464  1.00  0.00     0.243 C 
ATOM      5  H   UNL     1      -5.379  -5.255  11.372  1.00  0.00     0.164 HD
BRANCH   4   6
ATOM      6  C   UNL     1      -7.825  -5.020  11.878  1.00  0.00     0.171 C 
BRANCH   6   7
ATOM      7  N   UNL     1      -6.781  -5.130  12.909  1.00  0.00    -0.344 N 
ATOM      8  C   UNL     1      -6.957  -5.951  14.002  1.00  0.00     0.226 C 
ATOM      9  O   UNL     1      -7.980  -6.601  14.182  1.00  0.00    -0.275 OA
ATOM     10  H   UNL     1      -5.950  -4.557  12.830  1.00  0.00     0.164 HD
BRANCH   8  11
ATOM     11  C   UNL     1      -5.768  -5.999  14.946  1.00  0.00     0.109 C 
ATOM     12  C   UNL     1      -5.012  -4.670  14.908  1.00  0.00     0.021 C 
BRANCH  11  13
ATOM     13  C   UNL     1      -6.233  -6.440  16.349  1.00  0.00     0.204 C 
BRANCH  13  14
ATOM     14  N   UNL     1      -5.144  -7.036  17.129  1.00  0.00    -0.340 N 
ATOM     15  C   UNL     1      -5.251  -8.263  17.746  1.00  0.00     0.243 C 
ATOM     16  O   UNL     1      -6.249  -8.974  17.635  1.00  0.00    -0.273 OA
ATOM     17  H   UNL     1      -4.354  -6.438  17.385  1.00  0.00     0.164 HD
BRANCH  15  18
ATOM     18  C   UNL     1      -4.061  -8.592  18.680  1.00  0.00     0.171 C 
BRANCH  18  19
ATOM     19  N   UNL     1      -4.573  -8.531  20.048  1.00  0.00    -0.343 N 
ATOM     20  C   UNL     1      -4.767  -7.329  20.700  1.00  0.00     0.242 CG0
ATOM     21  O   UNL     1      -4.395  -6.264  20.213  1.00  0.00    -0.273 OA
ATOM     22  H   UNL     1      -4.787  -9.392  20.538  1.00  0.00     0.164 HD
ATOM     23  G   UNL     1      -5.388  -7.460  22.107  1.00  0.00     0.000 G0
ENDBRANCH  18  19
BRANCH  18  24
ATOM     24  C   UNL     1      -3.484  -9.975  18.357  1.00  0.00     0.038 C 
BRANCH  24  25
ATOM     25  C   UNL     1      -2.029 -10.193  18.824  1.00  0.00    -0.015 C 
ATOM     26  C   UNL     1      -1.022  -9.409  17.982  1.00  0.00     0.007 C 
ATOM     27  C   UNL     1      -1.691 -11.685  18.776  1.00  0.00     0.007 C 
ENDBRANCH  24  25
ENDBRANCH  18  24
ENDBRANCH  15  18
ENDBRANCH  13  14
BRANCH  13  28
ATOM     28  C   UNL     1      -6.812  -5.292  17.181  1.00  0.00     0.327 C 
ATOM     29  O   UNL     1      -7.853  -4.692  16.960  1.00  0.00    -0.250 OA
BRANCH  28  30
ATOM     30  O   UNL     1      -5.989  -4.888  18.170  1.00  0.00    -0.480 OA
ATOM     31  H   UNL     1      -6.457  -5.144  18.992  1.00  0.00     0.296 HD
ENDBRANCH  28  30
ENDBRANCH  13  28
ENDBRANCH  11  13
ENDBRANCH   8  11
ENDBRANCH   6   7
BRANCH   6  32
ATOM     32  C   UNL     1      -8.653  -3.745  12.073  1.00  0.00     0.037 C 
BRANCH  32  33
ATOM     33  C   UNL     1      -7.771  -2.511  12.308  1.00  0.00     0.026 C 
BRANCH  33  34
ATOM     34  C   UNL     1      -8.406  -1.227  11.774  1.00  0.00     0.146 C 
BRANCH  34  35
ATOM     35  N   UNL     1      -9.428  -0.782  12.712  1.00  0.00    -0.254 NA
ATOM     36  C   UNL     1     -10.575  -0.443  12.255  1.00  0.00     0.185 C 
ATOM     37  N   UNL     1     -11.526  -0.036  13.110  1.00  0.00    -0.370 N 
ATOM     38  N   UNL     1     -11.006  -0.427  10.981  1.00  0.00    -0.370 N 
ATOM     39  H   UNL     1     -11.281  -0.030  14.092  1.00  0.00     0.159 HD
ATOM     40  H   UNL     1     -12.492   0.078  12.855  1.00  0.00     0.159 HD
ATOM     41  H   UNL     1     -11.887  -0.006  10.734  1.00  0.00     0.159 HD
ATOM     42  H   UNL     1     -10.391  -0.693  10.228  1.00  0.00     0.159 HD
ENDBRANCH  34  35
ENDBRANCH  33  34
ENDBRANCH  32  33
ENDBRANCH   6  32
ENDBRANCH   4   6
ENDBRANCH   1   2
BRANCH   1  43
ATOM     43  C   UNL     1      -4.967  -6.734   8.798  1.00  0.00     0.102 C 
ATOM     44  C   UNL     1      -3.995  -7.606   9.611  1.00  0.00     0.020 C 
BRANCH  43  45
ATOM     45  C   UNL     1      -4.772  -6.835   7.282  1.00  0.00     0.225 C 
ATOM     46  O   UNL     1      -3.928  -7.558   6.761  1.00  0.00    -0.275 OA
ATOM     47  N   UNL     1      -5.548  -5.984   6.528  1.00  0.00    -0.342 N 
ATOM     48  H   UNL     1      -6.333  -5.514   6.954  1.00  0.00     0.164 HD
BRANCH  47  49
ATOM     49  C   UNL     1      -5.494  -5.995   5.063  1.00  0.00     0.192 C 
BRANCH  49  50
ATOM     50  C   UNL     1      -5.543  -4.559   4.536  1.00  0.00     0.047 C 
BRANCH  50  51
ATOM     51  C   UNL     1      -5.965  -3.556   5.618  1.00  0.00     0.103 C 
BRANCH  51  52
ATOM     52  C   UNL     1      -4.840  -2.585   5.969  1.00  0.00     0.226 C 
ATOM     53  O   UNL     1      -3.667  -2.920   5.793  1.00  0.00    -0.275 OA
BRANCH  52  54
ATOM     54  N   UNL     1      -5.230  -1.308   6.414  1.00  0.00    -0.311 N 
ATOM     55  C   UNL     1      -4.819  -0.808   7.733  1.00  0.00     0.153 C 
BRANCH  54  56
ATOM     56  C   UNL     1      -6.019  -0.464   5.615  1.00  0.00     0.102 C 
ATOM     57  C   UNL     1      -7.026   0.302   6.066  1.00  0.00     0.043 C 
BRANCH  56  58
ATOM     58  C   UNL     1      -5.747  -0.320   4.136  1.00  0.00     0.268 C 
ATOM     59  O   UNL     1      -4.772   0.269   3.689  1.00  0.00    -0.268 OA
ATOM     60  N   UNL     1      -6.668  -0.971   3.351  1.00  0.00    -0.339 N 
ATOM     61  H   UNL     1      -7.454  -1.427   3.799  1.00  0.00     0.164 HD
BRANCH  60  62
ATOM     62  C   UNL     1      -6.559  -1.013   1.893  1.00  0.00     0.168 CG0
ATOM     63  C   UNL     1      -5.895  -2.304   1.431  1.00  0.00     0.041 C 
ATOM     64  G   UNL     1      -5.768   0.216   1.399  1.00  0.00     0.000 G0
ENDBRANCH  60  62
ENDBRANCH  56  58
ENDBRANCH  54  56
ENDBRANCH  52  54
ENDBRANCH  51  52
ENDBRANCH  50  51
ENDBRANCH  49  50
BRANCH  49  65
ATOM     65  C   UNL     1      -6.656  -6.799   4.459  1.00  0.00     0.326 C 
ATOM     66  O   UNL     1      -6.654  -7.337   3.362  1.00  0.00    -0.250 OA
BRANCH  65  67
ATOM     67  O   UNL     1      -7.771  -6.837   5.221  1.00  0.00    -0.480 OA
ATOM     68  H   UNL     1      -8.495  -6.658   4.583  1.00  0.00     0.296 HD
ENDBRANCH  65  67
ENDBRANCH  49  65
ENDBRANCH  47  49
ENDBRANCH  43  45
ENDBRANCH   1  43
BRANCH   1  69
ATOM     69  C   UNL     1      -3.690  -4.551   9.579  1.00  0.00    -0.001 C 
ATOM     70  C   UNL     1      -2.715  -4.210   8.718  1.00  0.00     0.001 C 
BRANCH  70  71
ATOM     71  C   UNL     1      -1.465  -3.517   9.034  1.00  0.00    -0.055 C 
ATOM     72  C   UNL     1      -0.311  -4.194   8.861  1.00  0.00    -0.018 C 
ATOM     73  C   UNL     1      -1.555  -2.095   9.524  1.00  0.00     0.044 C 
BRANCH  72  74
ATOM     74  C   UNL     1       1.121  -3.735   9.101  1.00  0.00     0.038 C 
ATOM     75  C   UNL     1       1.949  -4.182   7.891  1.00  0.00     0.015 C 
BRANCH  74  76
ATOM     76  C   UNL     1       1.605  -4.302  10.469  1.00  0.00     0.128 C 
BRANCH  76  77
ATOM     77  O   UNL     1       2.923  -3.810  10.765  1.00  0.00    -0.381 OA
ATOM     78  C   UNL     1       2.995  -2.394  10.865  1.00  0.00     0.195 C 
ENDBRANCH  76  77
BRANCH  76  79
ATOM     79  C   UNL     1       0.606  -4.078  11.632  1.00  0.00     0.068 C 
BRANCH  79  80
ATOM     80  C   UNL     1      -0.345  -5.199  11.973  1.00  0.00    -0.045 A 
ATOM     81  C   UNL     1      -1.555  -4.945  12.632  1.00  0.00     0.004 A 
ATOM     82  C   UNL     1      -0.015  -6.526  11.658  1.00  0.00     0.004 A 
ATOM     83  C   UNL     1      -2.422  -5.990  12.957  1.00  0.00     0.000 A 
ATOM     84  C   UNL     1      -0.884  -7.571  11.983  1.00  0.00     0.000 A 
ATOM     85  C   UNL     1      -2.087  -7.302  12.631  1.00  0.00     0.000 A 
ENDBRANCH  79  80
ENDBRANCH  76  79
ENDBRANCH  74  76
ENDBRANCH  72  74
ENDBRANCH  70  71
ENDBRANCH   1  69
TORSDOF 17
ENDMDL
MODEL 42
REMARK VINA RESULT:    -6.721      4.422      8.967
REMARK INTER + INTRA:         -28.794
REMARK INTER:                 -20.449
REMARK INTRA:                  -8.345
REMARK UNBOUND:                -8.713
REMARK SMILES C=C1C(=O)N[C@H](C)C(=O)N[C@@H](CC(C)C)C(=O)N[C@@H](C(=O)O)[C@H](C)C(=O)N[C@@H](CCCN=C(N)N)C(=O)N[C@@H](/C=C/C(C)=C/[C@H](C)[C@H](Cc2ccccc2)OC)[C@H](C)C(=O)N[C@@H](C(=O)O)CCC(=O)N1C
REMARK SMILES IDX 39 1 38 2 37 3 36 4 28 6 27 7 25 8 26 9 23 11 24 12 19 13
REMARK SMILES IDX 18 14 16 15 17 16 11 18 10 19 8 20 9 21 12 24 13 25 14 26
REMARK SMILES IDX 15 27 20 28 21 29 22 30 29 32 30 33 31 34 32 35 33 36 34 37
REMARK SMILES IDX 35 38 57 43 58 44 59 45 60 46 61 47 62 49 66 50 67 51 68 52
REMARK SMILES IDX 69 53 70 54 71 55 2 56 1 57 3 58 4 59 5 60 6 62 7 63 63 65
REMARK SMILES IDX 64 66 65 67 40 69 41 70 42 71 44 72 43 73 45 74 46 75 47 76
REMARK SMILES IDX 55 77 56 78 48 79 49 80 50 81 54 82 51 83 53 84 52 85
REMARK H PARENT 38 5 27 10 18 17 10 22 22 31 34 39 34 40 35 41 35 42 61 48
REMARK H PARENT 5 61 65 68
REMARK Flexibility Score:  369.900
ROOT
ATOM      1  C   UNL     1      -3.689  -1.170  12.203  1.00  0.00     0.117 C 
ENDROOT
BRANCH   1   2
ATOM      2  N   UNL     1      -4.843  -0.965  11.327  1.00  0.00    -0.347 N 
ATOM      3  O   UNL     1      -4.007   0.794  10.113  1.00  0.00    -0.273 OA
ATOM      4  C   UNL     1      -4.874  -0.056  10.288  1.00  0.00     0.243 C 
ATOM      5  H   UNL     1      -5.660  -1.547  11.440  1.00  0.00     0.164 HD
BRANCH   4   6
ATOM      6  C   UNL     1      -6.184  -0.098   9.460  1.00  0.00     0.171 C 
BRANCH   6   7
ATOM      7  N   UNL     1      -6.165  -1.234   8.525  1.00  0.00    -0.344 N 
ATOM      8  C   UNL     1      -6.718  -1.119   7.268  1.00  0.00     0.226 C 
ATOM      9  O   UNL     1      -7.265  -0.093   6.879  1.00  0.00    -0.275 OA
ATOM     10  H   UNL     1      -5.782  -2.118   8.835  1.00  0.00     0.164 HD
BRANCH   8  11
ATOM     11  C   UNL     1      -6.571  -2.358   6.404  1.00  0.00     0.109 C 
ATOM     12  C   UNL     1      -5.099  -2.762   6.310  1.00  0.00     0.021 C 
BRANCH  11  13
ATOM     13  C   UNL     1      -7.516  -3.465   6.913  1.00  0.00     0.204 C 
BRANCH  13  14
ATOM     14  N   UNL     1      -6.800  -4.494   7.674  1.00  0.00    -0.340 N 
ATOM     15  C   UNL     1      -7.128  -5.831   7.616  1.00  0.00     0.243 C 
ATOM     16  O   UNL     1      -8.008  -6.264   6.873  1.00  0.00    -0.273 OA
ATOM     17  H   UNL     1      -6.167  -4.188   8.418  1.00  0.00     0.164 HD
BRANCH  15  18
ATOM     18  C   UNL     1      -6.378  -6.698   8.657  1.00  0.00     0.171 C 
BRANCH  18  19
ATOM     19  N   UNL     1      -7.400  -7.387   9.443  1.00  0.00    -0.343 N 
ATOM     20  C   UNL     1      -8.080  -6.756  10.467  1.00  0.00     0.242 CG0
ATOM     21  O   UNL     1      -7.765  -5.632  10.852  1.00  0.00    -0.273 OA
ATOM     22  H   UNL     1      -7.615  -8.356   9.238  1.00  0.00     0.164 HD
ATOM     23  G   UNL     1      -9.175  -7.617  11.129  1.00  0.00     0.000 G0
ENDBRANCH  18  19
BRANCH  18  24
ATOM     24  C   UNL     1      -5.441  -7.692   7.959  1.00  0.00     0.038 C 
BRANCH  24  25
ATOM     25  C   UNL     1      -3.966  -7.243   7.885  1.00  0.00    -0.015 C 
ATOM     26  C   UNL     1      -3.639  -6.139   8.890  1.00  0.00     0.007 C 
ATOM     27  C   UNL     1      -3.645  -6.761   6.467  1.00  0.00     0.007 C 
ENDBRANCH  24  25
ENDBRANCH  18  24
ENDBRANCH  15  18
ENDBRANCH  13  14
BRANCH  13  28
ATOM     28  C   UNL     1      -8.638  -2.935   7.811  1.00  0.00     0.327 C 
ATOM     29  O   UNL     1      -8.760  -3.136   9.009  1.00  0.00    -0.250 OA
BRANCH  28  30
ATOM     30  O   UNL     1      -9.600  -2.284   7.126  1.00  0.00    -0.480 OA
ATOM     31  H   UNL     1      -9.794  -1.495   7.674  1.00  0.00     0.296 HD
ENDBRANCH  28  30
ENDBRANCH  13  28
ENDBRANCH  11  13
ENDBRANCH   8  11
ENDBRANCH   6   7
BRANCH   6  32
ATOM     32  C   UNL     1      -7.379  -0.195  10.415  1.00  0.00     0.037 C 
BRANCH  32  33
ATOM     33  C   UNL     1      -8.485   0.809  10.062  1.00  0.00     0.026 C 
BRANCH  33  34
ATOM     34  C   UNL     1      -9.866   0.156   9.989  1.00  0.00     0.146 C 
BRANCH  34  35
ATOM     35  N   UNL     1     -10.433   0.106  11.329  1.00  0.00    -0.254 NA
ATOM     36  C   UNL     1     -10.806  -1.027  11.797  1.00  0.00     0.185 C 
ATOM     37  N   UNL     1     -11.325  -1.086  13.033  1.00  0.00    -0.370 N 
ATOM     38  N   UNL     1     -10.756  -2.238  11.215  1.00  0.00    -0.370 N 
ATOM     39  H   UNL     1     -11.386  -0.213  13.541  1.00  0.00     0.159 HD
ATOM     40  H   UNL     1     -11.477  -1.945  13.532  1.00  0.00     0.159 HD
ATOM     41  H   UNL     1     -11.209  -3.035  11.631  1.00  0.00     0.159 HD
ATOM     42  H   UNL     1     -10.403  -2.342  10.276  1.00  0.00     0.159 HD
ENDBRANCH  34  35
ENDBRANCH  33  34
ENDBRANCH  32  33
ENDBRANCH   6  32
ENDBRANCH   4   6
ENDBRANCH   1   2
BRANCH   1  43
ATOM     43  C   UNL     1      -3.068  -2.561  11.886  1.00  0.00     0.102 C 
ATOM     44  C   UNL     1      -2.277  -2.593  10.567  1.00  0.00     0.020 C 
BRANCH  43  45
ATOM     45  C   UNL     1      -4.116  -3.672  12.009  1.00  0.00     0.225 C 
ATOM     46  O   UNL     1      -4.990  -3.865  11.169  1.00  0.00    -0.275 OA
ATOM     47  N   UNL     1      -4.078  -4.395  13.179  1.00  0.00    -0.342 N 
ATOM     48  H   UNL     1      -3.271  -4.328  13.783  1.00  0.00     0.164 HD
BRANCH  47  49
ATOM     49  C   UNL     1      -4.997  -5.512  13.420  1.00  0.00     0.192 C 
BRANCH  49  50
ATOM     50  C   UNL     1      -5.170  -5.720  14.927  1.00  0.00     0.047 C 
BRANCH  50  51
ATOM     51  C   UNL     1      -6.502  -5.159  15.443  1.00  0.00     0.103 C 
BRANCH  51  52
ATOM     52  C   UNL     1      -7.662  -6.123  15.205  1.00  0.00     0.226 C 
ATOM     53  O   UNL     1      -7.447  -7.336  15.161  1.00  0.00    -0.275 OA
BRANCH  52  54
ATOM     54  N   UNL     1      -8.945  -5.552  15.124  1.00  0.00    -0.311 N 
ATOM     55  C   UNL     1      -9.202  -4.195  15.623  1.00  0.00     0.153 C 
BRANCH  54  56
ATOM     56  C   UNL     1     -10.024  -6.253  14.559  1.00  0.00     0.102 C 
ATOM     57  C   UNL     1     -11.040  -6.790  15.254  1.00  0.00     0.043 C 
BRANCH  56  58
ATOM     58  C   UNL     1     -10.142  -6.418  13.062  1.00  0.00     0.268 C 
ATOM     59  O   UNL     1     -10.893  -5.743  12.371  1.00  0.00    -0.268 OA
ATOM     60  N   UNL     1      -9.275  -7.355  12.552  1.00  0.00    -0.339 N 
ATOM     61  H   UNL     1      -8.692  -7.879  13.193  1.00  0.00     0.164 HD
BRANCH  60  62
ATOM     62  C   UNL     1      -9.179  -7.628  11.118  1.00  0.00     0.168 CG0
ATOM     63  C   UNL     1      -8.894  -9.103  10.861  1.00  0.00     0.041 C 
ATOM     64  G   UNL     1      -8.081  -6.743  10.495  1.00  0.00     0.000 G0
ENDBRANCH  60  62
ENDBRANCH  56  58
ENDBRANCH  54  56
ENDBRANCH  52  54
ENDBRANCH  51  52
ENDBRANCH  50  51
ENDBRANCH  49  50
BRANCH  49  65
ATOM     65  C   UNL     1      -4.487  -6.813  12.781  1.00  0.00     0.326 C 
ATOM     66  O   UNL     1      -5.190  -7.711  12.340  1.00  0.00    -0.250 OA
BRANCH  65  67
ATOM     67  O   UNL     1      -3.143  -6.951  12.781  1.00  0.00    -0.480 OA
ATOM     68  H   UNL     1      -2.940  -7.239  11.864  1.00  0.00     0.296 HD
ENDBRANCH  65  67
ENDBRANCH  49  65
ENDBRANCH  47  49
ENDBRANCH  43  45
ENDBRANCH   1  43
BRANCH   1  69
ATOM     69  C   UNL     1      -4.171  -0.886  13.613  1.00  0.00    -0.001 C 
ATOM     70  C   UNL     1      -3.477  -1.021  14.757  1.00  0.00     0.001 C 
BRANCH  70  71
ATOM     71  C   UNL     1      -3.946  -0.723  16.112  1.00  0.00    -0.055 C 
ATOM     72  C   UNL     1      -5.267  -0.504  16.284  1.00  0.00    -0.018 C 
ATOM     73  C   UNL     1      -2.924  -0.691  17.218  1.00  0.00     0.044 C 
BRANCH  72  74
ATOM     74  C   UNL     1      -6.031  -0.180  17.560  1.00  0.00     0.038 C 
ATOM     75  C   UNL     1      -7.313  -1.021  17.546  1.00  0.00     0.015 C 
BRANCH  74  76
ATOM     76  C   UNL     1      -6.260   1.359  17.630  1.00  0.00     0.128 C 
BRANCH  76  77
ATOM     77  O   UNL     1      -7.474   1.642  18.345  1.00  0.00    -0.381 OA
ATOM     78  C   UNL     1      -7.340   2.677  19.310  1.00  0.00     0.195 C 
ENDBRANCH  76  77
BRANCH  76  79
ATOM     79  C   UNL     1      -5.045   2.153  18.172  1.00  0.00     0.068 C 
BRANCH  79  80
ATOM     80  C   UNL     1      -4.219   2.942  17.186  1.00  0.00    -0.045 A 
ATOM     81  C   UNL     1      -2.903   3.320  17.485  1.00  0.00     0.004 A 
ATOM     82  C   UNL     1      -4.771   3.337  15.957  1.00  0.00     0.004 A 
ATOM     83  C   UNL     1      -2.150   4.062  16.573  1.00  0.00     0.000 A 
ATOM     84  C   UNL     1      -4.017   4.080  15.046  1.00  0.00     0.000 A 
ATOM     85  C   UNL     1      -2.707   4.441  15.353  1.00  0.00     0.000 A 
ENDBRANCH  79  80
ENDBRANCH  76  79
ENDBRANCH  74  76
ENDBRANCH  72  74
ENDBRANCH  70  71
ENDBRANCH   1  69
TORSDOF 17
ENDMDL
MODEL 43
REMARK VINA RESULT:    -6.697      6.029      9.932
REMARK INTER + INTRA:         -28.722
REMARK INTER:                 -21.602
REMARK INTRA:                  -7.121
REMARK UNBOUND:                -8.713
REMARK SMILES C=C1C(=O)N[C@H](C)C(=O)N[C@@H](CC(C)C)C(=O)N[C@@H](C(=O)O)[C@H](C)C(=O)N[C@@H](CCCN=C(N)N)C(=O)N[C@@H](/C=C/C(C)=C/[C@H](C)[C@H](Cc2ccccc2)OC)[C@H](C)C(=O)N[C@@H](C(=O)O)CCC(=O)N1C
REMARK SMILES IDX 39 1 38 2 37 3 36 4 28 6 27 7 25 8 26 9 23 11 24 12 19 13
REMARK SMILES IDX 18 14 16 15 17 16 11 18 10 19 8 20 9 21 12 24 13 25 14 26
REMARK SMILES IDX 15 27 20 28 21 29 22 30 29 32 30 33 31 34 32 35 33 36 34 37
REMARK SMILES IDX 35 38 57 43 58 44 59 45 60 46 61 47 62 49 66 50 67 51 68 52
REMARK SMILES IDX 69 53 70 54 71 55 2 56 1 57 3 58 4 59 5 60 6 62 7 63 63 65
REMARK SMILES IDX 64 66 65 67 40 69 41 70 42 71 44 72 43 73 45 74 46 75 47 76
REMARK SMILES IDX 55 77 56 78 48 79 49 80 50 81 54 82 51 83 53 84 52 85
REMARK H PARENT 38 5 27 10 18 17 10 22 22 31 34 39 34 40 35 41 35 42 61 48
REMARK H PARENT 5 61 65 68
REMARK Flexibility Score:  369.900
ROOT
ATOM      1  C   UNL     1     -10.128  -4.926  13.479  1.00  0.00     0.117 C 
ENDROOT
BRANCH   1   2
ATOM      2  N   UNL     1      -9.368  -4.902  12.229  1.00  0.00    -0.347 N 
ATOM      3  O   UNL     1     -11.148  -4.955  10.780  1.00  0.00    -0.273 OA
ATOM      4  C   UNL     1      -9.944  -4.826  10.975  1.00  0.00     0.243 C 
ATOM      5  H   UNL     1      -8.360  -4.889  12.263  1.00  0.00     0.164 HD
BRANCH   4   6
ATOM      6  C   UNL     1      -8.914  -4.727   9.821  1.00  0.00     0.171 C 
BRANCH   6   7
ATOM      7  N   UNL     1      -8.242  -3.418   9.842  1.00  0.00    -0.344 N 
ATOM      8  C   UNL     1      -8.501  -2.479   8.867  1.00  0.00     0.226 C 
ATOM      9  O   UNL     1      -9.271  -2.689   7.937  1.00  0.00    -0.275 OA
ATOM     10  H   UNL     1      -7.549  -3.234  10.557  1.00  0.00     0.164 HD
BRANCH   8  11
ATOM     11  C   UNL     1      -7.772  -1.161   9.058  1.00  0.00     0.109 C 
ATOM     12  C   UNL     1      -7.080  -1.135  10.421  1.00  0.00     0.021 C 
BRANCH  11  13
ATOM     13  C   UNL     1      -6.843  -0.899   7.855  1.00  0.00     0.204 C 
BRANCH  13  14
ATOM     14  N   UNL     1      -6.388  -2.144   7.229  1.00  0.00    -0.340 N 
ATOM     15  C   UNL     1      -5.100  -2.324   6.772  1.00  0.00     0.243 C 
ATOM     16  O   UNL     1      -4.224  -1.473   6.913  1.00  0.00    -0.273 OA
ATOM     17  H   UNL     1      -7.096  -2.827   6.946  1.00  0.00     0.164 HD
BRANCH  15  18
ATOM     18  C   UNL     1      -4.908  -3.632   5.965  1.00  0.00     0.171 C 
BRANCH  18  19
ATOM     19  N   UNL     1      -4.263  -4.587   6.863  1.00  0.00    -0.343 N 
ATOM     20  C   UNL     1      -3.278  -5.451   6.423  1.00  0.00     0.242 CG0
ATOM     21  O   UNL     1      -2.992  -5.548   5.232  1.00  0.00    -0.273 OA
ATOM     22  H   UNL     1      -4.547  -4.626   7.835  1.00  0.00     0.164 HD
ATOM     23  G   UNL     1      -2.661  -6.329   7.531  1.00  0.00     0.000 G0
ENDBRANCH  18  19
BRANCH  18  24
ATOM     24  C   UNL     1      -6.256  -4.158   5.457  1.00  0.00     0.038 C 
BRANCH  24  25
ATOM     25  C   UNL     1      -6.478  -4.001   3.938  1.00  0.00    -0.015 C 
ATOM     26  C   UNL     1      -6.270  -5.311   3.177  1.00  0.00     0.007 C 
ATOM     27  C   UNL     1      -5.534  -2.929   3.388  1.00  0.00     0.007 C 
ENDBRANCH  24  25
ENDBRANCH  18  24
ENDBRANCH  15  18
ENDBRANCH  13  14
BRANCH  13  28
ATOM     28  C   UNL     1      -7.499  -0.054   6.760  1.00  0.00     0.327 C 
ATOM     29  O   UNL     1      -6.950   0.391   5.764  1.00  0.00    -0.250 OA
BRANCH  28  30
ATOM     30  O   UNL     1      -8.775   0.281   7.042  1.00  0.00    -0.480 OA
ATOM     31  H   UNL     1      -8.859   0.119   8.005  1.00  0.00     0.296 HD
ENDBRANCH  28  30
ENDBRANCH  13  28
ENDBRANCH  11  13
ENDBRANCH   8  11
ENDBRANCH   6   7
BRANCH   6  32
ATOM     32  C   UNL     1      -7.897  -5.866   9.956  1.00  0.00     0.037 C 
BRANCH  32  33
ATOM     33  C   UNL     1      -6.996  -5.987   8.719  1.00  0.00     0.026 C 
BRANCH  33  34
ATOM     34  C   UNL     1      -6.853  -7.432   8.238  1.00  0.00     0.146 C 
BRANCH  34  35
ATOM     35  N   UNL     1      -5.845  -7.479   7.188  1.00  0.00    -0.254 NA
ATOM     36  C   UNL     1      -6.189  -7.890   6.024  1.00  0.00     0.185 C 
ATOM     37  N   UNL     1      -5.269  -7.934   5.048  1.00  0.00    -0.370 N 
ATOM     38  N   UNL     1      -7.394  -8.309   5.598  1.00  0.00    -0.370 N 
ATOM     39  H   UNL     1      -4.337  -7.623   5.288  1.00  0.00     0.159 HD
ATOM     40  H   UNL     1      -5.494  -8.075   4.078  1.00  0.00     0.159 HD
ATOM     41  H   UNL     1      -7.506  -8.740   4.695  1.00  0.00     0.159 HD
ATOM     42  H   UNL     1      -8.178  -8.345   6.231  1.00  0.00     0.159 HD
ENDBRANCH  34  35
ENDBRANCH  33  34
ENDBRANCH  32  33
ENDBRANCH   6  32
ENDBRANCH   4   6
ENDBRANCH   1   2
BRANCH   1  43
ATOM     43  C   UNL     1     -10.554  -3.470  13.828  1.00  0.00     0.102 C 
ATOM     44  C   UNL     1      -9.514  -2.714  14.671  1.00  0.00     0.020 C 
BRANCH  43  45
ATOM     45  C   UNL     1     -11.970  -3.436  14.411  1.00  0.00     0.225 C 
ATOM     46  O   UNL     1     -12.435  -2.456  14.986  1.00  0.00    -0.275 OA
ATOM     47  N   UNL     1     -12.671  -4.618  14.335  1.00  0.00    -0.342 N 
ATOM     48  H   UNL     1     -12.339  -5.358  13.732  1.00  0.00     0.164 HD
BRANCH  47  49
ATOM     49  C   UNL     1     -14.050  -4.723  14.820  1.00  0.00     0.192 C 
BRANCH  49  50
ATOM     50  C   UNL     1     -14.299  -6.134  15.359  1.00  0.00     0.047 C 
BRANCH  50  51
ATOM     51  C   UNL     1     -13.221  -6.574  16.358  1.00  0.00     0.103 C 
BRANCH  51  52
ATOM     52  C   UNL     1     -13.552  -7.918  17.005  1.00  0.00     0.226 C 
ATOM     53  O   UNL     1     -12.880  -8.912  16.725  1.00  0.00    -0.275 OA
BRANCH  52  54
ATOM     54  N   UNL     1     -14.585  -7.915  17.961  1.00  0.00    -0.311 N 
ATOM     55  C   UNL     1     -14.499  -7.077  19.164  1.00  0.00     0.153 C 
BRANCH  54  56
ATOM     56  C   UNL     1     -15.734  -8.707  17.800  1.00  0.00     0.102 C 
ATOM     57  C   UNL     1     -16.603  -8.602  16.781  1.00  0.00     0.043 C 
BRANCH  56  58
ATOM     58  C   UNL     1     -16.061  -9.808  18.781  1.00  0.00     0.268 C 
ATOM     59  O   UNL     1     -15.212 -10.538  19.275  1.00  0.00    -0.268 OA
ATOM     60  N   UNL     1     -17.394  -9.860  19.110  1.00  0.00    -0.339 N 
ATOM     61  H   UNL     1     -18.035  -9.227  18.648  1.00  0.00     0.164 HD
BRANCH  60  62
ATOM     62  C   UNL     1     -17.918 -10.811  20.090  1.00  0.00     0.168 CG0
ATOM     63  C   UNL     1     -19.014 -11.676  19.481  1.00  0.00     0.041 C 
ATOM     64  G   UNL     1     -18.447 -10.046  21.321  1.00  0.00     0.000 G0
ENDBRANCH  60  62
ENDBRANCH  56  58
ENDBRANCH  54  56
ENDBRANCH  52  54
ENDBRANCH  51  52
ENDBRANCH  50  51
ENDBRANCH  49  50
BRANCH  49  65
ATOM     65  C   UNL     1     -15.066  -4.416  13.709  1.00  0.00     0.326 C 
ATOM     66  O   UNL     1     -16.116  -3.807  13.855  1.00  0.00    -0.250 OA
BRANCH  65  67
ATOM     67  O   UNL     1     -14.753  -4.931  12.499  1.00  0.00    -0.480 OA
ATOM     68  H   UNL     1     -15.148  -4.293  11.867  1.00  0.00     0.296 HD
ENDBRANCH  65  67
ENDBRANCH  49  65
ENDBRANCH  47  49
ENDBRANCH  43  45
ENDBRANCH   1  43
BRANCH   1  69
ATOM     69  C   UNL     1      -9.284  -5.701  14.474  1.00  0.00    -0.001 C 
ATOM     70  C   UNL     1      -9.693  -6.670  15.312  1.00  0.00     0.001 C 
BRANCH  70  71
ATOM     71  C   UNL     1      -8.864  -7.427  16.253  1.00  0.00    -0.055 C 
ATOM     72  C   UNL     1      -9.438  -7.842  17.401  1.00  0.00    -0.018 C 
ATOM     73  C   UNL     1      -7.432  -7.694  15.869  1.00  0.00     0.044 C 
BRANCH  72  74
ATOM     74  C   UNL     1      -8.832  -8.639  18.548  1.00  0.00     0.038 C 
ATOM     75  C   UNL     1      -9.965  -9.458  19.178  1.00  0.00     0.015 C 
BRANCH  74  76
ATOM     76  C   UNL     1      -8.119  -7.653  19.520  1.00  0.00     0.128 C 
BRANCH  76  77
ATOM     77  O   UNL     1      -6.736  -7.519  19.155  1.00  0.00    -0.381 OA
ATOM     78  C   UNL     1      -5.982  -8.712  19.321  1.00  0.00     0.195 C 
ENDBRANCH  76  77
BRANCH  76  79
ATOM     79  C   UNL     1      -8.836  -6.288  19.669  1.00  0.00     0.068 C 
BRANCH  79  80
ATOM     80  C   UNL     1      -8.056  -5.040  19.333  1.00  0.00    -0.045 A 
ATOM     81  C   UNL     1      -7.026  -4.585  20.167  1.00  0.00     0.004 A 
ATOM     82  C   UNL     1      -8.373  -4.295  18.186  1.00  0.00     0.004 A 
ATOM     83  C   UNL     1      -6.319  -3.422  19.856  1.00  0.00     0.000 A 
ATOM     84  C   UNL     1      -7.666  -3.132  17.877  1.00  0.00     0.000 A 
ATOM     85  C   UNL     1      -6.638  -2.696  18.711  1.00  0.00     0.000 A 
ENDBRANCH  79  80
ENDBRANCH  76  79
ENDBRANCH  74  76
ENDBRANCH  72  74
ENDBRANCH  70  71
ENDBRANCH   1  69
TORSDOF 17
ENDMDL
MODEL 44
REMARK VINA RESULT:    -6.683      4.878     10.931
REMARK INTER + INTRA:         -28.679
REMARK INTER:                 -22.668
REMARK INTRA:                  -6.011
REMARK UNBOUND:                -8.713
REMARK SMILES C=C1C(=O)N[C@H](C)C(=O)N[C@@H](CC(C)C)C(=O)N[C@@H](C(=O)O)[C@H](C)C(=O)N[C@@H](CCCN=C(N)N)C(=O)N[C@@H](/C=C/C(C)=C/[C@H](C)[C@H](Cc2ccccc2)OC)[C@H](C)C(=O)N[C@@H](C(=O)O)CCC(=O)N1C
REMARK SMILES IDX 39 1 38 2 37 3 36 4 28 6 27 7 25 8 26 9 23 11 24 12 19 13
REMARK SMILES IDX 18 14 16 15 17 16 11 18 10 19 8 20 9 21 12 24 13 25 14 26
REMARK SMILES IDX 15 27 20 28 21 29 22 30 29 32 30 33 31 34 32 35 33 36 34 37
REMARK SMILES IDX 35 38 57 43 58 44 59 45 60 46 61 47 62 49 66 50 67 51 68 52
REMARK SMILES IDX 69 53 70 54 71 55 2 56 1 57 3 58 4 59 5 60 6 62 7 63 63 65
REMARK SMILES IDX 64 66 65 67 40 69 41 70 42 71 44 72 43 73 45 74 46 75 47 76
REMARK SMILES IDX 55 77 56 78 48 79 49 80 50 81 54 82 51 83 53 84 52 85
REMARK H PARENT 38 5 27 10 18 17 10 22 22 31 34 39 34 40 35 41 35 42 61 48
REMARK H PARENT 5 61 65 68
REMARK Flexibility Score:  369.900
ROOT
ATOM      1  C   UNL     1      -3.918  -4.508  13.819  1.00  0.00     0.117 C 
ENDROOT
BRANCH   1   2
ATOM      2  N   UNL     1      -4.972  -4.946  12.903  1.00  0.00    -0.347 N 
ATOM      3  O   UNL     1      -4.866  -3.181  11.438  1.00  0.00    -0.273 OA
ATOM      4  C   UNL     1      -5.299  -4.291  11.732  1.00  0.00     0.243 C 
ATOM      5  H   UNL     1      -5.468  -5.803  13.094  1.00  0.00     0.164 HD
BRANCH   4   6
ATOM      6  C   UNL     1      -6.392  -5.010  10.900  1.00  0.00     0.171 C 
BRANCH   6   7
ATOM      7  N   UNL     1      -5.900  -5.295   9.542  1.00  0.00    -0.344 N 
ATOM      8  C   UNL     1      -6.479  -4.695   8.445  1.00  0.00     0.226 C 
ATOM      9  O   UNL     1      -7.429  -3.927   8.537  1.00  0.00    -0.275 OA
ATOM     10  H   UNL     1      -5.161  -5.976   9.421  1.00  0.00     0.164 HD
BRANCH   8  11
ATOM     11  C   UNL     1      -5.824  -5.049   7.121  1.00  0.00     0.109 C 
ATOM     12  C   UNL     1      -5.245  -6.462   7.182  1.00  0.00     0.021 C 
BRANCH  11  13
ATOM     13  C   UNL     1      -6.817  -4.804   5.967  1.00  0.00     0.204 C 
BRANCH  13  14
ATOM     14  N   UNL     1      -6.631  -3.487   5.350  1.00  0.00    -0.340 N 
ATOM     15  C   UNL     1      -5.423  -2.824   5.350  1.00  0.00     0.243 C 
ATOM     16  O   UNL     1      -4.398  -3.319   5.816  1.00  0.00    -0.273 OA
ATOM     17  H   UNL     1      -7.467  -2.959   5.083  1.00  0.00     0.164 HD
BRANCH  15  18
ATOM     18  C   UNL     1      -5.516  -1.369   4.829  1.00  0.00     0.171 C 
BRANCH  18  19
ATOM     19  N   UNL     1      -6.702  -1.304   3.977  1.00  0.00    -0.343 N 
ATOM     20  C   UNL     1      -6.644  -0.827   2.682  1.00  0.00     0.242 CG0
ATOM     21  O   UNL     1      -5.624  -0.312   2.231  1.00  0.00    -0.273 OA
ATOM     22  H   UNL     1      -7.596  -1.611   4.345  1.00  0.00     0.164 HD
ATOM     23  G   UNL     1      -7.979  -0.909   1.913  1.00  0.00     0.000 G0
ENDBRANCH  18  19
BRANCH  18  24
ATOM     24  C   UNL     1      -5.608  -0.380   5.997  1.00  0.00     0.038 C 
BRANCH  24  25
ATOM     25  C   UNL     1      -6.488  -0.853   7.174  1.00  0.00    -0.015 C 
ATOM     26  C   UNL     1      -7.786  -0.055   7.291  1.00  0.00     0.007 C 
ATOM     27  C   UNL     1      -5.699  -0.748   8.481  1.00  0.00     0.007 C 
ENDBRANCH  24  25
ENDBRANCH  18  24
ENDBRANCH  15  18
ENDBRANCH  13  14
BRANCH  13  28
ATOM     28  C   UNL     1      -6.713  -5.847   4.850  1.00  0.00     0.327 C 
ATOM     29  O   UNL     1      -5.903  -5.850   3.936  1.00  0.00    -0.250 OA
BRANCH  28  30
ATOM     30  O   UNL     1      -7.708  -6.757   4.883  1.00  0.00    -0.480 OA
ATOM     31  H   UNL     1      -8.514  -6.228   5.056  1.00  0.00     0.296 HD
ENDBRANCH  28  30
ENDBRANCH  13  28
ENDBRANCH  11  13
ENDBRANCH   8  11
ENDBRANCH   6   7
BRANCH   6  32
ATOM     32  C   UNL     1      -6.801  -6.302  11.616  1.00  0.00     0.037 C 
BRANCH  32  33
ATOM     33  C   UNL     1      -8.325  -6.432  11.750  1.00  0.00     0.026 C 
BRANCH  33  34
ATOM     34  C   UNL     1      -8.959  -7.133  10.548  1.00  0.00     0.146 C 
BRANCH  34  35
ATOM     35  N   UNL     1      -8.064  -8.188  10.093  1.00  0.00    -0.254 NA
ATOM     36  C   UNL     1      -7.846  -8.309   8.836  1.00  0.00     0.185 C 
ATOM     37  N   UNL     1      -7.019  -9.275   8.406  1.00  0.00    -0.370 N 
ATOM     38  N   UNL     1      -8.340  -7.582   7.819  1.00  0.00    -0.370 N 
ATOM     39  H   UNL     1      -6.597  -9.860   9.116  1.00  0.00     0.159 HD
ATOM     40  H   UNL     1      -6.663  -9.325   7.467  1.00  0.00     0.159 HD
ATOM     41  H   UNL     1      -8.203  -7.863   6.862  1.00  0.00     0.159 HD
ATOM     42  H   UNL     1      -8.989  -6.830   7.994  1.00  0.00     0.159 HD
ENDBRANCH  34  35
ENDBRANCH  33  34
ENDBRANCH  32  33
ENDBRANCH   6  32
ENDBRANCH   4   6
ENDBRANCH   1   2
BRANCH   1  43
ATOM     43  C   UNL     1      -4.259  -3.074  14.316  1.00  0.00     0.102 C 
ATOM     44  C   UNL     1      -3.035  -2.297  14.830  1.00  0.00     0.020 C 
BRANCH  43  45
ATOM     45  C   UNL     1      -5.436  -3.096  15.296  1.00  0.00     0.225 C 
ATOM     46  O   UNL     1      -6.583  -3.376  14.960  1.00  0.00    -0.275 OA
ATOM     47  N   UNL     1      -5.148  -2.687  16.578  1.00  0.00    -0.342 N 
ATOM     48  H   UNL     1      -4.185  -2.609  16.873  1.00  0.00     0.164 HD
BRANCH  47  49
ATOM     49  C   UNL     1      -6.168  -2.692  17.631  1.00  0.00     0.192 C 
BRANCH  49  50
ATOM     50  C   UNL     1      -6.202  -1.325  18.319  1.00  0.00     0.047 C 
BRANCH  50  51
ATOM     51  C   UNL     1      -6.530  -0.188  17.341  1.00  0.00     0.103 C 
BRANCH  51  52
ATOM     52  C   UNL     1      -5.946   1.147  17.797  1.00  0.00     0.226 C 
ATOM     53  O   UNL     1      -4.724   1.275  17.902  1.00  0.00    -0.275 OA
BRANCH  52  54
ATOM     54  N   UNL     1      -6.862   2.195  18.001  1.00  0.00    -0.311 N 
ATOM     55  C   UNL     1      -8.310   1.943  18.011  1.00  0.00     0.153 C 
BRANCH  54  56
ATOM     56  C   UNL     1      -6.431   3.516  18.207  1.00  0.00     0.102 C 
ATOM     57  C   UNL     1      -6.272   4.433  17.238  1.00  0.00     0.043 C 
BRANCH  56  58
ATOM     58  C   UNL     1      -6.146   4.030  19.599  1.00  0.00     0.268 C 
ATOM     59  O   UNL     1      -5.134   3.743  20.225  1.00  0.00    -0.268 OA
ATOM     60  N   UNL     1      -7.103   4.902  20.059  1.00  0.00    -0.339 N 
ATOM     61  H   UNL     1      -7.918   5.080  19.483  1.00  0.00     0.164 HD
BRANCH  60  62
ATOM     62  C   UNL     1      -6.993   5.566  21.357  1.00  0.00     0.168 CG0
ATOM     63  C   UNL     1      -6.395   6.959  21.210  1.00  0.00     0.041 C 
ATOM     64  G   UNL     1      -6.138   4.703  22.308  1.00  0.00     0.000 G0
ENDBRANCH  60  62
ENDBRANCH  56  58
ENDBRANCH  54  56
ENDBRANCH  52  54
ENDBRANCH  51  52
ENDBRANCH  50  51
ENDBRANCH  49  50
BRANCH  49  65
ATOM     65  C   UNL     1      -5.896  -3.783  18.678  1.00  0.00     0.326 C 
ATOM     66  O   UNL     1      -6.276  -4.943  18.611  1.00  0.00    -0.250 OA
BRANCH  65  67
ATOM     67  O   UNL     1      -5.225  -3.359  19.772  1.00  0.00    -0.480 OA
ATOM     68  H   UNL     1      -4.688  -4.140  20.031  1.00  0.00     0.296 HD
ENDBRANCH  65  67
ENDBRANCH  49  65
ENDBRANCH  47  49
ENDBRANCH  43  45
ENDBRANCH   1  43
BRANCH   1  69
ATOM     69  C   UNL     1      -2.604  -4.741  13.096  1.00  0.00    -0.001 C 
ATOM     70  C   UNL     1      -2.125  -5.906  12.626  1.00  0.00     0.001 C 
BRANCH  70  71
ATOM     71  C   UNL     1      -0.865  -6.115  11.911  1.00  0.00    -0.055 C 
ATOM     72  C   UNL     1      -0.404  -5.105  11.143  1.00  0.00    -0.018 C 
ATOM     73  C   UNL     1      -0.167  -7.438  12.088  1.00  0.00     0.044 C 
BRANCH  72  74
ATOM     74  C   UNL     1       0.861  -5.036  10.299  1.00  0.00     0.038 C 
ATOM     75  C   UNL     1       1.940  -4.363  11.156  1.00  0.00     0.015 C 
BRANCH  74  76
ATOM     76  C   UNL     1       0.534  -4.302   8.966  1.00  0.00     0.128 C 
BRANCH  76  77
ATOM     77  O   UNL     1       1.063  -5.044   7.854  1.00  0.00    -0.381 OA
ATOM     78  C   UNL     1       0.122  -5.260   6.811  1.00  0.00     0.195 C 
ENDBRANCH  76  77
BRANCH  76  79
ATOM     79  C   UNL     1      -0.965  -3.949   8.792  1.00  0.00     0.068 C 
BRANCH  79  80
ATOM     80  C   UNL     1      -1.361  -2.494   8.856  1.00  0.00    -0.045 A 
ATOM     81  C   UNL     1      -1.280  -1.775  10.056  1.00  0.00     0.004 A 
ATOM     82  C   UNL     1      -1.845  -1.842   7.711  1.00  0.00     0.004 A 
ATOM     83  C   UNL     1      -1.661  -0.433  10.110  1.00  0.00     0.000 A 
ATOM     84  C   UNL     1      -2.227  -0.500   7.767  1.00  0.00     0.000 A 
ATOM     85  C   UNL     1      -2.134   0.205   8.965  1.00  0.00     0.000 A 
ENDBRANCH  79  80
ENDBRANCH  76  79
ENDBRANCH  74  76
ENDBRANCH  72  74
ENDBRANCH  70  71
ENDBRANCH   1  69
TORSDOF 17
ENDMDL
MODEL 45
REMARK VINA RESULT:    -6.671      6.145     10.133
REMARK INTER + INTRA:         -28.642
REMARK INTER:                 -20.385
REMARK INTRA:                  -8.257
REMARK UNBOUND:                -8.713
REMARK SMILES C=C1C(=O)N[C@H](C)C(=O)N[C@@H](CC(C)C)C(=O)N[C@@H](C(=O)O)[C@H](C)C(=O)N[C@@H](CCCN=C(N)N)C(=O)N[C@@H](/C=C/C(C)=C/[C@H](C)[C@H](Cc2ccccc2)OC)[C@H](C)C(=O)N[C@@H](C(=O)O)CCC(=O)N1C
REMARK SMILES IDX 39 1 38 2 37 3 36 4 28 6 27 7 25 8 26 9 23 11 24 12 19 13
REMARK SMILES IDX 18 14 16 15 17 16 11 18 10 19 8 20 9 21 12 24 13 25 14 26
REMARK SMILES IDX 15 27 20 28 21 29 22 30 29 32 30 33 31 34 32 35 33 36 34 37
REMARK SMILES IDX 35 38 57 43 58 44 59 45 60 46 61 47 62 49 66 50 67 51 68 52
REMARK SMILES IDX 69 53 70 54 71 55 2 56 1 57 3 58 4 59 5 60 6 62 7 63 63 65
REMARK SMILES IDX 64 66 65 67 40 69 41 70 42 71 44 72 43 73 45 74 46 75 47 76
REMARK SMILES IDX 55 77 56 78 48 79 49 80 50 81 54 82 51 83 53 84 52 85
REMARK H PARENT 38 5 27 10 18 17 10 22 22 31 34 39 34 40 35 41 35 42 61 48
REMARK H PARENT 5 61 65 68
REMARK Flexibility Score:  369.900
ROOT
ATOM      1  C   UNL     1      -5.118  -7.490  11.879  1.00  0.00     0.117 C 
ENDROOT
BRANCH   1   2
ATOM      2  N   UNL     1      -6.191  -6.710  11.262  1.00  0.00    -0.347 N 
ATOM      3  O   UNL     1      -7.231  -8.430  10.154  1.00  0.00    -0.273 OA
ATOM      4  C   UNL     1      -7.218  -7.260  10.520  1.00  0.00     0.243 C 
ATOM      5  H   UNL     1      -6.229  -5.714  11.416  1.00  0.00     0.164 HD
BRANCH   4   6
ATOM      6  C   UNL     1      -8.273  -6.224  10.052  1.00  0.00     0.171 C 
BRANCH   6   7
ATOM      7  N   UNL     1      -7.773  -4.855  10.252  1.00  0.00    -0.344 N 
ATOM      8  C   UNL     1      -8.352  -4.025  11.188  1.00  0.00     0.226 C 
ATOM      9  O   UNL     1      -9.309  -4.368  11.872  1.00  0.00    -0.275 OA
ATOM     10  H   UNL     1      -7.027  -4.513   9.659  1.00  0.00     0.164 HD
BRANCH   8  11
ATOM     11  C   UNL     1      -7.689  -2.665  11.313  1.00  0.00     0.109 C 
ATOM     12  C   UNL     1      -6.235  -2.827  11.757  1.00  0.00     0.021 C 
BRANCH  11  13
ATOM     13  C   UNL     1      -7.883  -1.867  10.008  1.00  0.00     0.204 C 
BRANCH  13  14
ATOM     14  N   UNL     1      -6.954  -2.295   8.958  1.00  0.00    -0.340 N 
ATOM     15  C   UNL     1      -6.296  -1.407   8.133  1.00  0.00     0.243 C 
ATOM     16  O   UNL     1      -6.397  -0.188   8.262  1.00  0.00    -0.273 OA
ATOM     17  H   UNL     1      -6.942  -3.285   8.700  1.00  0.00     0.164 HD
BRANCH  15  18
ATOM     18  C   UNL     1      -5.534  -2.089   6.971  1.00  0.00     0.171 C 
BRANCH  18  19
ATOM     19  N   UNL     1      -5.135  -1.026   6.051  1.00  0.00    -0.343 N 
ATOM     20  C   UNL     1      -5.558  -1.003   4.736  1.00  0.00     0.242 CG0
ATOM     21  O   UNL     1      -6.180  -1.941   4.244  1.00  0.00    -0.273 OA
ATOM     22  H   UNL     1      -4.525  -0.287   6.381  1.00  0.00     0.164 HD
ATOM     23  G   UNL     1      -5.099   0.237   3.942  1.00  0.00     0.000 G0
ENDBRANCH  18  19
BRANCH  18  24
ATOM     24  C   UNL     1      -4.320  -2.862   7.500  1.00  0.00     0.038 C 
BRANCH  24  25
ATOM     25  C   UNL     1      -3.427  -2.068   8.477  1.00  0.00    -0.015 C 
ATOM     26  C   UNL     1      -2.086  -1.675   7.858  1.00  0.00     0.007 C 
ATOM     27  C   UNL     1      -3.188  -2.895   9.743  1.00  0.00     0.007 C 
ENDBRANCH  24  25
ENDBRANCH  18  24
ENDBRANCH  15  18
ENDBRANCH  13  14
BRANCH  13  28
ATOM     28  C   UNL     1      -9.299  -1.982   9.435  1.00  0.00     0.327 C 
ATOM     29  O   UNL     1      -9.645  -2.686   8.499  1.00  0.00    -0.250 OA
BRANCH  28  30
ATOM     30  O   UNL     1     -10.168  -1.117   9.996  1.00  0.00    -0.480 OA
ATOM     31  H   UNL     1      -9.944  -0.253   9.591  1.00  0.00     0.296 HD
ENDBRANCH  28  30
ENDBRANCH  13  28
ENDBRANCH  11  13
ENDBRANCH   8  11
ENDBRANCH   6   7
BRANCH   6  32
ATOM     32  C   UNL     1      -8.604  -6.476   8.577  1.00  0.00     0.037 C 
BRANCH  32  33
ATOM     33  C   UNL     1      -7.810  -5.555   7.640  1.00  0.00     0.026 C 
BRANCH  33  34
ATOM     34  C   UNL     1      -6.839  -6.328   6.745  1.00  0.00     0.146 C 
BRANCH  34  35
ATOM     35  N   UNL     1      -6.328  -5.429   5.720  1.00  0.00    -0.254 NA
ATOM     36  C   UNL     1      -6.459  -5.762   4.490  1.00  0.00     0.185 C 
ATOM     37  N   UNL     1      -5.996  -4.938   3.537  1.00  0.00    -0.370 N 
ATOM     38  N   UNL     1      -7.020  -6.868   3.969  1.00  0.00    -0.370 N 
ATOM     39  H   UNL     1      -5.567  -4.076   3.850  1.00  0.00     0.159 HD
ATOM     40  H   UNL     1      -6.212  -5.041   2.560  1.00  0.00     0.159 HD
ATOM     41  H   UNL     1      -6.937  -7.081   2.989  1.00  0.00     0.159 HD
ATOM     42  H   UNL     1      -7.396  -7.583   4.571  1.00  0.00     0.159 HD
ENDBRANCH  34  35
ENDBRANCH  33  34
ENDBRANCH  32  33
ENDBRANCH   6  32
ENDBRANCH   4   6
ENDBRANCH   1   2
BRANCH   1  43
ATOM     43  C   UNL     1      -5.545  -7.860  13.329  1.00  0.00     0.102 C 
ATOM     44  C   UNL     1      -5.882  -9.350  13.506  1.00  0.00     0.020 C 
BRANCH  43  45
ATOM     45  C   UNL     1      -6.634  -6.912  13.840  1.00  0.00     0.225 C 
ATOM     46  O   UNL     1      -6.459  -5.705  13.986  1.00  0.00    -0.275 OA
ATOM     47  N   UNL     1      -7.812  -7.513  14.221  1.00  0.00    -0.342 N 
ATOM     48  H   UNL     1      -7.994  -8.471  13.955  1.00  0.00     0.164 HD
BRANCH  47  49
ATOM     49  C   UNL     1      -8.955  -6.727  14.696  1.00  0.00     0.192 C 
BRANCH  49  50
ATOM     50  C   UNL     1      -9.208  -7.030  16.175  1.00  0.00     0.047 C 
BRANCH  50  51
ATOM     51  C   UNL     1      -8.533  -6.010  17.102  1.00  0.00     0.103 C 
BRANCH  51  52
ATOM     52  C   UNL     1      -7.337  -6.610  17.840  1.00  0.00     0.226 C 
ATOM     53  O   UNL     1      -6.517  -7.291  17.221  1.00  0.00    -0.275 OA
BRANCH  52  54
ATOM     54  N   UNL     1      -7.208  -6.274  19.200  1.00  0.00    -0.311 N 
ATOM     55  C   UNL     1      -7.541  -4.926  19.681  1.00  0.00     0.153 C 
BRANCH  54  56
ATOM     56  C   UNL     1      -6.763  -7.211  20.147  1.00  0.00     0.102 C 
ATOM     57  C   UNL     1      -7.535  -8.145  20.726  1.00  0.00     0.043 C 
BRANCH  56  58
ATOM     58  C   UNL     1      -5.311  -7.264  20.562  1.00  0.00     0.268 C 
ATOM     59  O   UNL     1      -4.520  -6.356  20.347  1.00  0.00    -0.268 OA
ATOM     60  N   UNL     1      -4.990  -8.403  21.261  1.00  0.00    -0.339 N 
ATOM     61  H   UNL     1      -5.701  -9.114  21.387  1.00  0.00     0.164 HD
BRANCH  60  62
ATOM     62  C   UNL     1      -3.654  -8.629  21.811  1.00  0.00     0.168 CG0
ATOM     63  C   UNL     1      -2.901  -9.679  21.003  1.00  0.00     0.041 C 
ATOM     64  G   UNL     1      -3.769  -9.056  23.289  1.00  0.00     0.000 G0
ENDBRANCH  60  62
ENDBRANCH  56  58
ENDBRANCH  54  56
ENDBRANCH  52  54
ENDBRANCH  51  52
ENDBRANCH  50  51
ENDBRANCH  49  50
BRANCH  49  65
ATOM     65  C   UNL     1     -10.227  -7.032  13.889  1.00  0.00     0.326 C 
ATOM     66  O   UNL     1     -11.325  -6.527  14.075  1.00  0.00    -0.250 OA
BRANCH  65  67
ATOM     67  O   UNL     1     -10.079  -7.984  12.941  1.00  0.00    -0.480 OA
ATOM     68  H   UNL     1     -10.563  -7.620  12.169  1.00  0.00     0.296 HD
ENDBRANCH  65  67
ENDBRANCH  49  65
ENDBRANCH  47  49
ENDBRANCH  43  45
ENDBRANCH   1  43
BRANCH   1  69
ATOM     69  C   UNL     1      -3.842  -6.695  11.671  1.00  0.00    -0.001 C 
ATOM     70  C   UNL     1      -2.664  -6.861  12.298  1.00  0.00     0.001 C 
BRANCH  70  71
ATOM     71  C   UNL     1      -1.433  -6.101  12.074  1.00  0.00    -0.055 C 
ATOM     72  C   UNL     1      -0.514  -6.628  11.236  1.00  0.00    -0.018 C 
ATOM     73  C   UNL     1      -1.281  -4.783  12.786  1.00  0.00     0.044 C 
BRANCH  72  74
ATOM     74  C   UNL     1       0.838  -6.070  10.816  1.00  0.00     0.038 C 
ATOM     75  C   UNL     1       1.621  -5.767  12.099  1.00  0.00     0.015 C 
BRANCH  74  76
ATOM     76  C   UNL     1       0.606  -4.842   9.887  1.00  0.00     0.128 C 
BRANCH  76  77
ATOM     77  O   UNL     1       1.386  -3.725  10.347  1.00  0.00    -0.381 OA
ATOM     78  C   UNL     1       2.444  -3.367   9.469  1.00  0.00     0.195 C 
ENDBRANCH  76  77
BRANCH  76  79
ATOM     79  C   UNL     1       0.819  -5.142   8.382  1.00  0.00     0.068 C 
BRANCH  79  80
ATOM     80  C   UNL     1      -0.404  -5.249   7.503  1.00  0.00    -0.045 A 
ATOM     81  C   UNL     1      -1.597  -5.798   7.990  1.00  0.00     0.004 A 
ATOM     82  C   UNL     1      -0.354  -4.823   6.167  1.00  0.00     0.004 A 
ATOM     83  C   UNL     1      -2.720  -5.906   7.166  1.00  0.00     0.000 A 
ATOM     84  C   UNL     1      -1.476  -4.932   5.344  1.00  0.00     0.000 A 
ATOM     85  C   UNL     1      -2.659  -5.472   5.844  1.00  0.00     0.000 A 
ENDBRANCH  79  80
ENDBRANCH  76  79
ENDBRANCH  74  76
ENDBRANCH  72  74
ENDBRANCH  70  71
ENDBRANCH   1  69
TORSDOF 17
ENDMDL
MODEL 46
REMARK VINA RESULT:    -6.656      4.709      8.881
REMARK INTER + INTRA:         -28.599
REMARK INTER:                 -22.434
REMARK INTRA:                  -6.165
REMARK UNBOUND:                -8.713
REMARK SMILES C=C1C(=O)N[C@H](C)C(=O)N[C@@H](CC(C)C)C(=O)N[C@@H](C(=O)O)[C@H](C)C(=O)N[C@@H](CCCN=C(N)N)C(=O)N[C@@H](/C=C/C(C)=C/[C@H](C)[C@H](Cc2ccccc2)OC)[C@H](C)C(=O)N[C@@H](C(=O)O)CCC(=O)N1C
REMARK SMILES IDX 39 1 38 2 37 3 36 4 28 6 27 7 25 8 26 9 23 11 24 12 19 13
REMARK SMILES IDX 18 14 16 15 17 16 11 18 10 19 8 20 9 21 12 24 13 25 14 26
REMARK SMILES IDX 15 27 20 28 21 29 22 30 29 32 30 33 31 34 32 35 33 36 34 37
REMARK SMILES IDX 35 38 57 43 58 44 59 45 60 46 61 47 62 49 66 50 67 51 68 52
REMARK SMILES IDX 69 53 70 54 71 55 2 56 1 57 3 58 4 59 5 60 6 62 7 63 63 65
REMARK SMILES IDX 64 66 65 67 40 69 41 70 42 71 44 72 43 73 45 74 46 75 47 76
REMARK SMILES IDX 55 77 56 78 48 79 49 80 50 81 54 82 51 83 53 84 52 85
REMARK H PARENT 38 5 27 10 18 17 10 22 22 31 34 39 34 40 35 41 35 42 61 48
REMARK H PARENT 5 61 65 68
REMARK Flexibility Score:  369.900
ROOT
ATOM      1  C   UNL     1      -5.276  -6.028  12.346  1.00  0.00     0.117 C 
ENDROOT
BRANCH   1   2
ATOM      2  N   UNL     1      -4.503  -4.819  12.630  1.00  0.00    -0.347 N 
ATOM      3  O   UNL     1      -4.769  -4.805  14.910  1.00  0.00    -0.273 OA
ATOM      4  C   UNL     1      -4.234  -4.353  13.902  1.00  0.00     0.243 C 
ATOM      5  H   UNL     1      -4.090  -4.305  11.866  1.00  0.00     0.164 HD
BRANCH   4   6
ATOM      6  C   UNL     1      -3.322  -3.101  13.928  1.00  0.00     0.171 C 
BRANCH   6   7
ATOM      7  N   UNL     1      -3.572  -2.307  15.142  1.00  0.00    -0.344 N 
ATOM      8  C   UNL     1      -3.988  -0.997  15.051  1.00  0.00     0.226 C 
ATOM      9  O   UNL     1      -4.146  -0.427  13.978  1.00  0.00    -0.275 OA
ATOM     10  H   UNL     1      -3.387  -2.722  16.047  1.00  0.00     0.164 HD
BRANCH   8  11
ATOM     11  C   UNL     1      -4.256  -0.331  16.390  1.00  0.00     0.109 C 
ATOM     12  C   UNL     1      -4.367  -1.387  17.489  1.00  0.00     0.021 C 
BRANCH  11  13
ATOM     13  C   UNL     1      -3.202   0.765  16.647  1.00  0.00     0.204 C 
BRANCH  13  14
ATOM     14  N   UNL     1      -3.413   1.441  17.931  1.00  0.00    -0.340 N 
ATOM     15  C   UNL     1      -3.483   2.813  18.051  1.00  0.00     0.243 C 
ATOM     16  O   UNL     1      -3.433   3.564  17.079  1.00  0.00    -0.273 OA
ATOM     17  H   UNL     1      -3.310   0.890  18.787  1.00  0.00     0.164 HD
BRANCH  15  18
ATOM     18  C   UNL     1      -3.499   3.305  19.519  1.00  0.00     0.171 C 
BRANCH  18  19
ATOM     19  N   UNL     1      -3.279   4.749  19.479  1.00  0.00    -0.343 N 
ATOM     20  C   UNL     1      -2.077   5.314  19.860  1.00  0.00     0.242 CG0
ATOM     21  O   UNL     1      -1.185   4.643  20.375  1.00  0.00    -0.273 OA
ATOM     22  H   UNL     1      -4.028   5.358  19.170  1.00  0.00     0.164 HD
ATOM     23  G   UNL     1      -2.005   6.843  19.675  1.00  0.00     0.000 G0
ENDBRANCH  18  19
BRANCH  18  24
ATOM     24  C   UNL     1      -4.833   2.958  20.191  1.00  0.00     0.038 C 
BRANCH  24  25
ATOM     25  C   UNL     1      -6.085   3.431  19.422  1.00  0.00    -0.015 C 
ATOM     26  C   UNL     1      -6.885   4.480  20.194  1.00  0.00     0.007 C 
ATOM     27  C   UNL     1      -6.979   2.230  19.105  1.00  0.00     0.007 C 
ENDBRANCH  24  25
ENDBRANCH  18  24
ENDBRANCH  15  18
ENDBRANCH  13  14
BRANCH  13  28
ATOM     28  C   UNL     1      -1.766   0.233  16.645  1.00  0.00     0.327 C 
ATOM     29  O   UNL     1      -1.023   0.154  17.611  1.00  0.00    -0.250 OA
BRANCH  28  30
ATOM     30  O   UNL     1      -1.311  -0.055  15.409  1.00  0.00    -0.480 OA
ATOM     31  H   UNL     1      -1.766   0.590  14.828  1.00  0.00     0.296 HD
ENDBRANCH  28  30
ENDBRANCH  13  28
ENDBRANCH  11  13
ENDBRANCH   8  11
ENDBRANCH   6   7
BRANCH   6  32
ATOM     32  C   UNL     1      -1.856  -3.545  13.857  1.00  0.00     0.037 C 
BRANCH  32  33
ATOM     33  C   UNL     1      -1.240  -3.289  12.475  1.00  0.00     0.026 C 
BRANCH  33  34
ATOM     34  C   UNL     1      -0.948  -4.584  11.716  1.00  0.00     0.146 C 
BRANCH  34  35
ATOM     35  N   UNL     1       0.239  -5.206  12.286  1.00  0.00    -0.254 NA
ATOM     36  C   UNL     1       0.141  -6.387  12.771  1.00  0.00     0.185 C 
ATOM     37  N   UNL     1       1.229  -6.972  13.295  1.00  0.00    -0.370 N 
ATOM     38  N   UNL     1      -0.941  -7.184  12.843  1.00  0.00    -0.370 N 
ATOM     39  H   UNL     1       2.088  -6.438  13.269  1.00  0.00     0.159 HD
ATOM     40  H   UNL     1       1.277  -7.948  13.533  1.00  0.00     0.159 HD
ATOM     41  H   UNL     1      -0.923  -8.039  13.374  1.00  0.00     0.159 HD
ATOM     42  H   UNL     1      -1.834  -6.867  12.501  1.00  0.00     0.159 HD
ENDBRANCH  34  35
ENDBRANCH  33  34
ENDBRANCH  32  33
ENDBRANCH   6  32
ENDBRANCH   4   6
ENDBRANCH   1   2
BRANCH   1  43
ATOM     43  C   UNL     1      -4.787  -6.623  10.994  1.00  0.00     0.102 C 
ATOM     44  C   UNL     1      -4.208  -5.568  10.035  1.00  0.00     0.020 C 
BRANCH  43  45
ATOM     45  C   UNL     1      -5.862  -7.513  10.363  1.00  0.00     0.225 C 
ATOM     46  O   UNL     1      -6.040  -8.683  10.689  1.00  0.00    -0.275 OA
ATOM     47  N   UNL     1      -6.567  -6.946   9.327  1.00  0.00    -0.342 N 
ATOM     48  H   UNL     1      -6.517  -5.948   9.174  1.00  0.00     0.164 HD
BRANCH  47  49
ATOM     49  C   UNL     1      -7.651  -7.667   8.652  1.00  0.00     0.192 C 
BRANCH  49  50
ATOM     50  C   UNL     1      -7.179  -8.130   7.271  1.00  0.00     0.047 C 
BRANCH  50  51
ATOM     51  C   UNL     1      -5.999  -7.298   6.751  1.00  0.00     0.103 C 
BRANCH  51  52
ATOM     52  C   UNL     1      -6.360  -6.517   5.490  1.00  0.00     0.226 C 
ATOM     53  O   UNL     1      -7.379  -6.809   4.861  1.00  0.00    -0.275 OA
BRANCH  52  54
ATOM     54  N   UNL     1      -5.521  -5.435   5.161  1.00  0.00    -0.311 N 
ATOM     55  C   UNL     1      -4.060  -5.562   5.235  1.00  0.00     0.153 C 
BRANCH  54  56
ATOM     56  C   UNL     1      -6.047  -4.200   4.747  1.00  0.00     0.102 C 
ATOM     57  C   UNL     1      -6.647  -3.310   5.554  1.00  0.00     0.043 C 
BRANCH  56  58
ATOM     58  C   UNL     1      -5.929  -3.751   3.309  1.00  0.00     0.268 C 
ATOM     59  O   UNL     1      -5.891  -4.528   2.365  1.00  0.00    -0.268 OA
ATOM     60  N   UNL     1      -5.934  -2.383   3.169  1.00  0.00    -0.339 N 
ATOM     61  H   UNL     1      -5.957  -1.808   4.002  1.00  0.00     0.164 HD
BRANCH  60  62
ATOM     62  C   UNL     1      -5.892  -1.735   1.859  1.00  0.00     0.168 CG0
ATOM     63  C   UNL     1      -6.369  -0.290   1.948  1.00  0.00     0.041 C 
ATOM     64  G   UNL     1      -6.752  -2.533   0.858  1.00  0.00     0.000 G0
ENDBRANCH  60  62
ENDBRANCH  56  58
ENDBRANCH  54  56
ENDBRANCH  52  54
ENDBRANCH  51  52
ENDBRANCH  50  51
ENDBRANCH  49  50
BRANCH  49  65
ATOM     65  C   UNL     1      -8.903  -6.791   8.495  1.00  0.00     0.326 C 
ATOM     66  O   UNL     1      -9.526  -6.271   9.410  1.00  0.00    -0.250 OA
BRANCH  65  67
ATOM     67  O   UNL     1      -9.345  -6.661   7.225  1.00  0.00    -0.480 OA
ATOM     68  H   UNL     1      -8.846  -7.349   6.735  1.00  0.00     0.296 HD
ENDBRANCH  65  67
ENDBRANCH  49  65
ENDBRANCH  47  49
ENDBRANCH  43  45
ENDBRANCH   1  43
BRANCH   1  69
ATOM     69  C   UNL     1      -6.737  -5.642  12.491  1.00  0.00    -0.001 C 
ATOM     70  C   UNL     1      -7.676  -6.261  13.229  1.00  0.00     0.001 C 
BRANCH  70  71
ATOM     71  C   UNL     1      -9.078  -5.866  13.379  1.00  0.00    -0.055 C 
ATOM     72  C   UNL     1      -9.460  -4.690  12.837  1.00  0.00    -0.018 C 
ATOM     73  C   UNL     1      -9.996  -6.803  14.118  1.00  0.00     0.044 C 
BRANCH  72  74
ATOM     74  C   UNL     1     -10.833  -4.033  12.833  1.00  0.00     0.038 C 
ATOM     75  C   UNL     1     -11.119  -3.594  11.392  1.00  0.00     0.015 C 
BRANCH  74  76
ATOM     76  C   UNL     1     -10.840  -2.880  13.880  1.00  0.00     0.128 C 
BRANCH  76  77
ATOM     77  O   UNL     1     -11.776  -1.864  13.485  1.00  0.00    -0.381 OA
ATOM     78  C   UNL     1     -11.228  -0.552  13.482  1.00  0.00     0.195 C 
ENDBRANCH  76  77
BRANCH  76  79
ATOM     79  C   UNL     1     -11.052  -3.357  15.339  1.00  0.00     0.068 C 
BRANCH  79  80
ATOM     80  C   UNL     1      -9.850  -3.400  16.251  1.00  0.00    -0.045 A 
ATOM     81  C   UNL     1      -9.647  -4.474  17.127  1.00  0.00     0.004 A 
ATOM     82  C   UNL     1      -8.928  -2.342  16.255  1.00  0.00     0.004 A 
ATOM     83  C   UNL     1      -8.540  -4.499  17.978  1.00  0.00     0.000 A 
ATOM     84  C   UNL     1      -7.821  -2.368  17.107  1.00  0.00     0.000 A 
ATOM     85  C   UNL     1      -7.627  -3.447  17.967  1.00  0.00     0.000 A 
ENDBRANCH  79  80
ENDBRANCH  76  79
ENDBRANCH  74  76
ENDBRANCH  72  74
ENDBRANCH  70  71
ENDBRANCH   1  69
TORSDOF 17
ENDMDL
MODEL 47
REMARK VINA RESULT:    -6.653      6.289     10.663
REMARK INTER + INTRA:         -28.590
REMARK INTER:                 -20.819
REMARK INTRA:                  -7.771
REMARK UNBOUND:                -8.713
REMARK SMILES C=C1C(=O)N[C@H](C)C(=O)N[C@@H](CC(C)C)C(=O)N[C@@H](C(=O)O)[C@H](C)C(=O)N[C@@H](CCCN=C(N)N)C(=O)N[C@@H](/C=C/C(C)=C/[C@H](C)[C@H](Cc2ccccc2)OC)[C@H](C)C(=O)N[C@@H](C(=O)O)CCC(=O)N1C
REMARK SMILES IDX 39 1 38 2 37 3 36 4 28 6 27 7 25 8 26 9 23 11 24 12 19 13
REMARK SMILES IDX 18 14 16 15 17 16 11 18 10 19 8 20 9 21 12 24 13 25 14 26
REMARK SMILES IDX 15 27 20 28 21 29 22 30 29 32 30 33 31 34 32 35 33 36 34 37
REMARK SMILES IDX 35 38 57 43 58 44 59 45 60 46 61 47 62 49 66 50 67 51 68 52
REMARK SMILES IDX 69 53 70 54 71 55 2 56 1 57 3 58 4 59 5 60 6 62 7 63 63 65
REMARK SMILES IDX 64 66 65 67 40 69 41 70 42 71 44 72 43 73 45 74 46 75 47 76
REMARK SMILES IDX 55 77 56 78 48 79 49 80 50 81 54 82 51 83 53 84 52 85
REMARK H PARENT 38 5 27 10 18 17 10 22 22 31 34 39 34 40 35 41 35 42 61 48
REMARK H PARENT 5 61 65 68
REMARK Flexibility Score:  369.900
ROOT
ATOM      1  C   UNL     1      -4.549  -6.940  13.502  1.00  0.00     0.117 C 
ENDROOT
BRANCH   1   2
ATOM      2  N   UNL     1      -5.343  -6.923  12.273  1.00  0.00    -0.347 N 
ATOM      3  O   UNL     1      -4.880  -9.060  11.573  1.00  0.00    -0.273 OA
ATOM      4  C   UNL     1      -5.518  -8.020  11.451  1.00  0.00     0.243 C 
ATOM      5  H   UNL     1      -5.841  -6.084  12.017  1.00  0.00     0.164 HD
BRANCH   4   6
ATOM      6  C   UNL     1      -6.475  -7.759  10.260  1.00  0.00     0.171 C 
BRANCH   6   7
ATOM      7  N   UNL     1      -6.761  -6.321  10.135  1.00  0.00    -0.344 N 
ATOM      8  C   UNL     1      -7.843  -5.880   9.404  1.00  0.00     0.226 C 
ATOM      9  O   UNL     1      -8.596  -6.645   8.813  1.00  0.00    -0.275 OA
ATOM     10  H   UNL     1      -6.123  -5.655  10.554  1.00  0.00     0.164 HD
BRANCH   8  11
ATOM     11  C   UNL     1      -8.035  -4.374   9.416  1.00  0.00     0.109 C 
ATOM     12  C   UNL     1      -9.278  -4.008  10.228  1.00  0.00     0.021 C 
BRANCH  11  13
ATOM     13  C   UNL     1      -6.734  -3.686   9.877  1.00  0.00     0.204 C 
BRANCH  13  14
ATOM     14  N   UNL     1      -6.320  -2.619   8.961  1.00  0.00    -0.340 N 
ATOM     15  C   UNL     1      -5.284  -2.763   8.064  1.00  0.00     0.243 C 
ATOM     16  O   UNL     1      -4.673  -3.821   7.925  1.00  0.00    -0.273 OA
ATOM     17  H   UNL     1      -6.681  -1.676   9.128  1.00  0.00     0.164 HD
BRANCH  15  18
ATOM     18  C   UNL     1      -4.894  -1.444   7.353  1.00  0.00     0.171 C 
BRANCH  18  19
ATOM     19  N   UNL     1      -6.038  -1.057   6.530  1.00  0.00    -0.343 N 
ATOM     20  C   UNL     1      -5.879  -0.436   5.306  1.00  0.00     0.242 CG0
ATOM     21  O   UNL     1      -4.777  -0.060   4.914  1.00  0.00    -0.273 OA
ATOM     22  H   UNL     1      -6.977  -1.242   6.865  1.00  0.00     0.164 HD
ATOM     23  G   UNL     1      -7.197  -0.176   4.548  1.00  0.00     0.000 G0
ENDBRANCH  18  19
BRANCH  18  24
ATOM     24  C   UNL     1      -4.547  -0.358   8.379  1.00  0.00     0.038 C 
BRANCH  24  25
ATOM     25  C   UNL     1      -3.392  -0.723   9.337  1.00  0.00    -0.015 C 
ATOM     26  C   UNL     1      -3.750  -0.480  10.803  1.00  0.00     0.007 C 
ATOM     27  C   UNL     1      -2.145   0.086   8.971  1.00  0.00     0.007 C 
ENDBRANCH  24  25
ENDBRANCH  18  24
ENDBRANCH  15  18
ENDBRANCH  13  14
BRANCH  13  28
ATOM     28  C   UNL     1      -6.840  -3.069  11.275  1.00  0.00     0.327 C 
ATOM     29  O   UNL     1      -6.948  -1.880  11.534  1.00  0.00    -0.250 OA
BRANCH  28  30
ATOM     30  O   UNL     1      -6.685  -3.972  12.265  1.00  0.00    -0.480 OA
ATOM     31  H   UNL     1      -5.837  -3.723  12.688  1.00  0.00     0.296 HD
ENDBRANCH  28  30
ENDBRANCH  13  28
ENDBRANCH  11  13
ENDBRANCH   8  11
ENDBRANCH   6   7
BRANCH   6  32
ATOM     32  C   UNL     1      -5.841  -8.304   8.976  1.00  0.00     0.037 C 
BRANCH  32  33
ATOM     33  C   UNL     1      -4.629  -7.474   8.531  1.00  0.00     0.026 C 
BRANCH  33  34
ATOM     34  C   UNL     1      -4.603  -7.240   7.020  1.00  0.00     0.146 C 
BRANCH  34  35
ATOM     35  N   UNL     1      -5.930  -7.505   6.481  1.00  0.00    -0.254 NA
ATOM     36  C   UNL     1      -6.549  -6.559   5.879  1.00  0.00     0.185 C 
ATOM     37  N   UNL     1      -7.770  -6.793   5.374  1.00  0.00    -0.370 N 
ATOM     38  N   UNL     1      -6.149  -5.294   5.658  1.00  0.00    -0.370 N 
ATOM     39  H   UNL     1      -8.138  -7.729   5.491  1.00  0.00     0.159 HD
ATOM     40  H   UNL     1      -8.242  -6.166   4.745  1.00  0.00     0.159 HD
ATOM     41  H   UNL     1      -6.784  -4.602   5.295  1.00  0.00     0.159 HD
ATOM     42  H   UNL     1      -5.256  -4.972   5.998  1.00  0.00     0.159 HD
ENDBRANCH  34  35
ENDBRANCH  33  34
ENDBRANCH  32  33
ENDBRANCH   6  32
ENDBRANCH   4   6
ENDBRANCH   1   2
BRANCH   1  43
ATOM     43  C   UNL     1      -5.332  -6.174  14.607  1.00  0.00     0.102 C 
ATOM     44  C   UNL     1      -4.789  -4.760  14.874  1.00  0.00     0.020 C 
BRANCH  43  45
ATOM     45  C   UNL     1      -5.481  -7.030  15.869  1.00  0.00     0.225 C 
ATOM     46  O   UNL     1      -5.643  -8.246  15.838  1.00  0.00    -0.275 OA
ATOM     47  N   UNL     1      -5.518  -6.334  17.055  1.00  0.00    -0.342 N 
ATOM     48  H   UNL     1      -5.235  -5.365  17.076  1.00  0.00     0.164 HD
BRANCH  47  49
ATOM     49  C   UNL     1      -5.622  -7.024  18.345  1.00  0.00     0.192 C 
BRANCH  49  50
ATOM     50  C   UNL     1      -7.096  -7.251  18.690  1.00  0.00     0.047 C 
BRANCH  50  51
ATOM     51  C   UNL     1      -7.397  -8.719  19.022  1.00  0.00     0.103 C 
BRANCH  51  52
ATOM     52  C   UNL     1      -6.560  -9.224  20.196  1.00  0.00     0.226 C 
ATOM     53  O   UNL     1      -6.562  -8.601  21.259  1.00  0.00    -0.275 OA
BRANCH  52  54
ATOM     54  N   UNL     1      -5.883 -10.443  20.005  1.00  0.00    -0.311 N 
ATOM     55  C   UNL     1      -6.370 -11.684  20.622  1.00  0.00     0.153 C 
BRANCH  54  56
ATOM     56  C   UNL     1      -4.724 -10.520  19.215  1.00  0.00     0.102 C 
ATOM     57  C   UNL     1      -4.710 -10.561  17.872  1.00  0.00     0.043 C 
BRANCH  56  58
ATOM     58  C   UNL     1      -3.352 -10.517  19.848  1.00  0.00     0.268 C 
ATOM     59  O   UNL     1      -3.038  -9.765  20.760  1.00  0.00    -0.268 OA
ATOM     60  N   UNL     1      -2.521 -11.487  19.341  1.00  0.00    -0.339 N 
ATOM     61  H   UNL     1      -2.854 -12.064  18.578  1.00  0.00     0.164 HD
BRANCH  60  62
ATOM     62  C   UNL     1      -1.169 -11.701  19.856  1.00  0.00     0.168 CG0
ATOM     63  C   UNL     1      -0.122 -11.282  18.832  1.00  0.00     0.041 C 
ATOM     64  G   UNL     1      -0.992 -13.184  20.242  1.00  0.00     0.000 G0
ENDBRANCH  60  62
ENDBRANCH  56  58
ENDBRANCH  54  56
ENDBRANCH  52  54
ENDBRANCH  51  52
ENDBRANCH  50  51
ENDBRANCH  49  50
BRANCH  49  65
ATOM     65  C   UNL     1      -4.953  -6.222  19.472  1.00  0.00     0.326 C 
ATOM     66  O   UNL     1      -5.143  -5.038  19.711  1.00  0.00    -0.250 OA
BRANCH  65  67
ATOM     67  O   UNL     1      -4.046  -6.915  20.196  1.00  0.00    -0.480 OA
ATOM     68  H   UNL     1      -3.882  -6.339  20.973  1.00  0.00     0.296 HD
ENDBRANCH  65  67
ENDBRANCH  49  65
ENDBRANCH  47  49
ENDBRANCH  43  45
ENDBRANCH   1  43
BRANCH   1  69
ATOM     69  C   UNL     1      -3.162  -6.457  13.117  1.00  0.00    -0.001 C 
ATOM     70  C   UNL     1      -2.080  -7.210  12.852  1.00  0.00     0.001 C 
BRANCH  70  71
ATOM     71  C   UNL     1      -0.751  -6.733  12.461  1.00  0.00    -0.055 C 
ATOM     72  C   UNL     1      -0.578  -6.338  11.182  1.00  0.00    -0.018 C 
ATOM     73  C   UNL     1       0.325  -6.710  13.515  1.00  0.00     0.044 C 
BRANCH  72  74
ATOM     74  C   UNL     1       0.673  -5.801  10.501  1.00  0.00     0.038 C 
ATOM     75  C   UNL     1       1.616  -5.312  11.607  1.00  0.00     0.015 C 
BRANCH  74  76
ATOM     76  C   UNL     1       0.254  -4.712   9.471  1.00  0.00     0.128 C 
BRANCH  76  77
ATOM     77  O   UNL     1       0.068  -5.307   8.175  1.00  0.00    -0.381 OA
ATOM     78  C   UNL     1      -1.272  -5.247   7.707  1.00  0.00     0.195 C 
ENDBRANCH  76  77
BRANCH  76  79
ATOM     79  C   UNL     1      -0.958  -3.856   9.917  1.00  0.00     0.068 C 
BRANCH  79  80
ATOM     80  C   UNL     1      -0.778  -2.937  11.101  1.00  0.00    -0.045 A 
ATOM     81  C   UNL     1       0.267  -2.004  11.137  1.00  0.00     0.004 A 
ATOM     82  C   UNL     1      -1.643  -3.023  12.202  1.00  0.00     0.004 A 
ATOM     83  C   UNL     1       0.436  -1.167  12.242  1.00  0.00     0.000 A 
ATOM     84  C   UNL     1      -1.473  -2.186  13.306  1.00  0.00     0.000 A 
ATOM     85  C   UNL     1      -0.435  -1.257  13.326  1.00  0.00     0.000 A 
ENDBRANCH  79  80
ENDBRANCH  76  79
ENDBRANCH  74  76
ENDBRANCH  72  74
ENDBRANCH  70  71
ENDBRANCH   1  69
TORSDOF 17
ENDMDL
MODEL 48
REMARK VINA RESULT:    -6.643      4.937     12.731
REMARK INTER + INTRA:         -28.561
REMARK INTER:                 -19.727
REMARK INTRA:                  -8.834
REMARK UNBOUND:                -8.713
REMARK SMILES C=C1C(=O)N[C@H](C)C(=O)N[C@@H](CC(C)C)C(=O)N[C@@H](C(=O)O)[C@H](C)C(=O)N[C@@H](CCCN=C(N)N)C(=O)N[C@@H](/C=C/C(C)=C/[C@H](C)[C@H](Cc2ccccc2)OC)[C@H](C)C(=O)N[C@@H](C(=O)O)CCC(=O)N1C
REMARK SMILES IDX 39 1 38 2 37 3 36 4 28 6 27 7 25 8 26 9 23 11 24 12 19 13
REMARK SMILES IDX 18 14 16 15 17 16 11 18 10 19 8 20 9 21 12 24 13 25 14 26
REMARK SMILES IDX 15 27 20 28 21 29 22 30 29 32 30 33 31 34 32 35 33 36 34 37
REMARK SMILES IDX 35 38 57 43 58 44 59 45 60 46 61 47 62 49 66 50 67 51 68 52
REMARK SMILES IDX 69 53 70 54 71 55 2 56 1 57 3 58 4 59 5 60 6 62 7 63 63 65
REMARK SMILES IDX 64 66 65 67 40 69 41 70 42 71 44 72 43 73 45 74 46 75 47 76
REMARK SMILES IDX 55 77 56 78 48 79 49 80 50 81 54 82 51 83 53 84 52 85
REMARK H PARENT 38 5 27 10 18 17 10 22 22 31 34 39 34 40 35 41 35 42 61 48
REMARK H PARENT 5 61 65 68
REMARK Flexibility Score:  369.900
ROOT
ATOM      1  C   UNL     1      -3.686  -1.177   9.146  1.00  0.00     0.117 C 
ENDROOT
BRANCH   1   2
ATOM      2  N   UNL     1      -3.500  -2.514   8.580  1.00  0.00    -0.347 N 
ATOM      3  O   UNL     1      -3.646  -1.938   6.363  1.00  0.00    -0.273 OA
ATOM      4  C   UNL     1      -3.404  -2.774   7.227  1.00  0.00     0.243 C 
ATOM      5  H   UNL     1      -3.384  -3.301   9.200  1.00  0.00     0.164 HD
BRANCH   4   6
ATOM      6  C   UNL     1      -3.122  -4.262   6.897  1.00  0.00     0.171 C 
BRANCH   6   7
ATOM      7  N   UNL     1      -3.905  -5.142   7.780  1.00  0.00    -0.344 N 
ATOM      8  C   UNL     1      -3.276  -5.971   8.683  1.00  0.00     0.226 C 
ATOM      9  O   UNL     1      -2.056  -6.036   8.782  1.00  0.00    -0.275 OA
ATOM     10  H   UNL     1      -4.912  -5.166   7.681  1.00  0.00     0.164 HD
BRANCH   8  11
ATOM     11  C   UNL     1      -4.222  -6.775   9.558  1.00  0.00     0.109 C 
ATOM     12  C   UNL     1      -3.638  -8.162   9.828  1.00  0.00     0.021 C 
BRANCH  11  13
ATOM     13  C   UNL     1      -4.579  -5.965  10.821  1.00  0.00     0.204 C 
BRANCH  13  14
ATOM     14  N   UNL     1      -6.001  -6.074  11.162  1.00  0.00    -0.340 N 
ATOM     15  C   UNL     1      -6.982  -5.350  10.521  1.00  0.00     0.243 C 
ATOM     16  O   UNL     1      -6.740  -4.604   9.573  1.00  0.00    -0.273 OA
ATOM     17  H   UNL     1      -6.251  -6.555  12.031  1.00  0.00     0.164 HD
BRANCH  15  18
ATOM     18  C   UNL     1      -8.375  -5.472  11.186  1.00  0.00     0.171 C 
BRANCH  18  19
ATOM     19  N   UNL     1      -8.910  -6.777  10.803  1.00  0.00    -0.343 N 
ATOM     20  C   UNL     1      -9.459  -7.002   9.555  1.00  0.00     0.242 CG0
ATOM     21  O   UNL     1      -9.645  -6.084   8.759  1.00  0.00    -0.273 OA
ATOM     22  H   UNL     1      -8.884  -7.540  11.470  1.00  0.00     0.164 HD
ATOM     23  G   UNL     1      -9.898  -8.460   9.306  1.00  0.00     0.000 G0
ENDBRANCH  18  19
BRANCH  18  24
ATOM     24  C   UNL     1      -8.261  -5.336  12.710  1.00  0.00     0.038 C 
BRANCH  24  25
ATOM     25  C   UNL     1      -8.661  -6.600  13.501  1.00  0.00    -0.015 C 
ATOM     26  C   UNL     1      -9.752  -6.321  14.535  1.00  0.00     0.007 C 
ATOM     27  C   UNL     1      -7.429  -7.184  14.196  1.00  0.00     0.007 C 
ENDBRANCH  24  25
ENDBRANCH  18  24
ENDBRANCH  15  18
ENDBRANCH  13  14
BRANCH  13  28
ATOM     28  C   UNL     1      -3.781  -6.391  12.057  1.00  0.00     0.327 C 
ATOM     29  O   UNL     1      -4.212  -7.013  13.016  1.00  0.00    -0.250 OA
BRANCH  28  30
ATOM     30  O   UNL     1      -2.523  -5.907  12.066  1.00  0.00    -0.480 OA
ATOM     31  H   UNL     1      -2.504  -5.298  12.834  1.00  0.00     0.296 HD
ENDBRANCH  28  30
ENDBRANCH  13  28
ENDBRANCH  11  13
ENDBRANCH   8  11
ENDBRANCH   6   7
BRANCH   6  32
ATOM     32  C   UNL     1      -3.459  -4.524   5.425  1.00  0.00     0.037 C 
BRANCH  32  33
ATOM     33  C   UNL     1      -4.664  -5.462   5.264  1.00  0.00     0.026 C 
BRANCH  33  34
ATOM     34  C   UNL     1      -5.937  -4.716   4.862  1.00  0.00     0.146 C 
BRANCH  34  35
ATOM     35  N   UNL     1      -6.664  -4.343   6.068  1.00  0.00    -0.254 NA
ATOM     36  C   UNL     1      -6.940  -3.107   6.262  1.00  0.00     0.185 C 
ATOM     37  N   UNL     1      -7.614  -2.753   7.367  1.00  0.00    -0.370 N 
ATOM     38  N   UNL     1      -6.647  -2.045   5.490  1.00  0.00    -0.370 N 
ATOM     39  H   UNL     1      -7.880  -3.500   7.995  1.00  0.00     0.159 HD
ATOM     40  H   UNL     1      -8.016  -1.842   7.505  1.00  0.00     0.159 HD
ATOM     41  H   UNL     1      -6.796  -1.105   5.819  1.00  0.00     0.159 HD
ATOM     42  H   UNL     1      -6.128  -2.161   4.634  1.00  0.00     0.159 HD
ENDBRANCH  34  35
ENDBRANCH  33  34
ENDBRANCH  32  33
ENDBRANCH   6  32
ENDBRANCH   4   6
ENDBRANCH   1   2
BRANCH   1  43
ATOM     43  C   UNL     1      -2.432  -0.821   9.997  1.00  0.00     0.102 C 
ATOM     44  C   UNL     1      -1.454   0.124   9.280  1.00  0.00     0.020 C 
BRANCH  43  45
ATOM     45  C   UNL     1      -1.774  -2.084  10.562  1.00  0.00     0.225 C 
ATOM     46  O   UNL     1      -2.415  -3.046  10.977  1.00  0.00    -0.275 OA
ATOM     47  N   UNL     1      -0.403  -2.041  10.665  1.00  0.00    -0.342 N 
ATOM     48  H   UNL     1       0.113  -1.317  10.186  1.00  0.00     0.164 HD
BRANCH  47  49
ATOM     49  C   UNL     1       0.364  -3.191  11.155  1.00  0.00     0.192 C 
BRANCH  49  50
ATOM     50  C   UNL     1       1.752  -2.728  11.608  1.00  0.00     0.047 C 
BRANCH  50  51
ATOM     51  C   UNL     1       1.984  -1.235  11.338  1.00  0.00     0.103 C 
BRANCH  51  52
ATOM     52  C   UNL     1       2.142  -0.437  12.631  1.00  0.00     0.226 C 
ATOM     53  O   UNL     1       1.269  -0.501  13.498  1.00  0.00    -0.275 OA
BRANCH  52  54
ATOM     54  N   UNL     1       3.344   0.280  12.782  1.00  0.00    -0.311 N 
ATOM     55  C   UNL     1       4.436   0.138  11.809  1.00  0.00     0.153 C 
BRANCH  54  56
ATOM     56  C   UNL     1       3.542   1.159  13.860  1.00  0.00     0.102 C 
ATOM     57  C   UNL     1       3.260   0.877  15.142  1.00  0.00     0.043 C 
BRANCH  56  58
ATOM     58  C   UNL     1       4.155   2.523  13.645  1.00  0.00     0.268 C 
ATOM     59  O   UNL     1       3.506   3.502  13.302  1.00  0.00    -0.268 OA
ATOM     60  N   UNL     1       5.497   2.564  13.938  1.00  0.00    -0.339 N 
ATOM     61  H   UNL     1       5.964   1.706  14.206  1.00  0.00     0.164 HD
BRANCH  60  62
ATOM     62  C   UNL     1       6.274   3.801  13.859  1.00  0.00     0.168 CG0
ATOM     63  C   UNL     1       7.724   3.513  13.490  1.00  0.00     0.041 C 
ATOM     64  G   UNL     1       6.191   4.550  15.204  1.00  0.00     0.000 G0
ENDBRANCH  60  62
ENDBRANCH  56  58
ENDBRANCH  54  56
ENDBRANCH  52  54
ENDBRANCH  51  52
ENDBRANCH  50  51
ENDBRANCH  49  50
BRANCH  49  65
ATOM     65  C   UNL     1       0.516  -4.273  10.074  1.00  0.00     0.326 C 
ATOM     66  O   UNL     1       0.910  -4.086   8.932  1.00  0.00    -0.250 OA
BRANCH  65  67
ATOM     67  O   UNL     1       0.116  -5.507  10.452  1.00  0.00    -0.480 OA
ATOM     68  H   UNL     1       0.613  -6.105   9.853  1.00  0.00     0.296 HD
ENDBRANCH  65  67
ENDBRANCH  49  65
ENDBRANCH  47  49
ENDBRANCH  43  45
ENDBRANCH   1  43
BRANCH   1  69
ATOM     69  C   UNL     1      -5.048  -1.185   9.815  1.00  0.00    -0.001 C 
ATOM     70  C   UNL     1      -5.373  -1.730  11.001  1.00  0.00     0.001 C 
BRANCH  70  71
ATOM     71  C   UNL     1      -6.687  -1.713  11.646  1.00  0.00    -0.055 C 
ATOM     72  C   UNL     1      -7.767  -1.504  10.865  1.00  0.00    -0.018 C 
ATOM     73  C   UNL     1      -6.741  -1.937  13.135  1.00  0.00     0.044 C 
BRANCH  72  74
ATOM     74  C   UNL     1      -9.238  -1.438  11.252  1.00  0.00     0.038 C 
ATOM     75  C   UNL     1     -10.036  -2.072  10.106  1.00  0.00     0.015 C 
BRANCH  74  76
ATOM     76  C   UNL     1      -9.608   0.042  11.565  1.00  0.00     0.128 C 
BRANCH  76  77
ATOM     77  O   UNL     1     -10.188   0.659  10.403  1.00  0.00    -0.381 OA
ATOM     78  C   UNL     1      -9.270   1.447   9.657  1.00  0.00     0.195 C 
ENDBRANCH  76  77
BRANCH  76  79
ATOM     79  C   UNL     1     -10.477   0.218  12.835  1.00  0.00     0.068 C 
BRANCH  79  80
ATOM     80  C   UNL     1     -10.467  -0.892  13.859  1.00  0.00    -0.045 A 
ATOM     81  C   UNL     1     -11.347  -1.977  13.756  1.00  0.00     0.004 A 
ATOM     82  C   UNL     1      -9.588  -0.837  14.951  1.00  0.00     0.004 A 
ATOM     83  C   UNL     1     -11.340  -2.992  14.715  1.00  0.00     0.000 A 
ATOM     84  C   UNL     1      -9.583  -1.853  15.910  1.00  0.00     0.000 A 
ATOM     85  C   UNL     1     -10.458  -2.930  15.791  1.00  0.00     0.000 A 
ENDBRANCH  79  80
ENDBRANCH  76  79
ENDBRANCH  74  76
ENDBRANCH  72  74
ENDBRANCH  70  71
ENDBRANCH   1  69
TORSDOF 17
ENDMDL
MODEL 49
REMARK VINA RESULT:    -6.636      4.833     11.122
REMARK INTER + INTRA:         -28.538
REMARK INTER:                 -21.850
REMARK INTRA:                  -6.688
REMARK UNBOUND:                -8.713
REMARK SMILES C=C1C(=O)N[C@H](C)C(=O)N[C@@H](CC(C)C)C(=O)N[C@@H](C(=O)O)[C@H](C)C(=O)N[C@@H](CCCN=C(N)N)C(=O)N[C@@H](/C=C/C(C)=C/[C@H](C)[C@H](Cc2ccccc2)OC)[C@H](C)C(=O)N[C@@H](C(=O)O)CCC(=O)N1C
REMARK SMILES IDX 39 1 38 2 37 3 36 4 28 6 27 7 25 8 26 9 23 11 24 12 19 13
REMARK SMILES IDX 18 14 16 15 17 16 11 18 10 19 8 20 9 21 12 24 13 25 14 26
REMARK SMILES IDX 15 27 20 28 21 29 22 30 29 32 30 33 31 34 32 35 33 36 34 37
REMARK SMILES IDX 35 38 57 43 58 44 59 45 60 46 61 47 62 49 66 50 67 51 68 52
REMARK SMILES IDX 69 53 70 54 71 55 2 56 1 57 3 58 4 59 5 60 6 62 7 63 63 65
REMARK SMILES IDX 64 66 65 67 40 69 41 70 42 71 44 72 43 73 45 74 46 75 47 76
REMARK SMILES IDX 55 77 56 78 48 79 49 80 50 81 54 82 51 83 53 84 52 85
REMARK H PARENT 38 5 27 10 18 17 10 22 22 31 34 39 34 40 35 41 35 42 61 48
REMARK H PARENT 5 61 65 68
REMARK Flexibility Score:  369.900
ROOT
ATOM      1  C   UNL     1      -4.776  -5.190  14.466  1.00  0.00     0.117 C 
ENDROOT
BRANCH   1   2
ATOM      2  N   UNL     1      -5.377  -5.450  13.157  1.00  0.00    -0.347 N 
ATOM      3  O   UNL     1      -4.061  -7.233  12.558  1.00  0.00    -0.273 OA
ATOM      4  C   UNL     1      -5.030  -6.512  12.345  1.00  0.00     0.243 C 
ATOM      5  H   UNL     1      -6.126  -4.859  12.830  1.00  0.00     0.164 HD
BRANCH   4   6
ATOM      6  C   UNL     1      -5.877  -6.610  11.051  1.00  0.00     0.171 C 
BRANCH   6   7
ATOM      7  N   UNL     1      -5.060  -6.271   9.874  1.00  0.00    -0.344 N 
ATOM      8  C   UNL     1      -5.039  -4.985   9.380  1.00  0.00     0.226 C 
ATOM      9  O   UNL     1      -5.702  -4.078   9.870  1.00  0.00    -0.275 OA
ATOM     10  H   UNL     1      -4.551  -7.008   9.402  1.00  0.00     0.164 HD
BRANCH   8  11
ATOM     11  C   UNL     1      -4.107  -4.784   8.198  1.00  0.00     0.109 C 
ATOM     12  C   UNL     1      -2.683  -5.194   8.575  1.00  0.00     0.021 C 
BRANCH  11  13
ATOM     13  C   UNL     1      -4.679  -5.496   6.956  1.00  0.00     0.204 C 
BRANCH  13  14
ATOM     14  N   UNL     1      -4.661  -4.634   5.770  1.00  0.00    -0.340 N 
ATOM     15  C   UNL     1      -5.661  -3.730   5.486  1.00  0.00     0.243 C 
ATOM     16  O   UNL     1      -6.612  -3.538   6.242  1.00  0.00    -0.273 OA
ATOM     17  H   UNL     1      -3.986  -4.849   5.031  1.00  0.00     0.164 HD
BRANCH  15  18
ATOM     18  C   UNL     1      -5.534  -3.086   4.083  1.00  0.00     0.171 C 
BRANCH  18  19
ATOM     19  N   UNL     1      -5.786  -4.148   3.111  1.00  0.00    -0.343 N 
ATOM     20  C   UNL     1      -5.147  -4.181   1.887  1.00  0.00     0.242 CG0
ATOM     21  O   UNL     1      -4.440  -3.252   1.504  1.00  0.00    -0.273 OA
ATOM     22  H   UNL     1      -6.452  -4.879   3.334  1.00  0.00     0.164 HD
ATOM     23  G   UNL     1      -5.481  -5.419   1.028  1.00  0.00     0.000 G0
ENDBRANCH  18  19
BRANCH  18  24
ATOM     24  C   UNL     1      -6.530  -1.931   3.925  1.00  0.00     0.038 C 
BRANCH  24  25
ATOM     25  C   UNL     1      -5.885  -0.558   3.640  1.00  0.00    -0.015 C 
ATOM     26  C   UNL     1      -6.295   0.504   4.660  1.00  0.00     0.007 C 
ATOM     27  C   UNL     1      -6.265  -0.094   2.231  1.00  0.00     0.007 C 
ENDBRANCH  24  25
ENDBRANCH  18  24
ENDBRANCH  15  18
ENDBRANCH  13  14
BRANCH  13  28
ATOM     28  C   UNL     1      -3.927  -6.780   6.596  1.00  0.00     0.327 C 
ATOM     29  O   UNL     1      -3.832  -7.781   7.290  1.00  0.00    -0.250 OA
BRANCH  28  30
ATOM     30  O   UNL     1      -3.241  -6.685   5.439  1.00  0.00    -0.480 OA
ATOM     31  H   UNL     1      -3.028  -5.732   5.363  1.00  0.00     0.296 HD
ENDBRANCH  28  30
ENDBRANCH  13  28
ENDBRANCH  11  13
ENDBRANCH   8  11
ENDBRANCH   6   7
BRANCH   6  32
ATOM     32  C   UNL     1      -6.450  -8.026  10.930  1.00  0.00     0.037 C 
BRANCH  32  33
ATOM     33  C   UNL     1      -7.088  -8.277   9.556  1.00  0.00     0.026 C 
BRANCH  33  34
ATOM     34  C   UNL     1      -8.424  -7.552   9.390  1.00  0.00     0.146 C 
BRANCH  34  35
ATOM     35  N   UNL     1      -8.635  -7.274   7.976  1.00  0.00    -0.254 NA
ATOM     36  C   UNL     1      -8.521  -6.067   7.564  1.00  0.00     0.185 C 
ATOM     37  N   UNL     1      -8.708  -5.800   6.262  1.00  0.00    -0.370 N 
ATOM     38  N   UNL     1      -8.224  -4.959   8.266  1.00  0.00    -0.370 N 
ATOM     39  H   UNL     1      -8.925  -6.587   5.664  1.00  0.00     0.159 HD
ATOM     40  H   UNL     1      -8.468  -4.922   5.834  1.00  0.00     0.159 HD
ATOM     41  H   UNL     1      -8.301  -4.044   7.852  1.00  0.00     0.159 HD
ATOM     42  H   UNL     1      -8.073  -5.008   9.261  1.00  0.00     0.159 HD
ENDBRANCH  34  35
ENDBRANCH  33  34
ENDBRANCH  32  33
ENDBRANCH   6  32
ENDBRANCH   4   6
ENDBRANCH   1   2
BRANCH   1  43
ATOM     43  C   UNL     1      -5.902  -4.758  15.450  1.00  0.00     0.102 C 
ATOM     44  C   UNL     1      -7.199  -5.569  15.291  1.00  0.00     0.020 C 
BRANCH  43  45
ATOM     45  C   UNL     1      -6.109  -3.241  15.415  1.00  0.00     0.225 C 
ATOM     46  O   UNL     1      -6.717  -2.667  14.516  1.00  0.00    -0.275 OA
ATOM     47  N   UNL     1      -5.486  -2.534  16.418  1.00  0.00    -0.342 N 
ATOM     48  H   UNL     1      -5.123  -3.024  17.224  1.00  0.00     0.164 HD
BRANCH  47  49
ATOM     49  C   UNL     1      -5.626  -1.080  16.532  1.00  0.00     0.192 C 
BRANCH  49  50
ATOM     50  C   UNL     1      -4.253  -0.448  16.779  1.00  0.00     0.047 C 
BRANCH  50  51
ATOM     51  C   UNL     1      -4.086   0.888  16.043  1.00  0.00     0.103 C 
BRANCH  51  52
ATOM     52  C   UNL     1      -2.903   1.693  16.577  1.00  0.00     0.226 C 
ATOM     53  O   UNL     1      -1.759   1.249  16.457  1.00  0.00    -0.275 OA
BRANCH  52  54
ATOM     54  N   UNL     1      -3.198   2.957  17.118  1.00  0.00    -0.311 N 
ATOM     55  C   UNL     1      -3.246   4.153  16.266  1.00  0.00     0.153 C 
BRANCH  54  56
ATOM     56  C   UNL     1      -3.462   3.124  18.488  1.00  0.00     0.102 C 
ATOM     57  C   UNL     1      -2.528   3.313  19.434  1.00  0.00     0.043 C 
BRANCH  56  58
ATOM     58  C   UNL     1      -4.881   3.147  19.006  1.00  0.00     0.268 C 
ATOM     59  O   UNL     1      -5.572   2.143  19.112  1.00  0.00    -0.268 OA
ATOM     60  N   UNL     1      -5.290   4.397  19.406  1.00  0.00    -0.339 N 
ATOM     61  H   UNL     1      -4.661   5.180  19.275  1.00  0.00     0.164 HD
BRANCH  60  62
ATOM     62  C   UNL     1      -6.607   4.634  19.996  1.00  0.00     0.168 CG0
ATOM     63  C   UNL     1      -6.560   5.786  20.993  1.00  0.00     0.041 C 
ATOM     64  G   UNL     1      -7.108   3.344  20.677  1.00  0.00     0.000 G0
ENDBRANCH  60  62
ENDBRANCH  56  58
ENDBRANCH  54  56
ENDBRANCH  52  54
ENDBRANCH  51  52
ENDBRANCH  50  51
ENDBRANCH  49  50
BRANCH  49  65
ATOM     65  C   UNL     1      -6.578  -0.690  17.673  1.00  0.00     0.326 C 
ATOM     66  O   UNL     1      -6.694  -1.282  18.736  1.00  0.00    -0.250 OA
BRANCH  65  67
ATOM     67  O   UNL     1      -7.372   0.371  17.407  1.00  0.00    -0.480 OA
ATOM     68  H   UNL     1      -6.888   0.851  16.701  1.00  0.00     0.296 HD
ENDBRANCH  65  67
ENDBRANCH  49  65
ENDBRANCH  47  49
ENDBRANCH  43  45
ENDBRANCH   1  43
BRANCH   1  69
ATOM     69  C   UNL     1      -3.614  -4.245  14.220  1.00  0.00    -0.001 C 
ATOM     70  C   UNL     1      -3.454  -3.400  13.186  1.00  0.00     0.001 C 
BRANCH  70  71
ATOM     71  C   UNL     1      -2.338  -2.477  12.970  1.00  0.00    -0.055 C 
ATOM     72  C   UNL     1      -1.729  -2.500  11.766  1.00  0.00    -0.018 C 
ATOM     73  C   UNL     1      -1.954  -1.561  14.103  1.00  0.00     0.044 C 
BRANCH  72  74
ATOM     74  C   UNL     1      -0.561  -1.664  11.262  1.00  0.00     0.038 C 
ATOM     75  C   UNL     1      -0.662  -1.622   9.732  1.00  0.00     0.015 C 
BRANCH  74  76
ATOM     76  C   UNL     1       0.764  -2.271  11.812  1.00  0.00     0.128 C 
BRANCH  76  77
ATOM     77  O   UNL     1       0.972  -3.581  11.256  1.00  0.00    -0.381 OA
ATOM     78  C   UNL     1       2.305  -3.810  10.818  1.00  0.00     0.195 C 
ENDBRANCH  76  77
BRANCH  76  79
ATOM     79  C   UNL     1       1.996  -1.347  11.646  1.00  0.00     0.068 C 
BRANCH  79  80
ATOM     80  C   UNL     1       2.353  -0.433  12.793  1.00  0.00    -0.045 A 
ATOM     81  C   UNL     1       3.524   0.337  12.766  1.00  0.00     0.004 A 
ATOM     82  C   UNL     1       1.527  -0.362  13.925  1.00  0.00     0.004 A 
ATOM     83  C   UNL     1       3.855   1.169  13.837  1.00  0.00     0.000 A 
ATOM     84  C   UNL     1       1.859   0.470  14.997  1.00  0.00     0.000 A 
ATOM     85  C   UNL     1       3.021   1.236  14.952  1.00  0.00     0.000 A 
ENDBRANCH  79  80
ENDBRANCH  76  79
ENDBRANCH  74  76
ENDBRANCH  72  74
ENDBRANCH  70  71
ENDBRANCH   1  69
TORSDOF 17
ENDMDL
MODEL 50
REMARK VINA RESULT:    -6.561      5.107      9.031
REMARK INTER + INTRA:         -28.316
REMARK INTER:                 -19.699
REMARK INTRA:                  -8.617
REMARK UNBOUND:                -8.713
REMARK SMILES C=C1C(=O)N[C@H](C)C(=O)N[C@@H](CC(C)C)C(=O)N[C@@H](C(=O)O)[C@H](C)C(=O)N[C@@H](CCCN=C(N)N)C(=O)N[C@@H](/C=C/C(C)=C/[C@H](C)[C@H](Cc2ccccc2)OC)[C@H](C)C(=O)N[C@@H](C(=O)O)CCC(=O)N1C
REMARK SMILES IDX 39 1 38 2 37 3 36 4 28 6 27 7 25 8 26 9 23 11 24 12 19 13
REMARK SMILES IDX 18 14 16 15 17 16 11 18 10 19 8 20 9 21 12 24 13 25 14 26
REMARK SMILES IDX 15 27 20 28 21 29 22 30 29 32 30 33 31 34 32 35 33 36 34 37
REMARK SMILES IDX 35 38 57 43 58 44 59 45 60 46 61 47 62 49 66 50 67 51 68 52
REMARK SMILES IDX 69 53 70 54 71 55 2 56 1 57 3 58 4 59 5 60 6 62 7 63 63 65
REMARK SMILES IDX 64 66 65 67 40 69 41 70 42 71 44 72 43 73 45 74 46 75 47 76
REMARK SMILES IDX 55 77 56 78 48 79 49 80 50 81 54 82 51 83 53 84 52 85
REMARK H PARENT 38 5 27 10 18 17 10 22 22 31 34 39 34 40 35 41 35 42 61 48
REMARK H PARENT 5 61 65 68
REMARK Flexibility Score:  369.900
ROOT
ATOM      1  C   UNL     1      -8.918  -2.814   8.889  1.00  0.00     0.117 C 
ENDROOT
BRANCH   1   2
ATOM      2  N   UNL     1      -7.745  -2.881   8.018  1.00  0.00    -0.347 N 
ATOM      3  O   UNL     1      -8.716  -4.010   6.271  1.00  0.00    -0.273 OA
ATOM      4  C   UNL     1      -7.762  -3.395   6.735  1.00  0.00     0.243 C 
ATOM      5  H   UNL     1      -6.871  -2.489   8.334  1.00  0.00     0.164 HD
BRANCH   4   6
ATOM      6  C   UNL     1      -6.406  -3.269   5.995  1.00  0.00     0.171 C 
BRANCH   6   7
ATOM      7  N   UNL     1      -5.439  -4.243   6.524  1.00  0.00    -0.344 N 
ATOM      8  C   UNL     1      -4.687  -3.952   7.642  1.00  0.00     0.226 C 
ATOM      9  O   UNL     1      -4.767  -2.880   8.230  1.00  0.00    -0.275 OA
ATOM     10  H   UNL     1      -5.296  -5.113   6.026  1.00  0.00     0.164 HD
BRANCH   8  11
ATOM     11  C   UNL     1      -3.776  -5.079   8.094  1.00  0.00     0.109 C 
ATOM     12  C   UNL     1      -4.453  -6.430   7.859  1.00  0.00     0.021 C 
BRANCH  11  13
ATOM     13  C   UNL     1      -2.390  -4.925   7.436  1.00  0.00     0.204 C 
BRANCH  13  14
ATOM     14  N   UNL     1      -1.309  -5.379   8.316  1.00  0.00    -0.340 N 
ATOM     15  C   UNL     1      -0.705  -4.559   9.245  1.00  0.00     0.243 C 
ATOM     16  O   UNL     1      -1.074  -3.402   9.443  1.00  0.00    -0.273 OA
ATOM     17  H   UNL     1      -0.857  -6.272   8.100  1.00  0.00     0.164 HD
BRANCH  15  18
ATOM     18  C   UNL     1       0.544  -5.189   9.908  1.00  0.00     0.171 C 
BRANCH  18  19
ATOM     19  N   UNL     1       1.667  -4.303   9.613  1.00  0.00    -0.343 N 
ATOM     20  C   UNL     1       2.096  -4.076   8.319  1.00  0.00     0.242 CG0
ATOM     21  O   UNL     1       1.640  -4.709   7.370  1.00  0.00    -0.273 OA
ATOM     22  H   UNL     1       2.153  -3.844  10.375  1.00  0.00     0.164 HD
ATOM     23  G   UNL     1       3.242  -3.050   8.199  1.00  0.00     0.000 G0
ENDBRANCH  18  19
BRANCH  18  24
ATOM     24  C   UNL     1       0.333  -5.345  11.419  1.00  0.00     0.038 C 
BRANCH  24  25
ATOM     25  C   UNL     1       0.389  -6.800  11.931  1.00  0.00    -0.015 C 
ATOM     26  C   UNL     1      -0.928  -7.547  11.715  1.00  0.00     0.007 C 
ATOM     27  C   UNL     1       0.749  -6.809  13.419  1.00  0.00     0.007 C 
ENDBRANCH  24  25
ENDBRANCH  18  24
ENDBRANCH  15  18
ENDBRANCH  13  14
BRANCH  13  28
ATOM     28  C   UNL     1      -2.258  -5.696   6.120  1.00  0.00     0.327 C 
ATOM     29  O   UNL     1      -1.799  -6.820   5.983  1.00  0.00    -0.250 OA
BRANCH  28  30
ATOM     30  O   UNL     1      -2.600  -4.963   5.041  1.00  0.00    -0.480 OA
ATOM     31  H   UNL     1      -3.492  -5.290   4.800  1.00  0.00     0.296 HD
ENDBRANCH  28  30
ENDBRANCH  13  28
ENDBRANCH  11  13
ENDBRANCH   8  11
ENDBRANCH   6   7
BRANCH   6  32
ATOM     32  C   UNL     1      -6.631  -3.480   4.494  1.00  0.00     0.037 C 
BRANCH  32  33
ATOM     33  C   UNL     1      -5.611  -4.453   3.886  1.00  0.00     0.026 C 
BRANCH  33  34
ATOM     34  C   UNL     1      -6.271  -5.705   3.305  1.00  0.00     0.146 C 
BRANCH  34  35
ATOM     35  N   UNL     1      -7.103  -6.317   4.331  1.00  0.00    -0.254 NA
ATOM     36  C   UNL     1      -6.641  -7.322   4.978  1.00  0.00     0.185 C 
ATOM     37  N   UNL     1      -7.397  -7.891   5.929  1.00  0.00    -0.370 N 
ATOM     38  N   UNL     1      -5.450  -7.933   4.851  1.00  0.00    -0.370 N 
ATOM     39  H   UNL     1      -8.307  -7.479   6.093  1.00  0.00     0.159 HD
ATOM     40  H   UNL     1      -7.047  -8.560   6.592  1.00  0.00     0.159 HD
ATOM     41  H   UNL     1      -5.258  -8.802   5.322  1.00  0.00     0.159 HD
ATOM     42  H   UNL     1      -4.784  -7.621   4.161  1.00  0.00     0.159 HD
ENDBRANCH  34  35
ENDBRANCH  33  34
ENDBRANCH  32  33
ENDBRANCH   6  32
ENDBRANCH   4   6
ENDBRANCH   1   2
BRANCH   1  43
ATOM     43  C   UNL     1      -9.143  -1.331   9.303  1.00  0.00     0.102 C 
ATOM     44  C   UNL     1      -8.344  -0.330   8.452  1.00  0.00     0.020 C 
BRANCH  43  45
ATOM     45  C   UNL     1      -8.959  -1.148  10.813  1.00  0.00     0.225 C 
ATOM     46  O   UNL     1      -7.889  -0.832  11.325  1.00  0.00    -0.275 OA
ATOM     47  N   UNL     1     -10.057  -1.453  11.585  1.00  0.00    -0.342 N 
ATOM     48  H   UNL     1     -10.961  -1.562  11.147  1.00  0.00     0.164 HD
BRANCH  47  49
ATOM     49  C   UNL     1     -10.038  -1.291  13.042  1.00  0.00     0.192 C 
BRANCH  49  50
ATOM     50  C   UNL     1      -9.918  -2.663  13.710  1.00  0.00     0.047 C 
BRANCH  50  51
ATOM     51  C   UNL     1     -10.725  -3.741  12.975  1.00  0.00     0.103 C 
BRANCH  51  52
ATOM     52  C   UNL     1     -11.726  -4.436  13.895  1.00  0.00     0.226 C 
ATOM     53  O   UNL     1     -12.822  -3.915  14.108  1.00  0.00    -0.275 OA
BRANCH  52  54
ATOM     54  N   UNL     1     -11.349  -5.697  14.393  1.00  0.00    -0.311 N 
ATOM     55  C   UNL     1     -10.388  -6.540  13.669  1.00  0.00     0.153 C 
BRANCH  54  56
ATOM     56  C   UNL     1     -11.870  -6.194  15.600  1.00  0.00     0.102 C 
ATOM     57  C   UNL     1     -11.438  -5.848  16.823  1.00  0.00     0.043 C 
BRANCH  56  58
ATOM     58  C   UNL     1     -13.032  -7.159  15.603  1.00  0.00     0.268 C 
ATOM     59  O   UNL     1     -13.029  -8.213  14.982  1.00  0.00    -0.268 OA
ATOM     60  N   UNL     1     -14.061  -6.764  16.424  1.00  0.00    -0.339 N 
ATOM     61  H   UNL     1     -13.991  -5.870  16.897  1.00  0.00     0.164 HD
BRANCH  60  62
ATOM     62  C   UNL     1     -15.256  -7.581  16.624  1.00  0.00     0.168 CG0
ATOM     63  C   UNL     1     -16.361  -7.180  15.655  1.00  0.00     0.041 C 
ATOM     64  G   UNL     1     -15.736  -7.448  18.084  1.00  0.00     0.000 G0
ENDBRANCH  60  62
ENDBRANCH  56  58
ENDBRANCH  54  56
ENDBRANCH  52  54
ENDBRANCH  51  52
ENDBRANCH  50  51
ENDBRANCH  49  50
BRANCH  49  65
ATOM     65  C   UNL     1     -11.306  -0.586  13.550  1.00  0.00     0.326 C 
ATOM     66  O   UNL     1     -11.893   0.320  12.977  1.00  0.00    -0.250 OA
BRANCH  65  67
ATOM     67  O   UNL     1     -11.735  -1.003  14.761  1.00  0.00    -0.480 OA
ATOM     68  H   UNL     1     -12.105  -1.894  14.582  1.00  0.00     0.296 HD
ENDBRANCH  65  67
ENDBRANCH  49  65
ENDBRANCH  47  49
ENDBRANCH  43  45
ENDBRANCH   1  43
BRANCH   1  69
ATOM     69  C   UNL     1      -8.701  -3.853   9.973  1.00  0.00    -0.001 C 
ATOM     70  C   UNL     1      -8.018  -5.008   9.873  1.00  0.00     0.001 C 
BRANCH  70  71
ATOM     71  C   UNL     1      -7.798  -5.993  10.933  1.00  0.00    -0.055 C 
ATOM     72  C   UNL     1      -7.024  -5.630  11.978  1.00  0.00    -0.018 C 
ATOM     73  C   UNL     1      -8.456  -7.341  10.788  1.00  0.00     0.044 C 
BRANCH  72  74
ATOM     74  C   UNL     1      -6.629  -6.432  13.209  1.00  0.00     0.038 C 
ATOM     75  C   UNL     1      -6.849  -5.528  14.428  1.00  0.00     0.015 C 
BRANCH  74  76
ATOM     76  C   UNL     1      -5.168  -6.940  13.028  1.00  0.00     0.128 C 
BRANCH  76  77
ATOM     77  O   UNL     1      -5.165  -8.363  12.823  1.00  0.00    -0.381 OA
ATOM     78  C   UNL     1      -5.894  -9.083  13.808  1.00  0.00     0.195 C 
ENDBRANCH  76  77
BRANCH  76  79
ATOM     79  C   UNL     1      -4.366  -6.177  11.944  1.00  0.00     0.068 C 
BRANCH  79  80
ATOM     80  C   UNL     1      -3.622  -4.931  12.362  1.00  0.00    -0.045 A 
ATOM     81  C   UNL     1      -3.746  -3.739  11.637  1.00  0.00     0.004 A 
ATOM     82  C   UNL     1      -2.766  -4.958  13.474  1.00  0.00     0.004 A 
ATOM     83  C   UNL     1      -3.043  -2.595  12.021  1.00  0.00     0.000 A 
ATOM     84  C   UNL     1      -2.064  -3.813  13.857  1.00  0.00     0.000 A 
ATOM     85  C   UNL     1      -2.203  -2.632  13.132  1.00  0.00     0.000 A 
ENDBRANCH  79  80
ENDBRANCH  76  79
ENDBRANCH  74  76
ENDBRANCH  72  74
ENDBRANCH  70  71
ENDBRANCH   1  69
TORSDOF 17
ENDMDL
