MODEL 1
REMARK VINA RESULT:    -6.891      0.000      0.000
REMARK INTER + INTRA:         -27.104
REMARK INTER:                 -20.587
REMARK INTRA:                  -6.517
REMARK UNBOUND:                -6.517
REMARK SMILES C=C1C(=O)N[C@H](C)C(=O)N[C@@H](CC(C)C)C(=O)N[C@@H](C(=O)O)[C@H](C)C(=O)N[C@@H](CCCN=C(N)N)C(=O)N[C@@H](/C=C/C(C)=C/[C@H](C)[C@H](Cc2ccccc2)OC)[C@H](C)C(=O)N[C@@H](C(=O)O)CCC(=O)N1C
REMARK SMILES IDX 39 1 38 2 37 3 36 4 28 6 27 7 25 8 26 9 23 11 24 12 19 13
REMARK SMILES IDX 18 14 16 15 17 16 11 18 10 19 8 20 9 21 12 24 13 25 14 26
REMARK SMILES IDX 15 27 20 28 21 29 22 30 29 32 30 33 31 34 32 35 33 36 34 37
REMARK SMILES IDX 35 38 57 43 58 44 59 45 60 46 61 47 62 49 66 50 67 51 68 52
REMARK SMILES IDX 69 53 70 54 71 55 2 56 1 57 3 58 4 59 5 60 6 62 7 63 63 65
REMARK SMILES IDX 64 66 65 67 40 69 41 70 42 71 44 72 43 73 45 74 46 75 47 76
REMARK SMILES IDX 55 77 56 78 48 79 49 80 50 81 54 82 51 83 53 84 52 85
REMARK H PARENT 38 5 27 10 18 17 10 22 22 31 34 39 34 40 35 41 35 42 61 48
REMARK H PARENT 5 61 65 68
REMARK Flexibility Score:  369.900
ROOT
ATOM      1  C   UNL     1      10.963   7.833   0.366  1.00  0.00     0.117 C 
ENDROOT
BRANCH   1   2
ATOM      2  N   UNL     1      10.368   9.001   1.017  1.00  0.00    -0.347 N 
ATOM      3  O   UNL     1       8.624   9.319  -0.441  1.00  0.00    -0.273 OA
ATOM      4  C   UNL     1       9.190   9.596   0.611  1.00  0.00     0.243 C 
ATOM      5  H   UNL     1      10.803   9.380   1.845  1.00  0.00     0.164 HD
BRANCH   4   6
ATOM      6  C   UNL     1       8.735  10.763   1.524  1.00  0.00     0.171 C 
BRANCH   6   7
ATOM      7  N   UNL     1       8.475  10.278   2.889  1.00  0.00    -0.344 N 
ATOM      8  C   UNL     1       7.270  10.530   3.507  1.00  0.00     0.226 C 
ATOM      9  O   UNL     1       6.377  11.178   2.974  1.00  0.00    -0.275 OA
ATOM     10  H   UNL     1       9.213   9.797   3.387  1.00  0.00     0.164 HD
BRANCH   8  11
ATOM     11  C   UNL     1       7.135   9.917   4.890  1.00  0.00     0.109 C 
ATOM     12  C   UNL     1       7.014  11.018   5.944  1.00  0.00     0.021 C 
BRANCH  11  13
ATOM     13  C   UNL     1       5.989   8.886   4.894  1.00  0.00     0.204 C 
BRANCH  13  14
ATOM     14  N   UNL     1       4.716   9.475   4.465  1.00  0.00    -0.340 N 
ATOM     15  C   UNL     1       3.727   9.845   5.349  1.00  0.00     0.243 C 
ATOM     16  O   UNL     1       3.866   9.763   6.568  1.00  0.00    -0.273 OA
ATOM     17  H   UNL     1       4.477   9.429   3.471  1.00  0.00     0.164 HD
BRANCH  15  18
ATOM     18  C   UNL     1       2.399  10.245   4.660  1.00  0.00     0.171 C 
BRANCH  18  19
ATOM     19  N   UNL     1       1.897  11.420   5.369  1.00  0.00    -0.343 N 
ATOM     20  C   UNL     1       1.004  11.313   6.417  1.00  0.00     0.242 CG0
ATOM     21  O   UNL     1       0.488  10.238   6.715  1.00  0.00    -0.273 OA
ATOM     22  H   UNL     1       2.206  12.343   5.083  1.00  0.00     0.164 HD
ATOM     23  G   UNL     1       0.649  12.654   7.092  1.00  0.00     0.000 G0
ENDBRANCH  18  19
BRANCH  18  24
ATOM     24  C   UNL     1       2.629  10.541   3.173  1.00  0.00     0.038 C 
BRANCH  24  25
ATOM     25  C   UNL     1       1.846   9.628   2.206  1.00  0.00    -0.015 C 
ATOM     26  C   UNL     1       0.843  10.403   1.352  1.00  0.00     0.007 C 
ATOM     27  C   UNL     1       1.117   8.542   3.000  1.00  0.00     0.007 C 
ENDBRANCH  24  25
ENDBRANCH  18  24
ENDBRANCH  15  18
ENDBRANCH  13  14
BRANCH  13  28
ATOM     28  C   UNL     1       6.259   7.679   3.991  1.00  0.00     0.327 C 
ATOM     29  O   UNL     1       6.665   6.585   4.349  1.00  0.00    -0.250 OA
BRANCH  28  30
ATOM     30  O   UNL     1       6.115   7.958   2.679  1.00  0.00    -0.480 OA
ATOM     31  H   UNL     1       6.306   8.917   2.614  1.00  0.00     0.296 HD
ENDBRANCH  28  30
ENDBRANCH  13  28
ENDBRANCH  11  13
ENDBRANCH   8  11
ENDBRANCH   6   7
BRANCH   6  32
ATOM     32  C   UNL     1       9.814  11.851   1.526  1.00  0.00     0.037 C 
BRANCH  32  33
ATOM     33  C   UNL     1      10.573  11.912   2.859  1.00  0.00     0.026 C 
BRANCH  33  34
ATOM     34  C   UNL     1      12.073  11.670   2.690  1.00  0.00     0.146 C 
BRANCH  34  35
ATOM     35  N   UNL     1      12.357  10.268   2.968  1.00  0.00    -0.254 NA
ATOM     36  C   UNL     1      13.572   9.915   3.166  1.00  0.00     0.185 C 
ATOM     37  N   UNL     1      13.845   8.628   3.428  1.00  0.00    -0.370 N 
ATOM     38  N   UNL     1      14.684  10.672   3.155  1.00  0.00    -0.370 N 
ATOM     39  H   UNL     1      13.056   7.995   3.464  1.00  0.00     0.159 HD
ATOM     40  H   UNL     1      14.736   8.305   3.763  1.00  0.00     0.159 HD
ATOM     41  H   UNL     1      15.600  10.253   3.188  1.00  0.00     0.159 HD
ATOM     42  H   UNL     1      14.631  11.658   2.956  1.00  0.00     0.159 HD
ENDBRANCH  34  35
ENDBRANCH  33  34
ENDBRANCH  32  33
ENDBRANCH   6  32
ENDBRANCH   4   6
ENDBRANCH   1   2
BRANCH   1  43
ATOM     43  C   UNL     1      10.643   6.573   1.222  1.00  0.00     0.102 C 
ATOM     44  C   UNL     1       9.659   6.848   2.372  1.00  0.00     0.020 C 
BRANCH  43  45
ATOM     45  C   UNL     1      11.928   5.865   1.660  1.00  0.00     0.225 C 
ATOM     46  O   UNL     1      12.516   6.126   2.706  1.00  0.00    -0.275 OA
ATOM     47  N   UNL     1      12.448   4.968   0.755  1.00  0.00    -0.342 N 
ATOM     48  H   UNL     1      11.881   4.655  -0.021  1.00  0.00     0.164 HD
BRANCH  47  49
ATOM     49  C   UNL     1      13.654   4.190   1.053  1.00  0.00     0.192 C 
BRANCH  49  50
ATOM     50  C   UNL     1      14.888   4.939   0.544  1.00  0.00     0.047 C 
BRANCH  50  51
ATOM     51  C   UNL     1      16.102   4.014   0.378  1.00  0.00     0.103 C 
BRANCH  51  52
ATOM     52  C   UNL     1      16.435   3.764  -1.092  1.00  0.00     0.226 C 
ATOM     53  O   UNL     1      15.769   4.315  -1.971  1.00  0.00    -0.275 OA
BRANCH  52  54
ATOM     54  N   UNL     1      17.559   2.958  -1.351  1.00  0.00    -0.311 N 
ATOM     55  C   UNL     1      18.920   3.456  -1.107  1.00  0.00     0.153 C 
BRANCH  54  56
ATOM     56  C   UNL     1      17.424   1.650  -1.846  1.00  0.00     0.102 C 
ATOM     57  C   UNL     1      17.165   0.567  -1.094  1.00  0.00     0.043 C 
BRANCH  56  58
ATOM     58  C   UNL     1      17.520   1.367  -3.326  1.00  0.00     0.268 C 
ATOM     59  O   UNL     1      17.738   0.253  -3.782  1.00  0.00    -0.268 OA
ATOM     60  N   UNL     1      17.274   2.473  -4.105  1.00  0.00    -0.339 N 
ATOM     61  H   UNL     1      17.112   3.363  -3.649  1.00  0.00     0.164 HD
BRANCH  60  62
ATOM     62  C   UNL     1      17.255   2.409  -5.565  1.00  0.00     0.168 CG0
ATOM     63  C   UNL     1      17.872   3.661  -6.176  1.00  0.00     0.041 C 
ATOM     64  G   UNL     1      15.804   2.221  -6.056  1.00  0.00     0.000 G0
ENDBRANCH  60  62
ENDBRANCH  56  58
ENDBRANCH  54  56
ENDBRANCH  52  54
ENDBRANCH  51  52
ENDBRANCH  50  51
ENDBRANCH  49  50
BRANCH  49  65
ATOM     65  C   UNL     1      13.603   2.795   0.409  1.00  0.00     0.326 C 
ATOM     66  O   UNL     1      13.118   2.534  -0.682  1.00  0.00    -0.250 OA
BRANCH  65  67
ATOM     67  O   UNL     1      14.100   1.801   1.177  1.00  0.00    -0.480 OA
ATOM     68  H   UNL     1      15.038   2.060   1.312  1.00  0.00     0.296 HD
ENDBRANCH  65  67
ENDBRANCH  49  65
ENDBRANCH  47  49
ENDBRANCH  43  45
ENDBRANCH   1  43
BRANCH   1  69
ATOM     69  C   UNL     1      12.414   8.189   0.099  1.00  0.00    -0.001 C 
ATOM     70  C   UNL     1      13.102   8.010  -1.043  1.00  0.00     0.001 C 
BRANCH  70  71
ATOM     71  C   UNL     1      14.496   8.377  -1.296  1.00  0.00    -0.055 C 
ATOM     72  C   UNL     1      15.040   8.002  -2.473  1.00  0.00    -0.018 C 
ATOM     73  C   UNL     1      15.223   9.154  -0.229  1.00  0.00     0.044 C 
BRANCH  72  74
ATOM     74  C   UNL     1      16.446   8.243  -3.004  1.00  0.00     0.038 C 
ATOM     75  C   UNL     1      16.474   9.663  -3.583  1.00  0.00     0.015 C 
BRANCH  74  76
ATOM     76  C   UNL     1      16.797   7.117  -4.020  1.00  0.00     0.128 C 
BRANCH  76  77
ATOM     77  O   UNL     1      17.871   6.311  -3.507  1.00  0.00    -0.381 OA
ATOM     78  C   UNL     1      18.605   6.935  -2.462  1.00  0.00     0.195 C 
ENDBRANCH  76  77
BRANCH  76  79
ATOM     79  C   UNL     1      15.578   6.274  -4.472  1.00  0.00     0.068 C 
BRANCH  79  80
ATOM     80  C   UNL     1      14.994   6.551  -5.836  1.00  0.00    -0.045 A 
ATOM     81  C   UNL     1      14.608   7.846  -6.207  1.00  0.00     0.004 A 
ATOM     82  C   UNL     1      14.800   5.503  -6.749  1.00  0.00     0.004 A 
ATOM     83  C   UNL     1      14.055   8.092  -7.466  1.00  0.00     0.000 A 
ATOM     84  C   UNL     1      14.247   5.750  -8.007  1.00  0.00     0.000 A 
ATOM     85  C   UNL     1      13.876   7.043  -8.366  1.00  0.00     0.000 A 
ENDBRANCH  79  80
ENDBRANCH  76  79
ENDBRANCH  74  76
ENDBRANCH  72  74
ENDBRANCH  70  71
ENDBRANCH   1  69
TORSDOF 17
ENDMDL
MODEL 2
REMARK VINA RESULT:    -6.584      1.889      2.544
REMARK INTER + INTRA:         -26.188
REMARK INTER:                 -19.705
REMARK INTRA:                  -6.483
REMARK UNBOUND:                -6.517
REMARK SMILES C=C1C(=O)N[C@H](C)C(=O)N[C@@H](CC(C)C)C(=O)N[C@@H](C(=O)O)[C@H](C)C(=O)N[C@@H](CCCN=C(N)N)C(=O)N[C@@H](/C=C/C(C)=C/[C@H](C)[C@H](Cc2ccccc2)OC)[C@H](C)C(=O)N[C@@H](C(=O)O)CCC(=O)N1C
REMARK SMILES IDX 39 1 38 2 37 3 36 4 28 6 27 7 25 8 26 9 23 11 24 12 19 13
REMARK SMILES IDX 18 14 16 15 17 16 11 18 10 19 8 20 9 21 12 24 13 25 14 26
REMARK SMILES IDX 15 27 20 28 21 29 22 30 29 32 30 33 31 34 32 35 33 36 34 37
REMARK SMILES IDX 35 38 57 43 58 44 59 45 60 46 61 47 62 49 66 50 67 51 68 52
REMARK SMILES IDX 69 53 70 54 71 55 2 56 1 57 3 58 4 59 5 60 6 62 7 63 63 65
REMARK SMILES IDX 64 66 65 67 40 69 41 70 42 71 44 72 43 73 45 74 46 75 47 76
REMARK SMILES IDX 55 77 56 78 48 79 49 80 50 81 54 82 51 83 53 84 52 85
REMARK H PARENT 38 5 27 10 18 17 10 22 22 31 34 39 34 40 35 41 35 42 61 48
REMARK H PARENT 5 61 65 68
REMARK Flexibility Score:  369.900
ROOT
ATOM      1  C   UNL     1      11.356   7.494   0.206  1.00  0.00     0.117 C 
ENDROOT
BRANCH   1   2
ATOM      2  N   UNL     1      10.928   8.796   0.717  1.00  0.00    -0.347 N 
ATOM      3  O   UNL     1       8.950   8.950  -0.437  1.00  0.00    -0.273 OA
ATOM      4  C   UNL     1       9.711   9.380   0.423  1.00  0.00     0.243 C 
ATOM      5  H   UNL     1      11.522   9.293   1.365  1.00  0.00     0.164 HD
BRANCH   4   6
ATOM      6  C   UNL     1       9.468  10.721   1.162  1.00  0.00     0.171 C 
BRANCH   6   7
ATOM      7  N   UNL     1       9.003  10.474   2.536  1.00  0.00    -0.344 N 
ATOM      8  C   UNL     1       7.740  10.861   2.931  1.00  0.00     0.226 C 
ATOM      9  O   UNL     1       6.963  11.441   2.181  1.00  0.00    -0.275 OA
ATOM     10  H   UNL     1       9.640  10.058   3.204  1.00  0.00     0.164 HD
BRANCH   8  11
ATOM     11  C   UNL     1       7.389  10.488   4.360  1.00  0.00     0.109 C 
ATOM     12  C   UNL     1       7.114  11.747   5.181  1.00  0.00     0.021 C 
BRANCH  11  13
ATOM     13  C   UNL     1       6.249   9.450   4.362  1.00  0.00     0.204 C 
BRANCH  13  14
ATOM     14  N   UNL     1       4.926  10.084   4.350  1.00  0.00    -0.340 N 
ATOM     15  C   UNL     1       3.834   9.548   4.998  1.00  0.00     0.243 C 
ATOM     16  O   UNL     1       3.906   8.530   5.683  1.00  0.00    -0.273 OA
ATOM     17  H   UNL     1       4.763  10.841   3.682  1.00  0.00     0.164 HD
BRANCH  15  18
ATOM     18  C   UNL     1       2.505  10.275   4.674  1.00  0.00     0.171 C 
BRANCH  18  19
ATOM     19  N   UNL     1       2.229  11.164   5.800  1.00  0.00    -0.343 N 
ATOM     20  C   UNL     1       1.188  10.927   6.677  1.00  0.00     0.242 CG0
ATOM     21  O   UNL     1       0.366  10.036   6.474  1.00  0.00    -0.273 OA
ATOM     22  H   UNL     1       2.811  11.981   5.943  1.00  0.00     0.164 HD
ATOM     23  G   UNL     1       1.101  11.928   7.848  1.00  0.00     0.000 G0
ENDBRANCH  18  19
BRANCH  18  24
ATOM     24  C   UNL     1       2.621  11.054   3.358  1.00  0.00     0.038 C 
BRANCH  24  25
ATOM     25  C   UNL     1       1.485  10.787   2.349  1.00  0.00    -0.015 C 
ATOM     26  C   UNL     1       0.110  11.162   2.903  1.00  0.00     0.007 C 
ATOM     27  C   UNL     1       1.492   9.311   1.944  1.00  0.00     0.007 C 
ENDBRANCH  24  25
ENDBRANCH  18  24
ENDBRANCH  15  18
ENDBRANCH  13  14
BRANCH  13  28
ATOM     28  C   UNL     1       6.303   8.490   3.170  1.00  0.00     0.327 C 
ATOM     29  O   UNL     1       7.068   7.548   3.035  1.00  0.00    -0.250 OA
BRANCH  28  30
ATOM     30  O   UNL     1       5.474   8.845   2.167  1.00  0.00    -0.480 OA
ATOM     31  H   UNL     1       5.986   9.503   1.652  1.00  0.00     0.296 HD
ENDBRANCH  28  30
ENDBRANCH  13  28
ENDBRANCH  11  13
ENDBRANCH   8  11
ENDBRANCH   6   7
BRANCH   6  32
ATOM     32  C   UNL     1      10.766  11.537   1.163  1.00  0.00     0.037 C 
BRANCH  32  33
ATOM     33  C   UNL     1      11.243  11.865   2.584  1.00  0.00     0.026 C 
BRANCH  33  34
ATOM     34  C   UNL     1      12.596  11.229   2.909  1.00  0.00     0.146 C 
BRANCH  34  35
ATOM     35  N   UNL     1      12.438  10.353   4.061  1.00  0.00    -0.254 NA
ATOM     36  C   UNL     1      12.968   9.187   4.024  1.00  0.00     0.185 C 
ATOM     37  N   UNL     1      12.833   8.373   5.082  1.00  0.00    -0.370 N 
ATOM     38  N   UNL     1      13.679   8.614   3.037  1.00  0.00    -0.370 N 
ATOM     39  H   UNL     1      12.318   8.738   5.873  1.00  0.00     0.159 HD
ATOM     40  H   UNL     1      13.358   7.524   5.201  1.00  0.00     0.159 HD
ATOM     41  H   UNL     1      13.924   7.637   3.071  1.00  0.00     0.159 HD
ATOM     42  H   UNL     1      13.845   9.105   2.173  1.00  0.00     0.159 HD
ENDBRANCH  34  35
ENDBRANCH  33  34
ENDBRANCH  32  33
ENDBRANCH   6  32
ENDBRANCH   4   6
ENDBRANCH   1   2
BRANCH   1  43
ATOM     43  C   UNL     1      11.028   6.410   1.274  1.00  0.00     0.102 C 
ATOM     44  C   UNL     1      10.342   6.976   2.529  1.00  0.00     0.020 C 
BRANCH  43  45
ATOM     45  C   UNL     1      12.256   5.545   1.574  1.00  0.00     0.225 C 
ATOM     46  O   UNL     1      12.974   5.716   2.555  1.00  0.00    -0.275 OA
ATOM     47  N   UNL     1      12.567   4.606   0.617  1.00  0.00    -0.342 N 
ATOM     48  H   UNL     1      11.891   4.377  -0.098  1.00  0.00     0.164 HD
BRANCH  47  49
ATOM     49  C   UNL     1      13.693   3.683   0.786  1.00  0.00     0.192 C 
BRANCH  49  50
ATOM     50  C   UNL     1      14.972   4.328   0.246  1.00  0.00     0.047 C 
BRANCH  50  51
ATOM     51  C   UNL     1      16.218   3.478   0.532  1.00  0.00     0.103 C 
BRANCH  51  52
ATOM     52  C   UNL     1      16.666   3.589   1.988  1.00  0.00     0.226 C 
ATOM     53  O   UNL     1      16.462   4.632   2.611  1.00  0.00    -0.275 OA
BRANCH  52  54
ATOM     54  N   UNL     1      17.231   2.434   2.559  1.00  0.00    -0.311 N 
ATOM     55  C   UNL     1      18.646   2.400   2.954  1.00  0.00     0.153 C 
BRANCH  54  56
ATOM     56  C   UNL     1      16.467   1.276   2.778  1.00  0.00     0.102 C 
ATOM     57  C   UNL     1      15.369   1.215   3.549  1.00  0.00     0.043 C 
BRANCH  56  58
ATOM     58  C   UNL     1      16.817  -0.025   2.096  1.00  0.00     0.268 C 
ATOM     59  O   UNL     1      17.395  -0.944   2.662  1.00  0.00    -0.268 OA
ATOM     60  N   UNL     1      16.363  -0.096   0.801  1.00  0.00    -0.339 N 
ATOM     61  H   UNL     1      15.902   0.713   0.402  1.00  0.00     0.164 HD
BRANCH  60  62
ATOM     62  C   UNL     1      16.539  -1.291  -0.023  1.00  0.00     0.168 CG0
ATOM     63  C   UNL     1      15.315  -2.194   0.055  1.00  0.00     0.041 C 
ATOM     64  G   UNL     1      17.805  -2.048   0.429  1.00  0.00     0.000 G0
ENDBRANCH  60  62
ENDBRANCH  56  58
ENDBRANCH  54  56
ENDBRANCH  52  54
ENDBRANCH  51  52
ENDBRANCH  50  51
ENDBRANCH  49  50
BRANCH  49  65
ATOM     65  C   UNL     1      13.449   2.351   0.060  1.00  0.00     0.326 C 
ATOM     66  O   UNL     1      13.877   1.262   0.412  1.00  0.00    -0.250 OA
BRANCH  65  67
ATOM     67  O   UNL     1      12.742   2.456  -1.087  1.00  0.00    -0.480 OA
ATOM     68  H   UNL     1      13.156   3.218  -1.545  1.00  0.00     0.296 HD
ENDBRANCH  65  67
ENDBRANCH  49  65
ENDBRANCH  47  49
ENDBRANCH  43  45
ENDBRANCH   1  43
BRANCH   1  69
ATOM     69  C   UNL     1      12.795   7.667  -0.244  1.00  0.00    -0.001 C 
ATOM     70  C   UNL     1      13.429   8.819  -0.530  1.00  0.00     0.001 C 
BRANCH  70  71
ATOM     71  C   UNL     1      14.825   8.976  -0.943  1.00  0.00    -0.055 C 
ATOM     72  C   UNL     1      15.212   8.374  -2.088  1.00  0.00    -0.018 C 
ATOM     73  C   UNL     1      15.728   9.803  -0.067  1.00  0.00     0.044 C 
BRANCH  72  74
ATOM     74  C   UNL     1      16.579   8.366  -2.757  1.00  0.00     0.038 C 
ATOM     75  C   UNL     1      16.697   9.666  -3.562  1.00  0.00     0.015 C 
BRANCH  74  76
ATOM     76  C   UNL     1      16.717   7.063  -3.599  1.00  0.00     0.128 C 
BRANCH  76  77
ATOM     77  O   UNL     1      17.492   6.092  -2.876  1.00  0.00    -0.381 OA
ATOM     78  C   UNL     1      16.992   4.766  -2.986  1.00  0.00     0.195 C 
ENDBRANCH  76  77
BRANCH  76  79
ATOM     79  C   UNL     1      15.367   6.496  -4.106  1.00  0.00     0.068 C 
BRANCH  79  80
ATOM     80  C   UNL     1      14.992   6.746  -5.547  1.00  0.00    -0.045 A 
ATOM     81  C   UNL     1      14.612   8.022  -5.983  1.00  0.00     0.004 A 
ATOM     82  C   UNL     1      14.991   5.690  -6.471  1.00  0.00     0.004 A 
ATOM     83  C   UNL     1      14.253   8.243  -7.314  1.00  0.00     0.000 A 
ATOM     84  C   UNL     1      14.631   5.912  -7.802  1.00  0.00     0.000 A 
ATOM     85  C   UNL     1      14.264   7.187  -8.224  1.00  0.00     0.000 A 
ENDBRANCH  79  80
ENDBRANCH  76  79
ENDBRANCH  74  76
ENDBRANCH  72  74
ENDBRANCH  70  71
ENDBRANCH   1  69
TORSDOF 17
ENDMDL
MODEL 3
REMARK VINA RESULT:    -6.543      2.066      2.919
REMARK INTER + INTRA:         -26.066
REMARK INTER:                 -19.959
REMARK INTRA:                  -6.107
REMARK UNBOUND:                -6.517
REMARK SMILES C=C1C(=O)N[C@H](C)C(=O)N[C@@H](CC(C)C)C(=O)N[C@@H](C(=O)O)[C@H](C)C(=O)N[C@@H](CCCN=C(N)N)C(=O)N[C@@H](/C=C/C(C)=C/[C@H](C)[C@H](Cc2ccccc2)OC)[C@H](C)C(=O)N[C@@H](C(=O)O)CCC(=O)N1C
REMARK SMILES IDX 39 1 38 2 37 3 36 4 28 6 27 7 25 8 26 9 23 11 24 12 19 13
REMARK SMILES IDX 18 14 16 15 17 16 11 18 10 19 8 20 9 21 12 24 13 25 14 26
REMARK SMILES IDX 15 27 20 28 21 29 22 30 29 32 30 33 31 34 32 35 33 36 34 37
REMARK SMILES IDX 35 38 57 43 58 44 59 45 60 46 61 47 62 49 66 50 67 51 68 52
REMARK SMILES IDX 69 53 70 54 71 55 2 56 1 57 3 58 4 59 5 60 6 62 7 63 63 65
REMARK SMILES IDX 64 66 65 67 40 69 41 70 42 71 44 72 43 73 45 74 46 75 47 76
REMARK SMILES IDX 55 77 56 78 48 79 49 80 50 81 54 82 51 83 53 84 52 85
REMARK H PARENT 38 5 27 10 18 17 10 22 22 31 34 39 34 40 35 41 35 42 61 48
REMARK H PARENT 5 61 65 68
REMARK Flexibility Score:  369.900
ROOT
ATOM      1  C   UNL     1      10.786   7.397   0.231  1.00  0.00     0.117 C 
ENDROOT
BRANCH   1   2
ATOM      2  N   UNL     1      10.392   8.681   0.813  1.00  0.00    -0.347 N 
ATOM      3  O   UNL     1       8.623   9.127  -0.579  1.00  0.00    -0.273 OA
ATOM      4  C   UNL     1       9.282   9.401   0.418  1.00  0.00     0.243 C 
ATOM      5  H   UNL     1      10.922   9.057   1.585  1.00  0.00     0.164 HD
BRANCH   4   6
ATOM      6  C   UNL     1       9.041  10.684   1.254  1.00  0.00     0.171 C 
BRANCH   6   7
ATOM      7  N   UNL     1       8.647  10.335   2.629  1.00  0.00    -0.344 N 
ATOM      8  C   UNL     1       7.469  10.811   3.164  1.00  0.00     0.226 C 
ATOM      9  O   UNL     1       6.715  11.551   2.545  1.00  0.00    -0.275 OA
ATOM     10  H   UNL     1       9.277   9.780   3.194  1.00  0.00     0.164 HD
BRANCH   8  11
ATOM     11  C   UNL     1       7.178  10.318   4.571  1.00  0.00     0.109 C 
ATOM     12  C   UNL     1       6.925  11.504   5.501  1.00  0.00     0.021 C 
BRANCH  11  13
ATOM     13  C   UNL     1       6.047   9.271   4.533  1.00  0.00     0.204 C 
BRANCH  13  14
ATOM     14  N   UNL     1       4.719   9.892   4.550  1.00  0.00    -0.340 N 
ATOM     15  C   UNL     1       3.612   9.277   5.093  1.00  0.00     0.243 C 
ATOM     16  O   UNL     1       3.674   8.186   5.658  1.00  0.00    -0.273 OA
ATOM     17  H   UNL     1       4.569  10.721   3.969  1.00  0.00     0.164 HD
BRANCH  15  18
ATOM     18  C   UNL     1       2.287  10.026   4.812  1.00  0.00     0.171 C 
BRANCH  18  19
ATOM     19  N   UNL     1       2.227  11.140   5.756  1.00  0.00    -0.343 N 
ATOM     20  C   UNL     1       1.305  11.175   6.784  1.00  0.00     0.242 CG0
ATOM     21  O   UNL     1       0.408  10.340   6.873  1.00  0.00    -0.273 OA
ATOM     22  H   UNL     1       2.875  11.914   5.654  1.00  0.00     0.164 HD
ATOM     23  G   UNL     1       1.446  12.390   7.725  1.00  0.00     0.000 G0
ENDBRANCH  18  19
BRANCH  18  24
ATOM     24  C   UNL     1       2.241  10.518   3.360  1.00  0.00     0.038 C 
BRANCH  24  25
ATOM     25  C   UNL     1       0.870  10.357   2.668  1.00  0.00    -0.015 C 
ATOM     26  C   UNL     1       0.975  10.400   1.144  1.00  0.00     0.007 C 
ATOM     27  C   UNL     1      -0.081  11.456   3.150  1.00  0.00     0.007 C 
ENDBRANCH  24  25
ENDBRANCH  18  24
ENDBRANCH  15  18
ENDBRANCH  13  14
BRANCH  13  28
ATOM     28  C   UNL     1       6.107   8.362   3.301  1.00  0.00     0.327 C 
ATOM     29  O   UNL     1       6.656   7.273   3.233  1.00  0.00    -0.250 OA
BRANCH  28  30
ATOM     30  O   UNL     1       5.577   8.929   2.199  1.00  0.00    -0.480 OA
ATOM     31  H   UNL     1       4.619   8.735   2.264  1.00  0.00     0.296 HD
ENDBRANCH  28  30
ENDBRANCH  13  28
ENDBRANCH  11  13
ENDBRANCH   8  11
ENDBRANCH   6   7
BRANCH   6  32
ATOM     32  C   UNL     1      10.316  11.534   1.249  1.00  0.00     0.037 C 
BRANCH  32  33
ATOM     33  C   UNL     1      11.061  11.468   2.590  1.00  0.00     0.026 C 
BRANCH  33  34
ATOM     34  C   UNL     1      12.569  11.284   2.412  1.00  0.00     0.146 C 
BRANCH  34  35
ATOM     35  N   UNL     1      13.148  10.893   3.690  1.00  0.00    -0.254 NA
ATOM     36  C   UNL     1      13.497   9.673   3.859  1.00  0.00     0.185 C 
ATOM     37  N   UNL     1      14.036   9.303   5.031  1.00  0.00    -0.370 N 
ATOM     38  N   UNL     1      13.406   8.641   3.001  1.00  0.00    -0.370 N 
ATOM     39  H   UNL     1      14.148  10.028   5.728  1.00  0.00     0.159 HD
ATOM     40  H   UNL     1      14.491   8.418   5.180  1.00  0.00     0.159 HD
ATOM     41  H   UNL     1      13.586   7.697   3.300  1.00  0.00     0.159 HD
ATOM     42  H   UNL     1      13.004   8.771   2.085  1.00  0.00     0.159 HD
ENDBRANCH  34  35
ENDBRANCH  33  34
ENDBRANCH  32  33
ENDBRANCH   6  32
ENDBRANCH   4   6
ENDBRANCH   1   2
BRANCH   1  43
ATOM     43  C   UNL     1      10.534   6.278   1.283  1.00  0.00     0.102 C 
ATOM     44  C   UNL     1       9.689   6.744   2.481  1.00  0.00     0.020 C 
BRANCH  43  45
ATOM     45  C   UNL     1      11.843   5.588   1.676  1.00  0.00     0.225 C 
ATOM     46  O   UNL     1      12.494   5.900   2.669  1.00  0.00    -0.275 OA
ATOM     47  N   UNL     1      12.306   4.644   0.788  1.00  0.00    -0.342 N 
ATOM     48  H   UNL     1      11.692   4.294   0.065  1.00  0.00     0.164 HD
BRANCH  47  49
ATOM     49  C   UNL     1      13.527   3.878   1.051  1.00  0.00     0.192 C 
BRANCH  49  50
ATOM     50  C   UNL     1      14.753   4.731   0.712  1.00  0.00     0.047 C 
BRANCH  50  51
ATOM     51  C   UNL     1      15.887   4.552   1.730  1.00  0.00     0.103 C 
BRANCH  51  52
ATOM     52  C   UNL     1      17.256   4.848   1.122  1.00  0.00     0.226 C 
ATOM     53  O   UNL     1      17.601   4.274   0.087  1.00  0.00    -0.275 OA
BRANCH  52  54
ATOM     54  N   UNL     1      18.024   5.840   1.760  1.00  0.00    -0.311 N 
ATOM     55  C   UNL     1      19.145   5.480   2.638  1.00  0.00     0.153 C 
BRANCH  54  56
ATOM     56  C   UNL     1      17.753   7.206   1.578  1.00  0.00     0.102 C 
ATOM     57  C   UNL     1      16.958   7.944   2.370  1.00  0.00     0.043 C 
BRANCH  56  58
ATOM     58  C   UNL     1      18.401   7.982   0.455  1.00  0.00     0.268 C 
ATOM     59  O   UNL     1      18.786   9.137   0.575  1.00  0.00    -0.268 OA
ATOM     60  N   UNL     1      18.571   7.238  -0.688  1.00  0.00    -0.339 N 
ATOM     61  H   UNL     1      18.214   6.290  -0.710  1.00  0.00     0.164 HD
BRANCH  60  62
ATOM     62  C   UNL     1      19.235   7.775  -1.875  1.00  0.00     0.168 CG0
ATOM     63  C   UNL     1      19.910   6.666  -2.673  1.00  0.00     0.041 C 
ATOM     64  G   UNL     1      20.260   8.847  -1.454  1.00  0.00     0.000 G0
ENDBRANCH  60  62
ENDBRANCH  56  58
ENDBRANCH  54  56
ENDBRANCH  52  54
ENDBRANCH  51  52
ENDBRANCH  50  51
ENDBRANCH  49  50
BRANCH  49  65
ATOM     65  C   UNL     1      13.569   2.579   0.232  1.00  0.00     0.326 C 
ATOM     66  O   UNL     1      14.338   1.646   0.417  1.00  0.00    -0.250 OA
BRANCH  65  67
ATOM     67  O   UNL     1      12.700   2.536  -0.802  1.00  0.00    -0.480 OA
ATOM     68  H   UNL     1      13.235   2.842  -1.567  1.00  0.00     0.296 HD
ENDBRANCH  65  67
ENDBRANCH  49  65
ENDBRANCH  47  49
ENDBRANCH  43  45
ENDBRANCH   1  43
BRANCH   1  69
ATOM     69  C   UNL     1      12.190   7.590  -0.312  1.00  0.00    -0.001 C 
ATOM     70  C   UNL     1      12.846   8.751  -0.485  1.00  0.00     0.001 C 
BRANCH  70  71
ATOM     71  C   UNL     1      14.210   8.924  -0.990  1.00  0.00    -0.055 C 
ATOM     72  C   UNL     1      14.522   8.339  -2.166  1.00  0.00    -0.018 C 
ATOM     73  C   UNL     1      15.164   9.749  -0.167  1.00  0.00     0.044 C 
BRANCH  72  74
ATOM     74  C   UNL     1      15.841   8.349  -2.926  1.00  0.00     0.038 C 
ATOM     75  C   UNL     1      15.901   9.665  -3.710  1.00  0.00     0.015 C 
BRANCH  74  76
ATOM     76  C   UNL     1      15.925   7.063  -3.800  1.00  0.00     0.128 C 
BRANCH  76  77
ATOM     77  O   UNL     1      15.736   5.898  -2.979  1.00  0.00    -0.381 OA
ATOM     78  C   UNL     1      16.692   4.873  -3.214  1.00  0.00     0.195 C 
ENDBRANCH  76  77
BRANCH  76  79
ATOM     79  C   UNL     1      14.993   7.082  -5.038  1.00  0.00     0.068 C 
BRANCH  79  80
ATOM     80  C   UNL     1      15.598   7.447  -6.372  1.00  0.00    -0.045 A 
ATOM     81  C   UNL     1      16.985   7.424  -6.567  1.00  0.00     0.004 A 
ATOM     82  C   UNL     1      14.774   7.844  -7.437  1.00  0.00     0.004 A 
ATOM     83  C   UNL     1      17.537   7.777  -7.800  1.00  0.00     0.000 A 
ATOM     84  C   UNL     1      15.327   8.197  -8.669  1.00  0.00     0.000 A 
ATOM     85  C   UNL     1      16.708   8.162  -8.851  1.00  0.00     0.000 A 
ENDBRANCH  79  80
ENDBRANCH  76  79
ENDBRANCH  74  76
ENDBRANCH  72  74
ENDBRANCH  70  71
ENDBRANCH   1  69
TORSDOF 17
ENDMDL
MODEL 4
REMARK VINA RESULT:    -6.163      4.819      8.993
REMARK INTER + INTRA:         -24.931
REMARK INTER:                 -17.505
REMARK INTRA:                  -7.426
REMARK UNBOUND:                -6.517
REMARK SMILES C=C1C(=O)N[C@H](C)C(=O)N[C@@H](CC(C)C)C(=O)N[C@@H](C(=O)O)[C@H](C)C(=O)N[C@@H](CCCN=C(N)N)C(=O)N[C@@H](/C=C/C(C)=C/[C@H](C)[C@H](Cc2ccccc2)OC)[C@H](C)C(=O)N[C@@H](C(=O)O)CCC(=O)N1C
REMARK SMILES IDX 39 1 38 2 37 3 36 4 28 6 27 7 25 8 26 9 23 11 24 12 19 13
REMARK SMILES IDX 18 14 16 15 17 16 11 18 10 19 8 20 9 21 12 24 13 25 14 26
REMARK SMILES IDX 15 27 20 28 21 29 22 30 29 32 30 33 31 34 32 35 33 36 34 37
REMARK SMILES IDX 35 38 57 43 58 44 59 45 60 46 61 47 62 49 66 50 67 51 68 52
REMARK SMILES IDX 69 53 70 54 71 55 2 56 1 57 3 58 4 59 5 60 6 62 7 63 63 65
REMARK SMILES IDX 64 66 65 67 40 69 41 70 42 71 44 72 43 73 45 74 46 75 47 76
REMARK SMILES IDX 55 77 56 78 48 79 49 80 50 81 54 82 51 83 53 84 52 85
REMARK H PARENT 38 5 27 10 18 17 10 22 22 31 34 39 34 40 35 41 35 42 61 48
REMARK H PARENT 5 61 65 68
REMARK Flexibility Score:  369.900
ROOT
ATOM      1  C   UNL     1      14.596   3.072   1.004  1.00  0.00     0.117 C 
ENDROOT
BRANCH   1   2
ATOM      2  N   UNL     1      13.864   4.311   1.270  1.00  0.00    -0.347 N 
ATOM      3  O   UNL     1      11.988   3.838   0.034  1.00  0.00    -0.273 OA
ATOM      4  C   UNL     1      12.576   4.557   0.836  1.00  0.00     0.243 C 
ATOM      5  H   UNL     1      14.290   5.023   1.844  1.00  0.00     0.164 HD
BRANCH   4   6
ATOM      6  C   UNL     1      12.001   5.910   1.326  1.00  0.00     0.171 C 
BRANCH   6   7
ATOM      7  N   UNL     1      12.288   6.974   0.351  1.00  0.00    -0.344 N 
ATOM      8  C   UNL     1      12.759   8.200   0.768  1.00  0.00     0.226 C 
ATOM      9  O   UNL     1      12.938   8.472   1.950  1.00  0.00    -0.275 OA
ATOM     10  H   UNL     1      12.089   6.810  -0.628  1.00  0.00     0.164 HD
BRANCH   8  11
ATOM     11  C   UNL     1      13.059   9.172  -0.360  1.00  0.00     0.109 C 
ATOM     12  C   UNL     1      12.633  10.586   0.036  1.00  0.00     0.021 C 
BRANCH  11  13
ATOM     13  C   UNL     1      14.534   9.035  -0.787  1.00  0.00     0.204 C 
BRANCH  13  14
ATOM     14  N   UNL     1      15.411   8.728   0.347  1.00  0.00    -0.340 N 
ATOM     15  C   UNL     1      16.544   9.458   0.636  1.00  0.00     0.243 C 
ATOM     16  O   UNL     1      16.866  10.458  -0.002  1.00  0.00    -0.273 OA
ATOM     17  H   UNL     1      15.287   7.829   0.821  1.00  0.00     0.164 HD
BRANCH  15  18
ATOM     18  C   UNL     1      17.420   8.826   1.746  1.00  0.00     0.171 C 
BRANCH  18  19
ATOM     19  N   UNL     1      16.660   8.930   2.990  1.00  0.00    -0.343 N 
ATOM     20  C   UNL     1      16.850   9.973   3.875  1.00  0.00     0.242 CG0
ATOM     21  O   UNL     1      17.758  10.787   3.725  1.00  0.00    -0.273 OA
ATOM     22  H   UNL     1      15.976   8.216   3.216  1.00  0.00     0.164 HD
ATOM     23  G   UNL     1      15.902   9.956   5.092  1.00  0.00     0.000 G0
ENDBRANCH  18  19
BRANCH  18  24
ATOM     24  C   UNL     1      17.751   7.367   1.410  1.00  0.00     0.038 C 
BRANCH  24  25
ATOM     25  C   UNL     1      18.531   7.170   0.093  1.00  0.00    -0.015 C 
ATOM     26  C   UNL     1      18.713   5.694  -0.265  1.00  0.00     0.007 C 
ATOM     27  C   UNL     1      19.900   7.846   0.199  1.00  0.00     0.007 C 
ENDBRANCH  24  25
ENDBRANCH  18  24
ENDBRANCH  15  18
ENDBRANCH  13  14
BRANCH  13  28
ATOM     28  C   UNL     1      14.759   7.947  -1.842  1.00  0.00     0.327 C 
ATOM     29  O   UNL     1      14.647   8.079  -3.051  1.00  0.00    -0.250 OA
BRANCH  28  30
ATOM     30  O   UNL     1      14.994   6.732  -1.307  1.00  0.00    -0.480 OA
ATOM     31  H   UNL     1      14.432   6.125  -1.832  1.00  0.00     0.296 HD
ENDBRANCH  28  30
ENDBRANCH  13  28
ENDBRANCH  11  13
ENDBRANCH   8  11
ENDBRANCH   6   7
BRANCH   6  32
ATOM     32  C   UNL     1      10.491   5.764   1.548  1.00  0.00     0.037 C 
BRANCH  32  33
ATOM     33  C   UNL     1      10.057   6.271   2.931  1.00  0.00     0.026 C 
BRANCH  33  34
ATOM     34  C   UNL     1       9.676   7.752   2.918  1.00  0.00     0.146 C 
BRANCH  34  35
ATOM     35  N   UNL     1       9.463   8.170   1.539  1.00  0.00    -0.254 NA
ATOM     36  C   UNL     1       9.236   9.408   1.301  1.00  0.00     0.185 C 
ATOM     37  N   UNL     1       9.044   9.806   0.034  1.00  0.00    -0.370 N 
ATOM     38  N   UNL     1       9.155  10.434   2.167  1.00  0.00    -0.370 N 
ATOM     39  H   UNL     1       9.100   9.091  -0.680  1.00  0.00     0.159 HD
ATOM     40  H   UNL     1       9.034  10.770  -0.251  1.00  0.00     0.159 HD
ATOM     41  H   UNL     1       8.832  11.341   1.871  1.00  0.00     0.159 HD
ATOM     42  H   UNL     1       9.263  10.279   3.157  1.00  0.00     0.159 HD
ENDBRANCH  34  35
ENDBRANCH  33  34
ENDBRANCH  32  33
ENDBRANCH   6  32
ENDBRANCH   4   6
ENDBRANCH   1   2
BRANCH   1  43
ATOM     43  C   UNL     1      15.038   2.457   2.363  1.00  0.00     0.102 C 
ATOM     44  C   UNL     1      16.154   3.253   3.061  1.00  0.00     0.020 C 
BRANCH  43  45
ATOM     45  C   UNL     1      15.338   0.962   2.219  1.00  0.00     0.225 C 
ATOM     46  O   UNL     1      16.464   0.521   2.006  1.00  0.00    -0.275 OA
ATOM     47  N   UNL     1      14.241   0.132   2.250  1.00  0.00    -0.342 N 
ATOM     48  H   UNL     1      13.353   0.488   2.574  1.00  0.00     0.164 HD
BRANCH  47  49
ATOM     49  C   UNL     1      14.380  -1.325   2.160  1.00  0.00     0.192 C 
BRANCH  49  50
ATOM     50  C   UNL     1      13.909  -1.802   0.783  1.00  0.00     0.047 C 
BRANCH  50  51
ATOM     51  C   UNL     1      15.022  -2.516   0.003  1.00  0.00     0.103 C 
BRANCH  51  52
ATOM     52  C   UNL     1      14.794  -4.024  -0.070  1.00  0.00     0.226 C 
ATOM     53  O   UNL     1      14.497  -4.646   0.952  1.00  0.00    -0.275 OA
BRANCH  52  54
ATOM     54  N   UNL     1      14.868  -4.608  -1.348  1.00  0.00    -0.311 N 
ATOM     55  C   UNL     1      16.126  -4.612  -2.106  1.00  0.00     0.153 C 
BRANCH  54  56
ATOM     56  C   UNL     1      13.748  -5.212  -1.943  1.00  0.00     0.102 C 
ATOM     57  C   UNL     1      12.591  -4.587  -2.213  1.00  0.00     0.043 C 
BRANCH  56  58
ATOM     58  C   UNL     1      13.787  -6.658  -2.379  1.00  0.00     0.268 C 
ATOM     59  O   UNL     1      14.263  -7.552  -1.692  1.00  0.00    -0.268 OA
ATOM     60  N   UNL     1      13.177  -6.873  -3.592  1.00  0.00    -0.339 N 
ATOM     61  H   UNL     1      12.817  -6.077  -4.104  1.00  0.00     0.164 HD
BRANCH  60  62
ATOM     62  C   UNL     1      13.047  -8.209  -4.172  1.00  0.00     0.168 CG0
ATOM     63  C   UNL     1      14.091  -8.437  -5.259  1.00  0.00     0.041 C 
ATOM     64  G   UNL     1      11.623  -8.391  -4.737  1.00  0.00     0.000 G0
ENDBRANCH  60  62
ENDBRANCH  56  58
ENDBRANCH  54  56
ENDBRANCH  52  54
ENDBRANCH  51  52
ENDBRANCH  50  51
ENDBRANCH  49  50
BRANCH  49  65
ATOM     65  C   UNL     1      13.568  -2.040   3.251  1.00  0.00     0.326 C 
ATOM     66  O   UNL     1      12.742  -1.514   3.982  1.00  0.00    -0.250 OA
BRANCH  65  67
ATOM     67  O   UNL     1      13.870  -3.347   3.413  1.00  0.00    -0.480 OA
ATOM     68  H   UNL     1      14.770  -3.331   3.804  1.00  0.00     0.296 HD
ENDBRANCH  65  67
ENDBRANCH  49  65
ENDBRANCH  47  49
ENDBRANCH  43  45
ENDBRANCH   1  43
BRANCH   1  69
ATOM     69  C   UNL     1      15.657   3.418  -0.024  1.00  0.00    -0.001 C 
ATOM     70  C   UNL     1      15.960   2.739  -1.145  1.00  0.00     0.001 C 
BRANCH  70  71
ATOM     71  C   UNL     1      16.973   3.094  -2.141  1.00  0.00    -0.055 C 
ATOM     72  C   UNL     1      16.705   4.128  -2.967  1.00  0.00    -0.018 C 
ATOM     73  C   UNL     1      18.245   2.287  -2.169  1.00  0.00     0.044 C 
BRANCH  72  74
ATOM     74  C   UNL     1      17.558   4.716  -4.082  1.00  0.00     0.038 C 
ATOM     75  C   UNL     1      17.633   6.229  -3.843  1.00  0.00     0.015 C 
BRANCH  74  76
ATOM     76  C   UNL     1      16.947   4.301  -5.453  1.00  0.00     0.128 C 
BRANCH  76  77
ATOM     77  O   UNL     1      17.271   2.930  -5.739  1.00  0.00    -0.381 OA
ATOM     78  C   UNL     1      18.639   2.721  -6.061  1.00  0.00     0.195 C 
ENDBRANCH  76  77
BRANCH  76  79
ATOM     79  C   UNL     1      15.432   4.599  -5.583  1.00  0.00     0.068 C 
BRANCH  79  80
ATOM     80  C   UNL     1      15.013   5.774  -6.433  1.00  0.00    -0.045 A 
ATOM     81  C   UNL     1      14.990   7.073  -5.907  1.00  0.00     0.004 A 
ATOM     82  C   UNL     1      14.612   5.578  -7.763  1.00  0.00     0.004 A 
ATOM     83  C   UNL     1      14.588   8.153  -6.696  1.00  0.00     0.000 A 
ATOM     84  C   UNL     1      14.209   6.659  -8.550  1.00  0.00     0.000 A 
ATOM     85  C   UNL     1      14.199   7.946  -8.018  1.00  0.00     0.000 A 
ENDBRANCH  79  80
ENDBRANCH  76  79
ENDBRANCH  74  76
ENDBRANCH  72  74
ENDBRANCH  70  71
ENDBRANCH   1  69
TORSDOF 17
ENDMDL
MODEL 5
REMARK VINA RESULT:    -5.913      4.854      8.099
REMARK INTER + INTRA:         -24.184
REMARK INTER:                 -18.045
REMARK INTRA:                  -6.139
REMARK UNBOUND:                -6.517
REMARK SMILES C=C1C(=O)N[C@H](C)C(=O)N[C@@H](CC(C)C)C(=O)N[C@@H](C(=O)O)[C@H](C)C(=O)N[C@@H](CCCN=C(N)N)C(=O)N[C@@H](/C=C/C(C)=C/[C@H](C)[C@H](Cc2ccccc2)OC)[C@H](C)C(=O)N[C@@H](C(=O)O)CCC(=O)N1C
REMARK SMILES IDX 39 1 38 2 37 3 36 4 28 6 27 7 25 8 26 9 23 11 24 12 19 13
REMARK SMILES IDX 18 14 16 15 17 16 11 18 10 19 8 20 9 21 12 24 13 25 14 26
REMARK SMILES IDX 15 27 20 28 21 29 22 30 29 32 30 33 31 34 32 35 33 36 34 37
REMARK SMILES IDX 35 38 57 43 58 44 59 45 60 46 61 47 62 49 66 50 67 51 68 52
REMARK SMILES IDX 69 53 70 54 71 55 2 56 1 57 3 58 4 59 5 60 6 62 7 63 63 65
REMARK SMILES IDX 64 66 65 67 40 69 41 70 42 71 44 72 43 73 45 74 46 75 47 76
REMARK SMILES IDX 55 77 56 78 48 79 49 80 50 81 54 82 51 83 53 84 52 85
REMARK H PARENT 38 5 27 10 18 17 10 22 22 31 34 39 34 40 35 41 35 42 61 48
REMARK H PARENT 5 61 65 68
REMARK Flexibility Score:  369.900
ROOT
ATOM      1  C   UNL     1      14.475   2.290   0.572  1.00  0.00     0.117 C 
ENDROOT
BRANCH   1   2
ATOM      2  N   UNL     1      13.945   3.628   0.839  1.00  0.00    -0.347 N 
ATOM      3  O   UNL     1      11.984   3.428  -0.337  1.00  0.00    -0.273 OA
ATOM      4  C   UNL     1      12.696   4.059   0.438  1.00  0.00     0.243 C 
ATOM      5  H   UNL     1      14.489   4.274   1.391  1.00  0.00     0.164 HD
BRANCH   4   6
ATOM      6  C   UNL     1      12.344   5.488   0.923  1.00  0.00     0.171 C 
BRANCH   6   7
ATOM      7  N   UNL     1      13.072   6.494   0.132  1.00  0.00    -0.344 N 
ATOM      8  C   UNL     1      13.923   7.388   0.744  1.00  0.00     0.226 C 
ATOM      9  O   UNL     1      14.097   7.409   1.957  1.00  0.00    -0.275 OA
ATOM     10  H   UNL     1      12.902   6.551  -0.864  1.00  0.00     0.164 HD
BRANCH   8  11
ATOM     11  C   UNL     1      14.640   8.325  -0.212  1.00  0.00     0.109 C 
ATOM     12  C   UNL     1      14.386   7.896  -1.657  1.00  0.00     0.021 C 
BRANCH  11  13
ATOM     13  C   UNL     1      14.263   9.785   0.107  1.00  0.00     0.204 C 
BRANCH  13  14
ATOM     14  N   UNL     1      13.025   9.878   0.886  1.00  0.00    -0.340 N 
ATOM     15  C   UNL     1      12.092  10.874   0.694  1.00  0.00     0.243 C 
ATOM     16  O   UNL     1      12.205  11.723  -0.188  1.00  0.00    -0.273 OA
ATOM     17  H   UNL     1      12.943   9.301   1.728  1.00  0.00     0.164 HD
BRANCH  15  18
ATOM     18  C   UNL     1      10.975  10.891   1.766  1.00  0.00     0.171 C 
BRANCH  18  19
ATOM     19  N   UNL     1      11.430  11.782   2.831  1.00  0.00    -0.343 N 
ATOM     20  C   UNL     1      12.309  11.359   3.810  1.00  0.00     0.242 CG0
ATOM     21  O   UNL     1      12.645  10.181   3.907  1.00  0.00    -0.273 OA
ATOM     22  H   UNL     1      11.089  12.736   2.861  1.00  0.00     0.164 HD
ATOM     23  G   UNL     1      12.736  12.461   4.802  1.00  0.00     0.000 G0
ENDBRANCH  18  19
BRANCH  18  24
ATOM     24  C   UNL     1       9.650  11.370   1.160  1.00  0.00     0.038 C 
BRANCH  24  25
ATOM     25  C   UNL     1       8.530  10.309   1.140  1.00  0.00    -0.015 C 
ATOM     26  C   UNL     1       8.384   9.586   2.479  1.00  0.00     0.007 C 
ATOM     27  C   UNL     1       8.806   9.290   0.032  1.00  0.00     0.007 C 
ENDBRANCH  24  25
ENDBRANCH  18  24
ENDBRANCH  15  18
ENDBRANCH  13  14
BRANCH  13  28
ATOM     28  C   UNL     1      15.349  10.532   0.889  1.00  0.00     0.327 C 
ATOM     29  O   UNL     1      16.277  11.166   0.411  1.00  0.00    -0.250 OA
BRANCH  28  30
ATOM     30  O   UNL     1      15.270  10.336   2.221  1.00  0.00    -0.480 OA
ATOM     31  H   UNL     1      15.673   9.454   2.359  1.00  0.00     0.296 HD
ENDBRANCH  28  30
ENDBRANCH  13  28
ENDBRANCH  11  13
ENDBRANCH   8  11
ENDBRANCH   6   7
BRANCH   6  32
ATOM     32  C   UNL     1      10.830   5.698   0.815  1.00  0.00     0.037 C 
BRANCH  32  33
ATOM     33  C   UNL     1      10.076   5.108   2.015  1.00  0.00     0.026 C 
BRANCH  33  34
ATOM     34  C   UNL     1       9.501   6.188   2.933  1.00  0.00     0.146 C 
BRANCH  34  35
ATOM     35  N   UNL     1       9.009   5.556   4.149  1.00  0.00    -0.254 NA
ATOM     36  C   UNL     1       7.751   5.351   4.270  1.00  0.00     0.185 C 
ATOM     37  N   UNL     1       7.288   4.766   5.385  1.00  0.00    -0.370 N 
ATOM     38  N   UNL     1       6.761   5.644   3.408  1.00  0.00    -0.370 N 
ATOM     39  H   UNL     1       7.975   4.504   6.080  1.00  0.00     0.159 HD
ATOM     40  H   UNL     1       6.350   4.416   5.481  1.00  0.00     0.159 HD
ATOM     41  H   UNL     1       5.794   5.560   3.677  1.00  0.00     0.159 HD
ATOM     42  H   UNL     1       6.962   6.102   2.533  1.00  0.00     0.159 HD
ENDBRANCH  34  35
ENDBRANCH  33  34
ENDBRANCH  32  33
ENDBRANCH   6  32
ENDBRANCH   4   6
ENDBRANCH   1   2
BRANCH   1  43
ATOM     43  C   UNL     1      14.674   1.556   1.930  1.00  0.00     0.102 C 
ATOM     44  C   UNL     1      15.366   2.421   2.997  1.00  0.00     0.020 C 
BRANCH  43  45
ATOM     45  C   UNL     1      15.324   0.185   1.724  1.00  0.00     0.225 C 
ATOM     46  O   UNL     1      16.526  -0.017   1.876  1.00  0.00    -0.275 OA
ATOM     47  N   UNL     1      14.487  -0.804   1.261  1.00  0.00    -0.342 N 
ATOM     48  H   UNL     1      13.487  -0.666   1.288  1.00  0.00     0.164 HD
BRANCH  47  49
ATOM     49  C   UNL     1      14.963  -2.175   1.052  1.00  0.00     0.192 C 
BRANCH  49  50
ATOM     50  C   UNL     1      14.100  -2.863  -0.008  1.00  0.00     0.047 C 
BRANCH  50  51
ATOM     51  C   UNL     1      14.931  -3.737  -0.957  1.00  0.00     0.103 C 
BRANCH  51  52
ATOM     52  C   UNL     1      14.935  -5.204  -0.531  1.00  0.00     0.226 C 
ATOM     53  O   UNL     1      13.866  -5.784  -0.331  1.00  0.00    -0.275 OA
BRANCH  52  54
ATOM     54  N   UNL     1      16.192  -5.834  -0.466  1.00  0.00    -0.311 N 
ATOM     55  C   UNL     1      17.147  -5.508   0.602  1.00  0.00     0.153 C 
BRANCH  54  56
ATOM     56  C   UNL     1      16.577  -6.799  -1.411  1.00  0.00     0.102 C 
ATOM     57  C   UNL     1      16.456  -6.663  -2.741  1.00  0.00     0.043 C 
BRANCH  56  58
ATOM     58  C   UNL     1      17.223  -8.094  -0.977  1.00  0.00     0.268 C 
ATOM     59  O   UNL     1      18.406  -8.348  -1.164  1.00  0.00    -0.268 OA
ATOM     60  N   UNL     1      16.365  -8.925  -0.297  1.00  0.00    -0.339 N 
ATOM     61  H   UNL     1      15.397  -8.646  -0.194  1.00  0.00     0.164 HD
BRANCH  60  62
ATOM     62  C   UNL     1      16.800 -10.202   0.266  1.00  0.00     0.168 CG0
ATOM     63  C   UNL     1      17.206 -10.046   1.727  1.00  0.00     0.041 C 
ATOM     64  G   UNL     1      17.969 -10.764  -0.568  1.00  0.00     0.000 G0
ENDBRANCH  60  62
ENDBRANCH  56  58
ENDBRANCH  54  56
ENDBRANCH  52  54
ENDBRANCH  51  52
ENDBRANCH  50  51
ENDBRANCH  49  50
BRANCH  49  65
ATOM     65  C   UNL     1      14.922  -2.994   2.352  1.00  0.00     0.326 C 
ATOM     66  O   UNL     1      14.032  -3.767   2.677  1.00  0.00    -0.250 OA
BRANCH  65  67
ATOM     67  O   UNL     1      15.950  -2.762   3.198  1.00  0.00    -0.480 OA
ATOM     68  H   UNL     1      16.610  -3.447   2.952  1.00  0.00     0.296 HD
ENDBRANCH  65  67
ENDBRANCH  49  65
ENDBRANCH  47  49
ENDBRANCH  43  45
ENDBRANCH   1  43
BRANCH   1  69
ATOM     69  C   UNL     1      15.672   2.482  -0.340  1.00  0.00    -0.001 C 
ATOM     70  C   UNL     1      15.668   2.905  -1.616  1.00  0.00     0.001 C 
BRANCH  70  71
ATOM     71  C   UNL     1      16.832   3.108  -2.480  1.00  0.00    -0.055 C 
ATOM     72  C   UNL     1      16.785   4.121  -3.371  1.00  0.00    -0.018 C 
ATOM     73  C   UNL     1      18.004   2.177  -2.309  1.00  0.00     0.044 C 
BRANCH  72  74
ATOM     74  C   UNL     1      17.833   4.564  -4.381  1.00  0.00     0.038 C 
ATOM     75  C   UNL     1      18.161   6.032  -4.079  1.00  0.00     0.015 C 
BRANCH  74  76
ATOM     76  C   UNL     1      17.289   4.300  -5.816  1.00  0.00     0.128 C 
BRANCH  76  77
ATOM     77  O   UNL     1      17.854   3.085  -6.339  1.00  0.00    -0.381 OA
ATOM     78  C   UNL     1      19.171   2.823  -5.875  1.00  0.00     0.195 C 
ENDBRANCH  76  77
BRANCH  76  79
ATOM     79  C   UNL     1      15.743   4.335  -5.920  1.00  0.00     0.068 C 
BRANCH  79  80
ATOM     80  C   UNL     1      15.099   5.589  -6.459  1.00  0.00    -0.045 A 
ATOM     81  C   UNL     1      15.075   6.770  -5.705  1.00  0.00     0.004 A 
ATOM     82  C   UNL     1      14.486   5.583  -7.721  1.00  0.00     0.004 A 
ATOM     83  C   UNL     1      14.465   7.922  -6.206  1.00  0.00     0.000 A 
ATOM     84  C   UNL     1      13.876   6.735  -8.221  1.00  0.00     0.000 A 
ATOM     85  C   UNL     1      13.867   7.905  -7.464  1.00  0.00     0.000 A 
ENDBRANCH  79  80
ENDBRANCH  76  79
ENDBRANCH  74  76
ENDBRANCH  72  74
ENDBRANCH  70  71
ENDBRANCH   1  69
TORSDOF 17
ENDMDL
MODEL 6
REMARK VINA RESULT:    -5.612      4.403      7.424
REMARK INTER + INTRA:         -23.284
REMARK INTER:                 -15.668
REMARK INTRA:                  -7.617
REMARK UNBOUND:                -6.517
REMARK SMILES C=C1C(=O)N[C@H](C)C(=O)N[C@@H](CC(C)C)C(=O)N[C@@H](C(=O)O)[C@H](C)C(=O)N[C@@H](CCCN=C(N)N)C(=O)N[C@@H](/C=C/C(C)=C/[C@H](C)[C@H](Cc2ccccc2)OC)[C@H](C)C(=O)N[C@@H](C(=O)O)CCC(=O)N1C
REMARK SMILES IDX 39 1 38 2 37 3 36 4 28 6 27 7 25 8 26 9 23 11 24 12 19 13
REMARK SMILES IDX 18 14 16 15 17 16 11 18 10 19 8 20 9 21 12 24 13 25 14 26
REMARK SMILES IDX 15 27 20 28 21 29 22 30 29 32 30 33 31 34 32 35 33 36 34 37
REMARK SMILES IDX 35 38 57 43 58 44 59 45 60 46 61 47 62 49 66 50 67 51 68 52
REMARK SMILES IDX 69 53 70 54 71 55 2 56 1 57 3 58 4 59 5 60 6 62 7 63 63 65
REMARK SMILES IDX 64 66 65 67 40 69 41 70 42 71 44 72 43 73 45 74 46 75 47 76
REMARK SMILES IDX 55 77 56 78 48 79 49 80 50 81 54 82 51 83 53 84 52 85
REMARK H PARENT 38 5 27 10 18 17 10 22 22 31 34 39 34 40 35 41 35 42 61 48
REMARK H PARENT 5 61 65 68
REMARK Flexibility Score:  369.900
ROOT
ATOM      1  C   UNL     1      14.681   2.214   0.847  1.00  0.00     0.117 C 
ENDROOT
BRANCH   1   2
ATOM      2  N   UNL     1      14.142   3.524   1.213  1.00  0.00    -0.347 N 
ATOM      3  O   UNL     1      12.249   3.456  -0.084  1.00  0.00    -0.273 OA
ATOM      4  C   UNL     1      12.918   4.003   0.786  1.00  0.00     0.243 C 
ATOM      5  H   UNL     1      14.656   4.109   1.854  1.00  0.00     0.164 HD
BRANCH   4   6
ATOM      6  C   UNL     1      12.544   5.382   1.387  1.00  0.00     0.171 C 
BRANCH   6   7
ATOM      7  N   UNL     1      13.734   6.243   1.479  1.00  0.00    -0.344 N 
ATOM      8  C   UNL     1      14.100   6.811   2.680  1.00  0.00     0.226 C 
ATOM      9  O   UNL     1      13.456   6.651   3.709  1.00  0.00    -0.275 OA
ATOM     10  H   UNL     1      14.254   6.453   0.636  1.00  0.00     0.164 HD
BRANCH   8  11
ATOM     11  C   UNL     1      15.380   7.627   2.622  1.00  0.00     0.109 C 
ATOM     12  C   UNL     1      16.143   7.318   1.333  1.00  0.00     0.021 C 
BRANCH  11  13
ATOM     13  C   UNL     1      15.058   9.118   2.843  1.00  0.00     0.204 C 
BRANCH  13  14
ATOM     14  N   UNL     1      13.614   9.371   2.876  1.00  0.00    -0.340 N 
ATOM     15  C   UNL     1      13.048  10.538   2.409  1.00  0.00     0.243 C 
ATOM     16  O   UNL     1      13.711  11.426   1.875  1.00  0.00    -0.273 OA
ATOM     17  H   UNL     1      13.029   8.748   3.439  1.00  0.00     0.164 HD
BRANCH  15  18
ATOM     18  C   UNL     1      11.540  10.668   2.736  1.00  0.00     0.171 C 
BRANCH  18  19
ATOM     19  N   UNL     1      11.430  11.640   3.823  1.00  0.00    -0.343 N 
ATOM     20  C   UNL     1      11.663  11.290   5.139  1.00  0.00     0.242 CG0
ATOM     21  O   UNL     1      11.841  10.121   5.472  1.00  0.00    -0.273 OA
ATOM     22  H   UNL     1      11.170  12.596   3.611  1.00  0.00     0.164 HD
ATOM     23  G   UNL     1      11.576  12.465   6.135  1.00  0.00     0.000 G0
ENDBRANCH  18  19
BRANCH  18  24
ATOM     24  C   UNL     1      10.754  11.119   1.499  1.00  0.00     0.038 C 
BRANCH  24  25
ATOM     25  C   UNL     1       9.335  10.524   1.385  1.00  0.00    -0.015 C 
ATOM     26  C   UNL     1       8.243  11.583   1.537  1.00  0.00     0.007 C 
ATOM     27  C   UNL     1       9.147   9.434   2.444  1.00  0.00     0.007 C 
ENDBRANCH  24  25
ENDBRANCH  18  24
ENDBRANCH  15  18
ENDBRANCH  13  14
BRANCH  13  28
ATOM     28  C   UNL     1      15.646   9.677   4.142  1.00  0.00     0.327 C 
ATOM     29  O   UNL     1      16.789  10.076   4.304  1.00  0.00    -0.250 OA
BRANCH  28  30
ATOM     30  O   UNL     1      14.799   9.589   5.187  1.00  0.00    -0.480 OA
ATOM     31  H   UNL     1      14.320   8.747   5.040  1.00  0.00     0.296 HD
ENDBRANCH  28  30
ENDBRANCH  13  28
ENDBRANCH  11  13
ENDBRANCH   8  11
ENDBRANCH   6   7
BRANCH   6  32
ATOM     32  C   UNL     1      11.463   6.033   0.519  1.00  0.00     0.037 C 
BRANCH  32  33
ATOM     33  C   UNL     1      11.542   7.566   0.547  1.00  0.00     0.026 C 
BRANCH  33  34
ATOM     34  C   UNL     1      12.188   8.142  -0.713  1.00  0.00     0.146 C 
BRANCH  34  35
ATOM     35  N   UNL     1      13.238   9.072  -0.320  1.00  0.00    -0.254 NA
ATOM     36  C   UNL     1      14.274   9.179  -1.065  1.00  0.00     0.185 C 
ATOM     37  N   UNL     1      15.246  10.036  -0.715  1.00  0.00    -0.370 N 
ATOM     38  N   UNL     1      14.562   8.534  -2.210  1.00  0.00    -0.370 N 
ATOM     39  H   UNL     1      15.098  10.569   0.133  1.00  0.00     0.159 HD
ATOM     40  H   UNL     1      15.998  10.304  -1.326  1.00  0.00     0.159 HD
ATOM     41  H   UNL     1      15.474   8.603  -2.631  1.00  0.00     0.159 HD
ATOM     42  H   UNL     1      13.927   7.847  -2.584  1.00  0.00     0.159 HD
ENDBRANCH  34  35
ENDBRANCH  33  34
ENDBRANCH  32  33
ENDBRANCH   6  32
ENDBRANCH   4   6
ENDBRANCH   1   2
BRANCH   1  43
ATOM     43  C   UNL     1      14.998   1.427   2.152  1.00  0.00     0.102 C 
ATOM     44  C   UNL     1      15.689   2.281   3.229  1.00  0.00     0.020 C 
BRANCH  43  45
ATOM     45  C   UNL     1      15.722   0.114   1.841  1.00  0.00     0.225 C 
ATOM     46  O   UNL     1      16.884  -0.105   2.169  1.00  0.00    -0.275 OA
ATOM     47  N   UNL     1      15.014  -0.786   1.078  1.00  0.00    -0.342 N 
ATOM     48  H   UNL     1      14.020  -0.659   0.948  1.00  0.00     0.164 HD
BRANCH  47  49
ATOM     49  C   UNL     1      15.567  -2.099   0.732  1.00  0.00     0.192 C 
BRANCH  49  50
ATOM     50  C   UNL     1      16.074  -2.080  -0.712  1.00  0.00     0.047 C 
BRANCH  50  51
ATOM     51  C   UNL     1      17.527  -2.561  -0.825  1.00  0.00     0.103 C 
BRANCH  51  52
ATOM     52  C   UNL     1      17.933  -2.824  -2.274  1.00  0.00     0.226 C 
ATOM     53  O   UNL     1      18.105  -1.875  -3.041  1.00  0.00    -0.275 OA
BRANCH  52  54
ATOM     54  N   UNL     1      18.164  -4.166  -2.626  1.00  0.00    -0.311 N 
ATOM     55  C   UNL     1      19.487  -4.612  -3.082  1.00  0.00     0.153 C 
BRANCH  54  56
ATOM     56  C   UNL     1      17.144  -5.129  -2.550  1.00  0.00     0.102 C 
ATOM     57  C   UNL     1      16.059  -5.164  -3.342  1.00  0.00     0.043 C 
BRANCH  56  58
ATOM     58  C   UNL     1      17.223  -6.266  -1.558  1.00  0.00     0.268 C 
ATOM     59  O   UNL     1      17.765  -7.334  -1.806  1.00  0.00    -0.268 OA
ATOM     60  N   UNL     1      16.684  -5.952  -0.333  1.00  0.00    -0.339 N 
ATOM     61  H   UNL     1      16.244  -5.048  -0.211  1.00  0.00     0.164 HD
BRANCH  60  62
ATOM     62  C   UNL     1      16.712  -6.886   0.792  1.00  0.00     0.168 CG0
ATOM     63  C   UNL     1      16.339  -6.186   2.093  1.00  0.00     0.041 C 
ATOM     64  G   UNL     1      18.111  -7.526   0.898  1.00  0.00     0.000 G0
ENDBRANCH  60  62
ENDBRANCH  56  58
ENDBRANCH  54  56
ENDBRANCH  52  54
ENDBRANCH  51  52
ENDBRANCH  50  51
ENDBRANCH  49  50
BRANCH  49  65
ATOM     65  C   UNL     1      14.520  -3.214   0.890  1.00  0.00     0.326 C 
ATOM     66  O   UNL     1      13.870  -3.441   1.900  1.00  0.00    -0.250 OA
BRANCH  65  67
ATOM     67  O   UNL     1      14.385  -4.016  -0.189  1.00  0.00    -0.480 OA
ATOM     68  H   UNL     1      14.750  -3.479  -0.925  1.00  0.00     0.296 HD
ENDBRANCH  65  67
ENDBRANCH  49  65
ENDBRANCH  47  49
ENDBRANCH  43  45
ENDBRANCH   1  43
BRANCH   1  69
ATOM     69  C   UNL     1      15.803   2.478  -0.140  1.00  0.00    -0.001 C 
ATOM     70  C   UNL     1      15.747   2.397  -1.481  1.00  0.00     0.001 C 
BRANCH  70  71
ATOM     71  C   UNL     1      16.831   2.675  -2.426  1.00  0.00    -0.055 C 
ATOM     72  C   UNL     1      16.841   3.881  -3.032  1.00  0.00    -0.018 C 
ATOM     73  C   UNL     1      17.862   1.599  -2.648  1.00  0.00     0.044 C 
BRANCH  72  74
ATOM     74  C   UNL     1      17.831   4.442  -4.043  1.00  0.00     0.038 C 
ATOM     75  C   UNL     1      18.089   5.905  -3.660  1.00  0.00     0.015 C 
BRANCH  74  76
ATOM     76  C   UNL     1      17.257   4.234  -5.475  1.00  0.00     0.128 C 
BRANCH  76  77
ATOM     77  O   UNL     1      17.731   2.990  -6.017  1.00  0.00    -0.381 OA
ATOM     78  C   UNL     1      19.143   2.934  -6.169  1.00  0.00     0.195 C 
ENDBRANCH  76  77
BRANCH  76  79
ATOM     79  C   UNL     1      15.717   4.378  -5.563  1.00  0.00     0.068 C 
BRANCH  79  80
ATOM     80  C   UNL     1      15.159   5.614  -6.227  1.00  0.00    -0.045 A 
ATOM     81  C   UNL     1      15.145   6.847  -5.562  1.00  0.00     0.004 A 
ATOM     82  C   UNL     1      14.618   5.539  -7.519  1.00  0.00     0.004 A 
ATOM     83  C   UNL     1      14.614   7.982  -6.178  1.00  0.00     0.000 A 
ATOM     84  C   UNL     1      14.087   6.675  -8.134  1.00  0.00     0.000 A 
ATOM     85  C   UNL     1      14.087   7.896  -7.464  1.00  0.00     0.000 A 
ENDBRANCH  79  80
ENDBRANCH  76  79
ENDBRANCH  74  76
ENDBRANCH  72  74
ENDBRANCH  70  71
ENDBRANCH   1  69
TORSDOF 17
ENDMDL
MODEL 7
REMARK VINA RESULT:    -5.416     10.980     19.188
REMARK INTER + INTRA:         -22.697
REMARK INTER:                 -13.349
REMARK INTRA:                  -9.348
REMARK UNBOUND:                -6.517
REMARK SMILES C=C1C(=O)N[C@H](C)C(=O)N[C@@H](CC(C)C)C(=O)N[C@@H](C(=O)O)[C@H](C)C(=O)N[C@@H](CCCN=C(N)N)C(=O)N[C@@H](/C=C/C(C)=C/[C@H](C)[C@H](Cc2ccccc2)OC)[C@H](C)C(=O)N[C@@H](C(=O)O)CCC(=O)N1C
REMARK SMILES IDX 39 1 38 2 37 3 36 4 28 6 27 7 25 8 26 9 23 11 24 12 19 13
REMARK SMILES IDX 18 14 16 15 17 16 11 18 10 19 8 20 9 21 12 24 13 25 14 26
REMARK SMILES IDX 15 27 20 28 21 29 22 30 29 32 30 33 31 34 32 35 33 36 34 37
REMARK SMILES IDX 35 38 57 43 58 44 59 45 60 46 61 47 62 49 66 50 67 51 68 52
REMARK SMILES IDX 69 53 70 54 71 55 2 56 1 57 3 58 4 59 5 60 6 62 7 63 63 65
REMARK SMILES IDX 64 66 65 67 40 69 41 70 42 71 44 72 43 73 45 74 46 75 47 76
REMARK SMILES IDX 55 77 56 78 48 79 49 80 50 81 54 82 51 83 53 84 52 85
REMARK H PARENT 38 5 27 10 18 17 10 22 22 31 34 39 34 40 35 41 35 42 61 48
REMARK H PARENT 5 61 65 68
REMARK Flexibility Score:  369.900
ROOT
ATOM      1  C   UNL     1      15.784  -7.083  -4.911  1.00  0.00     0.117 C 
ENDROOT
BRANCH   1   2
ATOM      2  N   UNL     1      15.957  -8.373  -4.241  1.00  0.00    -0.347 N 
ATOM      3  O   UNL     1      16.988  -7.602  -2.341  1.00  0.00    -0.273 OA
ATOM      4  C   UNL     1      16.464  -8.519  -2.965  1.00  0.00     0.243 C 
ATOM      5  H   UNL     1      15.648  -9.215  -4.703  1.00  0.00     0.164 HD
BRANCH   4   6
ATOM      6  C   UNL     1      16.462  -9.984  -2.457  1.00  0.00     0.171 C 
BRANCH   6   7
ATOM      7  N   UNL     1      16.796 -10.908  -3.552  1.00  0.00    -0.344 N 
ATOM      8  C   UNL     1      16.098 -12.085  -3.716  1.00  0.00     0.226 C 
ATOM      9  O   UNL     1      15.196 -12.429  -2.961  1.00  0.00    -0.275 OA
ATOM     10  H   UNL     1      17.579 -10.691  -4.156  1.00  0.00     0.164 HD
BRANCH   8  11
ATOM     11  C   UNL     1      16.525 -12.903  -4.922  1.00  0.00     0.109 C 
ATOM     12  C   UNL     1      17.283 -14.152  -4.470  1.00  0.00     0.021 C 
BRANCH  11  13
ATOM     13  C   UNL     1      15.306 -13.176  -5.825  1.00  0.00     0.204 C 
BRANCH  13  14
ATOM     14  N   UNL     1      15.073 -12.090  -6.782  1.00  0.00    -0.340 N 
ATOM     15  C   UNL     1      13.894 -11.378  -6.833  1.00  0.00     0.243 C 
ATOM     16  O   UNL     1      12.975 -11.564  -6.038  1.00  0.00    -0.273 OA
ATOM     17  H   UNL     1      15.729 -11.987  -7.561  1.00  0.00     0.164 HD
BRANCH  15  18
ATOM     18  C   UNL     1      13.799 -10.427  -8.051  1.00  0.00     0.171 C 
BRANCH  18  19
ATOM     19  N   UNL     1      12.960 -11.099  -9.042  1.00  0.00    -0.343 N 
ATOM     20  C   UNL     1      13.446 -12.118  -9.837  1.00  0.00     0.242 CG0
ATOM     21  O   UNL     1      14.638 -12.417  -9.843  1.00  0.00    -0.273 OA
ATOM     22  H   UNL     1      11.996 -10.808  -9.156  1.00  0.00     0.164 HD
ATOM     23  G   UNL     1      12.394 -12.758 -10.766  1.00  0.00     0.000 G0
ENDBRANCH  18  19
BRANCH  18  24
ATOM     24  C   UNL     1      13.206  -9.074  -7.637  1.00  0.00     0.038 C 
BRANCH  24  25
ATOM     25  C   UNL     1      11.672  -8.974  -7.775  1.00  0.00    -0.015 C 
ATOM     26  C   UNL     1      11.245  -7.969  -8.844  1.00  0.00     0.007 C 
ATOM     27  C   UNL     1      11.059  -8.585  -6.427  1.00  0.00     0.007 C 
ENDBRANCH  24  25
ENDBRANCH  18  24
ENDBRANCH  15  18
ENDBRANCH  13  14
BRANCH  13  28
ATOM     28  C   UNL     1      15.431 -14.472  -6.632  1.00  0.00     0.327 C 
ATOM     29  O   UNL     1      15.070 -15.583  -6.276  1.00  0.00    -0.250 OA
BRANCH  28  30
ATOM     30  O   UNL     1      16.109 -14.313  -7.787  1.00  0.00    -0.480 OA
ATOM     31  H   UNL     1      15.812 -13.441  -8.122  1.00  0.00     0.296 HD
ENDBRANCH  28  30
ENDBRANCH  13  28
ENDBRANCH  11  13
ENDBRANCH   8  11
ENDBRANCH   6   7
BRANCH   6  32
ATOM     32  C   UNL     1      17.461 -10.118  -1.303  1.00  0.00     0.037 C 
BRANCH  32  33
ATOM     33  C   UNL     1      16.763 -10.195   0.062  1.00  0.00     0.026 C 
BRANCH  33  34
ATOM     34  C   UNL     1      17.651  -9.696   1.202  1.00  0.00     0.146 C 
BRANCH  34  35
ATOM     35  N   UNL     1      17.536  -8.247   1.288  1.00  0.00    -0.254 NA
ATOM     36  C   UNL     1      18.531  -7.529   0.919  1.00  0.00     0.185 C 
ATOM     37  N   UNL     1      18.435  -6.192   0.988  1.00  0.00    -0.370 N 
ATOM     38  N   UNL     1      19.726  -7.922   0.444  1.00  0.00    -0.370 N 
ATOM     39  H   UNL     1      17.558  -5.817   1.327  1.00  0.00     0.159 HD
ATOM     40  H   UNL     1      19.093  -5.564   0.561  1.00  0.00     0.159 HD
ATOM     41  H   UNL     1      20.479  -7.265   0.319  1.00  0.00     0.159 HD
ATOM     42  H   UNL     1      19.945  -8.902   0.353  1.00  0.00     0.159 HD
ENDBRANCH  34  35
ENDBRANCH  33  34
ENDBRANCH  32  33
ENDBRANCH   6  32
ENDBRANCH   4   6
ENDBRANCH   1   2
BRANCH   1  43
ATOM     43  C   UNL     1      14.261  -6.790  -5.034  1.00  0.00     0.102 C 
ATOM     44  C   UNL     1      13.922  -5.766  -6.131  1.00  0.00     0.020 C 
BRANCH  43  45
ATOM     45  C   UNL     1      13.652  -6.461  -3.668  1.00  0.00     0.225 C 
ATOM     46  O   UNL     1      12.538  -6.843  -3.321  1.00  0.00    -0.275 OA
ATOM     47  N   UNL     1      14.398  -5.621  -2.873  1.00  0.00    -0.342 N 
ATOM     48  H   UNL     1      15.365  -5.442  -3.105  1.00  0.00     0.164 HD
BRANCH  47  49
ATOM     49  C   UNL     1      13.956  -5.249  -1.526  1.00  0.00     0.192 C 
BRANCH  49  50
ATOM     50  C   UNL     1      14.642  -3.948  -1.101  1.00  0.00     0.047 C 
BRANCH  50  51
ATOM     51  C   UNL     1      13.755  -3.095  -0.183  1.00  0.00     0.103 C 
BRANCH  51  52
ATOM     52  C   UNL     1      14.375  -2.907   1.200  1.00  0.00     0.226 C 
ATOM     53  O   UNL     1      15.115  -3.778   1.661  1.00  0.00    -0.275 OA
BRANCH  52  54
ATOM     54  N   UNL     1      14.113  -1.682   1.842  1.00  0.00    -0.311 N 
ATOM     55  C   UNL     1      13.109  -1.589   2.910  1.00  0.00     0.153 C 
BRANCH  54  56
ATOM     56  C   UNL     1      14.803  -0.509   1.493  1.00  0.00     0.102 C 
ATOM     57  C   UNL     1      14.241   0.575   0.935  1.00  0.00     0.043 C 
BRANCH  56  58
ATOM     58  C   UNL     1      16.280  -0.366   1.775  1.00  0.00     0.268 C 
ATOM     59  O   UNL     1      17.130  -0.338   0.895  1.00  0.00    -0.268 OA
ATOM     60  N   UNL     1      16.562  -0.204   3.110  1.00  0.00    -0.339 N 
ATOM     61  H   UNL     1      15.802  -0.249   3.778  1.00  0.00     0.164 HD
BRANCH  60  62
ATOM     62  C   UNL     1      17.923   0.015   3.598  1.00  0.00     0.168 CG0
ATOM     63  C   UNL     1      18.653  -1.308   3.794  1.00  0.00     0.041 C 
ATOM     64  G   UNL     1      17.878   0.815   4.916  1.00  0.00     0.000 G0
ENDBRANCH  60  62
ENDBRANCH  56  58
ENDBRANCH  54  56
ENDBRANCH  52  54
ENDBRANCH  51  52
ENDBRANCH  50  51
ENDBRANCH  49  50
BRANCH  49  65
ATOM     65  C   UNL     1      14.274  -6.349  -0.501  1.00  0.00     0.326 C 
ATOM     66  O   UNL     1      13.485  -7.187  -0.090  1.00  0.00    -0.250 OA
BRANCH  65  67
ATOM     67  O   UNL     1      15.530  -6.310  -0.003  1.00  0.00    -0.480 OA
ATOM     68  H   UNL     1      15.410  -6.535   0.945  1.00  0.00     0.296 HD
ENDBRANCH  65  67
ENDBRANCH  49  65
ENDBRANCH  47  49
ENDBRANCH  43  45
ENDBRANCH   1  43
BRANCH   1  69
ATOM     69  C   UNL     1      16.623  -7.145  -6.174  1.00  0.00    -0.001 C 
ATOM     70  C   UNL     1      17.928  -6.846  -6.304  1.00  0.00     0.001 C 
BRANCH  70  71
ATOM     71  C   UNL     1      18.733  -6.930  -7.524  1.00  0.00    -0.055 C 
ATOM     72  C   UNL     1      18.137  -7.407  -8.637  1.00  0.00    -0.018 C 
ATOM     73  C   UNL     1      20.166  -6.472  -7.453  1.00  0.00     0.044 C 
BRANCH  72  74
ATOM     74  C   UNL     1      18.716  -7.602 -10.031  1.00  0.00     0.038 C 
ATOM     75  C   UNL     1      18.571  -6.268 -10.773  1.00  0.00     0.015 C 
BRANCH  74  76
ATOM     76  C   UNL     1      17.997  -8.807 -10.708  1.00  0.00     0.128 C 
BRANCH  76  77
ATOM     77  O   UNL     1      18.869  -9.950 -10.729  1.00  0.00    -0.381 OA
ATOM     78  C   UNL     1      18.182 -11.190 -10.823  1.00  0.00     0.195 C 
ENDBRANCH  76  77
BRANCH  76  79
ATOM     79  C   UNL     1      16.605  -9.126 -10.108  1.00  0.00     0.068 C 
BRANCH  79  80
ATOM     80  C   UNL     1      15.394  -8.502 -10.759  1.00  0.00    -0.045 A 
ATOM     81  C   UNL     1      14.944  -7.231 -10.376  1.00  0.00     0.004 A 
ATOM     82  C   UNL     1      14.681  -9.201 -11.744  1.00  0.00     0.004 A 
ATOM     83  C   UNL     1      13.815  -6.667 -10.973  1.00  0.00     0.000 A 
ATOM     84  C   UNL     1      13.552  -8.635 -12.340  1.00  0.00     0.000 A 
ATOM     85  C   UNL     1      13.120  -7.368 -11.956  1.00  0.00     0.000 A 
ENDBRANCH  79  80
ENDBRANCH  76  79
ENDBRANCH  74  76
ENDBRANCH  72  74
ENDBRANCH  70  71
ENDBRANCH   1  69
TORSDOF 17
ENDMDL
MODEL 8
REMARK VINA RESULT:    -5.206     14.680     19.862
REMARK INTER + INTRA:         -22.070
REMARK INTER:                 -15.411
REMARK INTRA:                  -6.660
REMARK UNBOUND:                -6.517
REMARK SMILES C=C1C(=O)N[C@H](C)C(=O)N[C@@H](CC(C)C)C(=O)N[C@@H](C(=O)O)[C@H](C)C(=O)N[C@@H](CCCN=C(N)N)C(=O)N[C@@H](/C=C/C(C)=C/[C@H](C)[C@H](Cc2ccccc2)OC)[C@H](C)C(=O)N[C@@H](C(=O)O)CCC(=O)N1C
REMARK SMILES IDX 39 1 38 2 37 3 36 4 28 6 27 7 25 8 26 9 23 11 24 12 19 13
REMARK SMILES IDX 18 14 16 15 17 16 11 18 10 19 8 20 9 21 12 24 13 25 14 26
REMARK SMILES IDX 15 27 20 28 21 29 22 30 29 32 30 33 31 34 32 35 33 36 34 37
REMARK SMILES IDX 35 38 57 43 58 44 59 45 60 46 61 47 62 49 66 50 67 51 68 52
REMARK SMILES IDX 69 53 70 54 71 55 2 56 1 57 3 58 4 59 5 60 6 62 7 63 63 65
REMARK SMILES IDX 64 66 65 67 40 69 41 70 42 71 44 72 43 73 45 74 46 75 47 76
REMARK SMILES IDX 55 77 56 78 48 79 49 80 50 81 54 82 51 83 53 84 52 85
REMARK H PARENT 38 5 27 10 18 17 10 22 22 31 34 39 34 40 35 41 35 42 61 48
REMARK H PARENT 5 61 65 68
REMARK Flexibility Score:  369.900
ROOT
ATOM      1  C   UNL     1      10.401  -9.334  -2.139  1.00  0.00     0.117 C 
ENDROOT
BRANCH   1   2
ATOM      2  N   UNL     1       9.211  -9.194  -2.980  1.00  0.00    -0.347 N 
ATOM      3  O   UNL     1       8.920 -11.414  -3.484  1.00  0.00    -0.273 OA
ATOM      4  C   UNL     1       8.510 -10.259  -3.512  1.00  0.00     0.243 C 
ATOM      5  H   UNL     1       8.834  -8.274  -3.153  1.00  0.00     0.164 HD
BRANCH   4   6
ATOM      6  C   UNL     1       7.239  -9.840  -4.292  1.00  0.00     0.171 C 
BRANCH   6   7
ATOM      7  N   UNL     1       7.441 -10.019  -5.739  1.00  0.00    -0.344 N 
ATOM      8  C   UNL     1       8.335  -9.227  -6.427  1.00  0.00     0.226 C 
ATOM      9  O   UNL     1       8.979  -8.336  -5.886  1.00  0.00    -0.275 OA
ATOM     10  H   UNL     1       6.877 -10.699  -6.233  1.00  0.00     0.164 HD
BRANCH   8  11
ATOM     11  C   UNL     1       8.470  -9.570  -7.900  1.00  0.00     0.109 C 
ATOM     12  C   UNL     1       7.256 -10.373  -8.366  1.00  0.00     0.021 C 
BRANCH  11  13
ATOM     13  C   UNL     1       8.751  -8.289  -8.710  1.00  0.00     0.204 C 
BRANCH  13  14
ATOM     14  N   UNL     1       9.795  -8.492  -9.719  1.00  0.00    -0.340 N 
ATOM     15  C   UNL     1      11.129  -8.250  -9.475  1.00  0.00     0.243 C 
ATOM     16  O   UNL     1      11.546  -7.903  -8.371  1.00  0.00    -0.273 OA
ATOM     17  H   UNL     1       9.504  -8.631 -10.691  1.00  0.00     0.164 HD
BRANCH  15  18
ATOM     18  C   UNL     1      12.015  -8.333 -10.742  1.00  0.00     0.171 C 
BRANCH  18  19
ATOM     19  N   UNL     1      13.366  -8.657 -10.288  1.00  0.00    -0.343 N 
ATOM     20  C   UNL     1      14.390  -7.730 -10.326  1.00  0.00     0.242 CG0
ATOM     21  O   UNL     1      14.247  -6.635 -10.865  1.00  0.00    -0.273 OA
ATOM     22  H   UNL     1      13.564  -9.589  -9.940  1.00  0.00     0.164 HD
ATOM     23  G   UNL     1      15.723  -8.229  -9.732  1.00  0.00     0.000 G0
ENDBRANCH  18  19
BRANCH  18  24
ATOM     24  C   UNL     1      11.478  -9.395 -11.710  1.00  0.00     0.038 C 
BRANCH  24  25
ATOM     25  C   UNL     1      11.152  -8.872 -13.125  1.00  0.00    -0.015 C 
ATOM     26  C   UNL     1      11.913  -7.590 -13.464  1.00  0.00     0.007 C 
ATOM     27  C   UNL     1       9.646  -8.625 -13.248  1.00  0.00     0.007 C 
ENDBRANCH  24  25
ENDBRANCH  18  24
ENDBRANCH  15  18
ENDBRANCH  13  14
BRANCH  13  28
ATOM     28  C   UNL     1       7.515  -7.752  -9.438  1.00  0.00     0.327 C 
ATOM     29  O   UNL     1       7.291  -7.829 -10.636  1.00  0.00    -0.250 OA
BRANCH  28  30
ATOM     30  O   UNL     1       6.693  -7.047  -8.634  1.00  0.00    -0.480 OA
ATOM     31  H   UNL     1       7.225  -6.886  -7.827  1.00  0.00     0.296 HD
ENDBRANCH  28  30
ENDBRANCH  13  28
ENDBRANCH  11  13
ENDBRANCH   8  11
ENDBRANCH   6   7
BRANCH   6  32
ATOM     32  C   UNL     1       6.049 -10.671  -3.799  1.00  0.00     0.037 C 
BRANCH  32  33
ATOM     33  C   UNL     1       5.124  -9.867  -2.875  1.00  0.00     0.026 C 
BRANCH  33  34
ATOM     34  C   UNL     1       3.815 -10.599  -2.576  1.00  0.00     0.146 C 
BRANCH  34  35
ATOM     35  N   UNL     1       3.518 -10.470  -1.156  1.00  0.00    -0.254 NA
ATOM     36  C   UNL     1       3.442 -11.533  -0.445  1.00  0.00     0.185 C 
ATOM     37  N   UNL     1       3.174 -11.425   0.865  1.00  0.00    -0.370 N 
ATOM     38  N   UNL     1       3.599 -12.814  -0.822  1.00  0.00    -0.370 N 
ATOM     39  H   UNL     1       3.053 -10.488   1.229  1.00  0.00     0.159 HD
ATOM     40  H   UNL     1       3.269 -12.185   1.517  1.00  0.00     0.159 HD
ATOM     41  H   UNL     1       3.377 -13.572  -0.197  1.00  0.00     0.159 HD
ATOM     42  H   UNL     1       3.789 -13.046  -1.784  1.00  0.00     0.159 HD
ENDBRANCH  34  35
ENDBRANCH  33  34
ENDBRANCH  32  33
ENDBRANCH   6  32
ENDBRANCH   4   6
ENDBRANCH   1   2
BRANCH   1  43
ATOM     43  C   UNL     1       9.997  -9.068  -0.661  1.00  0.00     0.102 C 
ATOM     44  C   UNL     1       9.633 -10.345   0.114  1.00  0.00     0.020 C 
BRANCH  43  45
ATOM     45  C   UNL     1       8.940  -7.963  -0.570  1.00  0.00     0.225 C 
ATOM     46  O   UNL     1       8.992  -6.929  -1.229  1.00  0.00    -0.275 OA
ATOM     47  N   UNL     1       7.961  -8.157   0.378  1.00  0.00    -0.342 N 
ATOM     48  H   UNL     1       7.845  -9.068   0.799  1.00  0.00     0.164 HD
BRANCH  47  49
ATOM     49  C   UNL     1       6.864  -7.200   0.552  1.00  0.00     0.192 C 
BRANCH  49  50
ATOM     50  C   UNL     1       7.033  -6.460   1.882  1.00  0.00     0.047 C 
BRANCH  50  51
ATOM     51  C   UNL     1       8.214  -6.998   2.701  1.00  0.00     0.103 C 
BRANCH  51  52
ATOM     52  C   UNL     1       7.783  -7.468   4.088  1.00  0.00     0.226 C 
ATOM     53  O   UNL     1       8.144  -6.839   5.085  1.00  0.00    -0.275 OA
BRANCH  52  54
ATOM     54  N   UNL     1       6.916  -8.576   4.134  1.00  0.00    -0.311 N 
ATOM     55  C   UNL     1       7.331  -9.883   3.607  1.00  0.00     0.153 C 
BRANCH  54  56
ATOM     56  C   UNL     1       5.629  -8.477   4.687  1.00  0.00     0.102 C 
ATOM     57  C   UNL     1       4.496  -8.343   3.978  1.00  0.00     0.043 C 
BRANCH  56  58
ATOM     58  C   UNL     1       5.418  -8.561   6.180  1.00  0.00     0.268 C 
ATOM     59  O   UNL     1       5.218  -9.615   6.770  1.00  0.00    -0.268 OA
ATOM     60  N   UNL     1       5.541  -7.347   6.813  1.00  0.00    -0.339 N 
ATOM     61  H   UNL     1       5.697  -6.519   6.251  1.00  0.00     0.164 HD
BRANCH  60  62
ATOM     62  C   UNL     1       5.437  -7.212   8.265  1.00  0.00     0.168 CG0
ATOM     63  C   UNL     1       6.809  -7.011   8.896  1.00  0.00     0.041 C 
ATOM     64  G   UNL     1       4.743  -8.458   8.852  1.00  0.00     0.000 G0
ENDBRANCH  60  62
ENDBRANCH  56  58
ENDBRANCH  54  56
ENDBRANCH  52  54
ENDBRANCH  51  52
ENDBRANCH  50  51
ENDBRANCH  49  50
BRANCH  49  65
ATOM     65  C   UNL     1       5.494  -7.897   0.529  1.00  0.00     0.326 C 
ATOM     66  O   UNL     1       4.413  -7.336   0.436  1.00  0.00    -0.250 OA
BRANCH  65  67
ATOM     67  O   UNL     1       5.542  -9.239   0.683  1.00  0.00    -0.480 OA
ATOM     68  H   UNL     1       6.197  -9.366   1.403  1.00  0.00     0.296 HD
ENDBRANCH  65  67
ENDBRANCH  49  65
ENDBRANCH  47  49
ENDBRANCH  43  45
ENDBRANCH   1  43
BRANCH   1  69
ATOM     69  C   UNL     1      11.473  -8.468  -2.774  1.00  0.00    -0.001 C 
ATOM     70  C   UNL     1      11.975  -7.313  -2.303  1.00  0.00     0.001 C 
BRANCH  70  71
ATOM     71  C   UNL     1      13.026  -6.496  -2.914  1.00  0.00    -0.055 C 
ATOM     72  C   UNL     1      13.506  -6.886  -4.114  1.00  0.00    -0.018 C 
ATOM     73  C   UNL     1      13.491  -5.275  -2.165  1.00  0.00     0.044 C 
BRANCH  72  74
ATOM     74  C   UNL     1      14.581  -6.241  -4.977  1.00  0.00     0.038 C 
ATOM     75  C   UNL     1      13.868  -5.330  -5.984  1.00  0.00     0.015 C 
BRANCH  74  76
ATOM     76  C   UNL     1      15.451  -7.364  -5.615  1.00  0.00     0.128 C 
BRANCH  76  77
ATOM     77  O   UNL     1      14.746  -8.616  -5.572  1.00  0.00    -0.381 OA
ATOM     78  C   UNL     1      14.562  -9.212  -6.849  1.00  0.00     0.195 C 
ENDBRANCH  76  77
BRANCH  76  79
ATOM     79  C   UNL     1      15.980  -7.022  -7.031  1.00  0.00     0.068 C 
BRANCH  79  80
ATOM     80  C   UNL     1      17.472  -6.878  -7.212  1.00  0.00    -0.045 A 
ATOM     81  C   UNL     1      18.309  -6.606  -6.122  1.00  0.00     0.004 A 
ATOM     82  C   UNL     1      18.043  -6.989  -8.489  1.00  0.00     0.004 A 
ATOM     83  C   UNL     1      19.686  -6.460  -6.301  1.00  0.00     0.000 A 
ATOM     84  C   UNL     1      19.421  -6.842  -8.667  1.00  0.00     0.000 A 
ATOM     85  C   UNL     1      20.242  -6.579  -7.573  1.00  0.00     0.000 A 
ENDBRANCH  79  80
ENDBRANCH  76  79
ENDBRANCH  74  76
ENDBRANCH  72  74
ENDBRANCH  70  71
ENDBRANCH   1  69
TORSDOF 17
ENDMDL
MODEL 9
REMARK VINA RESULT:    -5.203      5.415      8.433
REMARK INTER + INTRA:         -22.062
REMARK INTER:                 -13.299
REMARK INTRA:                  -8.763
REMARK UNBOUND:                -6.517
REMARK SMILES C=C1C(=O)N[C@H](C)C(=O)N[C@@H](CC(C)C)C(=O)N[C@@H](C(=O)O)[C@H](C)C(=O)N[C@@H](CCCN=C(N)N)C(=O)N[C@@H](/C=C/C(C)=C/[C@H](C)[C@H](Cc2ccccc2)OC)[C@H](C)C(=O)N[C@@H](C(=O)O)CCC(=O)N1C
REMARK SMILES IDX 39 1 38 2 37 3 36 4 28 6 27 7 25 8 26 9 23 11 24 12 19 13
REMARK SMILES IDX 18 14 16 15 17 16 11 18 10 19 8 20 9 21 12 24 13 25 14 26
REMARK SMILES IDX 15 27 20 28 21 29 22 30 29 32 30 33 31 34 32 35 33 36 34 37
REMARK SMILES IDX 35 38 57 43 58 44 59 45 60 46 61 47 62 49 66 50 67 51 68 52
REMARK SMILES IDX 69 53 70 54 71 55 2 56 1 57 3 58 4 59 5 60 6 62 7 63 63 65
REMARK SMILES IDX 64 66 65 67 40 69 41 70 42 71 44 72 43 73 45 74 46 75 47 76
REMARK SMILES IDX 55 77 56 78 48 79 49 80 50 81 54 82 51 83 53 84 52 85
REMARK H PARENT 38 5 27 10 18 17 10 22 22 31 34 39 34 40 35 41 35 42 61 48
REMARK H PARENT 5 61 65 68
REMARK Flexibility Score:  369.900
ROOT
ATOM      1  C   UNL     1      16.496   2.128  -0.973  1.00  0.00     0.117 C 
ENDROOT
BRANCH   1   2
ATOM      2  N   UNL     1      16.002   3.425  -0.509  1.00  0.00    -0.347 N 
ATOM      3  O   UNL     1      14.207   2.660   0.701  1.00  0.00    -0.273 OA
ATOM      4  C   UNL     1      14.946   3.580   0.369  1.00  0.00     0.243 C 
ATOM      5  H   UNL     1      16.476   4.267  -0.796  1.00  0.00     0.164 HD
BRANCH   4   6
ATOM      6  C   UNL     1      14.679   5.054   0.768  1.00  0.00     0.171 C 
BRANCH   6   7
ATOM      7  N   UNL     1      15.214   5.328   2.111  1.00  0.00    -0.344 N 
ATOM      8  C   UNL     1      14.379   5.728   3.132  1.00  0.00     0.226 C 
ATOM      9  O   UNL     1      13.175   5.895   2.973  1.00  0.00    -0.275 OA
ATOM     10  H   UNL     1      16.213   5.267   2.264  1.00  0.00     0.164 HD
BRANCH   8  11
ATOM     11  C   UNL     1      15.072   5.918   4.470  1.00  0.00     0.109 C 
ATOM     12  C   UNL     1      16.281   4.987   4.572  1.00  0.00     0.021 C 
BRANCH  11  13
ATOM     13  C   UNL     1      15.384   7.412   4.688  1.00  0.00     0.204 C 
BRANCH  13  14
ATOM     14  N   UNL     1      14.534   8.279   3.866  1.00  0.00    -0.340 N 
ATOM     15  C   UNL     1      15.036   9.293   3.080  1.00  0.00     0.243 C 
ATOM     16  O   UNL     1      16.243   9.503   2.965  1.00  0.00    -0.273 OA
ATOM     17  H   UNL     1      13.524   8.257   4.031  1.00  0.00     0.164 HD
BRANCH  15  18
ATOM     18  C   UNL     1      13.942  10.203   2.470  1.00  0.00     0.171 C 
BRANCH  18  19
ATOM     19  N   UNL     1      13.913  11.421   3.277  1.00  0.00    -0.343 N 
ATOM     20  C   UNL     1      12.739  11.912   3.814  1.00  0.00     0.242 CG0
ATOM     21  O   UNL     1      11.648  11.424   3.529  1.00  0.00    -0.273 OA
ATOM     22  H   UNL     1      14.775  11.927   3.445  1.00  0.00     0.164 HD
ATOM     23  G   UNL     1      12.917  13.161   4.701  1.00  0.00     0.000 G0
ENDBRANCH  18  19
BRANCH  18  24
ATOM     24  C   UNL     1      14.252  10.510   0.999  1.00  0.00     0.038 C 
BRANCH  24  25
ATOM     25  C   UNL     1      13.121  10.145   0.014  1.00  0.00    -0.015 C 
ATOM     26  C   UNL     1      11.976  11.157   0.037  1.00  0.00     0.007 C 
ATOM     27  C   UNL     1      12.583   8.750   0.341  1.00  0.00     0.007 C 
ENDBRANCH  24  25
ENDBRANCH  18  24
ENDBRANCH  15  18
ENDBRANCH  13  14
BRANCH  13  28
ATOM     28  C   UNL     1      15.215   7.858   6.143  1.00  0.00     0.327 C 
ATOM     29  O   UNL     1      14.453   7.370   6.965  1.00  0.00    -0.250 OA
BRANCH  28  30
ATOM     30  O   UNL     1      15.925   8.964   6.444  1.00  0.00    -0.480 OA
ATOM     31  H   UNL     1      16.840   8.636   6.568  1.00  0.00     0.296 HD
ENDBRANCH  28  30
ENDBRANCH  13  28
ENDBRANCH  11  13
ENDBRANCH   8  11
ENDBRANCH   6   7
BRANCH   6  32
ATOM     32  C   UNL     1      15.316   5.981  -0.274  1.00  0.00     0.037 C 
BRANCH  32  33
ATOM     33  C   UNL     1      16.195   7.061   0.371  1.00  0.00     0.026 C 
BRANCH  33  34
ATOM     34  C   UNL     1      17.662   6.947  -0.043  1.00  0.00     0.146 C 
BRANCH  34  35
ATOM     35  N   UNL     1      17.789   5.888  -1.035  1.00  0.00    -0.254 NA
ATOM     36  C   UNL     1      18.804   5.895  -1.816  1.00  0.00     0.185 C 
ATOM     37  N   UNL     1      18.933   4.921  -2.730  1.00  0.00    -0.370 N 
ATOM     38  N   UNL     1      19.821   6.774  -1.871  1.00  0.00    -0.370 N 
ATOM     39  H   UNL     1      18.210   4.214  -2.745  1.00  0.00     0.159 HD
ATOM     40  H   UNL     1      19.776   4.760  -3.255  1.00  0.00     0.159 HD
ATOM     41  H   UNL     1      20.489   6.750  -2.624  1.00  0.00     0.159 HD
ATOM     42  H   UNL     1      19.846   7.568  -1.251  1.00  0.00     0.159 HD
ENDBRANCH  34  35
ENDBRANCH  33  34
ENDBRANCH  32  33
ENDBRANCH   6  32
ENDBRANCH   4   6
ENDBRANCH   1   2
BRANCH   1  43
ATOM     43  C   UNL     1      17.796   1.785  -0.190  1.00  0.00     0.102 C 
ATOM     44  C   UNL     1      18.973   1.391  -1.099  1.00  0.00     0.020 C 
BRANCH  43  45
ATOM     45  C   UNL     1      17.514   0.780   0.932  1.00  0.00     0.225 C 
ATOM     46  O   UNL     1      18.324   0.518   1.817  1.00  0.00    -0.275 OA
ATOM     47  N   UNL     1      16.317   0.108   0.837  1.00  0.00    -0.342 N 
ATOM     48  H   UNL     1      15.606   0.439   0.200  1.00  0.00     0.164 HD
BRANCH  47  49
ATOM     49  C   UNL     1      15.898  -0.857   1.858  1.00  0.00     0.192 C 
BRANCH  49  50
ATOM     50  C   UNL     1      15.545  -2.190   1.192  1.00  0.00     0.047 C 
BRANCH  50  51
ATOM     51  C   UNL     1      15.631  -2.116  -0.339  1.00  0.00     0.103 C 
BRANCH  51  52
ATOM     52  C   UNL     1      16.884  -2.803  -0.877  1.00  0.00     0.226 C 
ATOM     53  O   UNL     1      17.896  -2.136  -1.104  1.00  0.00    -0.275 OA
BRANCH  52  54
ATOM     54  N   UNL     1      16.824  -4.203  -1.010  1.00  0.00    -0.311 N 
ATOM     55  C   UNL     1      17.420  -5.085   0.002  1.00  0.00     0.153 C 
BRANCH  54  56
ATOM     56  C   UNL     1      16.189  -4.807  -2.107  1.00  0.00     0.102 C 
ATOM     57  C   UNL     1      16.739  -4.965  -3.322  1.00  0.00     0.043 C 
BRANCH  56  58
ATOM     58  C   UNL     1      14.800  -5.386  -1.976  1.00  0.00     0.268 C 
ATOM     59  O   UNL     1      14.017  -5.056  -1.096  1.00  0.00    -0.268 OA
ATOM     60  N   UNL     1      14.485  -6.268  -2.983  1.00  0.00    -0.339 N 
ATOM     61  H   UNL     1      15.194  -6.497  -3.669  1.00  0.00     0.164 HD
BRANCH  60  62
ATOM     62  C   UNL     1      13.169  -6.897  -3.084  1.00  0.00     0.168 CG0
ATOM     63  C   UNL     1      13.166  -8.269  -2.421  1.00  0.00     0.041 C 
ATOM     64  G   UNL     1      12.760  -7.006  -4.567  1.00  0.00     0.000 G0
ENDBRANCH  60  62
ENDBRANCH  56  58
ENDBRANCH  54  56
ENDBRANCH  52  54
ENDBRANCH  51  52
ENDBRANCH  50  51
ENDBRANCH  49  50
BRANCH  49  65
ATOM     65  C   UNL     1      14.686  -0.349   2.654  1.00  0.00     0.326 C 
ATOM     66  O   UNL     1      13.514  -0.552   2.371  1.00  0.00    -0.250 OA
BRANCH  65  67
ATOM     67  O   UNL     1      14.994   0.428   3.715  1.00  0.00    -0.480 OA
ATOM     68  H   UNL     1      14.159   0.910   3.900  1.00  0.00     0.296 HD
ENDBRANCH  65  67
ENDBRANCH  49  65
ENDBRANCH  47  49
ENDBRANCH  43  45
ENDBRANCH   1  43
BRANCH   1  69
ATOM     69  C   UNL     1      16.553   2.213  -2.487  1.00  0.00    -0.001 C 
ATOM     70  C   UNL     1      15.910   3.088  -3.281  1.00  0.00     0.001 C 
BRANCH  70  71
ATOM     71  C   UNL     1      15.990   3.174  -4.741  1.00  0.00    -0.055 C 
ATOM     72  C   UNL     1      16.300   4.371  -5.283  1.00  0.00    -0.018 C 
ATOM     73  C   UNL     1      15.729   1.920  -5.533  1.00  0.00     0.044 C 
BRANCH  72  74
ATOM     74  C   UNL     1      16.454   4.754  -6.748  1.00  0.00     0.038 C 
ATOM     75  C   UNL     1      17.930   4.558  -7.113  1.00  0.00     0.015 C 
BRANCH  74  76
ATOM     76  C   UNL     1      15.918   6.202  -6.946  1.00  0.00     0.128 C 
BRANCH  76  77
ATOM     77  O   UNL     1      15.316   6.330  -8.245  1.00  0.00    -0.381 OA
ATOM     78  C   UNL     1      13.936   6.667  -8.205  1.00  0.00     0.195 C 
ENDBRANCH  76  77
BRANCH  76  79
ATOM     79  C   UNL     1      14.991   6.692  -5.805  1.00  0.00     0.068 C 
BRANCH  79  80
ATOM     80  C   UNL     1      15.581   7.604  -4.757  1.00  0.00    -0.045 A 
ATOM     81  C   UNL     1      16.942   7.937  -4.773  1.00  0.00     0.004 A 
ATOM     82  C   UNL     1      14.775   8.112  -3.726  1.00  0.00     0.004 A 
ATOM     83  C   UNL     1      17.483   8.770  -3.791  1.00  0.00     0.000 A 
ATOM     84  C   UNL     1      15.317   8.944  -2.745  1.00  0.00     0.000 A 
ATOM     85  C   UNL     1      16.670   9.274  -2.778  1.00  0.00     0.000 A 
ENDBRANCH  79  80
ENDBRANCH  76  79
ENDBRANCH  74  76
ENDBRANCH  72  74
ENDBRANCH  70  71
ENDBRANCH   1  69
TORSDOF 17
ENDMDL
MODEL 10
REMARK VINA RESULT:    -5.138     20.615     24.642
REMARK INTER + INTRA:         -21.869
REMARK INTER:                 -13.776
REMARK INTRA:                  -8.093
REMARK UNBOUND:                -6.517
REMARK SMILES C=C1C(=O)N[C@H](C)C(=O)N[C@@H](CC(C)C)C(=O)N[C@@H](C(=O)O)[C@H](C)C(=O)N[C@@H](CCCN=C(N)N)C(=O)N[C@@H](/C=C/C(C)=C/[C@H](C)[C@H](Cc2ccccc2)OC)[C@H](C)C(=O)N[C@@H](C(=O)O)CCC(=O)N1C
REMARK SMILES IDX 39 1 38 2 37 3 36 4 28 6 27 7 25 8 26 9 23 11 24 12 19 13
REMARK SMILES IDX 18 14 16 15 17 16 11 18 10 19 8 20 9 21 12 24 13 25 14 26
REMARK SMILES IDX 15 27 20 28 21 29 22 30 29 32 30 33 31 34 32 35 33 36 34 37
REMARK SMILES IDX 35 38 57 43 58 44 59 45 60 46 61 47 62 49 66 50 67 51 68 52
REMARK SMILES IDX 69 53 70 54 71 55 2 56 1 57 3 58 4 59 5 60 6 62 7 63 63 65
REMARK SMILES IDX 64 66 65 67 40 69 41 70 42 71 44 72 43 73 45 74 46 75 47 76
REMARK SMILES IDX 55 77 56 78 48 79 49 80 50 81 54 82 51 83 53 84 52 85
REMARK H PARENT 38 5 27 10 18 17 10 22 22 31 34 39 34 40 35 41 35 42 61 48
REMARK H PARENT 5 61 65 68
REMARK Flexibility Score:  369.900
ROOT
ATOM      1  C   UNL     1      -0.489 -12.356   3.439  1.00  0.00     0.117 C 
ENDROOT
BRANCH   1   2
ATOM      2  N   UNL     1      -1.369 -12.541   2.285  1.00  0.00    -0.347 N 
ATOM      3  O   UNL     1      -1.257 -14.831   2.170  1.00  0.00    -0.273 OA
ATOM      4  C   UNL     1      -1.757 -13.774   1.798  1.00  0.00     0.243 C 
ATOM      5  H   UNL     1      -1.768 -11.732   1.833  1.00  0.00     0.164 HD
BRANCH   4   6
ATOM      6  C   UNL     1      -2.762 -13.692   0.622  1.00  0.00     0.171 C 
BRANCH   6   7
ATOM      7  N   UNL     1      -3.364 -12.350   0.552  1.00  0.00    -0.344 N 
ATOM      8  C   UNL     1      -4.732 -12.195   0.506  1.00  0.00     0.226 C 
ATOM      9  O   UNL     1      -5.504 -13.146   0.497  1.00  0.00    -0.275 OA
ATOM     10  H   UNL     1      -2.756 -11.543   0.490  1.00  0.00     0.164 HD
BRANCH   8  11
ATOM     11  C   UNL     1      -5.197 -10.750   0.492  1.00  0.00     0.109 C 
ATOM     12  C   UNL     1      -6.383 -10.588  -0.459  1.00  0.00     0.021 C 
BRANCH  11  13
ATOM     13  C   UNL     1      -5.454 -10.270   1.935  1.00  0.00     0.204 C 
BRANCH  13  14
ATOM     14  N   UNL     1      -6.238 -11.239   2.707  1.00  0.00    -0.340 N 
ATOM     15  C   UNL     1      -7.554 -11.028   3.056  1.00  0.00     0.243 C 
ATOM     16  O   UNL     1      -8.183 -10.036   2.691  1.00  0.00    -0.273 OA
ATOM     17  H   UNL     1      -5.738 -12.005   3.166  1.00  0.00     0.164 HD
BRANCH  15  18
ATOM     18  C   UNL     1      -8.110 -12.084   4.042  1.00  0.00     0.171 C 
BRANCH  18  19
ATOM     19  N   UNL     1      -9.109 -11.405   4.864  1.00  0.00    -0.343 N 
ATOM     20  C   UNL     1      -9.110 -11.507   6.242  1.00  0.00     0.242 CG0
ATOM     21  O   UNL     1      -8.356 -12.277   6.831  1.00  0.00    -0.273 OA
ATOM     22  H   UNL     1      -9.827 -10.847   4.415  1.00  0.00     0.164 HD
ATOM     23  G   UNL     1     -10.191 -10.657   6.942  1.00  0.00     0.000 G0
ENDBRANCH  18  19
BRANCH  18  24
ATOM     24  C   UNL     1      -8.719 -13.268   3.281  1.00  0.00     0.038 C 
BRANCH  24  25
ATOM     25  C   UNL     1      -7.841 -14.537   3.253  1.00  0.00    -0.015 C 
ATOM     26  C   UNL     1      -8.658 -15.819   3.414  1.00  0.00     0.007 C 
ATOM     27  C   UNL     1      -6.785 -14.457   4.359  1.00  0.00     0.007 C 
ENDBRANCH  24  25
ENDBRANCH  18  24
ENDBRANCH  15  18
ENDBRANCH  13  14
BRANCH  13  28
ATOM     28  C   UNL     1      -4.166 -10.001   2.719  1.00  0.00     0.327 C 
ATOM     29  O   UNL     1      -3.571 -10.799   3.428  1.00  0.00    -0.250 OA
BRANCH  28  30
ATOM     30  O   UNL     1      -3.769  -8.714   2.659  1.00  0.00    -0.480 OA
ATOM     31  H   UNL     1      -2.993  -8.672   3.255  1.00  0.00     0.296 HD
ENDBRANCH  28  30
ENDBRANCH  13  28
ENDBRANCH  11  13
ENDBRANCH   8  11
ENDBRANCH   6   7
BRANCH   6  32
ATOM     32  C   UNL     1      -2.038 -14.035  -0.685  1.00  0.00     0.037 C 
BRANCH  32  33
ATOM     33  C   UNL     1      -1.369 -12.807  -1.317  1.00  0.00     0.026 C 
BRANCH  33  34
ATOM     34  C   UNL     1      -0.662 -13.137  -2.632  1.00  0.00     0.146 C 
BRANCH  34  35
ATOM     35  N   UNL     1      -0.074 -11.918  -3.168  1.00  0.00    -0.254 NA
ATOM     36  C   UNL     1       1.176 -11.706  -2.983  1.00  0.00     0.185 C 
ATOM     37  N   UNL     1       1.730 -10.588  -3.478  1.00  0.00    -0.370 N 
ATOM     38  N   UNL     1       2.076 -12.468  -2.337  1.00  0.00    -0.370 N 
ATOM     39  H   UNL     1       1.117  -9.965  -3.988  1.00  0.00     0.159 HD
ATOM     40  H   UNL     1       2.722 -10.433  -3.527  1.00  0.00     0.159 HD
ATOM     41  H   UNL     1       3.002 -12.126  -2.138  1.00  0.00     0.159 HD
ATOM     42  H   UNL     1       1.796 -13.332  -1.900  1.00  0.00     0.159 HD
ENDBRANCH  34  35
ENDBRANCH  33  34
ENDBRANCH  32  33
ENDBRANCH   6  32
ENDBRANCH   4   6
ENDBRANCH   1   2
BRANCH   1  43
ATOM     43  C   UNL     1       0.983 -12.557   2.976  1.00  0.00     0.102 C 
ATOM     44  C   UNL     1       2.020 -12.108   4.020  1.00  0.00     0.020 C 
BRANCH  43  45
ATOM     45  C   UNL     1       1.208 -11.964   1.582  1.00  0.00     0.225 C 
ATOM     46  O   UNL     1       1.488 -12.645   0.600  1.00  0.00    -0.275 OA
ATOM     47  N   UNL     1       1.168 -10.590   1.510  1.00  0.00    -0.342 N 
ATOM     48  H   UNL     1       0.791 -10.059   2.282  1.00  0.00     0.164 HD
BRANCH  47  49
ATOM     49  C   UNL     1       1.330  -9.885   0.235  1.00  0.00     0.192 C 
BRANCH  49  50
ATOM     50  C   UNL     1       2.309  -8.721   0.411  1.00  0.00     0.047 C 
BRANCH  50  51
ATOM     51  C   UNL     1       3.501  -9.093   1.303  1.00  0.00     0.103 C 
BRANCH  51  52
ATOM     52  C   UNL     1       4.688  -8.155   1.095  1.00  0.00     0.226 C 
ATOM     53  O   UNL     1       4.492  -6.998   0.717  1.00  0.00    -0.275 OA
BRANCH  52  54
ATOM     54  N   UNL     1       5.956  -8.665   1.428  1.00  0.00    -0.311 N 
ATOM     55  C   UNL     1       6.097  -9.970   2.088  1.00  0.00     0.153 C 
BRANCH  54  56
ATOM     56  C   UNL     1       7.132  -7.952   1.139  1.00  0.00     0.102 C 
ATOM     57  C   UNL     1       7.740  -7.099   1.979  1.00  0.00     0.043 C 
BRANCH  56  58
ATOM     58  C   UNL     1       7.847  -8.139  -0.179  1.00  0.00     0.268 C 
ATOM     59  O   UNL     1       7.531  -8.992  -0.997  1.00  0.00    -0.268 OA
ATOM     60  N   UNL     1       8.841  -7.213  -0.390  1.00  0.00    -0.339 N 
ATOM     61  H   UNL     1       9.048  -6.545   0.343  1.00  0.00     0.164 HD
BRANCH  60  62
ATOM     62  C   UNL     1       9.617  -7.173  -1.628  1.00  0.00     0.168 CG0
ATOM     63  C   UNL     1      10.938  -7.916  -1.470  1.00  0.00     0.041 C 
ATOM     64  G   UNL     1       9.863  -5.706  -2.037  1.00  0.00     0.000 G0
ENDBRANCH  60  62
ENDBRANCH  56  58
ENDBRANCH  54  56
ENDBRANCH  52  54
ENDBRANCH  51  52
ENDBRANCH  50  51
ENDBRANCH  49  50
BRANCH  49  65
ATOM     65  C   UNL     1      -0.010  -9.348  -0.290  1.00  0.00     0.326 C 
ATOM     66  O   UNL     1      -1.025  -9.198   0.375  1.00  0.00    -0.250 OA
BRANCH  65  67
ATOM     67  O   UNL     1      -0.033  -9.087  -1.616  1.00  0.00    -0.480 OA
ATOM     68  H   UNL     1       0.706  -8.454  -1.740  1.00  0.00     0.296 HD
ENDBRANCH  65  67
ENDBRANCH  49  65
ENDBRANCH  47  49
ENDBRANCH  43  45
ENDBRANCH   1  43
BRANCH   1  69
ATOM     69  C   UNL     1      -1.039 -13.244   4.540  1.00  0.00    -0.001 C 
ATOM     70  C   UNL     1      -1.702 -12.860   5.645  1.00  0.00     0.001 C 
BRANCH  70  71
ATOM     71  C   UNL     1      -2.248 -13.729   6.689  1.00  0.00    -0.055 C 
ATOM     72  C   UNL     1      -3.517 -14.166   6.543  1.00  0.00    -0.018 C 
ATOM     73  C   UNL     1      -1.353 -14.080   7.849  1.00  0.00     0.044 C 
BRANCH  72  74
ATOM     74  C   UNL     1      -4.335 -15.070   7.454  1.00  0.00     0.038 C 
ATOM     75  C   UNL     1      -4.628 -16.356   6.671  1.00  0.00     0.015 C 
BRANCH  74  76
ATOM     76  C   UNL     1      -5.598 -14.292   7.928  1.00  0.00     0.128 C 
BRANCH  76  77
ATOM     77  O   UNL     1      -6.748 -15.154   7.891  1.00  0.00    -0.381 OA
ATOM     78  C   UNL     1      -7.583 -15.042   9.036  1.00  0.00     0.195 C 
ENDBRANCH  76  77
BRANCH  76  79
ATOM     79  C   UNL     1      -5.425 -13.582   9.294  1.00  0.00     0.068 C 
BRANCH  79  80
ATOM     80  C   UNL     1      -5.246 -12.083   9.294  1.00  0.00    -0.045 A 
ATOM     81  C   UNL     1      -6.345 -11.225   9.432  1.00  0.00     0.004 A 
ATOM     82  C   UNL     1      -3.971 -11.523   9.128  1.00  0.00     0.004 A 
ATOM     83  C   UNL     1      -6.174  -9.839   9.417  1.00  0.00     0.000 A 
ATOM     84  C   UNL     1      -3.800 -10.136   9.112  1.00  0.00     0.000 A 
ATOM     85  C   UNL     1      -4.901  -9.296   9.259  1.00  0.00     0.000 A 
ENDBRANCH  79  80
ENDBRANCH  76  79
ENDBRANCH  74  76
ENDBRANCH  72  74
ENDBRANCH  70  71
ENDBRANCH   1  69
TORSDOF 17
ENDMDL
