MODEL 1
REMARK VINA RESULT:    -6.647      0.000      0.000
REMARK INTER + INTRA:         -18.681
REMARK INTER:                 -13.447
REMARK INTRA:                  -5.234
REMARK UNBOUND:                -5.234
REMARK SMILES CC[C@@H](C)[C@@H](NC(=O)[C@@H](O)Cc1ccc(O)c(Cl)c1)C(=O)N1[C@H](C(=O)NCCCCN=C(N)N)C[C@H]2CC[C@H](OS(=O)(=O)O)C[C@@H]21
REMARK SMILES IDX 22 1 36 2 46 3 35 4 23 5 45 6 37 7 39 8 38 9 20 10 21 11
REMARK SMILES IDX 5 12 6 13 7 14 8 15 9 17 11 18 12 19 17 20 19 21 15 22 14 23
REMARK SMILES IDX 13 24 18 25 16 26 10 28 3 30 4 31 2 32 1 33 24 34 25 35
REMARK SMILES IDX 26 36 27 38 28 39 29 40 30 41 31 42 32 43 33 44 34 45 40 50
REMARK SMILES IDX 41 51 42 52 43 53 44 54
REMARK H PARENT 6 16 16 27 10 29 26 37 33 46 33 47 34 48 34 49 44 55
ROOT
ATOM      1  N   UNL     1       4.584   2.999  11.107  1.00  0.00    -0.326 N 
ATOM      2  C   UNL     1       6.805   3.564  10.564  1.00  0.00     0.014 C 
ATOM      3  C   UNL     1       5.817   2.394  10.593  1.00  0.00     0.091 C 
ATOM      4  C   UNL     1       6.392   4.381  11.779  1.00  0.00     0.041 C 
ATOM      5  C   UNL     1       4.862   4.367  11.609  1.00  0.00     0.175 C 
ATOM      6  C   UNL     1       5.786   1.753   9.206  1.00  0.00     0.059 C 
ATOM      7  C   UNL     1       8.232   3.065  10.453  1.00  0.00     0.008 C 
ATOM      8  C   UNL     1       7.132   1.834   8.455  1.00  0.00     0.143 C 
ATOM      9  C   UNL     1       8.331   1.922   9.421  1.00  0.00     0.034 C 
ENDROOT
BRANCH   1  10
ATOM     10  C   UNL     1       3.353   2.421  11.367  1.00  0.00     0.246 C 
ATOM     11  O   UNL     1       2.508   2.377  10.466  1.00  0.00    -0.272 OA
BRANCH  10  12
ATOM     12  C   UNL     1       3.076   1.805  12.768  1.00  0.00     0.174 C 
BRANCH  12  13
ATOM     13  N   UNL     1       4.336   1.607  13.484  1.00  0.00    -0.342 N 
ATOM     14  C   UNL     1       4.740   2.327  14.586  1.00  0.00     0.249 C 
ATOM     15  O   UNL     1       4.067   3.205  15.111  1.00  0.00    -0.272 OA
ATOM     16  H   UNL     1       5.062   1.025  13.074  1.00  0.00     0.164 HD
BRANCH  14  17
ATOM     17  C   UNL     1       6.128   1.894  15.104  1.00  0.00     0.207 C 
BRANCH  17  18
ATOM     18  C   UNL     1       7.022   1.456  13.940  1.00  0.00     0.077 C 
BRANCH  18  19
ATOM     19  C   UNL     1       8.377   2.127  13.988  1.00  0.00    -0.043 A 
ATOM     20  C   UNL     1      10.768   2.068  13.584  1.00  0.00     0.083 A 
ATOM     21  C   UNL     1       9.512   1.467  13.492  1.00  0.00     0.028 A 
ATOM     22  C   UNL     1      10.898   3.327  14.171  1.00  0.00     0.134 A 
ATOM     23  C   UNL     1       9.782   3.991  14.666  1.00  0.00     0.048 A 
ATOM     24  C   UNL     1       8.524   3.392  14.578  1.00  0.00     0.008 A 
ATOM     25  Cl  UNL     1      12.150   1.241  12.968  1.00  0.00    -0.080 Cl
BRANCH  22  26
ATOM     26  O   UNL     1      12.110   3.951  14.293  1.00  0.00    -0.506 OA
ATOM     27  H   UNL     1      11.997   4.854  13.941  1.00  0.00     0.293 HD
ENDBRANCH  22  26
ENDBRANCH  18  19
ENDBRANCH  17  18
BRANCH  17  28
ATOM     28  O   UNL     1       6.014   0.817  16.048  1.00  0.00    -0.383 OA
ATOM     29  H   UNL     1       5.899   1.239  16.930  1.00  0.00     0.211 HD
ENDBRANCH  17  28
ENDBRANCH  14  17
ENDBRANCH  12  13
BRANCH  12  30
ATOM     30  C   UNL     1       2.226   0.508  12.695  1.00  0.00     0.018 C 
ATOM     31  C   UNL     1       1.863   0.013  14.104  1.00  0.00     0.010 C 
BRANCH  30  32
ATOM     32  C   UNL     1       2.897  -0.631  11.888  1.00  0.00     0.002 C 
ATOM     33  C   UNL     1       2.771  -2.022  12.496  1.00  0.00     0.004 C 
ENDBRANCH  30  32
ENDBRANCH  12  30
ENDBRANCH  10  12
ENDBRANCH   1  10
BRANCH   5  34
ATOM     34  C   UNL     1       4.390   5.435  10.586  1.00  0.00     0.242 C 
ATOM     35  O   UNL     1       3.870   5.133   9.512  1.00  0.00    -0.273 OA
ATOM     36  N   UNL     1       4.646   6.740  10.942  1.00  0.00    -0.354 N 
ATOM     37  H   UNL     1       5.188   6.922  11.787  1.00  0.00     0.163 HD
BRANCH  36  38
ATOM     38  C   UNL     1       4.088   7.863  10.216  1.00  0.00     0.116 C 
BRANCH  38  39
ATOM     39  C   UNL     1       5.210   8.669   9.566  1.00  0.00     0.023 C 
BRANCH  39  40
ATOM     40  C   UNL     1       4.843   9.153   8.167  1.00  0.00     0.026 C 
BRANCH  40  41
ATOM     41  C   UNL     1       5.715   8.472   7.112  1.00  0.00     0.146 C 
BRANCH  41  42
ATOM     42  N   UNL     1       5.079   7.239   6.668  1.00  0.00    -0.254 NA
ATOM     43  C   UNL     1       5.576   6.110   7.012  1.00  0.00     0.185 C 
ATOM     44  N   UNL     1       6.657   5.834   7.764  1.00  0.00    -0.370 N 
ATOM     45  N   UNL     1       4.977   4.985   6.589  1.00  0.00    -0.370 N 
ATOM     46  H   UNL     1       7.071   4.918   7.751  1.00  0.00     0.159 HD
ATOM     47  H   UNL     1       7.221   6.571   8.178  1.00  0.00     0.159 HD
ATOM     48  H   UNL     1       4.148   5.104   6.023  1.00  0.00     0.159 HD
ATOM     49  H   UNL     1       5.156   4.086   7.000  1.00  0.00     0.159 HD
ENDBRANCH  41  42
ENDBRANCH  40  41
ENDBRANCH  39  40
ENDBRANCH  38  39
ENDBRANCH  36  38
ENDBRANCH   5  34
BRANCH   8  50
ATOM     50  O   UNL     1       7.151   2.980   7.603  1.00  0.00    -0.245 OA
BRANCH  50  51
ATOM     51  S   UNL     1       8.339   3.145   6.505  1.00  0.00     0.397 S 
ATOM     52  O   UNL     1       8.693   1.826   6.029  1.00  0.00    -0.169 OA
ATOM     53  O   UNL     1       9.338   4.066   7.004  1.00  0.00    -0.169 OA
BRANCH  51  54
ATOM     54  O   UNL     1       7.572   3.859   5.285  1.00  0.00    -0.264 OA
ATOM     55  H   UNL     1       7.270   3.159   4.671  1.00  0.00     0.236 HD
ENDBRANCH  51  54
ENDBRANCH  50  51
ENDBRANCH   8  50
TORSDOF 19
ENDMDL
MODEL 2
REMARK VINA RESULT:    -6.584      2.907      5.476
REMARK INTER + INTRA:         -18.554
REMARK INTER:                 -14.855
REMARK INTRA:                  -3.699
REMARK UNBOUND:                -5.234
REMARK SMILES CC[C@@H](C)[C@@H](NC(=O)[C@@H](O)Cc1ccc(O)c(Cl)c1)C(=O)N1[C@H](C(=O)NCCCCN=C(N)N)C[C@H]2CC[C@H](OS(=O)(=O)O)C[C@@H]21
REMARK SMILES IDX 22 1 36 2 46 3 35 4 23 5 45 6 37 7 39 8 38 9 20 10 21 11
REMARK SMILES IDX 5 12 6 13 7 14 8 15 9 17 11 18 12 19 17 20 19 21 15 22 14 23
REMARK SMILES IDX 13 24 18 25 16 26 10 28 3 30 4 31 2 32 1 33 24 34 25 35
REMARK SMILES IDX 26 36 27 38 28 39 29 40 30 41 31 42 32 43 33 44 34 45 40 50
REMARK SMILES IDX 41 51 42 52 43 53 44 54
REMARK H PARENT 6 16 16 27 10 29 26 37 33 46 33 47 34 48 34 49 44 55
ROOT
ATOM      1  N   UNL     1       4.888   2.871  11.345  1.00  0.00    -0.326 N 
ATOM      2  C   UNL     1       7.052   3.463  10.630  1.00  0.00     0.014 C 
ATOM      3  C   UNL     1       6.082   2.282  10.732  1.00  0.00     0.091 C 
ATOM      4  C   UNL     1       6.728   4.270  11.878  1.00  0.00     0.041 C 
ATOM      5  C   UNL     1       5.190   4.241  11.830  1.00  0.00     0.175 C 
ATOM      6  C   UNL     1       5.948   1.646   9.350  1.00  0.00     0.059 C 
ATOM      7  C   UNL     1       8.471   2.981  10.404  1.00  0.00     0.008 C 
ATOM      8  C   UNL     1       7.229   1.744   8.494  1.00  0.00     0.143 C 
ATOM      9  C   UNL     1       8.500   1.843   9.362  1.00  0.00     0.034 C 
ENDROOT
BRANCH   1  10
ATOM     10  C   UNL     1       3.688   2.279  11.699  1.00  0.00     0.246 C 
ATOM     11  O   UNL     1       2.702   2.438  10.972  1.00  0.00    -0.272 OA
BRANCH  10  12
ATOM     12  C   UNL     1       3.617   1.394  12.977  1.00  0.00     0.174 C 
BRANCH  12  13
ATOM     13  N   UNL     1       2.620   0.339  12.798  1.00  0.00    -0.342 N 
ATOM     14  C   UNL     1       2.843  -1.003  13.012  1.00  0.00     0.249 C 
ATOM     15  O   UNL     1       3.907  -1.463  13.407  1.00  0.00    -0.272 OA
ATOM     16  H   UNL     1       1.744   0.548  12.327  1.00  0.00     0.164 HD
BRANCH  14  17
ATOM     17  C   UNL     1       1.599  -1.868  12.719  1.00  0.00     0.207 C 
BRANCH  17  18
ATOM     18  C   UNL     1       0.494  -1.578  13.740  1.00  0.00     0.077 C 
BRANCH  18  19
ATOM     19  C   UNL     1       0.563  -2.516  14.924  1.00  0.00    -0.043 A 
ATOM     20  C   UNL     1       1.585  -3.184  17.020  1.00  0.00     0.083 A 
ATOM     21  C   UNL     1       1.490  -2.290  15.953  1.00  0.00     0.028 A 
ATOM     22  C   UNL     1       0.759  -4.307  17.065  1.00  0.00     0.134 A 
ATOM     23  C   UNL     1      -0.164  -4.543  16.053  1.00  0.00     0.048 A 
ATOM     24  C   UNL     1      -0.261  -3.651  14.983  1.00  0.00     0.008 A 
ATOM     25  Cl  UNL     1       2.731  -2.889  18.275  1.00  0.00    -0.080 Cl
BRANCH  22  26
ATOM     26  O   UNL     1       0.823  -5.218  18.085  1.00  0.00    -0.506 OA
ATOM     27  H   UNL     1       0.554  -4.749  18.897  1.00  0.00     0.293 HD
ENDBRANCH  22  26
ENDBRANCH  18  19
ENDBRANCH  17  18
BRANCH  17  28
ATOM     28  O   UNL     1       1.922  -3.267  12.751  1.00  0.00    -0.383 OA
ATOM     29  H   UNL     1       1.146  -3.716  13.156  1.00  0.00     0.211 HD
ENDBRANCH  17  28
ENDBRANCH  14  17
ENDBRANCH  12  13
BRANCH  12  30
ATOM     30  C   UNL     1       3.377   2.222  14.268  1.00  0.00     0.018 C 
ATOM     31  C   UNL     1       2.631   3.528  13.949  1.00  0.00     0.010 C 
BRANCH  30  32
ATOM     32  C   UNL     1       4.672   2.529  15.059  1.00  0.00     0.002 C 
ATOM     33  C   UNL     1       5.906   1.756  14.613  1.00  0.00     0.004 C 
ENDBRANCH  30  32
ENDBRANCH  12  30
ENDBRANCH  10  12
ENDBRANCH   1  10
BRANCH   5  34
ATOM     34  C   UNL     1       4.627   5.307  10.853  1.00  0.00     0.242 C 
ATOM     35  O   UNL     1       4.019   5.003   9.827  1.00  0.00    -0.273 OA
ATOM     36  N   UNL     1       4.905   6.613  11.188  1.00  0.00    -0.354 N 
ATOM     37  H   UNL     1       5.516   6.797  11.985  1.00  0.00     0.163 HD
BRANCH  36  38
ATOM     38  C   UNL     1       4.281   7.734  10.515  1.00  0.00     0.116 C 
BRANCH  38  39
ATOM     39  C   UNL     1       5.346   8.585   9.828  1.00  0.00     0.023 C 
BRANCH  39  40
ATOM     40  C   UNL     1       4.910   9.064   8.448  1.00  0.00     0.026 C 
BRANCH  40  41
ATOM     41  C   UNL     1       5.731   8.382   7.353  1.00  0.00     0.146 C 
BRANCH  41  42
ATOM     42  N   UNL     1       5.062   7.161   6.924  1.00  0.00    -0.254 NA
ATOM     43  C   UNL     1       5.568   6.023   7.221  1.00  0.00     0.185 C 
ATOM     44  N   UNL     1       6.687   5.726   7.908  1.00  0.00    -0.370 N 
ATOM     45  N   UNL     1       4.938   4.910   6.812  1.00  0.00    -0.370 N 
ATOM     46  H   UNL     1       7.092   4.807   7.855  1.00  0.00     0.159 HD
ATOM     47  H   UNL     1       7.278   6.452   8.302  1.00  0.00     0.159 HD
ATOM     48  H   UNL     1       4.080   5.044   6.294  1.00  0.00     0.159 HD
ATOM     49  H   UNL     1       5.132   4.002   7.197  1.00  0.00     0.159 HD
ENDBRANCH  41  42
ENDBRANCH  40  41
ENDBRANCH  39  40
ENDBRANCH  38  39
ENDBRANCH  36  38
ENDBRANCH   5  34
BRANCH   8  50
ATOM     50  O   UNL     1       7.168   2.894   7.649  1.00  0.00    -0.245 OA
BRANCH  50  51
ATOM     51  S   UNL     1       8.277   3.088   6.475  1.00  0.00     0.397 S 
ATOM     52  O   UNL     1       8.637   1.778   5.980  1.00  0.00    -0.169 OA
ATOM     53  O   UNL     1       9.280   4.039   6.906  1.00  0.00    -0.169 OA
BRANCH  51  54
ATOM     54  O   UNL     1       7.412   3.775   5.306  1.00  0.00    -0.264 OA
ATOM     55  H   UNL     1       7.164   4.673   5.607  1.00  0.00     0.236 HD
ENDBRANCH  51  54
ENDBRANCH  50  51
ENDBRANCH   8  50
TORSDOF 19
ENDMDL
MODEL 3
REMARK VINA RESULT:    -6.059      3.652      6.999
REMARK INTER + INTRA:         -17.492
REMARK INTER:                 -14.891
REMARK INTRA:                  -2.600
REMARK UNBOUND:                -5.234
REMARK SMILES CC[C@@H](C)[C@@H](NC(=O)[C@@H](O)Cc1ccc(O)c(Cl)c1)C(=O)N1[C@H](C(=O)NCCCCN=C(N)N)C[C@H]2CC[C@H](OS(=O)(=O)O)C[C@@H]21
REMARK SMILES IDX 22 1 36 2 46 3 35 4 23 5 45 6 37 7 39 8 38 9 20 10 21 11
REMARK SMILES IDX 5 12 6 13 7 14 8 15 9 17 11 18 12 19 17 20 19 21 15 22 14 23
REMARK SMILES IDX 13 24 18 25 16 26 10 28 3 30 4 31 2 32 1 33 24 34 25 35
REMARK SMILES IDX 26 36 27 38 28 39 29 40 30 41 31 42 32 43 33 44 34 45 40 50
REMARK SMILES IDX 41 51 42 52 43 53 44 54
REMARK H PARENT 6 16 16 27 10 29 26 37 33 46 33 47 34 48 34 49 44 55
ROOT
ATOM      1  N   UNL     1       6.033   3.706  10.538  1.00  0.00    -0.326 N 
ATOM      2  C   UNL     1       5.994   4.260   8.250  1.00  0.00     0.014 C 
ATOM      3  C   UNL     1       5.576   4.766   9.633  1.00  0.00     0.091 C 
ATOM      4  C   UNL     1       5.815   2.755   8.375  1.00  0.00     0.041 C 
ATOM      5  C   UNL     1       6.457   2.519   9.755  1.00  0.00     0.175 C 
ATOM      6  C   UNL     1       6.139   6.173   9.823  1.00  0.00     0.059 C 
ATOM      7  C   UNL     1       5.258   5.007   7.155  1.00  0.00     0.008 C 
ATOM      8  C   UNL     1       6.241   6.984   8.513  1.00  0.00     0.143 C 
ATOM      9  C   UNL     1       5.212   6.518   7.463  1.00  0.00     0.034 C 
ENDROOT
BRANCH   1  10
ATOM     10  C   UNL     1       5.916   3.601  11.913  1.00  0.00     0.246 C 
ATOM     11  O   UNL     1       5.597   4.600  12.567  1.00  0.00    -0.272 OA
BRANCH  10  12
ATOM     12  C   UNL     1       6.144   2.224  12.600  1.00  0.00     0.174 C 
BRANCH  12  13
ATOM     13  N   UNL     1       4.871   1.689  13.081  1.00  0.00    -0.342 N 
ATOM     14  C   UNL     1       4.027   0.881  12.352  1.00  0.00     0.249 C 
ATOM     15  O   UNL     1       4.266   0.495  11.215  1.00  0.00    -0.272 OA
ATOM     16  H   UNL     1       4.467   2.048  13.942  1.00  0.00     0.164 HD
BRANCH  14  17
ATOM     17  C   UNL     1       2.751   0.496  13.131  1.00  0.00     0.207 C 
BRANCH  17  18
ATOM     18  C   UNL     1       1.823  -0.350  12.254  1.00  0.00     0.077 C 
BRANCH  18  19
ATOM     19  C   UNL     1       1.456  -1.656  12.922  1.00  0.00    -0.043 A 
ATOM     20  C   UNL     1       0.003  -2.935  14.384  1.00  0.00     0.083 A 
ATOM     21  C   UNL     1       0.311  -1.742  13.729  1.00  0.00     0.028 A 
ATOM     22  C   UNL     1       0.833  -4.047  14.237  1.00  0.00     0.134 A 
ATOM     23  C   UNL     1       1.970  -3.976  13.441  1.00  0.00     0.048 A 
ATOM     24  C   UNL     1       2.283  -2.782  12.786  1.00  0.00     0.008 A 
ATOM     25  Cl  UNL     1      -1.408  -3.021  15.372  1.00  0.00    -0.080 Cl
BRANCH  22  26
ATOM     26  O   UNL     1       0.578  -5.235  14.867  1.00  0.00    -0.506 OA
ATOM     27  H   UNL     1       0.793  -5.941  14.231  1.00  0.00     0.293 HD
ENDBRANCH  22  26
ENDBRANCH  18  19
ENDBRANCH  17  18
BRANCH  17  28
ATOM     28  O   UNL     1       2.047   1.665  13.580  1.00  0.00    -0.383 OA
ATOM     29  H   UNL     1       1.187   1.666  13.101  1.00  0.00     0.211 HD
ENDBRANCH  17  28
ENDBRANCH  14  17
ENDBRANCH  12  13
BRANCH  12  30
ATOM     30  C   UNL     1       7.222   2.281  13.715  1.00  0.00     0.018 C 
ATOM     31  C   UNL     1       8.550   2.825  13.165  1.00  0.00     0.010 C 
BRANCH  30  32
ATOM     32  C   UNL     1       7.456   0.924  14.423  1.00  0.00     0.002 C 
ATOM     33  C   UNL     1       7.161   0.910  15.918  1.00  0.00     0.004 C 
ENDBRANCH  30  32
ENDBRANCH  12  30
ENDBRANCH  10  12
ENDBRANCH   1  10
BRANCH   5  34
ATOM     34  C   UNL     1       8.004   2.445   9.662  1.00  0.00     0.242 C 
ATOM     35  O   UNL     1       8.721   3.433   9.819  1.00  0.00    -0.273 OA
ATOM     36  N   UNL     1       8.513   1.207   9.337  1.00  0.00    -0.354 N 
ATOM     37  H   UNL     1       7.864   0.456   9.101  1.00  0.00     0.163 HD
BRANCH  36  38
ATOM     38  C   UNL     1       9.927   0.907   9.418  1.00  0.00     0.116 C 
BRANCH  38  39
ATOM     39  C   UNL     1      10.540   0.914   8.020  1.00  0.00     0.023 C 
BRANCH  39  40
ATOM     40  C   UNL     1      10.066  -0.261   7.171  1.00  0.00     0.026 C 
BRANCH  40  41
ATOM     41  C   UNL     1       8.914   0.159   6.258  1.00  0.00     0.146 C 
BRANCH  41  42
ATOM     42  N   UNL     1       8.826   1.612   6.214  1.00  0.00    -0.254 NA
ATOM     43  C   UNL     1       8.084   2.175   5.336  1.00  0.00     0.185 C 
ATOM     44  N   UNL     1       7.314   1.631   4.376  1.00  0.00    -0.370 N 
ATOM     45  N   UNL     1       8.019   3.517   5.309  1.00  0.00    -0.370 N 
ATOM     46  H   UNL     1       6.982   2.188   3.607  1.00  0.00     0.159 HD
ATOM     47  H   UNL     1       7.236   0.625   4.262  1.00  0.00     0.159 HD
ATOM     48  H   UNL     1       8.564   4.006   6.007  1.00  0.00     0.159 HD
ATOM     49  H   UNL     1       7.296   4.017   4.824  1.00  0.00     0.159 HD
ENDBRANCH  41  42
ENDBRANCH  40  41
ENDBRANCH  39  40
ENDBRANCH  38  39
ENDBRANCH  36  38
ENDBRANCH   5  34
BRANCH   8  50
ATOM     50  O   UNL     1       7.549   6.852   7.956  1.00  0.00    -0.245 OA
BRANCH  50  51
ATOM     51  S   UNL     1       8.226   8.117   7.189  1.00  0.00     0.397 S 
ATOM     52  O   UNL     1       7.395   9.277   7.423  1.00  0.00    -0.169 OA
ATOM     53  O   UNL     1       8.619   7.722   5.853  1.00  0.00    -0.169 OA
BRANCH  51  54
ATOM     54  O   UNL     1       9.563   8.355   8.050  1.00  0.00    -0.264 OA
ATOM     55  H   UNL     1      10.282   7.840   7.632  1.00  0.00     0.236 HD
ENDBRANCH  51  54
ENDBRANCH  50  51
ENDBRANCH   8  50
TORSDOF 19
ENDMDL
MODEL 4
REMARK VINA RESULT:    -5.759      3.674      7.740
REMARK INTER + INTRA:         -16.885
REMARK INTER:                 -13.862
REMARK INTRA:                  -3.023
REMARK UNBOUND:                -5.234
REMARK SMILES CC[C@@H](C)[C@@H](NC(=O)[C@@H](O)Cc1ccc(O)c(Cl)c1)C(=O)N1[C@H](C(=O)NCCCCN=C(N)N)C[C@H]2CC[C@H](OS(=O)(=O)O)C[C@@H]21
REMARK SMILES IDX 22 1 36 2 46 3 35 4 23 5 45 6 37 7 39 8 38 9 20 10 21 11
REMARK SMILES IDX 5 12 6 13 7 14 8 15 9 17 11 18 12 19 17 20 19 21 15 22 14 23
REMARK SMILES IDX 13 24 18 25 16 26 10 28 3 30 4 31 2 32 1 33 24 34 25 35
REMARK SMILES IDX 26 36 27 38 28 39 29 40 30 41 31 42 32 43 33 44 34 45 40 50
REMARK SMILES IDX 41 51 42 52 43 53 44 54
REMARK H PARENT 6 16 16 27 10 29 26 37 33 46 33 47 34 48 34 49 44 55
ROOT
ATOM      1  N   UNL     1       3.556   1.822  12.072  1.00  0.00    -0.326 N 
ATOM      2  C   UNL     1       3.339   0.608  14.078  1.00  0.00     0.014 C 
ATOM      3  C   UNL     1       2.772   0.732  12.661  1.00  0.00     0.091 C 
ATOM      4  C   UNL     1       3.677   2.048  14.431  1.00  0.00     0.041 C 
ATOM      5  C   UNL     1       4.357   2.497  13.124  1.00  0.00     0.175 C 
ATOM      6  C   UNL     1       2.828  -0.642  11.996  1.00  0.00     0.059 C 
ATOM      7  C   UNL     1       2.399  -0.176  14.972  1.00  0.00     0.008 C 
ATOM      8  C   UNL     1       2.656  -1.817  12.982  1.00  0.00     0.143 C 
ATOM      9  C   UNL     1       1.847  -1.412  14.230  1.00  0.00     0.034 C 
ENDROOT
BRANCH   1  10
ATOM     10  C   UNL     1       3.477   2.393  10.814  1.00  0.00     0.246 C 
ATOM     11  O   UNL     1       2.444   2.248  10.151  1.00  0.00    -0.272 OA
BRANCH  10  12
ATOM     12  C   UNL     1       4.668   3.239  10.279  1.00  0.00     0.174 C 
BRANCH  12  13
ATOM     13  N   UNL     1       4.264   4.638  10.140  1.00  0.00    -0.342 N 
ATOM     14  C   UNL     1       4.719   5.674  10.925  1.00  0.00     0.249 C 
ATOM     15  O   UNL     1       5.544   5.539  11.820  1.00  0.00    -0.272 OA
ATOM     16  H   UNL     1       3.473   4.877   9.548  1.00  0.00     0.164 HD
BRANCH  14  17
ATOM     17  C   UNL     1       4.092   7.031  10.543  1.00  0.00     0.207 C 
BRANCH  17  18
ATOM     18  C   UNL     1       5.146   8.142  10.594  1.00  0.00     0.077 C 
BRANCH  18  19
ATOM     19  C   UNL     1       5.645   8.507   9.215  1.00  0.00    -0.043 A 
ATOM     20  C   UNL     1       7.215   8.188   7.394  1.00  0.00     0.083 A 
ATOM     21  C   UNL     1       6.725   7.815   8.646  1.00  0.00     0.028 A 
ATOM     22  C   UNL     1       6.632   9.251   6.704  1.00  0.00     0.134 A 
ATOM     23  C   UNL     1       5.562   9.945   7.255  1.00  0.00     0.048 A 
ATOM     24  C   UNL     1       5.070   9.576   8.510  1.00  0.00     0.008 A 
ATOM     25  Cl  UNL     1       8.544   7.325   6.711  1.00  0.00    -0.080 Cl
BRANCH  22  26
ATOM     26  O   UNL     1       7.085   9.660   5.478  1.00  0.00    -0.506 OA
ATOM     27  H   UNL     1       7.583   8.912   5.100  1.00  0.00     0.293 HD
ENDBRANCH  22  26
ENDBRANCH  18  19
ENDBRANCH  17  18
BRANCH  17  28
ATOM     28  O   UNL     1       3.004   7.364  11.421  1.00  0.00    -0.383 OA
ATOM     29  H   UNL     1       2.916   8.344  11.384  1.00  0.00     0.211 HD
ENDBRANCH  17  28
ENDBRANCH  14  17
ENDBRANCH  12  13
BRANCH  12  30
ATOM     30  C   UNL     1       5.272   2.665   8.969  1.00  0.00     0.018 C 
ATOM     31  C   UNL     1       6.348   1.612   9.280  1.00  0.00     0.010 C 
BRANCH  30  32
ATOM     32  C   UNL     1       5.844   3.747   8.021  1.00  0.00     0.002 C 
ATOM     33  C   UNL     1       7.291   4.144   8.284  1.00  0.00     0.004 C 
ENDBRANCH  30  32
ENDBRANCH  12  30
ENDBRANCH  10  12
ENDBRANCH   1  10
BRANCH   5  34
ATOM     34  C   UNL     1       5.839   2.041  13.064  1.00  0.00     0.242 C 
ATOM     35  O   UNL     1       6.161   0.879  12.816  1.00  0.00    -0.273 OA
ATOM     36  N   UNL     1       6.764   3.017  13.360  1.00  0.00    -0.354 N 
ATOM     37  H   UNL     1       6.432   3.930  13.675  1.00  0.00     0.163 HD
BRANCH  36  38
ATOM     38  C   UNL     1       8.184   2.828  13.144  1.00  0.00     0.116 C 
BRANCH  38  39
ATOM     39  C   UNL     1       8.536   3.157  11.696  1.00  0.00     0.023 C 
BRANCH  39  40
ATOM     40  C   UNL     1       9.870   2.554  11.269  1.00  0.00     0.026 C 
BRANCH  40  41
ATOM     41  C   UNL     1       9.747   1.041  11.089  1.00  0.00     0.146 C 
BRANCH  41  42
ATOM     42  N   UNL     1       9.776   0.710   9.670  1.00  0.00    -0.254 NA
ATOM     43  C   UNL     1      10.859   0.280   9.142  1.00  0.00     0.185 C 
ATOM     44  N   UNL     1      12.065   0.059   9.697  1.00  0.00    -0.370 N 
ATOM     45  N   UNL     1      10.866  -0.015   7.831  1.00  0.00    -0.370 N 
ATOM     46  H   UNL     1      12.884  -0.044   9.122  1.00  0.00     0.159 HD
ATOM     47  H   UNL     1      12.233   0.218  10.686  1.00  0.00     0.159 HD
ATOM     48  H   UNL     1       9.993   0.114   7.338  1.00  0.00     0.159 HD
ATOM     49  H   UNL     1      11.585  -0.570   7.402  1.00  0.00     0.159 HD
ENDBRANCH  41  42
ENDBRANCH  40  41
ENDBRANCH  39  40
ENDBRANCH  38  39
ENDBRANCH  36  38
ENDBRANCH   5  34
BRANCH   8  50
ATOM     50  O   UNL     1       3.933  -2.294  13.405  1.00  0.00    -0.245 OA
BRANCH  50  51
ATOM     51  S   UNL     1       4.054  -3.760  14.100  1.00  0.00     0.397 S 
ATOM     52  O   UNL     1       5.420  -4.211  13.957  1.00  0.00    -0.169 OA
ATOM     53  O   UNL     1       2.935  -4.584  13.693  1.00  0.00    -0.169 OA
BRANCH  51  54
ATOM     54  O   UNL     1       3.869  -3.408  15.658  1.00  0.00    -0.264 OA
ATOM     55  H   UNL     1       2.914  -3.274  15.823  1.00  0.00     0.236 HD
ENDBRANCH  51  54
ENDBRANCH  50  51
ENDBRANCH   8  50
TORSDOF 19
ENDMDL
MODEL 5
REMARK VINA RESULT:    -5.723      3.916      7.327
REMARK INTER + INTRA:         -16.813
REMARK INTER:                 -14.947
REMARK INTRA:                  -1.866
REMARK UNBOUND:                -5.234
REMARK SMILES CC[C@@H](C)[C@@H](NC(=O)[C@@H](O)Cc1ccc(O)c(Cl)c1)C(=O)N1[C@H](C(=O)NCCCCN=C(N)N)C[C@H]2CC[C@H](OS(=O)(=O)O)C[C@@H]21
REMARK SMILES IDX 22 1 36 2 46 3 35 4 23 5 45 6 37 7 39 8 38 9 20 10 21 11
REMARK SMILES IDX 5 12 6 13 7 14 8 15 9 17 11 18 12 19 17 20 19 21 15 22 14 23
REMARK SMILES IDX 13 24 18 25 16 26 10 28 3 30 4 31 2 32 1 33 24 34 25 35
REMARK SMILES IDX 26 36 27 38 28 39 29 40 30 41 31 42 32 43 33 44 34 45 40 50
REMARK SMILES IDX 41 51 42 52 43 53 44 54
REMARK H PARENT 6 16 16 27 10 29 26 37 33 46 33 47 34 48 34 49 44 55
ROOT
ATOM      1  N   UNL     1       5.843   3.737  10.521  1.00  0.00    -0.326 N 
ATOM      2  C   UNL     1       5.917   4.303   8.237  1.00  0.00     0.014 C 
ATOM      3  C   UNL     1       5.340   4.746   9.585  1.00  0.00     0.091 C 
ATOM      4  C   UNL     1       5.901   2.786   8.348  1.00  0.00     0.041 C 
ATOM      5  C   UNL     1       6.458   2.612   9.774  1.00  0.00     0.175 C 
ATOM      6  C   UNL     1       5.723   6.206   9.819  1.00  0.00     0.059 C 
ATOM      7  C   UNL     1       5.187   4.972   7.089  1.00  0.00     0.008 C 
ATOM      8  C   UNL     1       5.832   7.035   8.520  1.00  0.00     0.143 C 
ATOM      9  C   UNL     1       4.947   6.466   7.393  1.00  0.00     0.034 C 
ENDROOT
BRANCH   1  10
ATOM     10  C   UNL     1       5.634   3.607  11.884  1.00  0.00     0.246 C 
ATOM     11  O   UNL     1       5.131   4.548  12.507  1.00  0.00    -0.272 OA
BRANCH  10  12
ATOM     12  C   UNL     1       5.994   2.268  12.591  1.00  0.00     0.174 C 
BRANCH  12  13
ATOM     13  N   UNL     1       4.776   1.612  13.066  1.00  0.00    -0.342 N 
ATOM     14  C   UNL     1       3.971   0.794  12.306  1.00  0.00     0.249 C 
ATOM     15  O   UNL     1       4.204   0.501  11.140  1.00  0.00    -0.272 OA
ATOM     16  H   UNL     1       4.373   1.884  13.959  1.00  0.00     0.164 HD
BRANCH  14  17
ATOM     17  C   UNL     1       2.749   0.267  13.088  1.00  0.00     0.207 C 
BRANCH  17  18
ATOM     18  C   UNL     1       1.986  -0.768  12.256  1.00  0.00     0.077 C 
BRANCH  18  19
ATOM     19  C   UNL     1       1.530  -1.939  13.096  1.00  0.00    -0.043 A 
ATOM     20  C   UNL     1       1.857  -4.205  13.899  1.00  0.00     0.083 A 
ATOM     21  C   UNL     1       2.305  -3.107  13.162  1.00  0.00     0.028 A 
ATOM     22  C   UNL     1       0.636  -4.143  14.571  1.00  0.00     0.134 A 
ATOM     23  C   UNL     1      -0.142  -2.993  14.514  1.00  0.00     0.048 A 
ATOM     24  C   UNL     1       0.303  -1.893  13.776  1.00  0.00     0.008 A 
ATOM     25  Cl  UNL     1       2.824  -5.631  13.968  1.00  0.00    -0.080 Cl
BRANCH  22  26
ATOM     26  O   UNL     1       0.151  -5.197  15.297  1.00  0.00    -0.506 OA
ATOM     27  H   UNL     1       0.913  -5.770  15.503  1.00  0.00     0.293 HD
ENDBRANCH  22  26
ENDBRANCH  18  19
ENDBRANCH  17  18
BRANCH  17  28
ATOM     28  O   UNL     1       1.862   1.340  13.445  1.00  0.00    -0.383 OA
ATOM     29  H   UNL     1       1.441   1.635  12.607  1.00  0.00     0.211 HD
ENDBRANCH  17  28
ENDBRANCH  14  17
ENDBRANCH  12  13
BRANCH  12  30
ATOM     30  C   UNL     1       7.048   2.449  13.716  1.00  0.00     0.018 C 
ATOM     31  C   UNL     1       6.367   2.559  15.090  1.00  0.00     0.010 C 
BRANCH  30  32
ATOM     32  C   UNL     1       7.994   3.653  13.494  1.00  0.00     0.002 C 
ATOM     33  C   UNL     1       8.487   4.337  14.762  1.00  0.00     0.004 C 
ENDBRANCH  30  32
ENDBRANCH  12  30
ENDBRANCH  10  12
ENDBRANCH   1  10
BRANCH   5  34
ATOM     34  C   UNL     1       8.006   2.715   9.800  1.00  0.00     0.242 C 
ATOM     35  O   UNL     1       8.592   3.747  10.125  1.00  0.00    -0.273 OA
ATOM     36  N   UNL     1       8.675   1.586   9.382  1.00  0.00    -0.354 N 
ATOM     37  H   UNL     1       8.135   0.804   9.010  1.00  0.00     0.163 HD
BRANCH  36  38
ATOM     38  C   UNL     1      10.106   1.430   9.545  1.00  0.00     0.116 C 
BRANCH  38  39
ATOM     39  C   UNL     1      10.458  -0.053   9.637  1.00  0.00     0.023 C 
BRANCH  39  40
ATOM     40  C   UNL     1      11.735  -0.397   8.878  1.00  0.00     0.026 C 
BRANCH  40  41
ATOM     41  C   UNL     1      11.432  -1.314   7.694  1.00  0.00     0.146 C 
BRANCH  41  42
ATOM     42  N   UNL     1      10.559  -0.628   6.750  1.00  0.00    -0.254 NA
ATOM     43  C   UNL     1       9.518  -1.224   6.303  1.00  0.00     0.185 C 
ATOM     44  N   UNL     1       9.046  -2.456   6.565  1.00  0.00    -0.370 N 
ATOM     45  N   UNL     1       8.728  -0.576   5.431  1.00  0.00    -0.370 N 
ATOM     46  H   UNL     1       8.361  -2.882   5.964  1.00  0.00     0.159 HD
ATOM     47  H   UNL     1       9.515  -3.079   7.216  1.00  0.00     0.159 HD
ATOM     48  H   UNL     1       9.008   0.365   5.186  1.00  0.00     0.159 HD
ATOM     49  H   UNL     1       7.791  -0.870   5.223  1.00  0.00     0.159 HD
ENDBRANCH  41  42
ENDBRANCH  40  41
ENDBRANCH  39  40
ENDBRANCH  38  39
ENDBRANCH  36  38
ENDBRANCH   5  34
BRANCH   8  50
ATOM     50  O   UNL     1       7.186   7.058   8.066  1.00  0.00    -0.245 OA
BRANCH  50  51
ATOM     51  S   UNL     1       7.814   8.441   7.485  1.00  0.00     0.397 S 
ATOM     52  O   UNL     1       8.982   8.766   8.272  1.00  0.00    -0.169 OA
ATOM     53  O   UNL     1       6.754   9.403   7.266  1.00  0.00    -0.169 OA
BRANCH  51  54
ATOM     54  O   UNL     1       8.369   7.979   6.048  1.00  0.00    -0.264 OA
ATOM     55  H   UNL     1       8.594   7.029   6.106  1.00  0.00     0.236 HD
ENDBRANCH  51  54
ENDBRANCH  50  51
ENDBRANCH   8  50
TORSDOF 19
ENDMDL
MODEL 6
REMARK VINA RESULT:    -5.489      3.863      6.875
REMARK INTER + INTRA:         -16.339
REMARK INTER:                 -11.718
REMARK INTRA:                  -4.621
REMARK UNBOUND:                -5.234
REMARK SMILES CC[C@@H](C)[C@@H](NC(=O)[C@@H](O)Cc1ccc(O)c(Cl)c1)C(=O)N1[C@H](C(=O)NCCCCN=C(N)N)C[C@H]2CC[C@H](OS(=O)(=O)O)C[C@@H]21
REMARK SMILES IDX 22 1 36 2 46 3 35 4 23 5 45 6 37 7 39 8 38 9 20 10 21 11
REMARK SMILES IDX 5 12 6 13 7 14 8 15 9 17 11 18 12 19 17 20 19 21 15 22 14 23
REMARK SMILES IDX 13 24 18 25 16 26 10 28 3 30 4 31 2 32 1 33 24 34 25 35
REMARK SMILES IDX 26 36 27 38 28 39 29 40 30 41 31 42 32 43 33 44 34 45 40 50
REMARK SMILES IDX 41 51 42 52 43 53 44 54
REMARK H PARENT 6 16 16 27 10 29 26 37 33 46 33 47 34 48 34 49 44 55
ROOT
ATOM      1  N   UNL     1       7.989   2.543  12.568  1.00  0.00    -0.326 N 
ATOM      2  C   UNL     1      10.196   1.762  12.320  1.00  0.00     0.014 C 
ATOM      3  C   UNL     1       9.020   1.802  13.300  1.00  0.00     0.091 C 
ATOM      4  C   UNL     1      10.086   3.104  11.611  1.00  0.00     0.041 C 
ATOM      5  C   UNL     1       8.571   3.147  11.343  1.00  0.00     0.175 C 
ATOM      6  C   UNL     1       8.709   0.372  13.739  1.00  0.00     0.059 C 
ATOM      7  C   UNL     1      11.484   1.402  13.033  1.00  0.00     0.008 C 
ATOM      8  C   UNL     1       9.950  -0.546  13.789  1.00  0.00     0.143 C 
ATOM      9  C   UNL     1      11.249   0.249  14.032  1.00  0.00     0.034 C 
ENDROOT
BRANCH   1  10
ATOM     10  C   UNL     1       6.712   2.907  12.958  1.00  0.00     0.246 C 
ATOM     11  O   UNL     1       6.573   3.709  13.888  1.00  0.00    -0.272 OA
BRANCH  10  12
ATOM     12  C   UNL     1       5.483   2.335  12.193  1.00  0.00     0.174 C 
BRANCH  12  13
ATOM     13  N   UNL     1       4.996   3.318  11.226  1.00  0.00    -0.342 N 
ATOM     14  C   UNL     1       4.627   3.036   9.930  1.00  0.00     0.249 C 
ATOM     15  O   UNL     1       4.639   1.911   9.447  1.00  0.00    -0.272 OA
ATOM     16  H   UNL     1       5.079   4.311  11.431  1.00  0.00     0.164 HD
BRANCH  14  17
ATOM     17  C   UNL     1       4.173   4.290   9.153  1.00  0.00     0.207 C 
BRANCH  17  18
ATOM     18  C   UNL     1       4.397   5.551   9.994  1.00  0.00     0.077 C 
BRANCH  18  19
ATOM     19  C   UNL     1       5.413   6.476   9.362  1.00  0.00    -0.043 A 
ATOM     20  C   UNL     1       7.248   6.842   7.818  1.00  0.00     0.083 A 
ATOM     21  C   UNL     1       6.279   6.000   8.365  1.00  0.00     0.028 A 
ATOM     22  C   UNL     1       7.359   8.160   8.264  1.00  0.00     0.134 A 
ATOM     23  C   UNL     1       6.508   8.644   9.250  1.00  0.00     0.048 A 
ATOM     24  C   UNL     1       5.538   7.803   9.801  1.00  0.00     0.008 A 
ATOM     25  Cl  UNL     1       8.303   6.240   6.595  1.00  0.00    -0.080 Cl
BRANCH  22  26
ATOM     26  O   UNL     1       8.300   9.020   7.766  1.00  0.00    -0.506 OA
ATOM     27  H   UNL     1       7.816   9.775   7.384  1.00  0.00     0.293 HD
ENDBRANCH  22  26
ENDBRANCH  18  19
ENDBRANCH  17  18
BRANCH  17  28
ATOM     28  O   UNL     1       2.786   4.200   8.790  1.00  0.00    -0.383 OA
ATOM     29  H   UNL     1       2.458   3.356   9.176  1.00  0.00     0.211 HD
ENDBRANCH  17  28
ENDBRANCH  14  17
ENDBRANCH  12  13
BRANCH  12  30
ATOM     30  C   UNL     1       4.363   1.835  13.144  1.00  0.00     0.018 C 
ATOM     31  C   UNL     1       4.139   0.324  12.977  1.00  0.00     0.010 C 
BRANCH  30  32
ATOM     32  C   UNL     1       3.024   2.593  12.980  1.00  0.00     0.002 C 
ATOM     33  C   UNL     1       2.727   3.632  14.054  1.00  0.00     0.004 C 
ENDBRANCH  30  32
ENDBRANCH  12  30
ENDBRANCH  10  12
ENDBRANCH   1  10
BRANCH   5  34
ATOM     34  C   UNL     1       8.188   2.320  10.087  1.00  0.00     0.242 C 
ATOM     35  O   UNL     1       7.993   1.106  10.133  1.00  0.00    -0.273 OA
ATOM     36  N   UNL     1       8.135   3.033   8.910  1.00  0.00    -0.354 N 
ATOM     37  H   UNL     1       8.424   4.012   8.916  1.00  0.00     0.163 HD
BRANCH  36  38
ATOM     38  C   UNL     1       7.589   2.474   7.691  1.00  0.00     0.116 C 
BRANCH  38  39
ATOM     39  C   UNL     1       8.724   2.075   6.750  1.00  0.00     0.023 C 
BRANCH  39  40
ATOM     40  C   UNL     1       8.733   0.580   6.450  1.00  0.00     0.026 C 
BRANCH  40  41
ATOM     41  C   UNL     1      10.008  -0.073   6.985  1.00  0.00     0.146 C 
BRANCH  41  42
ATOM     42  N   UNL     1       9.710  -1.417   7.460  1.00  0.00    -0.254 NA
ATOM     43  C   UNL     1       9.768  -1.673   8.713  1.00  0.00     0.185 C 
ATOM     44  N   UNL     1      10.074  -0.869   9.748  1.00  0.00    -0.370 N 
ATOM     45  N   UNL     1       9.494  -2.920   9.131  1.00  0.00    -0.370 N 
ATOM     46  H   UNL     1      10.318  -1.256  10.643  1.00  0.00     0.159 HD
ATOM     47  H   UNL     1      10.295   0.113   9.612  1.00  0.00     0.159 HD
ATOM     48  H   UNL     1       9.244  -3.588   8.414  1.00  0.00     0.159 HD
ATOM     49  H   UNL     1       9.287  -3.140  10.089  1.00  0.00     0.159 HD
ENDBRANCH  41  42
ENDBRANCH  40  41
ENDBRANCH  39  40
ENDBRANCH  38  39
ENDBRANCH  36  38
ENDBRANCH   5  34
BRANCH   8  50
ATOM     50  O   UNL     1      10.079  -1.263  12.562  1.00  0.00    -0.245 OA
BRANCH  50  51
ATOM     51  S   UNL     1      10.586  -2.809  12.584  1.00  0.00     0.397 S 
ATOM     52  O   UNL     1      10.895  -3.157  13.953  1.00  0.00    -0.169 OA
ATOM     53  O   UNL     1      11.536  -3.025  11.512  1.00  0.00    -0.169 OA
BRANCH  51  54
ATOM     54  O   UNL     1       9.239  -3.609  12.222  1.00  0.00    -0.264 OA
ATOM     55  H   UNL     1       8.504  -2.963  12.206  1.00  0.00     0.236 HD
ENDBRANCH  51  54
ENDBRANCH  50  51
ENDBRANCH   8  50
TORSDOF 19
ENDMDL
MODEL 7
REMARK VINA RESULT:    -5.480      3.533      6.302
REMARK INTER + INTRA:         -16.321
REMARK INTER:                 -13.920
REMARK INTRA:                  -2.400
REMARK UNBOUND:                -5.234
REMARK SMILES CC[C@@H](C)[C@@H](NC(=O)[C@@H](O)Cc1ccc(O)c(Cl)c1)C(=O)N1[C@H](C(=O)NCCCCN=C(N)N)C[C@H]2CC[C@H](OS(=O)(=O)O)C[C@@H]21
REMARK SMILES IDX 22 1 36 2 46 3 35 4 23 5 45 6 37 7 39 8 38 9 20 10 21 11
REMARK SMILES IDX 5 12 6 13 7 14 8 15 9 17 11 18 12 19 17 20 19 21 15 22 14 23
REMARK SMILES IDX 13 24 18 25 16 26 10 28 3 30 4 31 2 32 1 33 24 34 25 35
REMARK SMILES IDX 26 36 27 38 28 39 29 40 30 41 31 42 32 43 33 44 34 45 40 50
REMARK SMILES IDX 41 51 42 52 43 53 44 54
REMARK H PARENT 6 16 16 27 10 29 26 37 33 46 33 47 34 48 34 49 44 55
ROOT
ATOM      1  N   UNL     1       5.724   3.309  11.875  1.00  0.00    -0.326 N 
ATOM      2  C   UNL     1       5.352   3.793   9.602  1.00  0.00     0.014 C 
ATOM      3  C   UNL     1       5.017   4.266  11.019  1.00  0.00     0.091 C 
ATOM      4  C   UNL     1       5.417   2.281   9.759  1.00  0.00     0.041 C 
ATOM      5  C   UNL     1       6.233   2.178  11.061  1.00  0.00     0.175 C 
ATOM      6  C   UNL     1       5.379   5.745  11.133  1.00  0.00     0.059 C 
ATOM      7  C   UNL     1       4.397   4.394   8.589  1.00  0.00     0.008 C 
ATOM      8  C   UNL     1       5.214   6.529   9.813  1.00  0.00     0.143 C 
ATOM      9  C   UNL     1       4.159   5.890   8.887  1.00  0.00     0.034 C 
ENDROOT
BRANCH   1  10
ATOM     10  C   UNL     1       5.775   3.223  13.256  1.00  0.00     0.246 C 
ATOM     11  O   UNL     1       6.801   3.581  13.844  1.00  0.00    -0.272 OA
BRANCH  10  12
ATOM     12  C   UNL     1       4.528   2.719  14.039  1.00  0.00     0.174 C 
BRANCH  12  13
ATOM     13  N   UNL     1       4.615   1.273  14.240  1.00  0.00    -0.342 N 
ATOM     14  C   UNL     1       4.656   0.646  15.466  1.00  0.00     0.249 C 
ATOM     15  O   UNL     1       4.595   1.238  16.536  1.00  0.00    -0.272 OA
ATOM     16  H   UNL     1       4.831   0.667  13.452  1.00  0.00     0.164 HD
BRANCH  14  17
ATOM     17  C   UNL     1       4.767  -0.889  15.346  1.00  0.00     0.207 C 
BRANCH  17  18
ATOM     18  C   UNL     1       4.513  -1.333  13.902  1.00  0.00     0.077 C 
BRANCH  18  19
ATOM     19  C   UNL     1       3.267  -2.183  13.787  1.00  0.00    -0.043 A 
ATOM     20  C   UNL     1       0.849  -2.375  13.748  1.00  0.00     0.083 A 
ATOM     21  C   UNL     1       1.998  -1.584  13.805  1.00  0.00     0.028 A 
ATOM     22  C   UNL     1       0.961  -3.764  13.674  1.00  0.00     0.134 A 
ATOM     23  C   UNL     1       2.212  -4.369  13.655  1.00  0.00     0.048 A 
ATOM     24  C   UNL     1       3.363  -3.581  13.714  1.00  0.00     0.008 A 
ATOM     25  Cl  UNL     1      -0.702  -1.621  13.773  1.00  0.00    -0.080 Cl
BRANCH  22  26
ATOM     26  O   UNL     1      -0.136  -4.581  13.627  1.00  0.00    -0.506 OA
ATOM     27  H   UNL     1       0.022  -5.221  12.909  1.00  0.00     0.293 HD
ENDBRANCH  22  26
ENDBRANCH  18  19
ENDBRANCH  17  18
BRANCH  17  28
ATOM     28  O   UNL     1       3.832  -1.544  16.218  1.00  0.00    -0.383 OA
ATOM     29  H   UNL     1       3.336  -0.826  16.674  1.00  0.00     0.211 HD
ENDBRANCH  17  28
ENDBRANCH  14  17
ENDBRANCH  12  13
BRANCH  12  30
ATOM     30  C   UNL     1       3.190   3.145  13.376  1.00  0.00     0.018 C 
ATOM     31  C   UNL     1       2.406   4.099  14.290  1.00  0.00     0.010 C 
BRANCH  30  32
ATOM     32  C   UNL     1       2.295   1.952  12.960  1.00  0.00     0.002 C 
ATOM     33  C   UNL     1       2.324   1.603  11.477  1.00  0.00     0.004 C 
ENDBRANCH  30  32
ENDBRANCH  12  30
ENDBRANCH  10  12
ENDBRANCH   1  10
BRANCH   5  34
ATOM     34  C   UNL     1       7.755   2.333  10.796  1.00  0.00     0.242 C 
ATOM     35  O   UNL     1       8.583   1.535  11.234  1.00  0.00    -0.273 OA
ATOM     36  N   UNL     1       8.114   3.454  10.082  1.00  0.00    -0.354 N 
ATOM     37  H   UNL     1       7.395   4.140   9.850  1.00  0.00     0.163 HD
BRANCH  36  38
ATOM     38  C   UNL     1       9.453   3.644   9.563  1.00  0.00     0.116 C 
BRANCH  38  39
ATOM     39  C   UNL     1       9.487   3.292   8.078  1.00  0.00     0.023 C 
BRANCH  39  40
ATOM     40  C   UNL     1       9.857   1.833   7.833  1.00  0.00     0.026 C 
BRANCH  40  41
ATOM     41  C   UNL     1       8.680   1.070   7.224  1.00  0.00     0.146 C 
BRANCH  41  42
ATOM     42  N   UNL     1       8.696   1.216   5.774  1.00  0.00    -0.254 NA
ATOM     43  C   UNL     1       7.805   1.935   5.200  1.00  0.00     0.185 C 
ATOM     44  N   UNL     1       6.783   2.632   5.729  1.00  0.00    -0.370 N 
ATOM     45  N   UNL     1       7.835   2.053   3.863  1.00  0.00    -0.370 N 
ATOM     46  H   UNL     1       6.023   2.947   5.150  1.00  0.00     0.159 HD
ATOM     47  H   UNL     1       6.621   2.663   6.731  1.00  0.00     0.159 HD
ATOM     48  H   UNL     1       8.581   1.565   3.386  1.00  0.00     0.159 HD
ATOM     49  H   UNL     1       7.334   2.770   3.369  1.00  0.00     0.159 HD
ENDBRANCH  41  42
ENDBRANCH  40  41
ENDBRANCH  39  40
ENDBRANCH  38  39
ENDBRANCH  36  38
ENDBRANCH   5  34
BRANCH   8  50
ATOM     50  O   UNL     1       6.459   6.579   9.114  1.00  0.00    -0.245 OA
BRANCH  50  51
ATOM     51  S   UNL     1       6.675   7.681   7.937  1.00  0.00     0.397 S 
ATOM     52  O   UNL     1       5.924   8.865   8.291  1.00  0.00    -0.169 OA
ATOM     53  O   UNL     1       6.528   7.047   6.644  1.00  0.00    -0.169 OA
BRANCH  51  54
ATOM     54  O   UNL     1       8.223   8.073   8.125  1.00  0.00    -0.264 OA
ATOM     55  H   UNL     1       8.315   8.522   8.990  1.00  0.00     0.236 HD
ENDBRANCH  51  54
ENDBRANCH  50  51
ENDBRANCH   8  50
TORSDOF 19
ENDMDL
MODEL 8
REMARK VINA RESULT:    -5.425      3.332      6.883
REMARK INTER + INTRA:         -16.210
REMARK INTER:                 -12.674
REMARK INTRA:                  -3.537
REMARK UNBOUND:                -5.234
REMARK SMILES CC[C@@H](C)[C@@H](NC(=O)[C@@H](O)Cc1ccc(O)c(Cl)c1)C(=O)N1[C@H](C(=O)NCCCCN=C(N)N)C[C@H]2CC[C@H](OS(=O)(=O)O)C[C@@H]21
REMARK SMILES IDX 22 1 36 2 46 3 35 4 23 5 45 6 37 7 39 8 38 9 20 10 21 11
REMARK SMILES IDX 5 12 6 13 7 14 8 15 9 17 11 18 12 19 17 20 19 21 15 22 14 23
REMARK SMILES IDX 13 24 18 25 16 26 10 28 3 30 4 31 2 32 1 33 24 34 25 35
REMARK SMILES IDX 26 36 27 38 28 39 29 40 30 41 31 42 32 43 33 44 34 45 40 50
REMARK SMILES IDX 41 51 42 52 43 53 44 54
REMARK H PARENT 6 16 16 27 10 29 26 37 33 46 33 47 34 48 34 49 44 55
ROOT
ATOM      1  N   UNL     1       5.736   3.459  11.790  1.00  0.00    -0.326 N 
ATOM      2  C   UNL     1       5.314   4.001   9.538  1.00  0.00     0.014 C 
ATOM      3  C   UNL     1       5.000   4.430  10.974  1.00  0.00     0.091 C 
ATOM      4  C   UNL     1       5.400   2.487   9.652  1.00  0.00     0.041 C 
ATOM      5  C   UNL     1       6.243   2.358  10.934  1.00  0.00     0.175 C 
ATOM      6  C   UNL     1       5.347   5.910  11.123  1.00  0.00     0.059 C 
ATOM      7  C   UNL     1       4.332   4.618   8.562  1.00  0.00     0.008 C 
ATOM      8  C   UNL     1       5.146   6.728   9.828  1.00  0.00     0.143 C 
ATOM      9  C   UNL     1       4.081   6.102   8.906  1.00  0.00     0.034 C 
ENDROOT
BRANCH   1  10
ATOM     10  C   UNL     1       5.814   3.335  13.166  1.00  0.00     0.246 C 
ATOM     11  O   UNL     1       6.853   3.676  13.742  1.00  0.00    -0.272 OA
BRANCH  10  12
ATOM     12  C   UNL     1       4.583   2.811  13.961  1.00  0.00     0.174 C 
BRANCH  12  13
ATOM     13  N   UNL     1       4.735   1.382  14.231  1.00  0.00    -0.342 N 
ATOM     14  C   UNL     1       4.767   0.814  15.485  1.00  0.00     0.249 C 
ATOM     15  O   UNL     1       4.642   1.449  16.525  1.00  0.00    -0.272 OA
ATOM     16  H   UNL     1       5.006   0.753  13.479  1.00  0.00     0.164 HD
BRANCH  14  17
ATOM     17  C   UNL     1       4.957  -0.717  15.441  1.00  0.00     0.207 C 
BRANCH  17  18
ATOM     18  C   UNL     1       4.899  -1.222  13.995  1.00  0.00     0.077 C 
BRANCH  18  19
ATOM     19  C   UNL     1       3.739  -2.166  13.775  1.00  0.00    -0.043 A 
ATOM     20  C   UNL     1       2.829  -4.415  13.770  1.00  0.00     0.083 A 
ATOM     21  C   UNL     1       3.887  -3.540  14.021  1.00  0.00     0.028 A 
ATOM     22  C   UNL     1       1.621  -3.926  13.272  1.00  0.00     0.134 A 
ATOM     23  C   UNL     1       1.461  -2.567  13.025  1.00  0.00     0.048 A 
ATOM     24  C   UNL     1       2.518  -1.689  13.273  1.00  0.00     0.008 A 
ATOM     25  Cl  UNL     1       3.031  -6.100  14.077  1.00  0.00    -0.080 Cl
BRANCH  22  26
ATOM     26  O   UNL     1       0.560  -4.746  13.001  1.00  0.00    -0.506 OA
ATOM     27  H   UNL     1       0.773  -5.216  12.174  1.00  0.00     0.293 HD
ENDBRANCH  22  26
ENDBRANCH  18  19
ENDBRANCH  17  18
BRANCH  17  28
ATOM     28  O   UNL     1       3.952  -1.386  16.219  1.00  0.00    -0.383 OA
ATOM     29  H   UNL     1       4.254  -1.335  17.155  1.00  0.00     0.211 HD
ENDBRANCH  17  28
ENDBRANCH  14  17
ENDBRANCH  12  13
BRANCH  12  30
ATOM     30  C   UNL     1       3.235   3.142  13.265  1.00  0.00     0.018 C 
ATOM     31  C   UNL     1       2.379   4.066  14.145  1.00  0.00     0.010 C 
BRANCH  30  32
ATOM     32  C   UNL     1       2.421   1.889  12.860  1.00  0.00     0.002 C 
ATOM     33  C   UNL     1       2.359   1.609  11.364  1.00  0.00     0.004 C 
ENDBRANCH  30  32
ENDBRANCH  12  30
ENDBRANCH  10  12
ENDBRANCH   1  10
BRANCH   5  34
ATOM     34  C   UNL     1       7.757   2.539  10.644  1.00  0.00     0.242 C 
ATOM     35  O   UNL     1       8.171   3.043   9.601  1.00  0.00    -0.273 OA
ATOM     36  N   UNL     1       8.602   2.046  11.614  1.00  0.00    -0.354 N 
ATOM     37  H   UNL     1       8.201   1.532  12.399  1.00  0.00     0.163 HD
BRANCH  36  38
ATOM     38  C   UNL     1      10.024   2.319  11.611  1.00  0.00     0.116 C 
BRANCH  38  39
ATOM     39  C   UNL     1      10.596   2.100  13.009  1.00  0.00     0.023 C 
BRANCH  39  40
ATOM     40  C   UNL     1      10.798   3.407  13.768  1.00  0.00     0.026 C 
BRANCH  40  41
ATOM     41  C   UNL     1       9.985   3.414  15.062  1.00  0.00     0.146 C 
BRANCH  41  42
ATOM     42  N   UNL     1       9.661   2.047  15.447  1.00  0.00    -0.254 NA
ATOM     43  C   UNL     1       8.574   1.808  16.080  1.00  0.00     0.185 C 
ATOM     44  N   UNL     1       7.604   2.649  16.483  1.00  0.00    -0.370 N 
ATOM     45  N   UNL     1       8.296   0.541  16.430  1.00  0.00    -0.370 N 
ATOM     46  H   UNL     1       6.934   2.365  17.177  1.00  0.00     0.159 HD
ATOM     47  H   UNL     1       7.648   3.645  16.289  1.00  0.00     0.159 HD
ATOM     48  H   UNL     1       8.972  -0.158  16.156  1.00  0.00     0.159 HD
ATOM     49  H   UNL     1       7.377   0.243  16.707  1.00  0.00     0.159 HD
ENDBRANCH  41  42
ENDBRANCH  40  41
ENDBRANCH  39  40
ENDBRANCH  38  39
ENDBRANCH  36  38
ENDBRANCH   5  34
BRANCH   8  50
ATOM     50  O   UNL     1       6.376   6.814   9.108  1.00  0.00    -0.245 OA
BRANCH  50  51
ATOM     51  S   UNL     1       6.688   8.131   8.205  1.00  0.00     0.397 S 
ATOM     52  O   UNL     1       8.094   8.441   8.338  1.00  0.00    -0.169 OA
ATOM     53  O   UNL     1       5.665   9.130   8.434  1.00  0.00    -0.169 OA
BRANCH  51  54
ATOM     54  O   UNL     1       6.503   7.566   6.711  1.00  0.00    -0.264 OA
ATOM     55  H   UNL     1       7.054   6.761   6.627  1.00  0.00     0.236 HD
ENDBRANCH  51  54
ENDBRANCH  50  51
ENDBRANCH   8  50
TORSDOF 19
ENDMDL
MODEL 9
REMARK VINA RESULT:    -5.385      3.682      8.364
REMARK INTER + INTRA:         -16.129
REMARK INTER:                 -12.347
REMARK INTRA:                  -3.782
REMARK UNBOUND:                -5.234
REMARK SMILES CC[C@@H](C)[C@@H](NC(=O)[C@@H](O)Cc1ccc(O)c(Cl)c1)C(=O)N1[C@H](C(=O)NCCCCN=C(N)N)C[C@H]2CC[C@H](OS(=O)(=O)O)C[C@@H]21
REMARK SMILES IDX 22 1 36 2 46 3 35 4 23 5 45 6 37 7 39 8 38 9 20 10 21 11
REMARK SMILES IDX 5 12 6 13 7 14 8 15 9 17 11 18 12 19 17 20 19 21 15 22 14 23
REMARK SMILES IDX 13 24 18 25 16 26 10 28 3 30 4 31 2 32 1 33 24 34 25 35
REMARK SMILES IDX 26 36 27 38 28 39 29 40 30 41 31 42 32 43 33 44 34 45 40 50
REMARK SMILES IDX 41 51 42 52 43 53 44 54
REMARK H PARENT 6 16 16 27 10 29 26 37 33 46 33 47 34 48 34 49 44 55
ROOT
ATOM      1  N   UNL     1       8.550   1.490  10.371  1.00  0.00    -0.326 N 
ATOM      2  C   UNL     1       7.343   3.237  11.386  1.00  0.00     0.014 C 
ATOM      3  C   UNL     1       7.489   2.457  10.076  1.00  0.00     0.091 C 
ATOM      4  C   UNL     1       8.769   3.281  11.911  1.00  0.00     0.041 C 
ATOM      5  C   UNL     1       9.195   1.821  11.665  1.00  0.00     0.175 C 
ATOM      6  C   UNL     1       6.114   1.924   9.675  1.00  0.00     0.059 C 
ATOM      7  C   UNL     1       6.593   4.535  11.162  1.00  0.00     0.008 C 
ATOM      8  C   UNL     1       4.945   2.836  10.105  1.00  0.00     0.143 C 
ATOM      9  C   UNL     1       5.378   4.310  10.237  1.00  0.00     0.034 C 
ENDROOT
BRANCH   1  10
ATOM     10  C   UNL     1       9.125   0.528   9.557  1.00  0.00     0.246 C 
ATOM     11  O   UNL     1       8.892  -0.665   9.779  1.00  0.00    -0.272 OA
BRANCH  10  12
ATOM     12  C   UNL     1      10.016   0.969   8.359  1.00  0.00     0.174 C 
BRANCH  12  13
ATOM     13  N   UNL     1       9.204   1.674   7.368  1.00  0.00    -0.342 N 
ATOM     14  C   UNL     1       9.260   3.027   7.118  1.00  0.00     0.249 C 
ATOM     15  O   UNL     1      10.025   3.794   7.688  1.00  0.00    -0.272 OA
ATOM     16  H   UNL     1       8.418   1.199   6.931  1.00  0.00     0.164 HD
BRANCH  14  17
ATOM     17  C   UNL     1       8.266   3.472   6.025  1.00  0.00     0.207 C 
BRANCH  17  18
ATOM     18  C   UNL     1       6.843   3.541   6.590  1.00  0.00     0.077 C 
BRANCH  18  19
ATOM     19  C   UNL     1       6.423   4.964   6.881  1.00  0.00    -0.043 A 
ATOM     20  C   UNL     1       6.970   7.210   7.618  1.00  0.00     0.083 A 
ATOM     21  C   UNL     1       7.370   5.911   7.302  1.00  0.00     0.028 A 
ATOM     22  C   UNL     1       5.626   7.571   7.517  1.00  0.00     0.134 A 
ATOM     23  C   UNL     1       4.677   6.643   7.101  1.00  0.00     0.048 A 
ATOM     24  C   UNL     1       5.074   5.342   6.786  1.00  0.00     0.008 A 
ATOM     25  Cl  UNL     1       8.148   8.358   8.134  1.00  0.00    -0.080 Cl
BRANCH  22  26
ATOM     26  O   UNL     1       5.185   8.829   7.825  1.00  0.00    -0.506 OA
ATOM     27  H   UNL     1       5.905   9.265   8.317  1.00  0.00     0.293 HD
ENDBRANCH  22  26
ENDBRANCH  18  19
ENDBRANCH  17  18
BRANCH  17  28
ATOM     28  O   UNL     1       8.291   2.572   4.905  1.00  0.00    -0.383 OA
ATOM     29  H   UNL     1       8.183   3.133   4.103  1.00  0.00     0.211 HD
ENDBRANCH  17  28
ENDBRANCH  14  17
ENDBRANCH  12  13
BRANCH  12  30
ATOM     30  C   UNL     1      10.816  -0.209   7.741  1.00  0.00     0.018 C 
ATOM     31  C   UNL     1      12.292   0.174   7.551  1.00  0.00     0.010 C 
BRANCH  30  32
ATOM     32  C   UNL     1      10.225  -0.729   6.408  1.00  0.00     0.002 C 
ATOM     33  C   UNL     1       9.375  -1.988   6.520  1.00  0.00     0.004 C 
ENDBRANCH  30  32
ENDBRANCH  12  30
ENDBRANCH  10  12
ENDBRANCH   1  10
BRANCH   5  34
ATOM     34  C   UNL     1       8.686   0.880  12.790  1.00  0.00     0.242 C 
ATOM     35  O   UNL     1       7.587   0.329  12.740  1.00  0.00    -0.273 OA
ATOM     36  N   UNL     1       9.529   0.751  13.871  1.00  0.00    -0.354 N 
ATOM     37  H   UNL     1      10.372   1.326  13.909  1.00  0.00     0.163 HD
BRANCH  36  38
ATOM     38  C   UNL     1       9.317  -0.244  14.902  1.00  0.00     0.116 C 
BRANCH  38  39
ATOM     39  C   UNL     1       9.300   0.427  16.273  1.00  0.00     0.023 C 
BRANCH  39  40
ATOM     40  C   UNL     1       8.184   1.458  16.403  1.00  0.00     0.026 C 
BRANCH  40  41
ATOM     41  C   UNL     1       8.759   2.848  16.677  1.00  0.00     0.146 C 
BRANCH  41  42
ATOM     42  N   UNL     1       9.468   3.328  15.498  1.00  0.00    -0.254 NA
ATOM     43  C   UNL     1      10.678   3.732  15.608  1.00  0.00     0.185 C 
ATOM     44  N   UNL     1      11.474   3.798  16.691  1.00  0.00    -0.370 N 
ATOM     45  N   UNL     1      11.312   4.175  14.510  1.00  0.00    -0.370 N 
ATOM     46  H   UNL     1      12.308   4.359  16.681  1.00  0.00     0.159 HD
ATOM     47  H   UNL     1      11.156   3.489  17.605  1.00  0.00     0.159 HD
ATOM     48  H   UNL     1      10.785   4.151  13.647  1.00  0.00     0.159 HD
ATOM     49  H   UNL     1      12.310   4.281  14.464  1.00  0.00     0.159 HD
ENDBRANCH  41  42
ENDBRANCH  40  41
ENDBRANCH  39  40
ENDBRANCH  38  39
ENDBRANCH  36  38
ENDBRANCH   5  34
BRANCH   8  50
ATOM     50  O   UNL     1       4.422   2.403  11.361  1.00  0.00    -0.245 OA
BRANCH  50  51
ATOM     51  S   UNL     1       2.965   1.681  11.419  1.00  0.00     0.397 S 
ATOM     52  O   UNL     1       2.251   2.208  12.560  1.00  0.00    -0.169 OA
ATOM     53  O   UNL     1       3.121   0.256  11.211  1.00  0.00    -0.169 OA
BRANCH  51  54
ATOM     54  O   UNL     1       2.236   2.294  10.124  1.00  0.00    -0.264 OA
ATOM     55  H   UNL     1       2.731   3.094   9.853  1.00  0.00     0.236 HD
ENDBRANCH  51  54
ENDBRANCH  50  51
ENDBRANCH   8  50
TORSDOF 19
ENDMDL
MODEL 10
REMARK VINA RESULT:    -5.355      4.007      7.370
REMARK INTER + INTRA:         -16.068
REMARK INTER:                 -13.487
REMARK INTRA:                  -2.581
REMARK UNBOUND:                -5.234
REMARK SMILES CC[C@@H](C)[C@@H](NC(=O)[C@@H](O)Cc1ccc(O)c(Cl)c1)C(=O)N1[C@H](C(=O)NCCCCN=C(N)N)C[C@H]2CC[C@H](OS(=O)(=O)O)C[C@@H]21
REMARK SMILES IDX 22 1 36 2 46 3 35 4 23 5 45 6 37 7 39 8 38 9 20 10 21 11
REMARK SMILES IDX 5 12 6 13 7 14 8 15 9 17 11 18 12 19 17 20 19 21 15 22 14 23
REMARK SMILES IDX 13 24 18 25 16 26 10 28 3 30 4 31 2 32 1 33 24 34 25 35
REMARK SMILES IDX 26 36 27 38 28 39 29 40 30 41 31 42 32 43 33 44 34 45 40 50
REMARK SMILES IDX 41 51 42 52 43 53 44 54
REMARK H PARENT 6 16 16 27 10 29 26 37 33 46 33 47 34 48 34 49 44 55
ROOT
ATOM      1  N   UNL     1       6.197   3.677  11.224  1.00  0.00    -0.326 N 
ATOM      2  C   UNL     1       5.405   4.115   9.051  1.00  0.00     0.014 C 
ATOM      3  C   UNL     1       5.406   4.662  10.481  1.00  0.00     0.091 C 
ATOM      4  C   UNL     1       5.382   2.610   9.268  1.00  0.00     0.041 C 
ATOM      5  C   UNL     1       6.438   2.479  10.382  1.00  0.00     0.175 C 
ATOM      6  C   UNL     1       5.899   6.108  10.445  1.00  0.00     0.059 C 
ATOM      7  C   UNL     1       4.313   4.763   8.223  1.00  0.00     0.008 C 
ATOM      8  C   UNL     1       5.529   6.858   9.147  1.00  0.00     0.143 C 
ATOM      9  C   UNL     1       4.259   6.283   8.487  1.00  0.00     0.034 C 
ENDROOT
BRANCH   1  10
ATOM     10  C   UNL     1       6.523   3.633  12.569  1.00  0.00     0.246 C 
ATOM     11  O   UNL     1       6.966   4.649  13.114  1.00  0.00    -0.272 OA
BRANCH  10  12
ATOM     12  C   UNL     1       6.286   2.321  13.373  1.00  0.00     0.174 C 
BRANCH  12  13
ATOM     13  N   UNL     1       4.854   2.030  13.441  1.00  0.00    -0.342 N 
ATOM     14  C   UNL     1       4.295   0.780  13.304  1.00  0.00     0.249 C 
ATOM     15  O   UNL     1       4.946  -0.244  13.135  1.00  0.00    -0.272 OA
ATOM     16  H   UNL     1       4.184   2.794  13.420  1.00  0.00     0.164 HD
BRANCH  14  17
ATOM     17  C   UNL     1       2.755   0.802  13.407  1.00  0.00     0.207 C 
BRANCH  17  18
ATOM     18  C   UNL     1       2.133  -0.081  12.320  1.00  0.00     0.077 C 
BRANCH  18  19
ATOM     19  C   UNL     1       1.598  -1.377  12.887  1.00  0.00    -0.043 A 
ATOM     20  C   UNL     1      -0.104  -2.590  14.119  1.00  0.00     0.083 A 
ATOM     21  C   UNL     1       0.363  -1.402  13.554  1.00  0.00     0.028 A 
ATOM     22  C   UNL     1       0.657  -3.755  14.023  1.00  0.00     0.134 A 
ATOM     23  C   UNL     1       1.881  -3.745  13.365  1.00  0.00     0.048 A 
ATOM     24  C   UNL     1       2.353  -2.557  12.800  1.00  0.00     0.008 A 
ATOM     25  Cl  UNL     1      -1.623  -2.601  14.935  1.00  0.00    -0.080 Cl
BRANCH  22  26
ATOM     26  O   UNL     1       0.245  -4.941  14.570  1.00  0.00    -0.506 OA
ATOM     27  H   UNL     1       0.689  -5.650  14.068  1.00  0.00     0.293 HD
ENDBRANCH  22  26
ENDBRANCH  18  19
ENDBRANCH  17  18
BRANCH  17  28
ATOM     28  O   UNL     1       2.247   2.140  13.282  1.00  0.00    -0.383 OA
ATOM     29  H   UNL     1       1.314   2.106  13.592  1.00  0.00     0.211 HD
ENDBRANCH  17  28
ENDBRANCH  14  17
ENDBRANCH  12  13
BRANCH  12  30
ATOM     30  C   UNL     1       6.952   2.348  14.775  1.00  0.00     0.018 C 
ATOM     31  C   UNL     1       7.718   1.043  15.041  1.00  0.00     0.010 C 
BRANCH  30  32
ATOM     32  C   UNL     1       5.959   2.627  15.930  1.00  0.00     0.002 C 
ATOM     33  C   UNL     1       6.058   1.678  17.117  1.00  0.00     0.004 C 
ENDBRANCH  30  32
ENDBRANCH  12  30
ENDBRANCH  10  12
ENDBRANCH   1  10
BRANCH   5  34
ATOM     34  C   UNL     1       7.880   2.492   9.808  1.00  0.00     0.242 C 
ATOM     35  O   UNL     1       8.813   3.051  10.384  1.00  0.00    -0.273 OA
ATOM     36  N   UNL     1       8.028   1.879   8.583  1.00  0.00    -0.354 N 
ATOM     37  H   UNL     1       7.195   1.539   8.100  1.00  0.00     0.163 HD
BRANCH  36  38
ATOM     38  C   UNL     1       9.328   1.610   8.006  1.00  0.00     0.116 C 
BRANCH  38  39
ATOM     39  C   UNL     1       9.276   0.320   7.191  1.00  0.00     0.023 C 
BRANCH  39  40
ATOM     40  C   UNL     1      10.553  -0.504   7.321  1.00  0.00     0.026 C 
BRANCH  40  41
ATOM     41  C   UNL     1      11.538   0.170   8.276  1.00  0.00     0.146 C 
BRANCH  41  42
ATOM     42  N   UNL     1      11.713  -0.654   9.465  1.00  0.00    -0.254 NA
ATOM     43  C   UNL     1      11.481  -0.156  10.621  1.00  0.00     0.185 C 
ATOM     44  N   UNL     1      11.073   1.079  10.965  1.00  0.00    -0.370 N 
ATOM     45  N   UNL     1      11.653  -0.932  11.704  1.00  0.00    -0.370 N 
ATOM     46  H   UNL     1      11.166   1.404  11.912  1.00  0.00     0.159 HD
ATOM     47  H   UNL     1      10.881   1.791  10.267  1.00  0.00     0.159 HD
ATOM     48  H   UNL     1      11.952  -1.882  11.532  1.00  0.00     0.159 HD
ATOM     49  H   UNL     1      11.273  -0.701  12.605  1.00  0.00     0.159 HD
ENDBRANCH  41  42
ENDBRANCH  40  41
ENDBRANCH  39  40
ENDBRANCH  38  39
ENDBRANCH  36  38
ENDBRANCH   5  34
BRANCH   8  50
ATOM     50  O   UNL     1       6.603   6.777   8.210  1.00  0.00    -0.245 OA
BRANCH  50  51
ATOM     51  S   UNL     1       6.731   7.895   7.036  1.00  0.00     0.397 S 
ATOM     52  O   UNL     1       6.294   9.162   7.577  1.00  0.00    -0.169 OA
ATOM     53  O   UNL     1       6.188   7.368   5.801  1.00  0.00    -0.169 OA
BRANCH  51  54
ATOM     54  O   UNL     1       8.325   8.020   6.863  1.00  0.00    -0.264 OA
ATOM     55  H   UNL     1       8.736   7.263   7.329  1.00  0.00     0.236 HD
ENDBRANCH  51  54
ENDBRANCH  50  51
ENDBRANCH   8  50
TORSDOF 19
ENDMDL
