MODEL 1
REMARK VINA RESULT:    -8.060      0.000      0.000
REMARK INTER + INTRA:         -18.898
REMARK INTER:                 -16.306
REMARK INTRA:                  -2.592
REMARK UNBOUND:                -2.592
REMARK SMILES CC[C@@H](C)[C@@H](NC(=O)[C@@H](O)Cc1ccc(O)c(Cl)c1)C(=O)N1[C@H](C(=O)NCCCCN=C(N)N)C[C@H]2CC[C@H](OS(=O)(=O)O)C[C@@H]21
REMARK SMILES IDX 22 1 36 2 46 3 35 4 23 5 45 6 37 7 39 8 38 9 20 10 21 11
REMARK SMILES IDX 5 12 6 13 7 14 8 15 9 17 11 18 12 19 17 20 19 21 15 22 14 23
REMARK SMILES IDX 13 24 18 25 16 26 10 28 3 30 4 31 2 32 1 33 24 34 25 35
REMARK SMILES IDX 26 36 27 38 28 39 29 40 30 41 31 42 32 43 33 44 34 45 40 50
REMARK SMILES IDX 41 51 42 52 43 53 44 54
REMARK H PARENT 6 16 16 27 10 29 26 37 33 46 33 47 34 48 34 49 44 55
ROOT
ATOM      1  N   UNL     1       1.988 -11.513  11.593  1.00  0.00    -0.326 N 
ATOM      2  C   UNL     1       3.930 -10.572  10.653  1.00  0.00     0.014 C 
ATOM      3  C   UNL     1       2.543 -10.216  11.195  1.00  0.00     0.091 C 
ATOM      4  C   UNL     1       3.698 -11.926  10.002  1.00  0.00     0.041 C 
ATOM      5  C   UNL     1       2.851 -12.610  11.090  1.00  0.00     0.175 C 
ATOM      6  C   UNL     1       2.704  -9.138  12.265  1.00  0.00     0.059 C 
ATOM      7  C   UNL     1       4.496  -9.436   9.824  1.00  0.00     0.008 C 
ATOM      8  C   UNL     1       3.892  -8.184  12.012  1.00  0.00     0.143 C 
ATOM      9  C   UNL     1       4.242  -8.079  10.514  1.00  0.00     0.034 C 
ENDROOT
BRANCH   1  10
ATOM     10  C   UNL     1       0.751 -11.820  12.134  1.00  0.00     0.246 C 
ATOM     11  O   UNL     1       0.666 -12.052  13.345  1.00  0.00    -0.272 OA
BRANCH  10  12
ATOM     12  C   UNL     1      -0.507 -11.827  11.218  1.00  0.00     0.174 C 
BRANCH  12  13
ATOM     13  N   UNL     1      -1.660 -11.305  11.951  1.00  0.00    -0.342 N 
ATOM     14  C   UNL     1      -1.770 -10.024  12.444  1.00  0.00     0.249 C 
ATOM     15  O   UNL     1      -0.913  -9.161  12.296  1.00  0.00    -0.272 OA
ATOM     16  H   UNL     1      -2.376 -11.945  12.284  1.00  0.00     0.164 HD
BRANCH  14  17
ATOM     17  C   UNL     1      -3.101  -9.784  13.187  1.00  0.00     0.207 C 
BRANCH  17  18
ATOM     18  C   UNL     1      -4.186  -9.325  12.207  1.00  0.00     0.077 C 
BRANCH  18  19
ATOM     19  C   UNL     1      -4.445  -7.839  12.311  1.00  0.00    -0.043 A 
ATOM     20  C   UNL     1      -5.701  -5.983  13.241  1.00  0.00     0.083 A 
ATOM     21  C   UNL     1      -5.431  -7.351  13.183  1.00  0.00     0.028 A 
ATOM     22  C   UNL     1      -4.991  -5.097  12.429  1.00  0.00     0.134 A 
ATOM     23  C   UNL     1      -4.012  -5.566  11.562  1.00  0.00     0.048 A 
ATOM     24  C   UNL     1      -3.741  -6.935  11.501  1.00  0.00     0.008 A 
ATOM     25  Cl  UNL     1      -6.916  -5.403  14.318  1.00  0.00    -0.080 Cl
BRANCH  22  26
ATOM     26  O   UNL     1      -5.228  -3.749  12.443  1.00  0.00    -0.506 OA
ATOM     27  H   UNL     1      -6.129  -3.626  12.795  1.00  0.00     0.293 HD
ENDBRANCH  22  26
ENDBRANCH  18  19
ENDBRANCH  17  18
BRANCH  17  28
ATOM     28  O   UNL     1      -2.946  -8.800  14.222  1.00  0.00    -0.383 OA
ATOM     29  H   UNL     1      -1.977  -8.720  14.378  1.00  0.00     0.211 HD
ENDBRANCH  17  28
ENDBRANCH  14  17
ENDBRANCH  12  13
BRANCH  12  30
ATOM     30  C   UNL     1      -0.785 -13.219  10.590  1.00  0.00     0.018 C 
ATOM     31  C   UNL     1      -0.248 -13.286   9.151  1.00  0.00     0.010 C 
BRANCH  30  32
ATOM     32  C   UNL     1      -2.277 -13.628  10.620  1.00  0.00     0.002 C 
ATOM     33  C   UNL     1      -2.541 -15.116  10.811  1.00  0.00     0.004 C 
ENDBRANCH  30  32
ENDBRANCH  12  30
ENDBRANCH  10  12
ENDBRANCH   1  10
BRANCH   5  34
ATOM     34  C   UNL     1       3.736 -13.180  12.231  1.00  0.00     0.242 C 
ATOM     35  O   UNL     1       4.956 -13.021  12.258  1.00  0.00    -0.273 OA
ATOM     36  N   UNL     1       3.066 -13.921  13.178  1.00  0.00    -0.354 N 
ATOM     37  H   UNL     1       2.074 -14.118  13.037  1.00  0.00     0.163 HD
BRANCH  36  38
ATOM     38  C   UNL     1       3.691 -14.341  14.415  1.00  0.00     0.116 C 
BRANCH  38  39
ATOM     39  C   UNL     1       2.767 -15.299  15.163  1.00  0.00     0.023 C 
BRANCH  39  40
ATOM     40  C   UNL     1       1.388 -15.401  14.520  1.00  0.00     0.026 C 
BRANCH  40  41
ATOM     41  C   UNL     1       0.289 -15.132  15.548  1.00  0.00     0.146 C 
BRANCH  41  42
ATOM     42  N   UNL     1      -0.994 -14.991  14.871  1.00  0.00    -0.254 NA
ATOM     43  C   UNL     1      -1.575 -13.850  14.848  1.00  0.00     0.185 C 
ATOM     44  N   UNL     1      -1.189 -12.672  15.371  1.00  0.00    -0.370 N 
ATOM     45  N   UNL     1      -2.759 -13.742  14.223  1.00  0.00    -0.370 N 
ATOM     46  H   UNL     1      -1.850 -11.923  15.489  1.00  0.00     0.159 HD
ATOM     47  H   UNL     1      -0.309 -12.571  15.867  1.00  0.00     0.159 HD
ATOM     48  H   UNL     1      -3.118 -14.583  13.793  1.00  0.00     0.159 HD
ATOM     49  H   UNL     1      -3.155 -12.857  13.958  1.00  0.00     0.159 HD
ENDBRANCH  41  42
ENDBRANCH  40  41
ENDBRANCH  39  40
ENDBRANCH  38  39
ENDBRANCH  36  38
ENDBRANCH   5  34
BRANCH   8  50
ATOM     50  O   UNL     1       5.047  -8.642  12.716  1.00  0.00    -0.245 OA
BRANCH  50  51
ATOM     51  S   UNL     1       6.364  -7.692  12.802  1.00  0.00     0.397 S 
ATOM     52  O   UNL     1       5.935  -6.320  12.654  1.00  0.00    -0.169 OA
ATOM     53  O   UNL     1       7.421  -8.251  11.984  1.00  0.00    -0.169 OA
BRANCH  51  54
ATOM     54  O   UNL     1       6.793  -7.852  14.344  1.00  0.00    -0.264 OA
ATOM     55  H   UNL     1       6.945  -6.956  14.706  1.00  0.00     0.236 HD
ENDBRANCH  51  54
ENDBRANCH  50  51
ENDBRANCH   8  50
TORSDOF 19
ENDMDL
MODEL 2
REMARK VINA RESULT:    -8.015      2.227      3.883
REMARK INTER + INTRA:         -18.807
REMARK INTER:                 -15.935
REMARK INTRA:                  -2.872
REMARK UNBOUND:                -2.592
REMARK SMILES CC[C@@H](C)[C@@H](NC(=O)[C@@H](O)Cc1ccc(O)c(Cl)c1)C(=O)N1[C@H](C(=O)NCCCCN=C(N)N)C[C@H]2CC[C@H](OS(=O)(=O)O)C[C@@H]21
REMARK SMILES IDX 22 1 36 2 46 3 35 4 23 5 45 6 37 7 39 8 38 9 20 10 21 11
REMARK SMILES IDX 5 12 6 13 7 14 8 15 9 17 11 18 12 19 17 20 19 21 15 22 14 23
REMARK SMILES IDX 13 24 18 25 16 26 10 28 3 30 4 31 2 32 1 33 24 34 25 35
REMARK SMILES IDX 26 36 27 38 28 39 29 40 30 41 31 42 32 43 33 44 34 45 40 50
REMARK SMILES IDX 41 51 42 52 43 53 44 54
REMARK H PARENT 6 16 16 27 10 29 26 37 33 46 33 47 34 48 34 49 44 55
ROOT
ATOM      1  N   UNL     1       0.454 -10.545  11.819  1.00  0.00    -0.326 N 
ATOM      2  C   UNL     1       2.210 -10.200  10.288  1.00  0.00     0.014 C 
ATOM      3  C   UNL     1       1.345  -9.487  11.332  1.00  0.00     0.091 C 
ATOM      4  C   UNL     1       1.242 -11.203   9.680  1.00  0.00     0.041 C 
ATOM      5  C   UNL     1       0.575 -11.747  10.957  1.00  0.00     0.175 C 
ATOM      6  C   UNL     1       2.268  -8.799  12.335  1.00  0.00     0.059 C 
ATOM      7  C   UNL     1       2.907  -9.200   9.387  1.00  0.00     0.008 C 
ATOM      8  C   UNL     1       3.600  -8.314  11.723  1.00  0.00     0.143 C 
ATOM      9  C   UNL     1       3.473  -8.026  10.214  1.00  0.00     0.034 C 
ENDROOT
BRANCH   1  10
ATOM     10  C   UNL     1      -0.559 -10.488  12.760  1.00  0.00     0.246 C 
ATOM     11  O   UNL     1      -0.345  -9.931  13.841  1.00  0.00    -0.272 OA
BRANCH  10  12
ATOM     12  C   UNL     1      -1.955 -11.088  12.421  1.00  0.00     0.174 C 
BRANCH  12  13
ATOM     13  N   UNL     1      -2.857 -10.029  11.971  1.00  0.00    -0.342 N 
ATOM     14  C   UNL     1      -3.378  -9.040  12.775  1.00  0.00     0.249 C 
ATOM     15  O   UNL     1      -3.117  -8.921  13.966  1.00  0.00    -0.272 OA
ATOM     16  H   UNL     1      -3.284 -10.089  11.050  1.00  0.00     0.164 HD
BRANCH  14  17
ATOM     17  C   UNL     1      -4.313  -8.080  12.008  1.00  0.00     0.207 C 
BRANCH  17  18
ATOM     18  C   UNL     1      -5.304  -7.417  12.970  1.00  0.00     0.077 C 
BRANCH  18  19
ATOM     19  C   UNL     1      -5.254  -5.909  12.877  1.00  0.00    -0.043 A 
ATOM     20  C   UNL     1      -4.469  -3.775  13.723  1.00  0.00     0.083 A 
ATOM     21  C   UNL     1      -4.475  -5.169  13.780  1.00  0.00     0.028 A 
ATOM     22  C   UNL     1      -5.241  -3.112  12.768  1.00  0.00     0.134 A 
ATOM     23  C   UNL     1      -6.017  -3.832  11.867  1.00  0.00     0.048 A 
ATOM     24  C   UNL     1      -6.026  -5.228  11.923  1.00  0.00     0.008 A 
ATOM     25  Cl  UNL     1      -3.506  -2.884  14.842  1.00  0.00    -0.080 Cl
BRANCH  22  26
ATOM     26  O   UNL     1      -5.276  -1.747  12.680  1.00  0.00    -0.506 OA
ATOM     27  H   UNL     1      -6.131  -1.514  12.273  1.00  0.00     0.293 HD
ENDBRANCH  22  26
ENDBRANCH  18  19
ENDBRANCH  17  18
BRANCH  17  28
ATOM     28  O   UNL     1      -5.037  -8.775  10.981  1.00  0.00    -0.383 OA
ATOM     29  H   UNL     1      -5.322  -9.629  11.378  1.00  0.00     0.211 HD
ENDBRANCH  17  28
ENDBRANCH  14  17
ENDBRANCH  12  13
BRANCH  12  30
ATOM     30  C   UNL     1      -2.551 -11.917  13.590  1.00  0.00     0.018 C 
ATOM     31  C   UNL     1      -1.555 -12.986  14.067  1.00  0.00     0.010 C 
BRANCH  30  32
ATOM     32  C   UNL     1      -3.914 -12.572  13.256  1.00  0.00     0.002 C 
ATOM     33  C   UNL     1      -3.879 -14.082  13.058  1.00  0.00     0.004 C 
ENDBRANCH  30  32
ENDBRANCH  12  30
ENDBRANCH  10  12
ENDBRANCH   1  10
BRANCH   5  34
ATOM     34  C   UNL     1       1.449 -12.830  11.642  1.00  0.00     0.242 C 
ATOM     35  O   UNL     1       1.721 -12.794  12.842  1.00  0.00    -0.273 OA
ATOM     36  N   UNL     1       1.942 -13.803  10.802  1.00  0.00    -0.354 N 
ATOM     37  H   UNL     1       1.781 -13.713   9.798  1.00  0.00     0.163 HD
BRANCH  36  38
ATOM     38  C   UNL     1       2.590 -14.999  11.299  1.00  0.00     0.116 C 
BRANCH  38  39
ATOM     39  C   UNL     1       4.078 -14.961  10.961  1.00  0.00     0.023 C 
BRANCH  39  40
ATOM     40  C   UNL     1       4.893 -14.200  12.002  1.00  0.00     0.026 C 
BRANCH  40  41
ATOM     41  C   UNL     1       5.277 -12.815  11.481  1.00  0.00     0.146 C 
BRANCH  41  42
ATOM     42  N   UNL     1       4.982 -12.724  10.057  1.00  0.00    -0.254 NA
ATOM     43  C   UNL     1       5.459 -11.753   9.373  1.00  0.00     0.185 C 
ATOM     44  N   UNL     1       6.239 -10.726   9.755  1.00  0.00    -0.370 N 
ATOM     45  N   UNL     1       5.172 -11.685   8.062  1.00  0.00    -0.370 N 
ATOM     46  H   UNL     1       6.334  -9.910   9.174  1.00  0.00     0.159 HD
ATOM     47  H   UNL     1       6.562 -10.629  10.713  1.00  0.00     0.159 HD
ATOM     48  H   UNL     1       4.595 -12.428   7.691  1.00  0.00     0.159 HD
ATOM     49  H   UNL     1       5.687 -11.107   7.422  1.00  0.00     0.159 HD
ENDBRANCH  41  42
ENDBRANCH  40  41
ENDBRANCH  39  40
ENDBRANCH  38  39
ENDBRANCH  36  38
ENDBRANCH   5  34
BRANCH   8  50
ATOM     50  O   UNL     1       4.614  -9.302  11.912  1.00  0.00    -0.245 OA
BRANCH  50  51
ATOM     51  S   UNL     1       5.999  -8.897  12.665  1.00  0.00     0.397 S 
ATOM     52  O   UNL     1       6.855 -10.062  12.679  1.00  0.00    -0.169 OA
ATOM     53  O   UNL     1       5.697  -8.161  13.875  1.00  0.00    -0.169 OA
BRANCH  51  54
ATOM     54  O   UNL     1       6.665  -7.876  11.616  1.00  0.00    -0.264 OA
ATOM     55  H   UNL     1       7.025  -8.404  10.874  1.00  0.00     0.236 HD
ENDBRANCH  51  54
ENDBRANCH  50  51
ENDBRANCH   8  50
TORSDOF 19
ENDMDL
MODEL 3
REMARK VINA RESULT:    -8.009      2.214      4.176
REMARK INTER + INTRA:         -18.794
REMARK INTER:                 -15.377
REMARK INTRA:                  -3.418
REMARK UNBOUND:                -2.592
REMARK SMILES CC[C@@H](C)[C@@H](NC(=O)[C@@H](O)Cc1ccc(O)c(Cl)c1)C(=O)N1[C@H](C(=O)NCCCCN=C(N)N)C[C@H]2CC[C@H](OS(=O)(=O)O)C[C@@H]21
REMARK SMILES IDX 22 1 36 2 46 3 35 4 23 5 45 6 37 7 39 8 38 9 20 10 21 11
REMARK SMILES IDX 5 12 6 13 7 14 8 15 9 17 11 18 12 19 17 20 19 21 15 22 14 23
REMARK SMILES IDX 13 24 18 25 16 26 10 28 3 30 4 31 2 32 1 33 24 34 25 35
REMARK SMILES IDX 26 36 27 38 28 39 29 40 30 41 31 42 32 43 33 44 34 45 40 50
REMARK SMILES IDX 41 51 42 52 43 53 44 54
REMARK H PARENT 6 16 16 27 10 29 26 37 33 46 33 47 34 48 34 49 44 55
ROOT
ATOM      1  N   UNL     1       0.739 -11.558  11.455  1.00  0.00    -0.326 N 
ATOM      2  C   UNL     1       2.162 -10.216  10.144  1.00  0.00     0.014 C 
ATOM      3  C   UNL     1       1.277 -10.195  11.394  1.00  0.00     0.091 C 
ATOM      4  C   UNL     1       1.408 -11.154   9.215  1.00  0.00     0.041 C 
ATOM      5  C   UNL     1       1.050 -12.283  10.198  1.00  0.00     0.175 C 
ATOM      6  C   UNL     1       2.113  -9.693  12.570  1.00  0.00     0.059 C 
ATOM      7  C   UNL     1       2.480  -8.808   9.682  1.00  0.00     0.008 C 
ATOM      8  C   UNL     1       3.202  -8.676  12.168  1.00  0.00     0.143 C 
ATOM      9  C   UNL     1       2.831  -7.906  10.884  1.00  0.00     0.034 C 
ENDROOT
BRANCH   1  10
ATOM     10  C   UNL     1      -0.139 -12.125  12.362  1.00  0.00     0.246 C 
ATOM     11  O   UNL     1       0.310 -12.649  13.387  1.00  0.00    -0.272 OA
BRANCH  10  12
ATOM     12  C   UNL     1      -1.671 -12.055  12.094  1.00  0.00     0.174 C 
BRANCH  12  13
ATOM     13  N   UNL     1      -2.230 -10.854  12.715  1.00  0.00    -0.342 N 
ATOM     14  C   UNL     1      -3.411 -10.250  12.344  1.00  0.00     0.249 C 
ATOM     15  O   UNL     1      -4.145 -10.674  11.460  1.00  0.00    -0.272 OA
ATOM     16  H   UNL     1      -1.660 -10.304  13.352  1.00  0.00     0.164 HD
BRANCH  14  17
ATOM     17  C   UNL     1      -3.723  -8.990  13.178  1.00  0.00     0.207 C 
BRANCH  17  18
ATOM     18  C   UNL     1      -3.714  -7.743  12.288  1.00  0.00     0.077 C 
BRANCH  18  19
ATOM     19  C   UNL     1      -4.725  -6.717  12.748  1.00  0.00    -0.043 A 
ATOM     20  C   UNL     1      -5.382  -4.401  13.049  1.00  0.00     0.083 A 
ATOM     21  C   UNL     1      -4.470  -5.347  12.579  1.00  0.00     0.028 A 
ATOM     22  C   UNL     1      -6.550  -4.816  13.691  1.00  0.00     0.134 A 
ATOM     23  C   UNL     1      -6.814  -6.170  13.866  1.00  0.00     0.048 A 
ATOM     24  C   UNL     1      -5.902  -7.118  13.397  1.00  0.00     0.008 A 
ATOM     25  Cl  UNL     1      -5.052  -2.723  12.832  1.00  0.00    -0.080 Cl
BRANCH  22  26
ATOM     26  O   UNL     1      -7.468  -3.926  14.179  1.00  0.00    -0.506 OA
ATOM     27  H   UNL     1      -8.278  -4.435  14.368  1.00  0.00     0.293 HD
ENDBRANCH  22  26
ENDBRANCH  18  19
ENDBRANCH  17  18
BRANCH  17  28
ATOM     28  O   UNL     1      -2.770  -8.824  14.240  1.00  0.00    -0.383 OA
ATOM     29  H   UNL     1      -2.715  -9.695  14.695  1.00  0.00     0.211 HD
ENDBRANCH  17  28
ENDBRANCH  14  17
ENDBRANCH  12  13
BRANCH  12  30
ATOM     30  C   UNL     1      -2.415 -13.347  12.525  1.00  0.00     0.018 C 
ATOM     31  C   UNL     1      -2.447 -13.474  14.056  1.00  0.00     0.010 C 
BRANCH  30  32
ATOM     32  C   UNL     1      -1.836 -14.637  11.896  1.00  0.00     0.002 C 
ATOM     33  C   UNL     1      -1.531 -15.761  12.879  1.00  0.00     0.004 C 
ENDBRANCH  30  32
ENDBRANCH  12  30
ENDBRANCH  10  12
ENDBRANCH   1  10
BRANCH   5  34
ATOM     34  C   UNL     1       2.240 -13.258  10.406  1.00  0.00     0.242 C 
ATOM     35  O   UNL     1       2.897 -13.282  11.447  1.00  0.00    -0.273 OA
ATOM     36  N   UNL     1       2.541 -14.055   9.324  1.00  0.00    -0.354 N 
ATOM     37  H   UNL     1       2.038 -13.905   8.449  1.00  0.00     0.163 HD
BRANCH  36  38
ATOM     38  C   UNL     1       3.470 -15.162   9.413  1.00  0.00     0.116 C 
BRANCH  38  39
ATOM     39  C   UNL     1       4.391 -15.165   8.196  1.00  0.00     0.023 C 
BRANCH  39  40
ATOM     40  C   UNL     1       4.654 -13.761   7.661  1.00  0.00     0.026 C 
BRANCH  40  41
ATOM     41  C   UNL     1       6.035 -13.267   8.091  1.00  0.00     0.146 C 
BRANCH  41  42
ATOM     42  N   UNL     1       6.046 -11.810   8.132  1.00  0.00    -0.254 NA
ATOM     43  C   UNL     1       5.798 -11.206   9.233  1.00  0.00     0.185 C 
ATOM     44  N   UNL     1       5.509 -11.706  10.448  1.00  0.00    -0.370 N 
ATOM     45  N   UNL     1       5.808  -9.863   9.248  1.00  0.00    -0.370 N 
ATOM     46  H   UNL     1       5.099 -11.123  11.158  1.00  0.00     0.159 HD
ATOM     47  H   UNL     1       5.473 -12.706  10.618  1.00  0.00     0.159 HD
ATOM     48  H   UNL     1       6.026  -9.406   8.373  1.00  0.00     0.159 HD
ATOM     49  H   UNL     1       5.860  -9.329  10.098  1.00  0.00     0.159 HD
ENDBRANCH  41  42
ENDBRANCH  40  41
ENDBRANCH  39  40
ENDBRANCH  38  39
ENDBRANCH  36  38
ENDBRANCH   5  34
BRANCH   8  50
ATOM     50  O   UNL     1       4.444  -9.347  11.951  1.00  0.00    -0.245 OA
BRANCH  50  51
ATOM     51  S   UNL     1       5.820  -8.695  12.524  1.00  0.00     0.397 S 
ATOM     52  O   UNL     1       5.527  -8.088  13.803  1.00  0.00    -0.169 OA
ATOM     53  O   UNL     1       6.485  -7.960  11.469  1.00  0.00    -0.169 OA
BRANCH  51  54
ATOM     54  O   UNL     1       6.700 -10.001  12.850  1.00  0.00    -0.264 OA
ATOM     55  H   UNL     1       7.156  -9.848  13.703  1.00  0.00     0.236 HD
ENDBRANCH  51  54
ENDBRANCH  50  51
ENDBRANCH   8  50
TORSDOF 19
ENDMDL
MODEL 4
REMARK VINA RESULT:    -7.997      3.294      6.109
REMARK INTER + INTRA:         -18.770
REMARK INTER:                 -16.242
REMARK INTRA:                  -2.528
REMARK UNBOUND:                -2.592
REMARK SMILES CC[C@@H](C)[C@@H](NC(=O)[C@@H](O)Cc1ccc(O)c(Cl)c1)C(=O)N1[C@H](C(=O)NCCCCN=C(N)N)C[C@H]2CC[C@H](OS(=O)(=O)O)C[C@@H]21
REMARK SMILES IDX 22 1 36 2 46 3 35 4 23 5 45 6 37 7 39 8 38 9 20 10 21 11
REMARK SMILES IDX 5 12 6 13 7 14 8 15 9 17 11 18 12 19 17 20 19 21 15 22 14 23
REMARK SMILES IDX 13 24 18 25 16 26 10 28 3 30 4 31 2 32 1 33 24 34 25 35
REMARK SMILES IDX 26 36 27 38 28 39 29 40 30 41 31 42 32 43 33 44 34 45 40 50
REMARK SMILES IDX 41 51 42 52 43 53 44 54
REMARK H PARENT 6 16 16 27 10 29 26 37 33 46 33 47 34 48 34 49 44 55
ROOT
ATOM      1  N   UNL     1       0.232 -12.733  11.641  1.00  0.00    -0.326 N 
ATOM      2  C   UNL     1       0.716 -14.164   9.835  1.00  0.00     0.014 C 
ATOM      3  C   UNL     1      -0.404 -13.745  10.792  1.00  0.00     0.091 C 
ATOM      4  C   UNL     1       1.956 -14.070  10.710  1.00  0.00     0.041 C 
ATOM      5  C   UNL     1       1.697 -12.721  11.406  1.00  0.00     0.175 C 
ATOM      6  C   UNL     1      -1.619 -13.334   9.962  1.00  0.00     0.059 C 
ATOM      7  C   UNL     1       0.384 -15.478   9.155  1.00  0.00     0.008 C 
ATOM      8  C   UNL     1      -1.754 -14.108   8.633  1.00  0.00     0.143 C 
ATOM      9  C   UNL     1      -1.092 -15.498   8.702  1.00  0.00     0.034 C 
ENDROOT
BRANCH   1  10
ATOM     10  C   UNL     1      -0.287 -12.010  12.701  1.00  0.00     0.246 C 
ATOM     11  O   UNL     1       0.436 -11.197  13.286  1.00  0.00    -0.272 OA
BRANCH  10  12
ATOM     12  C   UNL     1      -1.777 -12.205  13.106  1.00  0.00     0.174 C 
BRANCH  12  13
ATOM     13  N   UNL     1      -2.359 -10.923  13.500  1.00  0.00    -0.342 N 
ATOM     14  C   UNL     1      -3.341 -10.253  12.805  1.00  0.00     0.249 C 
ATOM     15  O   UNL     1      -3.862 -10.677  11.781  1.00  0.00    -0.272 OA
ATOM     16  H   UNL     1      -1.921 -10.377  14.238  1.00  0.00     0.164 HD
BRANCH  14  17
ATOM     17  C   UNL     1      -3.733  -8.915  13.468  1.00  0.00     0.207 C 
BRANCH  17  18
ATOM     18  C   UNL     1      -3.853  -7.810  12.414  1.00  0.00     0.077 C 
BRANCH  18  19
ATOM     19  C   UNL     1      -4.820  -6.729  12.841  1.00  0.00    -0.043 A 
ATOM     20  C   UNL     1      -5.384  -4.380  13.061  1.00  0.00     0.083 A 
ATOM     21  C   UNL     1      -4.512  -5.377  12.621  1.00  0.00     0.028 A 
ATOM     22  C   UNL     1      -6.564  -4.725  13.722  1.00  0.00     0.134 A 
ATOM     23  C   UNL     1      -6.880  -6.060  13.945  1.00  0.00     0.048 A 
ATOM     24  C   UNL     1      -6.009  -7.060  13.508  1.00  0.00     0.008 A 
ATOM     25  Cl  UNL     1      -4.989  -2.724  12.783  1.00  0.00    -0.080 Cl
BRANCH  22  26
ATOM     26  O   UNL     1      -7.444  -3.782  14.180  1.00  0.00    -0.506 OA
ATOM     27  H   UNL     1      -8.307  -3.985  13.775  1.00  0.00     0.293 HD
ENDBRANCH  22  26
ENDBRANCH  18  19
ENDBRANCH  17  18
BRANCH  17  28
ATOM     28  O   UNL     1      -2.767  -8.526  14.458  1.00  0.00    -0.383 OA
ATOM     29  H   UNL     1      -1.905  -8.462  13.987  1.00  0.00     0.211 HD
ENDBRANCH  17  28
ENDBRANCH  14  17
ENDBRANCH  12  13
BRANCH  12  30
ATOM     30  C   UNL     1      -1.966 -13.300  14.190  1.00  0.00     0.018 C 
ATOM     31  C   UNL     1      -0.622 -13.955  14.545  1.00  0.00     0.010 C 
BRANCH  30  32
ATOM     32  C   UNL     1      -3.002 -14.384  13.805  1.00  0.00     0.002 C 
ATOM     33  C   UNL     1      -2.807 -15.738  14.475  1.00  0.00     0.004 C 
ENDBRANCH  30  32
ENDBRANCH  12  30
ENDBRANCH  10  12
ENDBRANCH   1  10
BRANCH   5  34
ATOM     34  C   UNL     1       2.100 -11.525  10.503  1.00  0.00     0.242 C 
ATOM     35  O   UNL     1       1.350 -10.570  10.303  1.00  0.00    -0.273 OA
ATOM     36  N   UNL     1       3.334 -11.635   9.901  1.00  0.00    -0.354 N 
ATOM     37  H   UNL     1       3.858 -12.505  10.010  1.00  0.00     0.163 HD
BRANCH  36  38
ATOM     38  C   UNL     1       3.957 -10.528   9.206  1.00  0.00     0.116 C 
BRANCH  38  39
ATOM     39  C   UNL     1       5.391 -10.347   9.700  1.00  0.00     0.023 C 
BRANCH  39  40
ATOM     40  C   UNL     1       5.625  -8.974  10.320  1.00  0.00     0.026 C 
BRANCH  40  41
ATOM     41  C   UNL     1       5.464  -9.031  11.840  1.00  0.00     0.146 C 
BRANCH  41  42
ATOM     42  N   UNL     1       4.075  -9.314  12.177  1.00  0.00    -0.254 NA
ATOM     43  C   UNL     1       3.270  -8.346  12.411  1.00  0.00     0.185 C 
ATOM     44  N   UNL     1       3.487  -7.018  12.399  1.00  0.00    -0.370 N 
ATOM     45  N   UNL     1       1.995  -8.628  12.725  1.00  0.00    -0.370 N 
ATOM     46  H   UNL     1       2.837  -6.388  12.836  1.00  0.00     0.159 HD
ATOM     47  H   UNL     1       4.396  -6.629  12.167  1.00  0.00     0.159 HD
ATOM     48  H   UNL     1       1.745  -9.607  12.747  1.00  0.00     0.159 HD
ATOM     49  H   UNL     1       1.261  -7.943  12.687  1.00  0.00     0.159 HD
ENDBRANCH  41  42
ENDBRANCH  40  41
ENDBRANCH  39  40
ENDBRANCH  38  39
ENDBRANCH  36  38
ENDBRANCH   5  34
BRANCH   8  50
ATOM     50  O   UNL     1      -1.148 -13.369   7.572  1.00  0.00    -0.245 OA
BRANCH  50  51
ATOM     51  S   UNL     1      -2.062 -12.845   6.333  1.00  0.00     0.397 S 
ATOM     52  O   UNL     1      -3.447 -12.901   6.745  1.00  0.00    -0.169 OA
ATOM     53  O   UNL     1      -1.611 -13.461   5.102  1.00  0.00    -0.169 OA
BRANCH  51  54
ATOM     54  O   UNL     1      -1.685 -11.283   6.274  1.00  0.00    -0.264 OA
ATOM     55  H   UNL     1      -0.935 -11.134   6.884  1.00  0.00     0.236 HD
ENDBRANCH  51  54
ENDBRANCH  50  51
ENDBRANCH   8  50
TORSDOF 19
ENDMDL
MODEL 5
REMARK VINA RESULT:    -7.939      3.184      5.871
REMARK INTER + INTRA:         -18.653
REMARK INTER:                 -16.336
REMARK INTRA:                  -2.318
REMARK UNBOUND:                -2.592
REMARK SMILES CC[C@@H](C)[C@@H](NC(=O)[C@@H](O)Cc1ccc(O)c(Cl)c1)C(=O)N1[C@H](C(=O)NCCCCN=C(N)N)C[C@H]2CC[C@H](OS(=O)(=O)O)C[C@@H]21
REMARK SMILES IDX 22 1 36 2 46 3 35 4 23 5 45 6 37 7 39 8 38 9 20 10 21 11
REMARK SMILES IDX 5 12 6 13 7 14 8 15 9 17 11 18 12 19 17 20 19 21 15 22 14 23
REMARK SMILES IDX 13 24 18 25 16 26 10 28 3 30 4 31 2 32 1 33 24 34 25 35
REMARK SMILES IDX 26 36 27 38 28 39 29 40 30 41 31 42 32 43 33 44 34 45 40 50
REMARK SMILES IDX 41 51 42 52 43 53 44 54
REMARK H PARENT 6 16 16 27 10 29 26 37 33 46 33 47 34 48 34 49 44 55
ROOT
ATOM      1  N   UNL     1       0.399 -12.507  12.399  1.00  0.00    -0.326 N 
ATOM      2  C   UNL     1       1.827 -12.905  10.570  1.00  0.00     0.014 C 
ATOM      3  C   UNL     1       0.507 -13.350  11.205  1.00  0.00     0.091 C 
ATOM      4  C   UNL     1       2.688 -12.580  11.781  1.00  0.00     0.041 C 
ATOM      5  C   UNL     1       1.677 -11.789  12.630  1.00  0.00     0.175 C 
ATOM      6  C   UNL     1      -0.594 -13.254  10.149  1.00  0.00     0.059 C 
ATOM      7  C   UNL     1       2.316 -13.926   9.562  1.00  0.00     0.008 C 
ATOM      8  C   UNL     1      -0.100 -13.523   8.711  1.00  0.00     0.143 C 
ATOM      9  C   UNL     1       1.148 -14.429   8.687  1.00  0.00     0.034 C 
ENDROOT
BRANCH   1  10
ATOM     10  C   UNL     1      -0.580 -12.474  13.377  1.00  0.00     0.246 C 
ATOM     11  O   UNL     1      -0.246 -12.541  14.565  1.00  0.00    -0.272 OA
BRANCH  10  12
ATOM     12  C   UNL     1      -2.071 -12.309  12.964  1.00  0.00     0.174 C 
BRANCH  12  13
ATOM     13  N   UNL     1      -2.573 -11.011  13.413  1.00  0.00    -0.342 N 
ATOM     14  C   UNL     1      -3.428 -10.203  12.697  1.00  0.00     0.249 C 
ATOM     15  O   UNL     1      -3.891 -10.501  11.603  1.00  0.00    -0.272 OA
ATOM     16  H   UNL     1      -2.156 -10.563  14.226  1.00  0.00     0.164 HD
BRANCH  14  17
ATOM     17  C   UNL     1      -3.760  -8.887  13.432  1.00  0.00     0.207 C 
BRANCH  17  18
ATOM     18  C   UNL     1      -3.815  -7.720  12.442  1.00  0.00     0.077 C 
BRANCH  18  19
ATOM     19  C   UNL     1      -4.810  -6.665  12.871  1.00  0.00    -0.043 A 
ATOM     20  C   UNL     1      -5.467  -4.335  13.032  1.00  0.00     0.083 A 
ATOM     21  C   UNL     1      -4.571  -5.310  12.592  1.00  0.00     0.028 A 
ATOM     22  C   UNL     1      -6.602  -4.705  13.754  1.00  0.00     0.134 A 
ATOM     23  C   UNL     1      -6.851  -6.043  14.037  1.00  0.00     0.048 A 
ATOM     24  C   UNL     1      -5.956  -7.021  13.599  1.00  0.00     0.008 A 
ATOM     25  Cl  UNL     1      -5.156  -2.676  12.680  1.00  0.00    -0.080 Cl
BRANCH  22  26
ATOM     26  O   UNL     1      -7.503  -3.785  14.215  1.00  0.00    -0.506 OA
ATOM     27  H   UNL     1      -8.332  -3.933  13.724  1.00  0.00     0.293 HD
ENDBRANCH  22  26
ENDBRANCH  18  19
ENDBRANCH  17  18
BRANCH  17  28
ATOM     28  O   UNL     1      -2.786  -8.603  14.450  1.00  0.00    -0.383 OA
ATOM     29  H   UNL     1      -2.946  -7.673  14.727  1.00  0.00     0.211 HD
ENDBRANCH  17  28
ENDBRANCH  14  17
ENDBRANCH  12  13
BRANCH  12  30
ATOM     30  C   UNL     1      -2.961 -13.487  13.447  1.00  0.00     0.018 C 
ATOM     31  C   UNL     1      -2.123 -14.759  13.644  1.00  0.00     0.010 C 
BRANCH  30  32
ATOM     32  C   UNL     1      -4.162 -13.780  12.515  1.00  0.00     0.002 C 
ATOM     33  C   UNL     1      -3.844 -14.626  11.289  1.00  0.00     0.004 C 
ENDBRANCH  30  32
ENDBRANCH  12  30
ENDBRANCH  10  12
ENDBRANCH   1  10
BRANCH   5  34
ATOM     34  C   UNL     1       1.571 -10.312  12.165  1.00  0.00     0.242 C 
ATOM     35  O   UNL     1       0.528  -9.838  11.715  1.00  0.00    -0.273 OA
ATOM     36  N   UNL     1       2.740  -9.589  12.241  1.00  0.00    -0.354 N 
ATOM     37  H   UNL     1       3.599 -10.070  12.508  1.00  0.00     0.163 HD
BRANCH  36  38
ATOM     38  C   UNL     1       2.774  -8.153  12.054  1.00  0.00     0.116 C 
BRANCH  38  39
ATOM     39  C   UNL     1       4.168  -7.722  11.604  1.00  0.00     0.023 C 
BRANCH  39  40
ATOM     40  C   UNL     1       5.254  -8.687  12.066  1.00  0.00     0.026 C 
BRANCH  40  41
ATOM     41  C   UNL     1       5.873  -9.417  10.874  1.00  0.00     0.146 C 
BRANCH  41  42
ATOM     42  N   UNL     1       5.460  -8.773   9.634  1.00  0.00    -0.254 NA
ATOM     43  C   UNL     1       4.675  -9.388   8.831  1.00  0.00     0.185 C 
ATOM     44  N   UNL     1       4.119 -10.609   8.931  1.00  0.00    -0.370 N 
ATOM     45  N   UNL     1       4.310  -8.778   7.691  1.00  0.00    -0.370 N 
ATOM     46  H   UNL     1       3.725 -11.060   8.123  1.00  0.00     0.159 HD
ATOM     47  H   UNL     1       4.278 -11.203   9.739  1.00  0.00     0.159 HD
ATOM     48  H   UNL     1       4.679  -7.849   7.542  1.00  0.00     0.159 HD
ATOM     49  H   UNL     1       3.529  -9.082   7.138  1.00  0.00     0.159 HD
ENDBRANCH  41  42
ENDBRANCH  40  41
ENDBRANCH  39  40
ENDBRANCH  38  39
ENDBRANCH  36  38
ENDBRANCH   5  34
BRANCH   8  50
ATOM     50  O   UNL     1       0.222 -12.291   8.065  1.00  0.00    -0.245 OA
BRANCH  50  51
ATOM     51  S   UNL     1      -0.240 -12.048   6.524  1.00  0.00     0.397 S 
ATOM     52  O   UNL     1      -1.604 -12.506   6.390  1.00  0.00    -0.169 OA
ATOM     53  O   UNL     1       0.805 -12.497   5.628  1.00  0.00    -0.169 OA
BRANCH  51  54
ATOM     54  O   UNL     1      -0.307 -10.443   6.443  1.00  0.00    -0.264 OA
ATOM     55  H   UNL     1       0.515 -10.090   6.842  1.00  0.00     0.236 HD
ENDBRANCH  51  54
ENDBRANCH  50  51
ENDBRANCH   8  50
TORSDOF 19
ENDMDL
MODEL 6
REMARK VINA RESULT:    -7.884     17.050     20.255
REMARK INTER + INTRA:         -18.542
REMARK INTER:                 -15.327
REMARK INTRA:                  -3.215
REMARK UNBOUND:                -2.592
REMARK SMILES CC[C@@H](C)[C@@H](NC(=O)[C@@H](O)Cc1ccc(O)c(Cl)c1)C(=O)N1[C@H](C(=O)NCCCCN=C(N)N)C[C@H]2CC[C@H](OS(=O)(=O)O)C[C@@H]21
REMARK SMILES IDX 22 1 36 2 46 3 35 4 23 5 45 6 37 7 39 8 38 9 20 10 21 11
REMARK SMILES IDX 5 12 6 13 7 14 8 15 9 17 11 18 12 19 17 20 19 21 15 22 14 23
REMARK SMILES IDX 13 24 18 25 16 26 10 28 3 30 4 31 2 32 1 33 24 34 25 35
REMARK SMILES IDX 26 36 27 38 28 39 29 40 30 41 31 42 32 43 33 44 34 45 40 50
REMARK SMILES IDX 41 51 42 52 43 53 44 54
REMARK H PARENT 6 16 16 27 10 29 26 37 33 46 33 47 34 48 34 49 44 55
ROOT
ATOM      1  N   UNL     1      10.833   7.871  14.154  1.00  0.00    -0.326 N 
ATOM      2  C   UNL     1      13.165   7.686  14.422  1.00  0.00     0.014 C 
ATOM      3  C   UNL     1      11.976   8.611  14.696  1.00  0.00     0.091 C 
ATOM      4  C   UNL     1      12.788   7.041  13.097  1.00  0.00     0.041 C 
ATOM      5  C   UNL     1      11.310   6.706  13.367  1.00  0.00     0.175 C 
ATOM      6  C   UNL     1      11.971   8.963  16.183  1.00  0.00     0.059 C 
ATOM      7  C   UNL     1      14.475   8.438  14.536  1.00  0.00     0.008 C 
ATOM      8  C   UNL     1      13.380   9.025  16.811  1.00  0.00     0.143 C 
ATOM      9  C   UNL     1      14.465   9.366  15.770  1.00  0.00     0.034 C 
ENDROOT
BRANCH   1  10
ATOM     10  C   UNL     1       9.494   8.220  14.099  1.00  0.00     0.246 C 
ATOM     11  O   UNL     1       8.774   7.707  13.236  1.00  0.00    -0.272 OA
BRANCH  10  12
ATOM     12  C   UNL     1       8.917   9.214  15.148  1.00  0.00     0.174 C 
BRANCH  12  13
ATOM     13  N   UNL     1       7.826   8.581  15.887  1.00  0.00    -0.342 N 
ATOM     14  C   UNL     1       7.986   7.703  16.936  1.00  0.00     0.249 C 
ATOM     15  O   UNL     1       9.075   7.373  17.388  1.00  0.00    -0.272 OA
ATOM     16  H   UNL     1       6.876   8.636  15.528  1.00  0.00     0.164 HD
BRANCH  14  17
ATOM     17  C   UNL     1       6.642   7.193  17.497  1.00  0.00     0.207 C 
BRANCH  17  18
ATOM     18  C   UNL     1       6.876   6.297  18.717  1.00  0.00     0.077 C 
BRANCH  18  19
ATOM     19  C   UNL     1       5.602   6.067  19.498  1.00  0.00    -0.043 A 
ATOM     20  C   UNL     1       3.997   4.553  20.505  1.00  0.00     0.083 A 
ATOM     21  C   UNL     1       5.198   4.764  19.827  1.00  0.00     0.028 A 
ATOM     22  C   UNL     1       3.193   5.638  20.857  1.00  0.00     0.134 A 
ATOM     23  C   UNL     1       3.581   6.934  20.537  1.00  0.00     0.048 A 
ATOM     24  C   UNL     1       4.782   7.148  19.857  1.00  0.00     0.008 A 
ATOM     25  Cl  UNL     1       3.517   2.944  20.900  1.00  0.00    -0.080 Cl
BRANCH  22  26
ATOM     26  O   UNL     1       2.002   5.480  21.512  1.00  0.00    -0.506 OA
ATOM     27  H   UNL     1       1.829   6.315  21.984  1.00  0.00     0.293 HD
ENDBRANCH  22  26
ENDBRANCH  18  19
ENDBRANCH  17  18
BRANCH  17  28
ATOM     28  O   UNL     1       5.910   6.461  16.500  1.00  0.00    -0.383 OA
ATOM     29  H   UNL     1       5.017   6.874  16.461  1.00  0.00     0.211 HD
ENDBRANCH  17  28
ENDBRANCH  14  17
ENDBRANCH  12  13
BRANCH  12  30
ATOM     30  C   UNL     1       8.499  10.571  14.521  1.00  0.00     0.018 C 
ATOM     31  C   UNL     1       9.688  11.231  13.804  1.00  0.00     0.010 C 
BRANCH  30  32
ATOM     32  C   UNL     1       7.877  11.560  15.537  1.00  0.00     0.002 C 
ATOM     33  C   UNL     1       6.825  12.503  14.967  1.00  0.00     0.004 C 
ENDBRANCH  30  32
ENDBRANCH  12  30
ENDBRANCH  10  12
ENDBRANCH   1  10
BRANCH   5  34
ATOM     34  C   UNL     1      11.160   5.394  14.182  1.00  0.00     0.242 C 
ATOM     35  O   UNL     1      11.907   4.429  14.019  1.00  0.00    -0.273 OA
ATOM     36  N   UNL     1      10.099   5.367  15.059  1.00  0.00    -0.354 N 
ATOM     37  H   UNL     1       9.444   6.150  15.062  1.00  0.00     0.163 HD
BRANCH  36  38
ATOM     38  C   UNL     1       9.937   4.318  16.045  1.00  0.00     0.116 C 
BRANCH  38  39
ATOM     39  C   UNL     1       8.455   3.998  16.223  1.00  0.00     0.023 C 
BRANCH  39  40
ATOM     40  C   UNL     1       7.709   3.934  14.894  1.00  0.00     0.026 C 
BRANCH  40  41
ATOM     41  C   UNL     1       6.292   3.397  15.093  1.00  0.00     0.146 C 
BRANCH  41  42
ATOM     42  N   UNL     1       6.057   3.140  16.508  1.00  0.00    -0.254 NA
ATOM     43  C   UNL     1       5.575   2.013  16.876  1.00  0.00     0.185 C 
ATOM     44  N   UNL     1       5.220   0.942  16.141  1.00  0.00    -0.370 N 
ATOM     45  N   UNL     1       5.361   1.798  18.184  1.00  0.00    -0.370 N 
ATOM     46  H   UNL     1       4.633   0.225  16.531  1.00  0.00     0.159 HD
ATOM     47  H   UNL     1       5.328   0.929  15.132  1.00  0.00     0.159 HD
ATOM     48  H   UNL     1       5.610   2.552  18.809  1.00  0.00     0.159 HD
ATOM     49  H   UNL     1       5.216   0.881  18.568  1.00  0.00     0.159 HD
ENDBRANCH  41  42
ENDBRANCH  40  41
ENDBRANCH  39  40
ENDBRANCH  38  39
ENDBRANCH  36  38
ENDBRANCH   5  34
BRANCH   8  50
ATOM     50  O   UNL     1      13.705   7.770  17.410  1.00  0.00    -0.245 OA
BRANCH  50  51
ATOM     51  S   UNL     1      13.861   7.667  19.026  1.00  0.00     0.397 S 
ATOM     52  O   UNL     1      14.166   6.294  19.358  1.00  0.00    -0.169 OA
ATOM     53  O   UNL     1      12.775   8.380  19.665  1.00  0.00    -0.169 OA
BRANCH  51  54
ATOM     54  O   UNL     1      15.216   8.492  19.285  1.00  0.00    -0.264 OA
ATOM     55  H   UNL     1      15.163   8.880  20.182  1.00  0.00     0.236 HD
ENDBRANCH  51  54
ENDBRANCH  50  51
ENDBRANCH   8  50
TORSDOF 19
ENDMDL
MODEL 7
REMARK VINA RESULT:    -7.849     16.697     20.393
REMARK INTER + INTRA:         -18.471
REMARK INTER:                 -14.856
REMARK INTRA:                  -3.614
REMARK UNBOUND:                -2.592
REMARK SMILES CC[C@@H](C)[C@@H](NC(=O)[C@@H](O)Cc1ccc(O)c(Cl)c1)C(=O)N1[C@H](C(=O)NCCCCN=C(N)N)C[C@H]2CC[C@H](OS(=O)(=O)O)C[C@@H]21
REMARK SMILES IDX 22 1 36 2 46 3 35 4 23 5 45 6 37 7 39 8 38 9 20 10 21 11
REMARK SMILES IDX 5 12 6 13 7 14 8 15 9 17 11 18 12 19 17 20 19 21 15 22 14 23
REMARK SMILES IDX 13 24 18 25 16 26 10 28 3 30 4 31 2 32 1 33 24 34 25 35
REMARK SMILES IDX 26 36 27 38 28 39 29 40 30 41 31 42 32 43 33 44 34 45 40 50
REMARK SMILES IDX 41 51 42 52 43 53 44 54
REMARK H PARENT 6 16 16 27 10 29 26 37 33 46 33 47 34 48 34 49 44 55
ROOT
ATOM      1  N   UNL     1       9.605   6.606  15.976  1.00  0.00    -0.326 N 
ATOM      2  C   UNL     1       7.584   5.763  15.112  1.00  0.00     0.014 C 
ATOM      3  C   UNL     1       8.917   5.335  15.732  1.00  0.00     0.091 C 
ATOM      4  C   UNL     1       7.971   6.990  14.300  1.00  0.00     0.041 C 
ATOM      5  C   UNL     1       8.873   7.715  15.315  1.00  0.00     0.175 C 
ATOM      6  C   UNL     1       8.626   4.428  16.926  1.00  0.00     0.059 C 
ATOM      7  C   UNL     1       6.909   4.595  14.419  1.00  0.00     0.008 C 
ATOM      8  C   UNL     1       7.345   3.581  16.765  1.00  0.00     0.143 C 
ATOM      9  C   UNL     1       7.005   3.321  15.284  1.00  0.00     0.034 C 
ENDROOT
BRANCH   1  10
ATOM     10  C   UNL     1      10.861   6.849  16.507  1.00  0.00     0.246 C 
ATOM     11  O   UNL     1      10.958   7.531  17.532  1.00  0.00    -0.272 OA
BRANCH  10  12
ATOM     12  C   UNL     1      12.114   6.223  15.828  1.00  0.00     0.174 C 
BRANCH  12  13
ATOM     13  N   UNL     1      11.944   6.218  14.375  1.00  0.00    -0.342 N 
ATOM     14  C   UNL     1      12.902   6.608  13.467  1.00  0.00     0.249 C 
ATOM     15  O   UNL     1      14.026   6.980  13.778  1.00  0.00    -0.272 OA
ATOM     16  H   UNL     1      11.018   6.084  13.977  1.00  0.00     0.164 HD
BRANCH  14  17
ATOM     17  C   UNL     1      12.414   6.505  12.006  1.00  0.00     0.207 C 
BRANCH  17  18
ATOM     18  C   UNL     1      13.389   5.666  11.173  1.00  0.00     0.077 C 
BRANCH  18  19
ATOM     19  C   UNL     1      13.157   4.184  11.361  1.00  0.00    -0.043 A 
ATOM     20  C   UNL     1      13.982   1.903  11.306  1.00  0.00     0.083 A 
ATOM     21  C   UNL     1      14.211   3.274  11.180  1.00  0.00     0.028 A 
ATOM     22  C   UNL     1      12.704   1.434  11.610  1.00  0.00     0.134 A 
ATOM     23  C   UNL     1      11.652   2.324  11.792  1.00  0.00     0.048 A 
ATOM     24  C   UNL     1      11.877   3.696  11.665  1.00  0.00     0.008 A 
ATOM     25  Cl  UNL     1      15.289   0.801  11.080  1.00  0.00    -0.080 Cl
BRANCH  22  26
ATOM     26  O   UNL     1      12.429   0.099  11.733  1.00  0.00    -0.506 OA
ATOM     27  H   UNL     1      11.862   0.001  12.520  1.00  0.00     0.293 HD
ENDBRANCH  22  26
ENDBRANCH  18  19
ENDBRANCH  17  18
BRANCH  17  28
ATOM     28  O   UNL     1      12.278   7.807  11.413  1.00  0.00    -0.383 OA
ATOM     29  H   UNL     1      11.321   7.914  11.210  1.00  0.00     0.211 HD
ENDBRANCH  17  28
ENDBRANCH  14  17
ENDBRANCH  12  13
BRANCH  12  30
ATOM     30  C   UNL     1      12.461   4.818  16.389  1.00  0.00     0.018 C 
ATOM     31  C   UNL     1      13.925   4.761  16.852  1.00  0.00     0.010 C 
BRANCH  30  32
ATOM     32  C   UNL     1      12.172   3.664  15.398  1.00  0.00     0.002 C 
ATOM     33  C   UNL     1      13.378   2.818  15.013  1.00  0.00     0.004 C 
ENDBRANCH  30  32
ENDBRANCH  12  30
ENDBRANCH  10  12
ENDBRANCH   1  10
BRANCH   5  34
ATOM     34  C   UNL     1       8.040   8.518  16.349  1.00  0.00     0.242 C 
ATOM     35  O   UNL     1       7.737   9.699  16.175  1.00  0.00    -0.273 OA
ATOM     36  N   UNL     1       7.712   7.832  17.497  1.00  0.00    -0.354 N 
ATOM     37  H   UNL     1       8.094   6.895  17.635  1.00  0.00     0.163 HD
BRANCH  36  38
ATOM     38  C   UNL     1       6.765   8.349  18.463  1.00  0.00     0.116 C 
BRANCH  38  39
ATOM     39  C   UNL     1       6.123   7.195  19.229  1.00  0.00     0.023 C 
BRANCH  39  40
ATOM     40  C   UNL     1       5.168   7.676  20.315  1.00  0.00     0.026 C 
BRANCH  40  41
ATOM     41  C   UNL     1       3.952   6.754  20.416  1.00  0.00     0.146 C 
BRANCH  41  42
ATOM     42  N   UNL     1       2.793   7.401  19.816  1.00  0.00    -0.254 NA
ATOM     43  C   UNL     1       2.403   7.047  18.649  1.00  0.00     0.185 C 
ATOM     44  N   UNL     1       2.905   6.119  17.814  1.00  0.00    -0.370 N 
ATOM     45  N   UNL     1       1.335   7.658  18.112  1.00  0.00    -0.370 N 
ATOM     46  H   UNL     1       2.654   6.116  16.840  1.00  0.00     0.159 HD
ATOM     47  H   UNL     1       3.708   5.552  18.068  1.00  0.00     0.159 HD
ATOM     48  H   UNL     1       0.891   8.366  18.681  1.00  0.00     0.159 HD
ATOM     49  H   UNL     1       0.833   7.285  17.326  1.00  0.00     0.159 HD
ENDBRANCH  41  42
ENDBRANCH  40  41
ENDBRANCH  39  40
ENDBRANCH  38  39
ENDBRANCH  36  38
ENDBRANCH   5  34
BRANCH   8  50
ATOM     50  O   UNL     1       6.238   4.247  17.374  1.00  0.00    -0.245 OA
BRANCH  50  51
ATOM     51  S   UNL     1       5.298   3.441  18.429  1.00  0.00     0.397 S 
ATOM     52  O   UNL     1       3.952   3.421  17.904  1.00  0.00    -0.169 OA
ATOM     53  O   UNL     1       5.582   3.894  19.776  1.00  0.00    -0.169 OA
BRANCH  51  54
ATOM     54  O   UNL     1       5.847   1.937  18.286  1.00  0.00    -0.264 OA
ATOM     55  H   UNL     1       6.464   1.772  19.029  1.00  0.00     0.236 HD
ENDBRANCH  51  54
ENDBRANCH  50  51
ENDBRANCH   8  50
TORSDOF 19
ENDMDL
MODEL 8
REMARK VINA RESULT:    -7.818      2.788      4.288
REMARK INTER + INTRA:         -18.409
REMARK INTER:                 -15.726
REMARK INTRA:                  -2.683
REMARK UNBOUND:                -2.592
REMARK SMILES CC[C@@H](C)[C@@H](NC(=O)[C@@H](O)Cc1ccc(O)c(Cl)c1)C(=O)N1[C@H](C(=O)NCCCCN=C(N)N)C[C@H]2CC[C@H](OS(=O)(=O)O)C[C@@H]21
REMARK SMILES IDX 22 1 36 2 46 3 35 4 23 5 45 6 37 7 39 8 38 9 20 10 21 11
REMARK SMILES IDX 5 12 6 13 7 14 8 15 9 17 11 18 12 19 17 20 19 21 15 22 14 23
REMARK SMILES IDX 13 24 18 25 16 26 10 28 3 30 4 31 2 32 1 33 24 34 25 35
REMARK SMILES IDX 26 36 27 38 28 39 29 40 30 41 31 42 32 43 33 44 34 45 40 50
REMARK SMILES IDX 41 51 42 52 43 53 44 54
REMARK H PARENT 6 16 16 27 10 29 26 37 33 46 33 47 34 48 34 49 44 55
ROOT
ATOM      1  N   UNL     1       2.388 -11.455  11.536  1.00  0.00    -0.326 N 
ATOM      2  C   UNL     1       4.404 -10.494  10.791  1.00  0.00     0.014 C 
ATOM      3  C   UNL     1       2.971 -10.151  11.206  1.00  0.00     0.091 C 
ATOM      4  C   UNL     1       4.241 -11.842  10.105  1.00  0.00     0.041 C 
ATOM      5  C   UNL     1       3.300 -12.543  11.103  1.00  0.00     0.175 C 
ATOM      6  C   UNL     1       3.026  -9.085  12.299  1.00  0.00     0.059 C 
ATOM      7  C   UNL     1       5.038  -9.346  10.031  1.00  0.00     0.008 C 
ATOM      8  C   UNL     1       4.227  -8.124  12.169  1.00  0.00     0.143 C 
ATOM      9  C   UNL     1       4.714  -7.999  10.711  1.00  0.00     0.034 C 
ENDROOT
BRANCH   1  10
ATOM     10  C   UNL     1       1.108 -11.775  11.956  1.00  0.00     0.246 C 
ATOM     11  O   UNL     1       0.928 -12.110  13.132  1.00  0.00    -0.272 OA
BRANCH  10  12
ATOM     12  C   UNL     1      -0.078 -11.665  10.955  1.00  0.00     0.174 C 
BRANCH  12  13
ATOM     13  N   UNL     1      -1.323 -11.418  11.682  1.00  0.00    -0.342 N 
ATOM     14  C   UNL     1      -1.640 -10.245  12.330  1.00  0.00     0.249 C 
ATOM     15  O   UNL     1      -0.917  -9.257  12.346  1.00  0.00    -0.272 OA
ATOM     16  H   UNL     1      -1.948 -12.193  11.887  1.00  0.00     0.164 HD
BRANCH  14  17
ATOM     17  C   UNL     1      -3.020 -10.301  13.021  1.00  0.00     0.207 C 
BRANCH  17  18
ATOM     18  C   UNL     1      -3.325  -8.971  13.716  1.00  0.00     0.077 C 
BRANCH  18  19
ATOM     19  C   UNL     1      -4.037  -8.005  12.796  1.00  0.00    -0.043 A 
ATOM     20  C   UNL     1      -4.648  -5.736  12.194  1.00  0.00     0.083 A 
ATOM     21  C   UNL     1      -3.950  -6.622  13.016  1.00  0.00     0.028 A 
ATOM     22  C   UNL     1      -5.437  -6.225  11.152  1.00  0.00     0.134 A 
ATOM     23  C   UNL     1      -5.531  -7.592  10.923  1.00  0.00     0.048 A 
ATOM     24  C   UNL     1      -4.835  -8.482  11.744  1.00  0.00     0.008 A 
ATOM     25  Cl  UNL     1      -4.529  -4.040  12.481  1.00  0.00    -0.080 Cl
BRANCH  22  26
ATOM     26  O   UNL     1      -6.148  -5.396  10.327  1.00  0.00    -0.506 OA
ATOM     27  H   UNL     1      -5.877  -4.485  10.544  1.00  0.00     0.293 HD
ENDBRANCH  22  26
ENDBRANCH  18  19
ENDBRANCH  17  18
BRANCH  17  28
ATOM     28  O   UNL     1      -3.074 -11.366  13.983  1.00  0.00    -0.383 OA
ATOM     29  H   UNL     1      -2.822 -12.184  13.498  1.00  0.00     0.211 HD
ENDBRANCH  17  28
ENDBRANCH  14  17
ENDBRANCH  12  13
BRANCH  12  30
ATOM     30  C   UNL     1      -0.179 -12.890  10.007  1.00  0.00     0.018 C 
ATOM     31  C   UNL     1       0.216 -14.182  10.740  1.00  0.00     0.010 C 
BRANCH  30  32
ATOM     32  C   UNL     1       0.651 -12.740   8.708  1.00  0.00     0.002 C 
ATOM     33  C   UNL     1       0.934 -11.307   8.278  1.00  0.00     0.004 C 
ENDBRANCH  30  32
ENDBRANCH  12  30
ENDBRANCH  10  12
ENDBRANCH   1  10
BRANCH   5  34
ATOM     34  C   UNL     1       4.079 -13.122  12.314  1.00  0.00     0.242 C 
ATOM     35  O   UNL     1       3.542 -13.334  13.401  1.00  0.00    -0.273 OA
ATOM     36  N   UNL     1       5.423 -13.331  12.100  1.00  0.00    -0.354 N 
ATOM     37  H   UNL     1       5.834 -13.024  11.217  1.00  0.00     0.163 HD
BRANCH  36  38
ATOM     38  C   UNL     1       6.251 -14.061  13.038  1.00  0.00     0.116 C 
BRANCH  38  39
ATOM     39  C   UNL     1       6.996 -13.081  13.942  1.00  0.00     0.023 C 
BRANCH  39  40
ATOM     40  C   UNL     1       8.355 -12.685  13.377  1.00  0.00     0.026 C 
BRANCH  40  41
ATOM     41  C   UNL     1       9.346 -12.389  14.503  1.00  0.00     0.146 C 
BRANCH  41  42
ATOM     42  N   UNL     1       9.796 -11.006  14.412  1.00  0.00    -0.254 NA
ATOM     43  C   UNL     1       9.204 -10.101  15.096  1.00  0.00     0.185 C 
ATOM     44  N   UNL     1       8.166 -10.199  15.947  1.00  0.00    -0.370 N 
ATOM     45  N   UNL     1       9.632  -8.831  14.995  1.00  0.00    -0.370 N 
ATOM     46  H   UNL     1       7.650  -9.381  16.223  1.00  0.00     0.159 HD
ATOM     47  H   UNL     1       7.728 -11.092  16.152  1.00  0.00     0.159 HD
ATOM     48  H   UNL     1      10.418  -8.671  14.379  1.00  0.00     0.159 HD
ATOM     49  H   UNL     1       9.386  -8.120  15.660  1.00  0.00     0.159 HD
ENDBRANCH  41  42
ENDBRANCH  40  41
ENDBRANCH  39  40
ENDBRANCH  38  39
ENDBRANCH  36  38
ENDBRANCH   5  34
BRANCH   8  50
ATOM     50  O   UNL     1       5.314  -8.585  12.971  1.00  0.00    -0.245 OA
BRANCH  50  51
ATOM     51  S   UNL     1       6.485  -7.545  13.412  1.00  0.00     0.397 S 
ATOM     52  O   UNL     1       6.764  -7.756  14.815  1.00  0.00    -0.169 OA
ATOM     53  O   UNL     1       6.189  -6.229  12.886  1.00  0.00    -0.169 OA
BRANCH  51  54
ATOM     54  O   UNL     1       7.760  -8.121  12.620  1.00  0.00    -0.264 OA
ATOM     55  H   UNL     1       8.317  -7.360  12.357  1.00  0.00     0.236 HD
ENDBRANCH  51  54
ENDBRANCH  50  51
ENDBRANCH   8  50
TORSDOF 19
ENDMDL
MODEL 9
REMARK VINA RESULT:    -7.804     15.600     18.523
REMARK INTER + INTRA:         -18.379
REMARK INTER:                 -15.257
REMARK INTRA:                  -3.123
REMARK UNBOUND:                -2.592
REMARK SMILES CC[C@@H](C)[C@@H](NC(=O)[C@@H](O)Cc1ccc(O)c(Cl)c1)C(=O)N1[C@H](C(=O)NCCCCN=C(N)N)C[C@H]2CC[C@H](OS(=O)(=O)O)C[C@@H]21
REMARK SMILES IDX 22 1 36 2 46 3 35 4 23 5 45 6 37 7 39 8 38 9 20 10 21 11
REMARK SMILES IDX 5 12 6 13 7 14 8 15 9 17 11 18 12 19 17 20 19 21 15 22 14 23
REMARK SMILES IDX 13 24 18 25 16 26 10 28 3 30 4 31 2 32 1 33 24 34 25 35
REMARK SMILES IDX 26 36 27 38 28 39 29 40 30 41 31 42 32 43 33 44 34 45 40 50
REMARK SMILES IDX 41 51 42 52 43 53 44 54
REMARK H PARENT 6 16 16 27 10 29 26 37 33 46 33 47 34 48 34 49 44 55
ROOT
ATOM      1  N   UNL     1      11.309   5.167  14.609  1.00  0.00    -0.326 N 
ATOM      2  C   UNL     1      13.531   5.187  15.389  1.00  0.00     0.014 C 
ATOM      3  C   UNL     1      12.077   5.061  15.853  1.00  0.00     0.091 C 
ATOM      4  C   UNL     1      13.428   6.164  14.228  1.00  0.00     0.041 C 
ATOM      5  C   UNL     1      12.197   5.593  13.499  1.00  0.00     0.175 C 
ATOM      6  C   UNL     1      11.943   3.783  16.680  1.00  0.00     0.059 C 
ATOM      7  C   UNL     1      14.446   5.509  16.553  1.00  0.00     0.008 C 
ATOM      8  C   UNL     1      13.221   3.415  17.466  1.00  0.00     0.143 C 
ATOM      9  C   UNL     1      14.082   4.654  17.785  1.00  0.00     0.034 C 
ENDROOT
BRANCH   1  10
ATOM     10  C   UNL     1       9.940   5.141  14.406  1.00  0.00     0.246 C 
ATOM     11  O   UNL     1       9.482   4.459  13.484  1.00  0.00    -0.272 OA
BRANCH  10  12
ATOM     12  C   UNL     1       9.007   5.935  15.367  1.00  0.00     0.174 C 
BRANCH  12  13
ATOM     13  N   UNL     1       7.704   5.276  15.454  1.00  0.00    -0.342 N 
ATOM     14  C   UNL     1       7.449   4.119  16.154  1.00  0.00     0.249 C 
ATOM     15  O   UNL     1       8.291   3.521  16.813  1.00  0.00    -0.272 OA
ATOM     16  H   UNL     1       6.951   5.567  14.836  1.00  0.00     0.164 HD
BRANCH  14  17
ATOM     17  C   UNL     1       5.979   3.664  16.038  1.00  0.00     0.207 C 
BRANCH  17  18
ATOM     18  C   UNL     1       5.707   2.485  16.978  1.00  0.00     0.077 C 
BRANCH  18  19
ATOM     19  C   UNL     1       4.961   2.917  18.220  1.00  0.00    -0.043 A 
ATOM     20  C   UNL     1       2.982   2.831  19.621  1.00  0.00     0.083 A 
ATOM     21  C   UNL     1       3.689   2.394  18.500  1.00  0.00     0.028 A 
ATOM     22  C   UNL     1       3.538   3.792  20.466  1.00  0.00     0.134 A 
ATOM     23  C   UNL     1       4.797   4.318  20.201  1.00  0.00     0.048 A 
ATOM     24  C   UNL     1       5.506   3.884  19.079  1.00  0.00     0.008 A 
ATOM     25  Cl  UNL     1       1.420   2.177  19.948  1.00  0.00    -0.080 Cl
BRANCH  22  26
ATOM     26  O   UNL     1       2.879   4.259  21.570  1.00  0.00    -0.506 OA
ATOM     27  H   UNL     1       2.265   4.950  21.259  1.00  0.00     0.293 HD
ENDBRANCH  22  26
ENDBRANCH  18  19
ENDBRANCH  17  18
BRANCH  17  28
ATOM     28  O   UNL     1       5.660   3.283  14.690  1.00  0.00    -0.383 OA
ATOM     29  H   UNL     1       6.093   2.411  14.545  1.00  0.00     0.211 HD
ENDBRANCH  17  28
ENDBRANCH  14  17
ENDBRANCH  12  13
BRANCH  12  30
ATOM     30  C   UNL     1       8.888   7.435  14.984  1.00  0.00     0.018 C 
ATOM     31  C   UNL     1       7.757   8.112  15.773  1.00  0.00     0.010 C 
BRANCH  30  32
ATOM     32  C   UNL     1       8.697   7.675  13.467  1.00  0.00     0.002 C 
ATOM     33  C   UNL     1       9.523   8.812  12.878  1.00  0.00     0.004 C 
ENDBRANCH  30  32
ENDBRANCH  12  30
ENDBRANCH  10  12
ENDBRANCH   1  10
BRANCH   5  34
ATOM     34  C   UNL     1      12.574   4.386  12.601  1.00  0.00     0.242 C 
ATOM     35  O   UNL     1      12.563   3.227  13.017  1.00  0.00    -0.273 OA
ATOM     36  N   UNL     1      12.972   4.708  11.323  1.00  0.00    -0.354 N 
ATOM     37  H   UNL     1      13.075   5.693  11.074  1.00  0.00     0.163 HD
BRANCH  36  38
ATOM     38  C   UNL     1      13.150   3.706  10.292  1.00  0.00     0.116 C 
BRANCH  38  39
ATOM     39  C   UNL     1      14.630   3.583   9.939  1.00  0.00     0.023 C 
BRANCH  39  40
ATOM     40  C   UNL     1      15.356   2.568  10.814  1.00  0.00     0.026 C 
BRANCH  40  41
ATOM     41  C   UNL     1      14.877   1.148  10.509  1.00  0.00     0.146 C 
BRANCH  41  42
ATOM     42  N   UNL     1      14.768   0.388  11.747  1.00  0.00    -0.254 NA
ATOM     43  C   UNL     1      13.612   0.114  12.221  1.00  0.00     0.185 C 
ATOM     44  N   UNL     1      12.388   0.420  11.752  1.00  0.00    -0.370 N 
ATOM     45  N   UNL     1      13.532  -0.584  13.366  1.00  0.00    -0.370 N 
ATOM     46  H   UNL     1      11.580   0.356  12.346  1.00  0.00     0.159 HD
ATOM     47  H   UNL     1      12.264   0.935  10.886  1.00  0.00     0.159 HD
ATOM     48  H   UNL     1      14.410  -0.863  13.783  1.00  0.00     0.159 HD
ATOM     49  H   UNL     1      12.689  -1.036  13.671  1.00  0.00     0.159 HD
ENDBRANCH  41  42
ENDBRANCH  40  41
ENDBRANCH  39  40
ENDBRANCH  38  39
ENDBRANCH  36  38
ENDBRANCH   5  34
BRANCH   8  50
ATOM     50  O   UNL     1      14.011   2.495  16.712  1.00  0.00    -0.245 OA
BRANCH  50  51
ATOM     51  S   UNL     1      13.718   0.900  16.830  1.00  0.00     0.397 S 
ATOM     52  O   UNL     1      12.516   0.610  16.080  1.00  0.00    -0.169 OA
ATOM     53  O   UNL     1      13.874   0.477  18.206  1.00  0.00    -0.169 OA
BRANCH  51  54
ATOM     54  O   UNL     1      14.928   0.272  15.977  1.00  0.00    -0.264 OA
ATOM     55  H   UNL     1      15.765   0.521  16.420  1.00  0.00     0.236 HD
ENDBRANCH  51  54
ENDBRANCH  50  51
ENDBRANCH   8  50
TORSDOF 19
ENDMDL
MODEL 10
REMARK VINA RESULT:    -7.802     16.485     20.748
REMARK INTER + INTRA:         -18.375
REMARK INTER:                 -14.740
REMARK INTRA:                  -3.635
REMARK UNBOUND:                -2.592
REMARK SMILES CC[C@@H](C)[C@@H](NC(=O)[C@@H](O)Cc1ccc(O)c(Cl)c1)C(=O)N1[C@H](C(=O)NCCCCN=C(N)N)C[C@H]2CC[C@H](OS(=O)(=O)O)C[C@@H]21
REMARK SMILES IDX 22 1 36 2 46 3 35 4 23 5 45 6 37 7 39 8 38 9 20 10 21 11
REMARK SMILES IDX 5 12 6 13 7 14 8 15 9 17 11 18 12 19 17 20 19 21 15 22 14 23
REMARK SMILES IDX 13 24 18 25 16 26 10 28 3 30 4 31 2 32 1 33 24 34 25 35
REMARK SMILES IDX 26 36 27 38 28 39 29 40 30 41 31 42 32 43 33 44 34 45 40 50
REMARK SMILES IDX 41 51 42 52 43 53 44 54
REMARK H PARENT 6 16 16 27 10 29 26 37 33 46 33 47 34 48 34 49 44 55
ROOT
ATOM      1  N   UNL     1       9.379   7.005  15.459  1.00  0.00    -0.326 N 
ATOM      2  C   UNL     1       8.992   4.875  14.534  1.00  0.00     0.014 C 
ATOM      3  C   UNL     1       9.985   6.041  14.536  1.00  0.00     0.091 C 
ATOM      4  C   UNL     1       7.651   5.577  14.681  1.00  0.00     0.041 C 
ATOM      5  C   UNL     1       7.994   6.588  15.791  1.00  0.00     0.175 C 
ATOM      6  C   UNL     1      11.372   5.494  14.869  1.00  0.00     0.059 C 
ATOM      7  C   UNL     1       9.228   3.965  13.344  1.00  0.00     0.008 C 
ATOM      8  C   UNL     1      11.609   4.053  14.366  1.00  0.00     0.143 C 
ATOM      9  C   UNL     1      10.737   3.718  13.139  1.00  0.00     0.034 C 
ENDROOT
BRANCH   1  10
ATOM     10  C   UNL     1       9.816   8.261  15.844  1.00  0.00     0.246 C 
ATOM     11  O   UNL     1      10.047   8.477  17.039  1.00  0.00    -0.272 OA
BRANCH  10  12
ATOM     12  C   UNL     1      10.049   9.357  14.764  1.00  0.00     0.174 C 
BRANCH  12  13
ATOM     13  N   UNL     1      11.356   9.169  14.136  1.00  0.00    -0.342 N 
ATOM     14  C   UNL     1      11.558   8.882  12.805  1.00  0.00     0.249 C 
ATOM     15  O   UNL     1      10.655   8.778  11.984  1.00  0.00    -0.272 OA
ATOM     16  H   UNL     1      12.184   9.071  14.717  1.00  0.00     0.164 HD
BRANCH  14  17
ATOM     17  C   UNL     1      13.052   8.724  12.450  1.00  0.00     0.207 C 
BRANCH  17  18
ATOM     18  C   UNL     1      13.660   7.538  13.206  1.00  0.00     0.077 C 
BRANCH  18  19
ATOM     19  C   UNL     1      13.804   6.321  12.319  1.00  0.00    -0.043 A 
ATOM     20  C   UNL     1      14.910   4.230  11.783  1.00  0.00     0.083 A 
ATOM     21  C   UNL     1      14.745   5.327  12.629  1.00  0.00     0.028 A 
ATOM     22  C   UNL     1      14.141   4.121  10.624  1.00  0.00     0.134 A 
ATOM     23  C   UNL     1      13.206   5.098  10.304  1.00  0.00     0.048 A 
ATOM     24  C   UNL     1      13.039   6.198  11.149  1.00  0.00     0.008 A 
ATOM     25  Cl  UNL     1      16.071   3.018  12.180  1.00  0.00    -0.080 Cl
BRANCH  22  26
ATOM     26  O   UNL     1      14.275   3.069   9.758  1.00  0.00    -0.506 OA
ATOM     27  H   UNL     1      14.811   3.390   9.009  1.00  0.00     0.293 HD
ENDBRANCH  22  26
ENDBRANCH  18  19
ENDBRANCH  17  18
BRANCH  17  28
ATOM     28  O   UNL     1      13.787   9.917  12.765  1.00  0.00    -0.383 OA
ATOM     29  H   UNL     1      13.232  10.669  12.456  1.00  0.00     0.211 HD
ENDBRANCH  17  28
ENDBRANCH  14  17
ENDBRANCH  12  13
BRANCH  12  30
ATOM     30  C   UNL     1       9.859  10.795  15.319  1.00  0.00     0.018 C 
ATOM     31  C   UNL     1       8.668  11.490  14.641  1.00  0.00     0.010 C 
BRANCH  30  32
ATOM     32  C   UNL     1      11.126  11.677  15.203  1.00  0.00     0.002 C 
ATOM     33  C   UNL     1      11.054  12.786  14.161  1.00  0.00     0.004 C 
ENDBRANCH  30  32
ENDBRANCH  12  30
ENDBRANCH  10  12
ENDBRANCH   1  10
BRANCH   5  34
ATOM     34  C   UNL     1       7.939   5.935  17.198  1.00  0.00     0.242 C 
ATOM     35  O   UNL     1       8.939   5.477  17.750  1.00  0.00    -0.273 OA
ATOM     36  N   UNL     1       6.683   5.857  17.758  1.00  0.00    -0.354 N 
ATOM     37  H   UNL     1       5.878   6.144  17.201  1.00  0.00     0.163 HD
BRANCH  36  38
ATOM     38  C   UNL     1       6.476   5.478  19.140  1.00  0.00     0.116 C 
BRANCH  38  39
ATOM     39  C   UNL     1       5.065   4.921  19.319  1.00  0.00     0.023 C 
BRANCH  39  40
ATOM     40  C   UNL     1       5.011   3.407  19.149  1.00  0.00     0.026 C 
BRANCH  40  41
ATOM     41  C   UNL     1       4.162   3.028  17.935  1.00  0.00     0.146 C 
BRANCH  41  42
ATOM     42  N   UNL     1       4.923   3.252  16.713  1.00  0.00    -0.254 NA
ATOM     43  C   UNL     1       5.362   2.249  16.049  1.00  0.00     0.185 C 
ATOM     44  N   UNL     1       5.240   0.931  16.289  1.00  0.00    -0.370 N 
ATOM     45  N   UNL     1       6.066   2.477  14.927  1.00  0.00    -0.370 N 
ATOM     46  H   UNL     1       5.837   0.268  15.825  1.00  0.00     0.159 HD
ATOM     47  H   UNL     1       4.725   0.581  17.091  1.00  0.00     0.159 HD
ATOM     48  H   UNL     1       6.197   3.445  14.669  1.00  0.00     0.159 HD
ATOM     49  H   UNL     1       6.235   1.766  14.238  1.00  0.00     0.159 HD
ENDBRANCH  41  42
ENDBRANCH  40  41
ENDBRANCH  39  40
ENDBRANCH  38  39
ENDBRANCH  36  38
ENDBRANCH   5  34
BRANCH   8  50
ATOM     50  O   UNL     1      11.312   3.117  15.403  1.00  0.00    -0.245 OA
BRANCH  50  51
ATOM     51  S   UNL     1      12.514   2.550  16.341  1.00  0.00     0.397 S 
ATOM     52  O   UNL     1      12.246   2.955  17.702  1.00  0.00    -0.169 OA
ATOM     53  O   UNL     1      13.789   2.811  15.707  1.00  0.00    -0.169 OA
BRANCH  51  54
ATOM     54  O   UNL     1      12.253   0.964  16.297  1.00  0.00    -0.264 OA
ATOM     55  H   UNL     1      11.367   0.817  15.907  1.00  0.00     0.236 HD
ENDBRANCH  51  54
ENDBRANCH  50  51
ENDBRANCH   8  50
TORSDOF 19
ENDMDL
MODEL 11
REMARK VINA RESULT:    -7.789     16.635     19.944
REMARK INTER + INTRA:         -18.349
REMARK INTER:                 -14.552
REMARK INTRA:                  -3.797
REMARK UNBOUND:                -2.592
REMARK SMILES CC[C@@H](C)[C@@H](NC(=O)[C@@H](O)Cc1ccc(O)c(Cl)c1)C(=O)N1[C@H](C(=O)NCCCCN=C(N)N)C[C@H]2CC[C@H](OS(=O)(=O)O)C[C@@H]21
REMARK SMILES IDX 22 1 36 2 46 3 35 4 23 5 45 6 37 7 39 8 38 9 20 10 21 11
REMARK SMILES IDX 5 12 6 13 7 14 8 15 9 17 11 18 12 19 17 20 19 21 15 22 14 23
REMARK SMILES IDX 13 24 18 25 16 26 10 28 3 30 4 31 2 32 1 33 24 34 25 35
REMARK SMILES IDX 26 36 27 38 28 39 29 40 30 41 31 42 32 43 33 44 34 45 40 50
REMARK SMILES IDX 41 51 42 52 43 53 44 54
REMARK H PARENT 6 16 16 27 10 29 26 37 33 46 33 47 34 48 34 49 44 55
ROOT
ATOM      1  N   UNL     1       8.990   6.424  15.369  1.00  0.00    -0.326 N 
ATOM      2  C   UNL     1       9.479   8.119  13.809  1.00  0.00     0.014 C 
ATOM      3  C   UNL     1       9.063   7.884  15.264  1.00  0.00     0.091 C 
ATOM      4  C   UNL     1       8.777   6.988  13.074  1.00  0.00     0.041 C 
ATOM      5  C   UNL     1       9.088   5.813  14.020  1.00  0.00     0.175 C 
ATOM      6  C   UNL     1      10.042   8.627  16.172  1.00  0.00     0.059 C 
ATOM      7  C   UNL     1       9.214   9.553  13.394  1.00  0.00     0.008 C 
ATOM      8  C   UNL     1      10.607   9.922  15.549  1.00  0.00     0.143 C 
ATOM      9  C   UNL     1       9.647  10.530  14.507  1.00  0.00     0.034 C 
ENDROOT
BRANCH   1  10
ATOM     10  C   UNL     1       8.643   5.627  16.447  1.00  0.00     0.246 C 
ATOM     11  O   UNL     1       9.497   5.367  17.301  1.00  0.00    -0.272 OA
BRANCH  10  12
ATOM     12  C   UNL     1       7.181   5.113  16.582  1.00  0.00     0.174 C 
BRANCH  12  13
ATOM     13  N   UNL     1       6.674   5.398  17.923  1.00  0.00    -0.342 N 
ATOM     14  C   UNL     1       6.160   6.608  18.333  1.00  0.00     0.249 C 
ATOM     15  O   UNL     1       6.044   7.583  17.601  1.00  0.00    -0.272 OA
ATOM     16  H   UNL     1       6.848   4.739  18.678  1.00  0.00     0.164 HD
BRANCH  14  17
ATOM     17  C   UNL     1       5.724   6.599  19.814  1.00  0.00     0.207 C 
BRANCH  17  18
ATOM     18  C   UNL     1       4.273   7.073  19.948  1.00  0.00     0.077 C 
BRANCH  18  19
ATOM     19  C   UNL     1       3.333   5.926  20.244  1.00  0.00    -0.043 A 
ATOM     20  C   UNL     1       2.799   3.562  20.134  1.00  0.00     0.083 A 
ATOM     21  C   UNL     1       3.690   4.612  19.905  1.00  0.00     0.028 A 
ATOM     22  C   UNL     1       1.549   3.818  20.699  1.00  0.00     0.134 A 
ATOM     23  C   UNL     1       1.183   5.115  21.039  1.00  0.00     0.048 A 
ATOM     24  C   UNL     1       2.071   6.168  20.810  1.00  0.00     0.008 A 
ATOM     25  Cl  UNL     1       3.256   1.954  19.710  1.00  0.00    -0.080 Cl
BRANCH  22  26
ATOM     26  O   UNL     1       0.638   2.823  20.932  1.00  0.00    -0.506 OA
ATOM     27  H   UNL     1       0.396   2.881  21.875  1.00  0.00     0.293 HD
ENDBRANCH  22  26
ENDBRANCH  18  19
ENDBRANCH  17  18
BRANCH  17  28
ATOM     28  O   UNL     1       6.576   7.439  20.609  1.00  0.00    -0.383 OA
ATOM     29  H   UNL     1       6.728   6.954  21.451  1.00  0.00     0.211 HD
ENDBRANCH  17  28
ENDBRANCH  14  17
ENDBRANCH  12  13
BRANCH  12  30
ATOM     30  C   UNL     1       7.034   3.616  16.199  1.00  0.00     0.018 C 
ATOM     31  C   UNL     1       6.525   3.468  14.756  1.00  0.00     0.010 C 
BRANCH  30  32
ATOM     32  C   UNL     1       6.130   2.813  17.166  1.00  0.00     0.002 C 
ATOM     33  C   UNL     1       5.030   1.995  16.502  1.00  0.00     0.004 C 
ENDBRANCH  30  32
ENDBRANCH  12  30
ENDBRANCH  10  12
ENDBRANCH   1  10
BRANCH   5  34
ATOM     34  C   UNL     1      10.512   5.244  13.776  1.00  0.00     0.242 C 
ATOM     35  O   UNL     1      11.492   5.628  14.415  1.00  0.00    -0.273 OA
ATOM     36  N   UNL     1      10.607   4.321  12.759  1.00  0.00    -0.354 N 
ATOM     37  H   UNL     1       9.783   4.133  12.187  1.00  0.00     0.163 HD
BRANCH  36  38
ATOM     38  C   UNL     1      11.803   3.535  12.538  1.00  0.00     0.116 C 
BRANCH  38  39
ATOM     39  C   UNL     1      12.225   3.634  11.074  1.00  0.00     0.023 C 
BRANCH  39  40
ATOM     40  C   UNL     1      13.179   4.795  10.819  1.00  0.00     0.026 C 
BRANCH  40  41
ATOM     41  C   UNL     1      14.040   5.070  12.052  1.00  0.00     0.146 C 
BRANCH  41  42
ATOM     42  N   UNL     1      14.797   6.300  11.860  1.00  0.00    -0.254 NA
ATOM     43  C   UNL     1      14.315   7.412  12.273  1.00  0.00     0.185 C 
ATOM     44  N   UNL     1      13.152   7.671  12.898  1.00  0.00    -0.370 N 
ATOM     45  N   UNL     1      15.026   8.535  12.082  1.00  0.00    -0.370 N 
ATOM     46  H   UNL     1      12.793   8.610  12.944  1.00  0.00     0.159 HD
ATOM     47  H   UNL     1      12.497   6.932  13.133  1.00  0.00     0.159 HD
ATOM     48  H   UNL     1      15.921   8.426  11.624  1.00  0.00     0.159 HD
ATOM     49  H   UNL     1      14.837   9.389  12.575  1.00  0.00     0.159 HD
ENDBRANCH  41  42
ENDBRANCH  40  41
ENDBRANCH  39  40
ENDBRANCH  38  39
ENDBRANCH  36  38
ENDBRANCH   5  34
BRANCH   8  50
ATOM     50  O   UNL     1      11.857   9.654  14.912  1.00  0.00    -0.245 OA
BRANCH  50  51
ATOM     51  S   UNL     1      13.210  10.366  15.467  1.00  0.00     0.397 S 
ATOM     52  O   UNL     1      14.238  10.215  14.463  1.00  0.00    -0.169 OA
ATOM     53  O   UNL     1      13.431   9.980  16.846  1.00  0.00    -0.169 OA
BRANCH  51  54
ATOM     54  O   UNL     1      12.803  11.921  15.447  1.00  0.00    -0.264 OA
ATOM     55  H   UNL     1      11.891  11.987  15.096  1.00  0.00     0.236 HD
ENDBRANCH  51  54
ENDBRANCH  50  51
ENDBRANCH   8  50
TORSDOF 19
ENDMDL
MODEL 12
REMARK VINA RESULT:    -7.709     17.881     21.720
REMARK INTER + INTRA:         -18.187
REMARK INTER:                 -13.403
REMARK INTRA:                  -4.783
REMARK UNBOUND:                -2.592
REMARK SMILES CC[C@@H](C)[C@@H](NC(=O)[C@@H](O)Cc1ccc(O)c(Cl)c1)C(=O)N1[C@H](C(=O)NCCCCN=C(N)N)C[C@H]2CC[C@H](OS(=O)(=O)O)C[C@@H]21
REMARK SMILES IDX 22 1 36 2 46 3 35 4 23 5 45 6 37 7 39 8 38 9 20 10 21 11
REMARK SMILES IDX 5 12 6 13 7 14 8 15 9 17 11 18 12 19 17 20 19 21 15 22 14 23
REMARK SMILES IDX 13 24 18 25 16 26 10 28 3 30 4 31 2 32 1 33 24 34 25 35
REMARK SMILES IDX 26 36 27 38 28 39 29 40 30 41 31 42 32 43 33 44 34 45 40 50
REMARK SMILES IDX 41 51 42 52 43 53 44 54
REMARK H PARENT 6 16 16 27 10 29 26 37 33 46 33 47 34 48 34 49 44 55
ROOT
ATOM      1  N   UNL     1      10.115   6.059  15.768  1.00  0.00    -0.326 N 
ATOM      2  C   UNL     1       7.809   5.932  15.312  1.00  0.00     0.014 C 
ATOM      3  C   UNL     1       9.066   5.075  15.485  1.00  0.00     0.091 C 
ATOM      4  C   UNL     1       8.351   7.195  14.660  1.00  0.00     0.041 C 
ATOM      5  C   UNL     1       9.604   7.431  15.524  1.00  0.00     0.175 C 
ATOM      6  C   UNL     1       8.778   4.002  16.533  1.00  0.00     0.059 C 
ATOM      7  C   UNL     1       6.711   5.150  14.618  1.00  0.00     0.008 C 
ATOM      8  C   UNL     1       7.307   3.534  16.556  1.00  0.00     0.143 C 
ATOM      9  C   UNL     1       6.619   3.719  15.188  1.00  0.00     0.034 C 
ENDROOT
BRANCH   1  10
ATOM     10  C   UNL     1      11.468   5.874  15.995  1.00  0.00     0.246 C 
ATOM     11  O   UNL     1      11.838   5.421  17.083  1.00  0.00    -0.272 OA
BRANCH  10  12
ATOM     12  C   UNL     1      12.487   6.198  14.864  1.00  0.00     0.174 C 
BRANCH  12  13
ATOM     13  N   UNL     1      12.706   7.642  14.789  1.00  0.00    -0.342 N 
ATOM     14  C   UNL     1      13.626   8.341  15.538  1.00  0.00     0.249 C 
ATOM     15  O   UNL     1      14.390   7.820  16.340  1.00  0.00    -0.272 OA
ATOM     16  H   UNL     1      12.044   8.226  14.286  1.00  0.00     0.164 HD
BRANCH  14  17
ATOM     17  C   UNL     1      13.605   9.856  15.243  1.00  0.00     0.207 C 
BRANCH  17  18
ATOM     18  C   UNL     1      13.036  10.122  13.845  1.00  0.00     0.077 C 
BRANCH  18  19
ATOM     19  C   UNL     1      11.638  10.697  13.908  1.00  0.00    -0.043 A 
ATOM     20  C   UNL     1      10.087  12.367  14.738  1.00  0.00     0.083 A 
ATOM     21  C   UNL     1      11.386  11.867  14.641  1.00  0.00     0.028 A 
ATOM     22  C   UNL     1       9.035  11.704  14.105  1.00  0.00     0.134 A 
ATOM     23  C   UNL     1       9.271  10.545  13.375  1.00  0.00     0.048 A 
ATOM     24  C   UNL     1      10.569  10.040  13.279  1.00  0.00     0.008 A 
ATOM     25  Cl  UNL     1       9.797  13.805  15.644  1.00  0.00    -0.080 Cl
BRANCH  22  26
ATOM     26  O   UNL     1       7.743  12.151  14.180  1.00  0.00    -0.506 OA
ATOM     27  H   UNL     1       7.185  11.461  13.777  1.00  0.00     0.293 HD
ENDBRANCH  22  26
ENDBRANCH  18  19
ENDBRANCH  17  18
BRANCH  17  28
ATOM     28  O   UNL     1      14.923  10.419  15.335  1.00  0.00    -0.383 OA
ATOM     29  H   UNL     1      15.138  10.454  16.295  1.00  0.00     0.211 HD
ENDBRANCH  17  28
ENDBRANCH  14  17
ENDBRANCH  12  13
BRANCH  12  30
ATOM     30  C   UNL     1      12.079   5.588  13.496  1.00  0.00     0.018 C 
ATOM     31  C   UNL     1      12.218   4.058  13.516  1.00  0.00     0.010 C 
BRANCH  30  32
ATOM     32  C   UNL     1      12.859   6.178  12.296  1.00  0.00     0.002 C 
ATOM     33  C   UNL     1      13.253   5.175  11.220  1.00  0.00     0.004 C 
ENDBRANCH  30  32
ENDBRANCH  12  30
ENDBRANCH  10  12
ENDBRANCH   1  10
BRANCH   5  34
ATOM     34  C   UNL     1       9.252   8.133  16.862  1.00  0.00     0.242 C 
ATOM     35  O   UNL     1       9.293   7.547  17.944  1.00  0.00    -0.273 OA
ATOM     36  N   UNL     1       8.839   9.442  16.746  1.00  0.00    -0.354 N 
ATOM     37  H   UNL     1       8.711   9.835  15.813  1.00  0.00     0.163 HD
BRANCH  36  38
ATOM     38  C   UNL     1       8.681  10.307  17.896  1.00  0.00     0.116 C 
BRANCH  38  39
ATOM     39  C   UNL     1       7.650  11.392  17.590  1.00  0.00     0.023 C 
BRANCH  39  40
ATOM     40  C   UNL     1       6.270  11.058  18.148  1.00  0.00     0.026 C 
BRANCH  40  41
ATOM     41  C   UNL     1       6.331   9.815  19.036  1.00  0.00     0.146 C 
BRANCH  41  42
ATOM     42  N   UNL     1       5.455   8.782  18.497  1.00  0.00    -0.254 NA
ATOM     43  C   UNL     1       5.734   7.549  18.696  1.00  0.00     0.185 C 
ATOM     44  N   UNL     1       6.762   6.990  19.361  1.00  0.00    -0.370 N 
ATOM     45  N   UNL     1       4.916   6.612  18.188  1.00  0.00    -0.370 N 
ATOM     46  H   UNL     1       6.989   6.019  19.231  1.00  0.00     0.159 HD
ATOM     47  H   UNL     1       7.469   7.555  19.821  1.00  0.00     0.159 HD
ATOM     48  H   UNL     1       4.110   6.949  17.679  1.00  0.00     0.159 HD
ATOM     49  H   UNL     1       4.929   5.655  18.493  1.00  0.00     0.159 HD
ENDBRANCH  41  42
ENDBRANCH  40  41
ENDBRANCH  39  40
ENDBRANCH  38  39
ENDBRANCH  36  38
ENDBRANCH   5  34
BRANCH   8  50
ATOM     50  O   UNL     1       6.574   4.271  17.535  1.00  0.00    -0.245 OA
BRANCH  50  51
ATOM     51  S   UNL     1       5.450   3.514  18.434  1.00  0.00     0.397 S 
ATOM     52  O   UNL     1       4.190   3.588  17.729  1.00  0.00    -0.169 OA
ATOM     53  O   UNL     1       5.572   3.928  19.816  1.00  0.00    -0.169 OA
BRANCH  51  54
ATOM     54  O   UNL     1       5.917   1.978  18.333  1.00  0.00    -0.264 OA
ATOM     55  H   UNL     1       6.706   1.869  18.902  1.00  0.00     0.236 HD
ENDBRANCH  51  54
ENDBRANCH  50  51
ENDBRANCH   8  50
TORSDOF 19
ENDMDL
MODEL 13
REMARK VINA RESULT:    -7.646     16.693     21.268
REMARK INTER + INTRA:         -18.061
REMARK INTER:                 -14.532
REMARK INTRA:                  -3.529
REMARK UNBOUND:                -2.592
REMARK SMILES CC[C@@H](C)[C@@H](NC(=O)[C@@H](O)Cc1ccc(O)c(Cl)c1)C(=O)N1[C@H](C(=O)NCCCCN=C(N)N)C[C@H]2CC[C@H](OS(=O)(=O)O)C[C@@H]21
REMARK SMILES IDX 22 1 36 2 46 3 35 4 23 5 45 6 37 7 39 8 38 9 20 10 21 11
REMARK SMILES IDX 5 12 6 13 7 14 8 15 9 17 11 18 12 19 17 20 19 21 15 22 14 23
REMARK SMILES IDX 13 24 18 25 16 26 10 28 3 30 4 31 2 32 1 33 24 34 25 35
REMARK SMILES IDX 26 36 27 38 28 39 29 40 30 41 31 42 32 43 33 44 34 45 40 50
REMARK SMILES IDX 41 51 42 52 43 53 44 54
REMARK H PARENT 6 16 16 27 10 29 26 37 33 46 33 47 34 48 34 49 44 55
ROOT
ATOM      1  N   UNL     1      10.161   5.317  15.292  1.00  0.00    -0.326 N 
ATOM      2  C   UNL     1       7.858   5.173  14.823  1.00  0.00     0.014 C 
ATOM      3  C   UNL     1       9.042   4.374  15.376  1.00  0.00     0.091 C 
ATOM      4  C   UNL     1       8.506   6.032  13.749  1.00  0.00     0.041 C 
ATOM      5  C   UNL     1       9.762   6.509  14.502  1.00  0.00     0.175 C 
ATOM      6  C   UNL     1       8.657   3.828  16.750  1.00  0.00     0.059 C 
ATOM      7  C   UNL     1       6.712   4.254  14.449  1.00  0.00     0.008 C 
ATOM      8  C   UNL     1       7.153   3.507  16.892  1.00  0.00     0.143 C 
ATOM      9  C   UNL     1       6.500   3.177  15.534  1.00  0.00     0.034 C 
ENDROOT
BRANCH   1  10
ATOM     10  C   UNL     1      11.492   5.148  15.632  1.00  0.00     0.246 C 
ATOM     11  O   UNL     1      11.774   4.668  16.735  1.00  0.00    -0.272 OA
BRANCH  10  12
ATOM     12  C   UNL     1      12.600   5.525  14.606  1.00  0.00     0.174 C 
BRANCH  12  13
ATOM     13  N   UNL     1      12.602   4.568  13.501  1.00  0.00    -0.342 N 
ATOM     14  C   UNL     1      12.890   4.875  12.190  1.00  0.00     0.249 C 
ATOM     15  O   UNL     1      13.206   5.994  11.805  1.00  0.00    -0.272 OA
ATOM     16  H   UNL     1      12.210   3.640  13.637  1.00  0.00     0.164 HD
BRANCH  14  17
ATOM     17  C   UNL     1      12.791   3.650  11.256  1.00  0.00     0.207 C 
BRANCH  17  18
ATOM     18  C   UNL     1      14.189   3.154  10.875  1.00  0.00     0.077 C 
BRANCH  18  19
ATOM     19  C   UNL     1      14.269   1.643  10.874  1.00  0.00    -0.043 A 
ATOM     20  C   UNL     1      15.348  -0.405  10.152  1.00  0.00     0.083 A 
ATOM     21  C   UNL     1      15.306   0.989  10.192  1.00  0.00     0.028 A 
ATOM     22  C   UNL     1      14.357  -1.152  10.790  1.00  0.00     0.134 A 
ATOM     23  C   UNL     1      13.324  -0.517  11.469  1.00  0.00     0.048 A 
ATOM     24  C   UNL     1      13.278   0.878  11.510  1.00  0.00     0.008 A 
ATOM     25  Cl  UNL     1      16.630  -1.192   9.308  1.00  0.00    -0.080 Cl
BRANCH  22  26
ATOM     26  O   UNL     1      14.350  -2.521  10.769  1.00  0.00    -0.506 OA
ATOM     27  H   UNL     1      14.145  -2.786   9.854  1.00  0.00     0.293 HD
ENDBRANCH  22  26
ENDBRANCH  18  19
ENDBRANCH  17  18
BRANCH  17  28
ATOM     28  O   UNL     1      12.057   3.968  10.062  1.00  0.00    -0.383 OA
ATOM     29  H   UNL     1      12.716   4.323   9.424  1.00  0.00     0.211 HD
ENDBRANCH  17  28
ENDBRANCH  14  17
ENDBRANCH  12  13
BRANCH  12  30
ATOM     30  C   UNL     1      13.999   5.676  15.263  1.00  0.00     0.018 C 
ATOM     31  C   UNL     1      14.649   7.010  14.863  1.00  0.00     0.010 C 
BRANCH  30  32
ATOM     32  C   UNL     1      14.960   4.502  14.954  1.00  0.00     0.002 C 
ATOM     33  C   UNL     1      16.159   4.854  14.084  1.00  0.00     0.004 C 
ENDBRANCH  30  32
ENDBRANCH  12  30
ENDBRANCH  10  12
ENDBRANCH   1  10
BRANCH   5  34
ATOM     34  C   UNL     1       9.448   7.708  15.436  1.00  0.00     0.242 C 
ATOM     35  O   UNL     1       9.870   7.770  16.591  1.00  0.00    -0.273 OA
ATOM     36  N   UNL     1       8.620   8.668  14.899  1.00  0.00    -0.354 N 
ATOM     37  H   UNL     1       8.205   8.501  13.981  1.00  0.00     0.163 HD
BRANCH  36  38
ATOM     38  C   UNL     1       8.399   9.946  15.542  1.00  0.00     0.116 C 
BRANCH  38  39
ATOM     39  C   UNL     1       9.131  11.046  14.777  1.00  0.00     0.023 C 
BRANCH  39  40
ATOM     40  C   UNL     1      10.577  11.209  15.232  1.00  0.00     0.026 C 
BRANCH  40  41
ATOM     41  C   UNL     1      11.543  10.930  14.081  1.00  0.00     0.146 C 
BRANCH  41  42
ATOM     42  N   UNL     1      10.974   9.924  13.193  1.00  0.00    -0.254 NA
ATOM     43  C   UNL     1      11.749   9.107  12.584  1.00  0.00     0.185 C 
ATOM     44  N   UNL     1      13.089   8.998  12.616  1.00  0.00    -0.370 N 
ATOM     45  N   UNL     1      11.205   8.190  11.767  1.00  0.00    -0.370 N 
ATOM     46  H   UNL     1      13.579   8.478  11.907  1.00  0.00     0.159 HD
ATOM     47  H   UNL     1      13.660   9.606  13.195  1.00  0.00     0.159 HD
ATOM     48  H   UNL     1      10.197   8.198  11.692  1.00  0.00     0.159 HD
ATOM     49  H   UNL     1      11.706   7.381  11.447  1.00  0.00     0.159 HD
ENDBRANCH  41  42
ENDBRANCH  40  41
ENDBRANCH  39  40
ENDBRANCH  38  39
ENDBRANCH  36  38
ENDBRANCH   5  34
BRANCH   8  50
ATOM     50  O   UNL     1       6.467   4.619  17.467  1.00  0.00    -0.245 OA
BRANCH  50  51
ATOM     51  S   UNL     1       5.597   4.412  18.825  1.00  0.00     0.397 S 
ATOM     52  O   UNL     1       4.226   4.767  18.535  1.00  0.00    -0.169 OA
ATOM     53  O   UNL     1       6.308   4.982  19.950  1.00  0.00    -0.169 OA
BRANCH  51  54
ATOM     54  O   UNL     1       5.609   2.812  18.990  1.00  0.00    -0.264 OA
ATOM     55  H   UNL     1       5.112   2.592  19.804  1.00  0.00     0.236 HD
ENDBRANCH  51  54
ENDBRANCH  50  51
ENDBRANCH   8  50
TORSDOF 19
ENDMDL
MODEL 14
REMARK VINA RESULT:    -7.644      2.374      3.825
REMARK INTER + INTRA:         -18.056
REMARK INTER:                 -16.103
REMARK INTRA:                  -1.953
REMARK UNBOUND:                -2.592
REMARK SMILES CC[C@@H](C)[C@@H](NC(=O)[C@@H](O)Cc1ccc(O)c(Cl)c1)C(=O)N1[C@H](C(=O)NCCCCN=C(N)N)C[C@H]2CC[C@H](OS(=O)(=O)O)C[C@@H]21
REMARK SMILES IDX 22 1 36 2 46 3 35 4 23 5 45 6 37 7 39 8 38 9 20 10 21 11
REMARK SMILES IDX 5 12 6 13 7 14 8 15 9 17 11 18 12 19 17 20 19 21 15 22 14 23
REMARK SMILES IDX 13 24 18 25 16 26 10 28 3 30 4 31 2 32 1 33 24 34 25 35
REMARK SMILES IDX 26 36 27 38 28 39 29 40 30 41 31 42 32 43 33 44 34 45 40 50
REMARK SMILES IDX 41 51 42 52 43 53 44 54
REMARK H PARENT 6 16 16 27 10 29 26 37 33 46 33 47 34 48 34 49 44 55
ROOT
ATOM      1  N   UNL     1       1.031 -11.614  11.591  1.00  0.00    -0.326 N 
ATOM      2  C   UNL     1       2.678 -10.899  10.068  1.00  0.00     0.014 C 
ATOM      3  C   UNL     1       1.558 -10.390  10.980  1.00  0.00     0.091 C 
ATOM      4  C   UNL     1       2.136 -12.235   9.585  1.00  0.00     0.041 C 
ATOM      5  C   UNL     1       1.597 -12.805  10.910  1.00  0.00     0.175 C 
ATOM      6  C   UNL     1       2.133  -9.313  11.898  1.00  0.00     0.059 C 
ATOM      7  C   UNL     1       3.070  -9.844   9.051  1.00  0.00     0.008 C 
ATOM      8  C   UNL     1       3.272  -8.493  11.254  1.00  0.00     0.143 C 
ATOM      9  C   UNL     1       3.162  -8.455   9.717  1.00  0.00     0.034 C 
ENDROOT
BRANCH   1  10
ATOM     10  C   UNL     1      -0.008 -11.782  12.491  1.00  0.00     0.246 C 
ATOM     11  O   UNL     1       0.209 -11.615  13.696  1.00  0.00    -0.272 OA
BRANCH  10  12
ATOM     12  C   UNL     1      -1.430 -12.132  11.965  1.00  0.00     0.174 C 
BRANCH  12  13
ATOM     13  N   UNL     1      -2.427 -11.291  12.624  1.00  0.00    -0.342 N 
ATOM     14  C   UNL     1      -2.371  -9.918  12.710  1.00  0.00     0.249 C 
ATOM     15  O   UNL     1      -1.481  -9.239  12.211  1.00  0.00    -0.272 OA
ATOM     16  H   UNL     1      -3.136 -11.719  13.215  1.00  0.00     0.164 HD
BRANCH  14  17
ATOM     17  C   UNL     1      -3.564  -9.320  13.485  1.00  0.00     0.207 C 
BRANCH  17  18
ATOM     18  C   UNL     1      -4.641  -8.827  12.514  1.00  0.00     0.077 C 
BRANCH  18  19
ATOM     19  C   UNL     1      -4.756  -7.319  12.520  1.00  0.00    -0.043 A 
ATOM     20  C   UNL     1      -5.948  -5.304  13.156  1.00  0.00     0.083 A 
ATOM     21  C   UNL     1      -5.817  -6.693  13.193  1.00  0.00     0.028 A 
ATOM     22  C   UNL     1      -5.025  -4.534  12.447  1.00  0.00     0.134 A 
ATOM     23  C   UNL     1      -3.969  -5.142  11.777  1.00  0.00     0.048 A 
ATOM     24  C   UNL     1      -3.837  -6.532  11.811  1.00  0.00     0.008 A 
ATOM     25  Cl  UNL     1      -7.259  -4.553  13.988  1.00  0.00    -0.080 Cl
BRANCH  22  26
ATOM     26  O   UNL     1      -5.118  -3.171  12.373  1.00  0.00    -0.506 OA
ATOM     27  H   UNL     1      -4.625  -2.899  11.577  1.00  0.00     0.293 HD
ENDBRANCH  22  26
ENDBRANCH  18  19
ENDBRANCH  17  18
BRANCH  17  28
ATOM     28  O   UNL     1      -3.144  -8.231  14.323  1.00  0.00    -0.383 OA
ATOM     29  H   UNL     1      -2.955  -7.479  13.717  1.00  0.00     0.211 HD
ENDBRANCH  17  28
ENDBRANCH  14  17
ENDBRANCH  12  13
BRANCH  12  30
ATOM     30  C   UNL     1      -1.758 -13.645  12.085  1.00  0.00     0.018 C 
ATOM     31  C   UNL     1      -2.354 -14.181  10.774  1.00  0.00     0.010 C 
BRANCH  30  32
ATOM     32  C   UNL     1      -2.690 -13.986  13.273  1.00  0.00     0.002 C 
ATOM     33  C   UNL     1      -1.985 -14.415  14.552  1.00  0.00     0.004 C 
ENDBRANCH  30  32
ENDBRANCH  12  30
ENDBRANCH  10  12
ENDBRANCH   1  10
BRANCH   5  34
ATOM     34  C   UNL     1       2.728 -13.440  11.762  1.00  0.00     0.242 C 
ATOM     35  O   UNL     1       2.511 -14.323  12.591  1.00  0.00    -0.273 OA
ATOM     36  N   UNL     1       3.982 -12.906  11.561  1.00  0.00    -0.354 N 
ATOM     37  H   UNL     1       4.079 -12.095  10.949  1.00  0.00     0.163 HD
BRANCH  36  38
ATOM     38  C   UNL     1       5.178 -13.516  12.106  1.00  0.00     0.116 C 
BRANCH  38  39
ATOM     39  C   UNL     1       6.055 -12.447  12.753  1.00  0.00     0.023 C 
BRANCH  39  40
ATOM     40  C   UNL     1       7.007 -13.027  13.794  1.00  0.00     0.026 C 
BRANCH  40  41
ATOM     41  C   UNL     1       8.379 -12.361  13.705  1.00  0.00     0.146 C 
BRANCH  41  42
ATOM     42  N   UNL     1       8.233 -10.915  13.814  1.00  0.00    -0.254 NA
ATOM     43  C   UNL     1       8.114 -10.376  14.969  1.00  0.00     0.185 C 
ATOM     44  N   UNL     1       8.099 -10.940  16.190  1.00  0.00    -0.370 N 
ATOM     45  N   UNL     1       7.975  -9.042  15.047  1.00  0.00    -0.370 N 
ATOM     46  H   UNL     1       7.756 -10.431  16.986  1.00  0.00     0.159 HD
ATOM     47  H   UNL     1       8.206 -11.942  16.315  1.00  0.00     0.159 HD
ATOM     48  H   UNL     1       7.984  -8.538  14.171  1.00  0.00     0.159 HD
ATOM     49  H   UNL     1       8.114  -8.530  15.900  1.00  0.00     0.159 HD
ENDBRANCH  41  42
ENDBRANCH  40  41
ENDBRANCH  39  40
ENDBRANCH  38  39
ENDBRANCH  36  38
ENDBRANCH   5  34
BRANCH   8  50
ATOM     50  O   UNL     1       4.538  -9.053  11.604  1.00  0.00    -0.245 OA
BRANCH  50  51
ATOM     51  S   UNL     1       5.696  -8.095  12.226  1.00  0.00     0.397 S 
ATOM     52  O   UNL     1       5.483  -8.005  13.653  1.00  0.00    -0.169 OA
ATOM     53  O   UNL     1       5.842  -6.912  11.403  1.00  0.00    -0.169 OA
BRANCH  51  54
ATOM     54  O   UNL     1       7.015  -8.996  12.036  1.00  0.00    -0.264 OA
ATOM     55  H   UNL     1       6.869  -9.580  11.264  1.00  0.00     0.236 HD
ENDBRANCH  51  54
ENDBRANCH  50  51
ENDBRANCH   8  50
TORSDOF 19
ENDMDL
MODEL 15
REMARK VINA RESULT:    -7.638     16.631     20.000
REMARK INTER + INTRA:         -18.044
REMARK INTER:                 -15.538
REMARK INTRA:                  -2.506
REMARK UNBOUND:                -2.592
REMARK SMILES CC[C@@H](C)[C@@H](NC(=O)[C@@H](O)Cc1ccc(O)c(Cl)c1)C(=O)N1[C@H](C(=O)NCCCCN=C(N)N)C[C@H]2CC[C@H](OS(=O)(=O)O)C[C@@H]21
REMARK SMILES IDX 22 1 36 2 46 3 35 4 23 5 45 6 37 7 39 8 38 9 20 10 21 11
REMARK SMILES IDX 5 12 6 13 7 14 8 15 9 17 11 18 12 19 17 20 19 21 15 22 14 23
REMARK SMILES IDX 13 24 18 25 16 26 10 28 3 30 4 31 2 32 1 33 24 34 25 35
REMARK SMILES IDX 26 36 27 38 28 39 29 40 30 41 31 42 32 43 33 44 34 45 40 50
REMARK SMILES IDX 41 51 42 52 43 53 44 54
REMARK H PARENT 6 16 16 27 10 29 26 37 33 46 33 47 34 48 34 49 44 55
ROOT
ATOM      1  N   UNL     1       9.022   6.627  15.581  1.00  0.00    -0.326 N 
ATOM      2  C   UNL     1       9.343   8.629  14.384  1.00  0.00     0.014 C 
ATOM      3  C   UNL     1       8.852   8.076  15.725  1.00  0.00     0.091 C 
ATOM      4  C   UNL     1       8.911   7.553  13.399  1.00  0.00     0.041 C 
ATOM      5  C   UNL     1       9.338   6.291  14.170  1.00  0.00     0.175 C 
ATOM      6  C   UNL     1       9.609   8.786  16.846  1.00  0.00     0.059 C 
ATOM      7  C   UNL     1       8.873  10.056  14.181  1.00  0.00     0.008 C 
ATOM      8  C   UNL     1       9.994  10.243  16.510  1.00  0.00     0.143 C 
ATOM      9  C   UNL     1       9.036  10.873  15.480  1.00  0.00     0.034 C 
ENDROOT
BRANCH   1  10
ATOM     10  C   UNL     1       8.727   5.606  16.468  1.00  0.00     0.246 C 
ATOM     11  O   UNL     1       9.633   5.134  17.163  1.00  0.00    -0.272 OA
BRANCH  10  12
ATOM     12  C   UNL     1       7.260   5.107  16.603  1.00  0.00     0.174 C 
BRANCH  12  13
ATOM     13  N   UNL     1       6.762   5.378  17.951  1.00  0.00    -0.342 N 
ATOM     14  C   UNL     1       6.124   6.534  18.341  1.00  0.00     0.249 C 
ATOM     15  O   UNL     1       5.875   7.463  17.584  1.00  0.00    -0.272 OA
ATOM     16  H   UNL     1       7.033   4.769  18.720  1.00  0.00     0.164 HD
BRANCH  14  17
ATOM     17  C   UNL     1       5.736   6.525  19.835  1.00  0.00     0.207 C 
BRANCH  17  18
ATOM     18  C   UNL     1       4.295   7.014  20.016  1.00  0.00     0.077 C 
BRANCH  18  19
ATOM     19  C   UNL     1       3.346   5.872  20.305  1.00  0.00    -0.043 A 
ATOM     20  C   UNL     1       2.795   3.513  20.179  1.00  0.00     0.083 A 
ATOM     21  C   UNL     1       3.693   4.558  19.956  1.00  0.00     0.028 A 
ATOM     22  C   UNL     1       1.548   3.774  20.749  1.00  0.00     0.134 A 
ATOM     23  C   UNL     1       1.192   5.071  21.099  1.00  0.00     0.048 A 
ATOM     24  C   UNL     1       2.088   6.119  20.876  1.00  0.00     0.008 A 
ATOM     25  Cl  UNL     1       3.239   1.905  19.744  1.00  0.00    -0.080 Cl
BRANCH  22  26
ATOM     26  O   UNL     1       0.631   2.785  20.977  1.00  0.00    -0.506 OA
ATOM     27  H   UNL     1       0.020   3.121  21.659  1.00  0.00     0.293 HD
ENDBRANCH  22  26
ENDBRANCH  18  19
ENDBRANCH  17  18
BRANCH  17  28
ATOM     28  O   UNL     1       6.621   7.355  20.604  1.00  0.00    -0.383 OA
ATOM     29  H   UNL     1       7.462   7.400  20.096  1.00  0.00     0.211 HD
ENDBRANCH  17  28
ENDBRANCH  14  17
ENDBRANCH  12  13
BRANCH  12  30
ATOM     30  C   UNL     1       7.093   3.617  16.198  1.00  0.00     0.018 C 
ATOM     31  C   UNL     1       6.585   3.497  14.753  1.00  0.00     0.010 C 
BRANCH  30  32
ATOM     32  C   UNL     1       6.178   2.812  17.153  1.00  0.00     0.002 C 
ATOM     33  C   UNL     1       5.065   2.023  16.476  1.00  0.00     0.004 C 
ENDBRANCH  30  32
ENDBRANCH  12  30
ENDBRANCH  10  12
ENDBRANCH   1  10
BRANCH   5  34
ATOM     34  C   UNL     1      10.853   6.001  14.000  1.00  0.00     0.242 C 
ATOM     35  O   UNL     1      11.688   6.356  14.831  1.00  0.00    -0.273 OA
ATOM     36  N   UNL     1      11.200   5.369  12.827  1.00  0.00    -0.354 N 
ATOM     37  H   UNL     1      10.478   5.208  12.123  1.00  0.00     0.163 HD
BRANCH  36  38
ATOM     38  C   UNL     1      12.526   4.833  12.601  1.00  0.00     0.116 C 
BRANCH  38  39
ATOM     39  C   UNL     1      13.236   5.646  11.521  1.00  0.00     0.023 C 
BRANCH  39  40
ATOM     40  C   UNL     1      13.356   4.887  10.204  1.00  0.00     0.026 C 
BRANCH  40  41
ATOM     41  C   UNL     1      13.829   3.453  10.446  1.00  0.00     0.146 C 
BRANCH  41  42
ATOM     42  N   UNL     1      15.285   3.403  10.413  1.00  0.00    -0.254 NA
ATOM     43  C   UNL     1      15.883   3.064   9.333  1.00  0.00     0.185 C 
ATOM     44  N   UNL     1      15.376   2.720   8.135  1.00  0.00    -0.370 N 
ATOM     45  N   UNL     1      17.225   3.019   9.325  1.00  0.00    -0.370 N 
ATOM     46  H   UNL     1      15.945   2.244   7.456  1.00  0.00     0.159 HD
ATOM     47  H   UNL     1      14.376   2.714   7.961  1.00  0.00     0.159 HD
ATOM     48  H   UNL     1      17.687   3.273  10.188  1.00  0.00     0.159 HD
ATOM     49  H   UNL     1      17.764   2.997   8.478  1.00  0.00     0.159 HD
ENDBRANCH  41  42
ENDBRANCH  40  41
ENDBRANCH  39  40
ENDBRANCH  38  39
ENDBRANCH  36  38
ENDBRANCH   5  34
BRANCH   8  50
ATOM     50  O   UNL     1      11.321  10.290  15.984  1.00  0.00    -0.245 OA
BRANCH  50  51
ATOM     51  S   UNL     1      12.466  11.139  16.767  1.00  0.00     0.397 S 
ATOM     52  O   UNL     1      12.059  12.526  16.785  1.00  0.00    -0.169 OA
ATOM     53  O   UNL     1      13.776  10.737  16.296  1.00  0.00    -0.169 OA
BRANCH  51  54
ATOM     54  O   UNL     1      12.299  10.613  18.277  1.00  0.00    -0.264 OA
ATOM     55  H   UNL     1      13.152  10.751  18.737  1.00  0.00     0.236 HD
ENDBRANCH  51  54
ENDBRANCH  50  51
ENDBRANCH   8  50
TORSDOF 19
ENDMDL
MODEL 16
REMARK VINA RESULT:    -7.625     16.514     20.063
REMARK INTER + INTRA:         -18.017
REMARK INTER:                 -14.419
REMARK INTRA:                  -3.598
REMARK UNBOUND:                -2.592
REMARK SMILES CC[C@@H](C)[C@@H](NC(=O)[C@@H](O)Cc1ccc(O)c(Cl)c1)C(=O)N1[C@H](C(=O)NCCCCN=C(N)N)C[C@H]2CC[C@H](OS(=O)(=O)O)C[C@@H]21
REMARK SMILES IDX 22 1 36 2 46 3 35 4 23 5 45 6 37 7 39 8 38 9 20 10 21 11
REMARK SMILES IDX 5 12 6 13 7 14 8 15 9 17 11 18 12 19 17 20 19 21 15 22 14 23
REMARK SMILES IDX 13 24 18 25 16 26 10 28 3 30 4 31 2 32 1 33 24 34 25 35
REMARK SMILES IDX 26 36 27 38 28 39 29 40 30 41 31 42 32 43 33 44 34 45 40 50
REMARK SMILES IDX 41 51 42 52 43 53 44 54
REMARK H PARENT 6 16 16 27 10 29 26 37 33 46 33 47 34 48 34 49 44 55
ROOT
ATOM      1  N   UNL     1      10.346   4.551  15.979  1.00  0.00    -0.326 N 
ATOM      2  C   UNL     1      12.459   4.068  15.060  1.00  0.00     0.014 C 
ATOM      3  C   UNL     1      10.979   3.683  14.982  1.00  0.00     0.091 C 
ATOM      4  C   UNL     1      12.646   4.382  16.536  1.00  0.00     0.041 C 
ATOM      5  C   UNL     1      11.384   5.225  16.797  1.00  0.00     0.175 C 
ATOM      6  C   UNL     1      10.525   3.799  13.528  1.00  0.00     0.059 C 
ATOM      7  C   UNL     1      13.329   3.011  14.408  1.00  0.00     0.008 C 
ATOM      8  C   UNL     1      11.637   3.487  12.503  1.00  0.00     0.143 C 
ATOM      9  C   UNL     1      12.705   2.536  13.079  1.00  0.00     0.034 C 
ENDROOT
BRANCH   1  10
ATOM     10  C   UNL     1       9.020   4.637  16.367  1.00  0.00     0.246 C 
ATOM     11  O   UNL     1       8.434   3.614  16.737  1.00  0.00    -0.272 OA
BRANCH  10  12
ATOM     12  C   UNL     1       8.311   6.022  16.371  1.00  0.00     0.174 C 
BRANCH  12  13
ATOM     13  N   UNL     1       7.473   6.151  17.563  1.00  0.00    -0.342 N 
ATOM     14  C   UNL     1       7.052   7.343  18.108  1.00  0.00     0.249 C 
ATOM     15  O   UNL     1       7.312   8.440  17.632  1.00  0.00    -0.272 OA
ATOM     16  H   UNL     1       7.309   5.339  18.153  1.00  0.00     0.164 HD
BRANCH  14  17
ATOM     17  C   UNL     1       6.194   7.147  19.377  1.00  0.00     0.207 C 
BRANCH  17  18
ATOM     18  C   UNL     1       4.742   6.838  18.999  1.00  0.00     0.077 C 
BRANCH  18  19
ATOM     19  C   UNL     1       4.397   5.385  19.234  1.00  0.00    -0.043 A 
ATOM     20  C   UNL     1       4.124   3.126  18.393  1.00  0.00     0.083 A 
ATOM     21  C   UNL     1       4.490   4.456  18.186  1.00  0.00     0.028 A 
ATOM     22  C   UNL     1       3.663   2.716  19.644  1.00  0.00     0.134 A 
ATOM     23  C   UNL     1       3.566   3.625  20.692  1.00  0.00     0.048 A 
ATOM     24  C   UNL     1       3.930   4.957  20.487  1.00  0.00     0.008 A 
ATOM     25  Cl  UNL     1       4.245   2.000  17.092  1.00  0.00    -0.080 Cl
BRANCH  22  26
ATOM     26  O   UNL     1       3.282   1.425  19.893  1.00  0.00    -0.506 OA
ATOM     27  H   UNL     1       3.172   1.346  20.858  1.00  0.00     0.293 HD
ENDBRANCH  22  26
ENDBRANCH  18  19
ENDBRANCH  17  18
BRANCH  17  28
ATOM     28  O   UNL     1       6.231   8.316  20.212  1.00  0.00    -0.383 OA
ATOM     29  H   UNL     1       5.559   8.933  19.845  1.00  0.00     0.211 HD
ENDBRANCH  17  28
ENDBRANCH  14  17
ENDBRANCH  12  13
BRANCH  12  30
ATOM     30  C   UNL     1       7.523   6.297  15.062  1.00  0.00     0.018 C 
ATOM     31  C   UNL     1       6.951   4.993  14.484  1.00  0.00     0.010 C 
BRANCH  30  32
ATOM     32  C   UNL     1       8.350   7.039  13.983  1.00  0.00     0.002 C 
ATOM     33  C   UNL     1       8.637   8.505  14.277  1.00  0.00     0.004 C 
ENDBRANCH  30  32
ENDBRANCH  12  30
ENDBRANCH  10  12
ENDBRANCH   1  10
BRANCH   5  34
ATOM     34  C   UNL     1      11.575   6.696  16.340  1.00  0.00     0.242 C 
ATOM     35  O   UNL     1      11.477   7.037  15.162  1.00  0.00    -0.273 OA
ATOM     36  N   UNL     1      11.914   7.580  17.340  1.00  0.00    -0.354 N 
ATOM     37  H   UNL     1      12.098   7.217  18.276  1.00  0.00     0.163 HD
BRANCH  36  38
ATOM     38  C   UNL     1      11.918   9.014  17.135  1.00  0.00     0.116 C 
BRANCH  38  39
ATOM     39  C   UNL     1      13.255   9.448  16.538  1.00  0.00     0.023 C 
BRANCH  39  40
ATOM     40  C   UNL     1      13.103  10.586  15.534  1.00  0.00     0.026 C 
BRANCH  40  41
ATOM     41  C   UNL     1      12.605  10.058  14.189  1.00  0.00     0.146 C 
BRANCH  41  42
ATOM     42  N   UNL     1      13.709   9.449  13.459  1.00  0.00    -0.254 NA
ATOM     43  C   UNL     1      13.484   8.458  12.681  1.00  0.00     0.185 C 
ATOM     44  N   UNL     1      12.330   7.829  12.391  1.00  0.00    -0.370 N 
ATOM     45  N   UNL     1      14.517   7.909  12.020  1.00  0.00    -0.370 N 
ATOM     46  H   UNL     1      12.336   6.921  11.960  1.00  0.00     0.159 HD
ATOM     47  H   UNL     1      11.447   8.125  12.795  1.00  0.00     0.159 HD
ATOM     48  H   UNL     1      15.423   8.329  12.175  1.00  0.00     0.159 HD
ATOM     49  H   UNL     1      14.396   7.301  11.230  1.00  0.00     0.159 HD
ENDBRANCH  41  42
ENDBRANCH  40  41
ENDBRANCH  39  40
ENDBRANCH  38  39
ENDBRANCH  36  38
ENDBRANCH   5  34
BRANCH   8  50
ATOM     50  O   UNL     1      12.279   4.695  12.093  1.00  0.00    -0.245 OA
BRANCH  50  51
ATOM     51  S   UNL     1      13.194   4.701  10.748  1.00  0.00     0.397 S 
ATOM     52  O   UNL     1      12.650   3.723   9.833  1.00  0.00    -0.169 OA
ATOM     53  O   UNL     1      14.595   4.701  11.115  1.00  0.00    -0.169 OA
BRANCH  51  54
ATOM     54  O   UNL     1      12.847   6.137  10.113  1.00  0.00    -0.264 OA
ATOM     55  H   UNL     1      12.096   6.512  10.616  1.00  0.00     0.236 HD
ENDBRANCH  51  54
ENDBRANCH  50  51
ENDBRANCH   8  50
TORSDOF 19
ENDMDL
MODEL 17
REMARK VINA RESULT:    -7.592     16.498     20.696
REMARK INTER + INTRA:         -17.952
REMARK INTER:                 -14.450
REMARK INTRA:                  -3.502
REMARK UNBOUND:                -2.592
REMARK SMILES CC[C@@H](C)[C@@H](NC(=O)[C@@H](O)Cc1ccc(O)c(Cl)c1)C(=O)N1[C@H](C(=O)NCCCCN=C(N)N)C[C@H]2CC[C@H](OS(=O)(=O)O)C[C@@H]21
REMARK SMILES IDX 22 1 36 2 46 3 35 4 23 5 45 6 37 7 39 8 38 9 20 10 21 11
REMARK SMILES IDX 5 12 6 13 7 14 8 15 9 17 11 18 12 19 17 20 19 21 15 22 14 23
REMARK SMILES IDX 13 24 18 25 16 26 10 28 3 30 4 31 2 32 1 33 24 34 25 35
REMARK SMILES IDX 26 36 27 38 28 39 29 40 30 41 31 42 32 43 33 44 34 45 40 50
REMARK SMILES IDX 41 51 42 52 43 53 44 54
REMARK H PARENT 6 16 16 27 10 29 26 37 33 46 33 47 34 48 34 49 44 55
ROOT
ATOM      1  N   UNL     1      10.043   4.975  15.209  1.00  0.00    -0.326 N 
ATOM      2  C   UNL     1       7.800   4.544  14.639  1.00  0.00     0.014 C 
ATOM      3  C   UNL     1       8.949   4.052  15.525  1.00  0.00     0.091 C 
ATOM      4  C   UNL     1       8.523   5.022  13.389  1.00  0.00     0.041 C 
ATOM      5  C   UNL     1       9.688   5.800  14.028  1.00  0.00     0.175 C 
ATOM      6  C   UNL     1       8.451   3.986  16.967  1.00  0.00     0.059 C 
ATOM      7  C   UNL     1       6.721   3.486  14.515  1.00  0.00     0.008 C 
ATOM      8  C   UNL     1       6.951   3.645  17.092  1.00  0.00     0.143 C 
ATOM      9  C   UNL     1       6.438   2.834  15.885  1.00  0.00     0.034 C 
ENDROOT
BRANCH   1  10
ATOM     10  C   UNL     1      11.341   5.010  15.691  1.00  0.00     0.246 C 
ATOM     11  O   UNL     1      11.720   6.002  16.323  1.00  0.00    -0.272 OA
BRANCH  10  12
ATOM     12  C   UNL     1      12.277   3.788  15.465  1.00  0.00     0.174 C 
BRANCH  12  13
ATOM     13  N   UNL     1      12.197   3.349  14.072  1.00  0.00    -0.342 N 
ATOM     14  C   UNL     1      12.965   3.844  13.042  1.00  0.00     0.249 C 
ATOM     15  O   UNL     1      13.831   4.698  13.186  1.00  0.00    -0.272 OA
ATOM     16  H   UNL     1      11.422   2.763  13.773  1.00  0.00     0.164 HD
BRANCH  14  17
ATOM     17  C   UNL     1      12.632   3.190  11.684  1.00  0.00     0.207 C 
BRANCH  17  18
ATOM     18  C   UNL     1      13.919   2.824  10.936  1.00  0.00     0.077 C 
BRANCH  18  19
ATOM     19  C   UNL     1      14.131   1.328  10.882  1.00  0.00    -0.043 A 
ATOM     20  C   UNL     1      15.380  -0.592  10.082  1.00  0.00     0.083 A 
ATOM     21  C   UNL     1      15.215   0.791  10.171  1.00  0.00     0.028 A 
ATOM     22  C   UNL     1      14.465  -1.445  10.699  1.00  0.00     0.134 A 
ATOM     23  C   UNL     1      13.386  -0.927  11.407  1.00  0.00     0.048 A 
ATOM     24  C   UNL     1      13.218   0.457  11.496  1.00  0.00     0.008 A 
ATOM     25  Cl  UNL     1      16.718  -1.232   9.203  1.00  0.00    -0.080 Cl
BRANCH  22  26
ATOM     26  O   UNL     1      14.578  -2.807  10.631  1.00  0.00    -0.506 OA
ATOM     27  H   UNL     1      14.276  -3.069   9.741  1.00  0.00     0.293 HD
ENDBRANCH  22  26
ENDBRANCH  18  19
ENDBRANCH  17  18
BRANCH  17  28
ATOM     28  O   UNL     1      11.840   4.068  10.868  1.00  0.00    -0.383 OA
ATOM     29  H   UNL     1      11.161   4.456  11.465  1.00  0.00     0.211 HD
ENDBRANCH  17  28
ENDBRANCH  14  17
ENDBRANCH  12  13
BRANCH  12  30
ATOM     30  C   UNL     1      12.008   2.633  16.466  1.00  0.00     0.018 C 
ATOM     31  C   UNL     1      12.066   3.141  17.915  1.00  0.00     0.010 C 
BRANCH  30  32
ATOM     32  C   UNL     1      12.957   1.422  16.289  1.00  0.00     0.002 C 
ATOM     33  C   UNL     1      14.444   1.750  16.321  1.00  0.00     0.004 C 
ENDBRANCH  30  32
ENDBRANCH  12  30
ENDBRANCH  10  12
ENDBRANCH   1  10
BRANCH   5  34
ATOM     34  C   UNL     1       9.253   7.225  14.464  1.00  0.00     0.242 C 
ATOM     35  O   UNL     1       8.856   7.472  15.602  1.00  0.00    -0.273 OA
ATOM     36  N   UNL     1       9.293   8.178  13.471  1.00  0.00    -0.354 N 
ATOM     37  H   UNL     1       9.516   7.887  12.518  1.00  0.00     0.163 HD
BRANCH  36  38
ATOM     38  C   UNL     1       9.131   9.590  13.748  1.00  0.00     0.116 C 
BRANCH  38  39
ATOM     39  C   UNL     1      10.470  10.307  13.588  1.00  0.00     0.023 C 
BRANCH  39  40
ATOM     40  C   UNL     1      11.421  10.030  14.747  1.00  0.00     0.026 C 
BRANCH  40  41
ATOM     41  C   UNL     1      12.660   9.276  14.263  1.00  0.00     0.146 C 
BRANCH  41  42
ATOM     42  N   UNL     1      12.269   8.246  13.309  1.00  0.00    -0.254 NA
ATOM     43  C   UNL     1      13.040   7.966  12.327  1.00  0.00     0.185 C 
ATOM     44  N   UNL     1      14.234   8.487  11.989  1.00  0.00    -0.370 N 
ATOM     45  N   UNL     1      12.659   7.017  11.457  1.00  0.00    -0.370 N 
ATOM     46  H   UNL     1      14.610   8.349  11.066  1.00  0.00     0.159 HD
ATOM     47  H   UNL     1      14.678   9.209  12.547  1.00  0.00     0.159 HD
ATOM     48  H   UNL     1      11.773   6.567  11.644  1.00  0.00     0.159 HD
ATOM     49  H   UNL     1      13.296   6.580  10.814  1.00  0.00     0.159 HD
ENDBRANCH  41  42
ENDBRANCH  40  41
ENDBRANCH  39  40
ENDBRANCH  38  39
ENDBRANCH  36  38
ENDBRANCH   5  34
BRANCH   8  50
ATOM     50  O   UNL     1       6.182   4.844  17.192  1.00  0.00    -0.245 OA
BRANCH  50  51
ATOM     51  S   UNL     1       5.384   5.174  18.570  1.00  0.00     0.397 S 
ATOM     52  O   UNL     1       3.986   4.871  18.360  1.00  0.00    -0.169 OA
ATOM     53  O   UNL     1       5.814   6.457  19.085  1.00  0.00    -0.169 OA
BRANCH  51  54
ATOM     54  O   UNL     1       5.936   4.033  19.559  1.00  0.00    -0.264 OA
ATOM     55  H   UNL     1       5.636   4.252  20.465  1.00  0.00     0.236 HD
ENDBRANCH  51  54
ENDBRANCH  50  51
ENDBRANCH   8  50
TORSDOF 19
ENDMDL
MODEL 18
REMARK VINA RESULT:    -7.589     15.803     20.502
REMARK INTER + INTRA:         -17.944
REMARK INTER:                 -15.204
REMARK INTRA:                  -2.740
REMARK UNBOUND:                -2.592
REMARK SMILES CC[C@@H](C)[C@@H](NC(=O)[C@@H](O)Cc1ccc(O)c(Cl)c1)C(=O)N1[C@H](C(=O)NCCCCN=C(N)N)C[C@H]2CC[C@H](OS(=O)(=O)O)C[C@@H]21
REMARK SMILES IDX 22 1 36 2 46 3 35 4 23 5 45 6 37 7 39 8 38 9 20 10 21 11
REMARK SMILES IDX 5 12 6 13 7 14 8 15 9 17 11 18 12 19 17 20 19 21 15 22 14 23
REMARK SMILES IDX 13 24 18 25 16 26 10 28 3 30 4 31 2 32 1 33 24 34 25 35
REMARK SMILES IDX 26 36 27 38 28 39 29 40 30 41 31 42 32 43 33 44 34 45 40 50
REMARK SMILES IDX 41 51 42 52 43 53 44 54
REMARK H PARENT 6 16 16 27 10 29 26 37 33 46 33 47 34 48 34 49 44 55
ROOT
ATOM      1  N   UNL     1      13.202   4.519  14.086  1.00  0.00    -0.326 N 
ATOM      2  C   UNL     1      13.781   6.687  14.797  1.00  0.00     0.014 C 
ATOM      3  C   UNL     1      13.599   5.822  13.546  1.00  0.00     0.091 C 
ATOM      4  C   UNL     1      14.324   5.695  15.814  1.00  0.00     0.041 C 
ATOM      5  C   UNL     1      13.385   4.502  15.558  1.00  0.00     0.175 C 
ATOM      6  C   UNL     1      12.637   6.538  12.600  1.00  0.00     0.059 C 
ATOM      7  C   UNL     1      14.577   7.938  14.480  1.00  0.00     0.008 C 
ATOM      8  C   UNL     1      12.718   8.078  12.679  1.00  0.00     0.143 C 
ATOM      9  C   UNL     1      14.105   8.562  13.150  1.00  0.00     0.034 C 
ENDROOT
BRANCH   1  10
ATOM     10  C   UNL     1      12.919   3.334  13.428  1.00  0.00     0.246 C 
ATOM     11  O   UNL     1      11.753   3.093  13.099  1.00  0.00    -0.272 OA
BRANCH  10  12
ATOM     12  C   UNL     1      14.077   2.355  13.079  1.00  0.00     0.174 C 
BRANCH  12  13
ATOM     13  N   UNL     1      14.267   2.303  11.630  1.00  0.00    -0.342 N 
ATOM     14  C   UNL     1      15.126   3.107  10.915  1.00  0.00     0.249 C 
ATOM     15  O   UNL     1      15.857   3.946  11.426  1.00  0.00    -0.272 OA
ATOM     16  H   UNL     1      13.619   1.768  11.056  1.00  0.00     0.164 HD
BRANCH  14  17
ATOM     17  C   UNL     1      15.087   2.822   9.399  1.00  0.00     0.207 C 
BRANCH  17  18
ATOM     18  C   UNL     1      16.504   2.614   8.856  1.00  0.00     0.077 C 
BRANCH  18  19
ATOM     19  C   UNL     1      16.877   1.149   8.805  1.00  0.00    -0.043 A 
ATOM     20  C   UNL     1      16.332  -1.175   9.231  1.00  0.00     0.083 A 
ATOM     21  C   UNL     1      15.967   0.171   9.233  1.00  0.00     0.028 A 
ATOM     22  C   UNL     1      17.606  -1.553   8.804  1.00  0.00     0.134 A 
ATOM     23  C   UNL     1      18.518  -0.594   8.377  1.00  0.00     0.048 A 
ATOM     24  C   UNL     1      18.155   0.755   8.380  1.00  0.00     0.008 A 
ATOM     25  Cl  UNL     1      15.199  -2.363   9.761  1.00  0.00    -0.080 Cl
BRANCH  22  26
ATOM     26  O   UNL     1      18.013  -2.859   8.794  1.00  0.00    -0.506 OA
ATOM     27  H   UNL     1      18.832  -2.893   8.265  1.00  0.00     0.293 HD
ENDBRANCH  22  26
ENDBRANCH  18  19
ENDBRANCH  17  18
BRANCH  17  28
ATOM     28  O   UNL     1      14.457   3.898   8.686  1.00  0.00    -0.383 OA
ATOM     29  H   UNL     1      13.899   3.477   7.994  1.00  0.00     0.211 HD
ENDBRANCH  17  28
ENDBRANCH  14  17
ENDBRANCH  12  13
BRANCH  12  30
ATOM     30  C   UNL     1      13.880   0.947  13.702  1.00  0.00     0.018 C 
ATOM     31  C   UNL     1      14.407   0.909  15.145  1.00  0.00     0.010 C 
BRANCH  30  32
ATOM     32  C   UNL     1      14.518  -0.194  12.872  1.00  0.00     0.002 C 
ATOM     33  C   UNL     1      13.888  -1.568  13.062  1.00  0.00     0.004 C 
ENDBRANCH  30  32
ENDBRANCH  12  30
ENDBRANCH  10  12
ENDBRANCH   1  10
BRANCH   5  34
ATOM     34  C   UNL     1      12.024   4.679  16.284  1.00  0.00     0.242 C 
ATOM     35  O   UNL     1      11.862   5.499  17.187  1.00  0.00    -0.273 OA
ATOM     36  N   UNL     1      11.029   3.817  15.881  1.00  0.00    -0.354 N 
ATOM     37  H   UNL     1      11.258   3.080  15.212  1.00  0.00     0.163 HD
BRANCH  36  38
ATOM     38  C   UNL     1       9.650   3.982  16.291  1.00  0.00     0.116 C 
BRANCH  38  39
ATOM     39  C   UNL     1       8.914   4.872  15.292  1.00  0.00     0.023 C 
BRANCH  39  40
ATOM     40  C   UNL     1       7.806   4.128  14.554  1.00  0.00     0.026 C 
BRANCH  40  41
ATOM     41  C   UNL     1       6.511   4.141  15.366  1.00  0.00     0.146 C 
BRANCH  41  42
ATOM     42  N   UNL     1       5.872   2.833  15.295  1.00  0.00    -0.254 NA
ATOM     43  C   UNL     1       5.754   2.127  16.356  1.00  0.00     0.185 C 
ATOM     44  N   UNL     1       6.139   2.391  17.618  1.00  0.00    -0.370 N 
ATOM     45  N   UNL     1       5.166   0.923  16.268  1.00  0.00    -0.370 N 
ATOM     46  H   UNL     1       6.205   1.654  18.299  1.00  0.00     0.159 HD
ATOM     47  H   UNL     1       6.589   3.267  17.866  1.00  0.00     0.159 HD
ATOM     48  H   UNL     1       4.838   0.650  15.352  1.00  0.00     0.159 HD
ATOM     49  H   UNL     1       4.827   0.423  17.071  1.00  0.00     0.159 HD
ENDBRANCH  41  42
ENDBRANCH  40  41
ENDBRANCH  39  40
ENDBRANCH  38  39
ENDBRANCH  36  38
ENDBRANCH   5  34
BRANCH   8  50
ATOM     50  O   UNL     1      11.733   8.575  13.585  1.00  0.00    -0.245 OA
BRANCH  50  51
ATOM     51  S   UNL     1      10.227   8.876  13.047  1.00  0.00     0.397 S 
ATOM     52  O   UNL     1       9.903  10.246  13.373  1.00  0.00    -0.169 OA
ATOM     53  O   UNL     1       9.353   7.781  13.412  1.00  0.00    -0.169 OA
BRANCH  51  54
ATOM     54  O   UNL     1      10.427   8.840  11.452  1.00  0.00    -0.264 OA
ATOM     55  H   UNL     1      10.750   7.948  11.212  1.00  0.00     0.236 HD
ENDBRANCH  51  54
ENDBRANCH  50  51
ENDBRANCH   8  50
TORSDOF 19
ENDMDL
MODEL 19
REMARK VINA RESULT:    -7.541     16.968     21.130
REMARK INTER + INTRA:         -17.848
REMARK INTER:                 -14.404
REMARK INTRA:                  -3.443
REMARK UNBOUND:                -2.592
REMARK SMILES CC[C@@H](C)[C@@H](NC(=O)[C@@H](O)Cc1ccc(O)c(Cl)c1)C(=O)N1[C@H](C(=O)NCCCCN=C(N)N)C[C@H]2CC[C@H](OS(=O)(=O)O)C[C@@H]21
REMARK SMILES IDX 22 1 36 2 46 3 35 4 23 5 45 6 37 7 39 8 38 9 20 10 21 11
REMARK SMILES IDX 5 12 6 13 7 14 8 15 9 17 11 18 12 19 17 20 19 21 15 22 14 23
REMARK SMILES IDX 13 24 18 25 16 26 10 28 3 30 4 31 2 32 1 33 24 34 25 35
REMARK SMILES IDX 26 36 27 38 28 39 29 40 30 41 31 42 32 43 33 44 34 45 40 50
REMARK SMILES IDX 41 51 42 52 43 53 44 54
REMARK H PARENT 6 16 16 27 10 29 26 37 33 46 33 47 34 48 34 49 44 55
ROOT
ATOM      1  N   UNL     1      10.252   5.610  15.044  1.00  0.00    -0.326 N 
ATOM      2  C   UNL     1       7.913   5.517  14.795  1.00  0.00     0.014 C 
ATOM      3  C   UNL     1       9.141   4.656  15.104  1.00  0.00     0.091 C 
ATOM      4  C   UNL     1       8.455   6.527  13.795  1.00  0.00     0.041 C 
ATOM      5  C   UNL     1       9.783   6.899  14.478  1.00  0.00     0.175 C 
ATOM      6  C   UNL     1       8.893   3.915  16.417  1.00  0.00     0.059 C 
ATOM      7  C   UNL     1       6.728   4.653  14.410  1.00  0.00     0.008 C 
ATOM      8  C   UNL     1       7.409   3.566  16.663  1.00  0.00     0.143 C 
ATOM      9  C   UNL     1       6.620   3.429  15.345  1.00  0.00     0.034 C 
ENDROOT
BRANCH   1  10
ATOM     10  C   UNL     1      11.609   5.404  15.220  1.00  0.00     0.246 C 
ATOM     11  O   UNL     1      11.999   4.786  16.216  1.00  0.00    -0.272 OA
BRANCH  10  12
ATOM     12  C   UNL     1      12.609   5.915  14.142  1.00  0.00     0.174 C 
BRANCH  12  13
ATOM     13  N   UNL     1      12.779   4.903  13.100  1.00  0.00    -0.342 N 
ATOM     14  C   UNL     1      12.910   5.167  11.755  1.00  0.00     0.249 C 
ATOM     15  O   UNL     1      12.927   6.296  11.281  1.00  0.00    -0.272 OA
ATOM     16  H   UNL     1      12.629   3.922  13.321  1.00  0.00     0.164 HD
BRANCH  14  17
ATOM     17  C   UNL     1      13.056   3.886  10.907  1.00  0.00     0.207 C 
BRANCH  17  18
ATOM     18  C   UNL     1      14.530   3.623  10.582  1.00  0.00     0.077 C 
BRANCH  18  19
ATOM     19  C   UNL     1      14.787   2.165  10.278  1.00  0.00    -0.043 A 
ATOM     20  C   UNL     1      14.493  -0.181  10.823  1.00  0.00     0.083 A 
ATOM     21  C   UNL     1      14.214   1.163  11.077  1.00  0.00     0.028 A 
ATOM     22  C   UNL     1      15.344  -0.531   9.774  1.00  0.00     0.134 A 
ATOM     23  C   UNL     1      15.917   0.451   8.974  1.00  0.00     0.048 A 
ATOM     24  C   UNL     1      15.642   1.797   9.227  1.00  0.00     0.008 A 
ATOM     25  Cl  UNL     1      13.781  -1.398  11.816  1.00  0.00    -0.080 Cl
BRANCH  22  26
ATOM     26  O   UNL     1      15.656  -1.834   9.493  1.00  0.00    -0.506 OA
ATOM     27  H   UNL     1      15.723  -1.903   8.523  1.00  0.00     0.293 HD
ENDBRANCH  22  26
ENDBRANCH  18  19
ENDBRANCH  17  18
BRANCH  17  28
ATOM     28  O   UNL     1      12.309   3.987   9.684  1.00  0.00    -0.383 OA
ATOM     29  H   UNL     1      12.897   4.447   9.043  1.00  0.00     0.211 HD
ENDBRANCH  17  28
ENDBRANCH  14  17
ENDBRANCH  12  13
BRANCH  12  30
ATOM     30  C   UNL     1      13.962   6.373  14.749  1.00  0.00     0.018 C 
ATOM     31  C   UNL     1      14.047   7.907  14.799  1.00  0.00     0.010 C 
BRANCH  30  32
ATOM     32  C   UNL     1      15.199   5.796  14.017  1.00  0.00     0.002 C 
ATOM     33  C   UNL     1      15.982   6.795  13.175  1.00  0.00     0.004 C 
ENDBRANCH  30  32
ENDBRANCH  12  30
ENDBRANCH  10  12
ENDBRANCH   1  10
BRANCH   5  34
ATOM     34  C   UNL     1       9.574   7.949  15.602  1.00  0.00     0.242 C 
ATOM     35  O   UNL     1       9.710   7.673  16.794  1.00  0.00    -0.273 OA
ATOM     36  N   UNL     1       9.174   9.195  15.173  1.00  0.00    -0.354 N 
ATOM     37  H   UNL     1       8.963   9.329  14.183  1.00  0.00     0.163 HD
BRANCH  36  38
ATOM     38  C   UNL     1       9.142  10.343  16.055  1.00  0.00     0.116 C 
BRANCH  38  39
ATOM     39  C   UNL     1       7.896  11.180  15.771  1.00  0.00     0.023 C 
BRANCH  39  40
ATOM     40  C   UNL     1       6.974  11.281  16.982  1.00  0.00     0.026 C 
BRANCH  40  41
ATOM     41  C   UNL     1       7.298  10.190  18.003  1.00  0.00     0.146 C 
BRANCH  41  42
ATOM     42  N   UNL     1       6.148   9.309  18.163  1.00  0.00    -0.254 NA
ATOM     43  C   UNL     1       6.329   8.085  18.491  1.00  0.00     0.185 C 
ATOM     44  N   UNL     1       7.470   7.414  18.734  1.00  0.00    -0.370 N 
ATOM     45  N   UNL     1       5.256   7.289  18.630  1.00  0.00    -0.370 N 
ATOM     46  H   UNL     1       7.481   6.408  18.740  1.00  0.00     0.159 HD
ATOM     47  H   UNL     1       8.376   7.869  18.686  1.00  0.00     0.159 HD
ATOM     48  H   UNL     1       4.355   7.720  18.474  1.00  0.00     0.159 HD
ATOM     49  H   UNL     1       5.293   6.405  19.106  1.00  0.00     0.159 HD
ENDBRANCH  41  42
ENDBRANCH  40  41
ENDBRANCH  39  40
ENDBRANCH  38  39
ENDBRANCH  36  38
ENDBRANCH   5  34
BRANCH   8  50
ATOM     50  O   UNL     1       6.792   4.579  17.458  1.00  0.00    -0.245 OA
BRANCH  50  51
ATOM     51  S   UNL     1       5.752   4.154  18.634  1.00  0.00     0.397 S 
ATOM     52  O   UNL     1       4.410   4.390  18.149  1.00  0.00    -0.169 OA
ATOM     53  O   UNL     1       6.206   4.687  19.901  1.00  0.00    -0.169 OA
BRANCH  51  54
ATOM     54  O   UNL     1       5.927   2.556  18.676  1.00  0.00    -0.264 OA
ATOM     55  H   UNL     1       5.040   2.162  18.803  1.00  0.00     0.236 HD
ENDBRANCH  51  54
ENDBRANCH  50  51
ENDBRANCH   8  50
TORSDOF 19
ENDMDL
MODEL 20
REMARK VINA RESULT:    -7.500      2.855      5.210
REMARK INTER + INTRA:         -17.766
REMARK INTER:                 -15.866
REMARK INTRA:                  -1.899
REMARK UNBOUND:                -2.592
REMARK SMILES CC[C@@H](C)[C@@H](NC(=O)[C@@H](O)Cc1ccc(O)c(Cl)c1)C(=O)N1[C@H](C(=O)NCCCCN=C(N)N)C[C@H]2CC[C@H](OS(=O)(=O)O)C[C@@H]21
REMARK SMILES IDX 22 1 36 2 46 3 35 4 23 5 45 6 37 7 39 8 38 9 20 10 21 11
REMARK SMILES IDX 5 12 6 13 7 14 8 15 9 17 11 18 12 19 17 20 19 21 15 22 14 23
REMARK SMILES IDX 13 24 18 25 16 26 10 28 3 30 4 31 2 32 1 33 24 34 25 35
REMARK SMILES IDX 26 36 27 38 28 39 29 40 30 41 31 42 32 43 33 44 34 45 40 50
REMARK SMILES IDX 41 51 42 52 43 53 44 54
REMARK H PARENT 6 16 16 27 10 29 26 37 33 46 33 47 34 48 34 49 44 55
ROOT
ATOM      1  N   UNL     1       1.114 -12.322  11.040  1.00  0.00    -0.326 N 
ATOM      2  C   UNL     1       3.339 -12.491  11.790  1.00  0.00     0.014 C 
ATOM      3  C   UNL     1       2.371 -13.002  10.719  1.00  0.00     0.091 C 
ATOM      4  C   UNL     1       2.440 -12.337  13.007  1.00  0.00     0.041 C 
ATOM      5  C   UNL     1       1.221 -11.654  12.361  1.00  0.00     0.175 C 
ATOM      6  C   UNL     1       2.997 -12.758   9.347  1.00  0.00     0.059 C 
ATOM      7  C   UNL     1       4.566 -13.377  11.879  1.00  0.00     0.008 C 
ATOM      8  C   UNL     1       4.539 -12.841   9.343  1.00  0.00     0.143 C 
ATOM      9  C   UNL     1       5.073 -13.749  10.470  1.00  0.00     0.034 C 
ENDROOT
BRANCH   1  10
ATOM     10  C   UNL     1      -0.124 -12.407  10.426  1.00  0.00     0.246 C 
ATOM     11  O   UNL     1      -0.195 -12.292   9.198  1.00  0.00    -0.272 OA
BRANCH  10  12
ATOM     12  C   UNL     1      -1.390 -12.687  11.287  1.00  0.00     0.174 C 
BRANCH  12  13
ATOM     13  N   UNL     1      -1.722 -11.507  12.084  1.00  0.00    -0.342 N 
ATOM     14  C   UNL     1      -2.983 -10.968  12.212  1.00  0.00     0.249 C 
ATOM     15  O   UNL     1      -3.983 -11.441  11.686  1.00  0.00    -0.272 OA
ATOM     16  H   UNL     1      -0.976 -10.919  12.448  1.00  0.00     0.164 HD
BRANCH  14  17
ATOM     17  C   UNL     1      -3.006  -9.712  13.108  1.00  0.00     0.207 C 
BRANCH  17  18
ATOM     18  C   UNL     1      -3.176  -8.449  12.257  1.00  0.00     0.077 C 
BRANCH  18  19
ATOM     19  C   UNL     1      -4.247  -7.538  12.811  1.00  0.00    -0.043 A 
ATOM     20  C   UNL     1      -4.904  -5.416  13.787  1.00  0.00     0.083 A 
ATOM     21  C   UNL     1      -3.924  -6.238  13.230  1.00  0.00     0.028 A 
ATOM     22  C   UNL     1      -6.210  -5.887  13.930  1.00  0.00     0.134 A 
ATOM     23  C   UNL     1      -6.544  -7.172  13.520  1.00  0.00     0.048 A 
ATOM     24  C   UNL     1      -5.565  -7.997  12.963  1.00  0.00     0.008 A 
ATOM     25  Cl  UNL     1      -4.487  -3.822  14.296  1.00  0.00    -0.080 Cl
BRANCH  22  26
ATOM     26  O   UNL     1      -7.203  -5.122  14.480  1.00  0.00    -0.506 OA
ATOM     27  H   UNL     1      -7.855  -4.959  13.774  1.00  0.00     0.293 HD
ENDBRANCH  22  26
ENDBRANCH  18  19
ENDBRANCH  17  18
BRANCH  17  28
ATOM     28  O   UNL     1      -1.800  -9.606  13.882  1.00  0.00    -0.383 OA
ATOM     29  H   UNL     1      -2.077  -9.306  14.777  1.00  0.00     0.211 HD
ENDBRANCH  17  28
ENDBRANCH  14  17
ENDBRANCH  12  13
BRANCH  12  30
ATOM     30  C   UNL     1      -1.255 -13.968  12.153  1.00  0.00     0.018 C 
ATOM     31  C   UNL     1      -2.377 -14.967  11.829  1.00  0.00     0.010 C 
BRANCH  30  32
ATOM     32  C   UNL     1      -1.215 -13.688  13.675  1.00  0.00     0.002 C 
ATOM     33  C   UNL     1      -2.377 -14.263  14.474  1.00  0.00     0.004 C 
ENDBRANCH  30  32
ENDBRANCH  12  30
ENDBRANCH  10  12
ENDBRANCH   1  10
BRANCH   5  34
ATOM     34  C   UNL     1       1.446 -10.128  12.189  1.00  0.00     0.242 C 
ATOM     35  O   UNL     1       1.081  -9.309  13.033  1.00  0.00    -0.273 OA
ATOM     36  N   UNL     1       2.034  -9.752  11.002  1.00  0.00    -0.354 N 
ATOM     37  H   UNL     1       2.204 -10.465  10.291  1.00  0.00     0.163 HD
BRANCH  36  38
ATOM     38  C   UNL     1       2.510  -8.405  10.767  1.00  0.00     0.116 C 
BRANCH  38  39
ATOM     39  C   UNL     1       4.010  -8.428  10.480  1.00  0.00     0.023 C 
BRANCH  39  40
ATOM     40  C   UNL     1       4.815  -7.669  11.529  1.00  0.00     0.026 C 
BRANCH  40  41
ATOM     41  C   UNL     1       5.553  -8.637  12.453  1.00  0.00     0.146 C 
BRANCH  41  42
ATOM     42  N   UNL     1       5.720  -8.033  13.768  1.00  0.00    -0.254 NA
ATOM     43  C   UNL     1       6.897  -7.820  14.222  1.00  0.00     0.185 C 
ATOM     44  N   UNL     1       8.098  -8.069  13.666  1.00  0.00    -0.370 N 
ATOM     45  N   UNL     1       7.030  -7.266  15.439  1.00  0.00    -0.370 N 
ATOM     46  H   UNL     1       8.931  -8.078  14.229  1.00  0.00     0.159 HD
ATOM     47  H   UNL     1       8.182  -8.475  12.740  1.00  0.00     0.159 HD
ATOM     48  H   UNL     1       6.172  -7.039  15.924  1.00  0.00     0.159 HD
ATOM     49  H   UNL     1       7.889  -6.856  15.759  1.00  0.00     0.159 HD
ENDBRANCH  41  42
ENDBRANCH  40  41
ENDBRANCH  39  40
ENDBRANCH  38  39
ENDBRANCH  36  38
ENDBRANCH   5  34
BRANCH   8  50
ATOM     50  O   UNL     1       5.100 -11.539   9.506  1.00  0.00    -0.245 OA
BRANCH  50  51
ATOM     51  S   UNL     1       5.822 -10.812   8.242  1.00  0.00     0.397 S 
ATOM     52  O   UNL     1       6.330 -11.843   7.365  1.00  0.00    -0.169 OA
ATOM     53  O   UNL     1       6.667  -9.736   8.718  1.00  0.00    -0.169 OA
BRANCH  51  54
ATOM     54  O   UNL     1       4.572 -10.157   7.472  1.00  0.00    -0.264 OA
ATOM     55  H   UNL     1       3.760 -10.394   7.966  1.00  0.00     0.236 HD
ENDBRANCH  51  54
ENDBRANCH  50  51
ENDBRANCH   8  50
TORSDOF 19
ENDMDL
MODEL 21
REMARK VINA RESULT:    -7.451     17.194     21.117
REMARK INTER + INTRA:         -17.666
REMARK INTER:                 -13.966
REMARK INTRA:                  -3.700
REMARK UNBOUND:                -2.592
REMARK SMILES CC[C@@H](C)[C@@H](NC(=O)[C@@H](O)Cc1ccc(O)c(Cl)c1)C(=O)N1[C@H](C(=O)NCCCCN=C(N)N)C[C@H]2CC[C@H](OS(=O)(=O)O)C[C@@H]21
REMARK SMILES IDX 22 1 36 2 46 3 35 4 23 5 45 6 37 7 39 8 38 9 20 10 21 11
REMARK SMILES IDX 5 12 6 13 7 14 8 15 9 17 11 18 12 19 17 20 19 21 15 22 14 23
REMARK SMILES IDX 13 24 18 25 16 26 10 28 3 30 4 31 2 32 1 33 24 34 25 35
REMARK SMILES IDX 26 36 27 38 28 39 29 40 30 41 31 42 32 43 33 44 34 45 40 50
REMARK SMILES IDX 41 51 42 52 43 53 44 54
REMARK H PARENT 6 16 16 27 10 29 26 37 33 46 33 47 34 48 34 49 44 55
ROOT
ATOM      1  N   UNL     1      10.559   5.370  14.365  1.00  0.00    -0.326 N 
ATOM      2  C   UNL     1       8.247   5.762  14.580  1.00  0.00     0.014 C 
ATOM      3  C   UNL     1       9.307   4.657  14.634  1.00  0.00     0.091 C 
ATOM      4  C   UNL     1       8.786   6.690  13.502  1.00  0.00     0.041 C 
ATOM      5  C   UNL     1      10.269   6.754  13.914  1.00  0.00     0.175 C 
ATOM      6  C   UNL     1       9.166   3.918  15.963  1.00  0.00     0.059 C 
ATOM      7  C   UNL     1       6.858   5.173  14.428  1.00  0.00     0.008 C 
ATOM      8  C   UNL     1       7.716   3.863  16.493  1.00  0.00     0.143 C 
ATOM      9  C   UNL     1       6.680   3.953  15.355  1.00  0.00     0.034 C 
ENDROOT
BRANCH   1  10
ATOM     10  C   UNL     1      11.853   4.887  14.269  1.00  0.00     0.246 C 
ATOM     11  O   UNL     1      12.517   4.740  15.300  1.00  0.00    -0.272 OA
BRANCH  10  12
ATOM     12  C   UNL     1      12.425   4.499  12.875  1.00  0.00     0.174 C 
BRANCH  12  13
ATOM     13  N   UNL     1      13.110   3.209  12.958  1.00  0.00    -0.342 N 
ATOM     14  C   UNL     1      12.751   2.078  12.261  1.00  0.00     0.249 C 
ATOM     15  O   UNL     1      11.823   2.034  11.463  1.00  0.00    -0.272 OA
ATOM     16  H   UNL     1      13.796   3.050  13.692  1.00  0.00     0.164 HD
BRANCH  14  17
ATOM     17  C   UNL     1      13.658   0.870  12.578  1.00  0.00     0.207 C 
BRANCH  17  18
ATOM     18  C   UNL     1      13.571  -0.173  11.459  1.00  0.00     0.077 C 
BRANCH  18  19
ATOM     19  C   UNL     1      14.786  -0.135  10.559  1.00  0.00    -0.043 A 
ATOM     20  C   UNL     1      16.437   1.128   9.309  1.00  0.00     0.083 A 
ATOM     21  C   UNL     1      15.347   1.095  10.179  1.00  0.00     0.028 A 
ATOM     22  C   UNL     1      16.971  -0.062   8.813  1.00  0.00     0.134 A 
ATOM     23  C   UNL     1      16.425  -1.286   9.180  1.00  0.00     0.048 A 
ATOM     24  C   UNL     1      15.333  -1.323  10.050  1.00  0.00     0.008 A 
ATOM     25  Cl  UNL     1      17.113   2.648   8.854  1.00  0.00    -0.080 Cl
BRANCH  22  26
ATOM     26  O   UNL     1      18.033  -0.079   7.949  1.00  0.00    -0.506 OA
ATOM     27  H   UNL     1      17.738  -0.559   7.153  1.00  0.00     0.293 HD
ENDBRANCH  22  26
ENDBRANCH  18  19
ENDBRANCH  17  18
BRANCH  17  28
ATOM     28  O   UNL     1      13.293   0.261  13.827  1.00  0.00    -0.383 OA
ATOM     29  H   UNL     1      14.137   0.085  14.301  1.00  0.00     0.211 HD
ENDBRANCH  17  28
ENDBRANCH  14  17
ENDBRANCH  12  13
BRANCH  12  30
ATOM     30  C   UNL     1      13.325   5.608  12.266  1.00  0.00     0.018 C 
ATOM     31  C   UNL     1      12.995   5.825  10.781  1.00  0.00     0.010 C 
BRANCH  30  32
ATOM     32  C   UNL     1      14.840   5.346  12.442  1.00  0.00     0.002 C 
ATOM     33  C   UNL     1      15.474   5.991  13.668  1.00  0.00     0.004 C 
ENDBRANCH  30  32
ENDBRANCH  12  30
ENDBRANCH  10  12
ENDBRANCH   1  10
BRANCH   5  34
ATOM     34  C   UNL     1      10.499   7.768  15.066  1.00  0.00     0.242 C 
ATOM     35  O   UNL     1      10.739   7.410  16.219  1.00  0.00    -0.273 OA
ATOM     36  N   UNL     1      10.361   9.092  14.716  1.00  0.00    -0.354 N 
ATOM     37  H   UNL     1      10.044   9.322  13.774  1.00  0.00     0.163 HD
BRANCH  36  38
ATOM     38  C   UNL     1      10.749  10.170  15.603  1.00  0.00     0.116 C 
BRANCH  38  39
ATOM     39  C   UNL     1       9.657  11.237  15.630  1.00  0.00     0.023 C 
BRANCH  39  40
ATOM     40  C   UNL     1       9.254  11.621  17.050  1.00  0.00     0.026 C 
BRANCH  40  41
ATOM     41  C   UNL     1       9.100  10.378  17.925  1.00  0.00     0.146 C 
BRANCH  41  42
ATOM     42  N   UNL     1       7.850   9.701  17.604  1.00  0.00    -0.254 NA
ATOM     43  C   UNL     1       7.753   8.436  17.776  1.00  0.00     0.185 C 
ATOM     44  N   UNL     1       8.659   7.553  18.233  1.00  0.00    -0.370 N 
ATOM     45  N   UNL     1       6.594   7.830  17.470  1.00  0.00    -0.370 N 
ATOM     46  H   UNL     1       8.533   6.566  18.086  1.00  0.00     0.159 HD
ATOM     47  H   UNL     1       9.588   7.844  18.524  1.00  0.00     0.159 HD
ATOM     48  H   UNL     1       5.854   8.426  17.126  1.00  0.00     0.159 HD
ATOM     49  H   UNL     1       6.361   6.908  17.791  1.00  0.00     0.159 HD
ENDBRANCH  41  42
ENDBRANCH  40  41
ENDBRANCH  39  40
ENDBRANCH  38  39
ENDBRANCH  36  38
ENDBRANCH   5  34
BRANCH   8  50
ATOM     50  O   UNL     1       7.485   4.939  17.403  1.00  0.00    -0.245 OA
BRANCH  50  51
ATOM     51  S   UNL     1       6.300   4.814  18.509  1.00  0.00     0.397 S 
ATOM     52  O   UNL     1       5.067   5.253  17.895  1.00  0.00    -0.169 OA
ATOM     53  O   UNL     1       6.755   5.358  19.772  1.00  0.00    -0.169 OA
BRANCH  51  54
ATOM     54  O   UNL     1       6.163   3.221  18.677  1.00  0.00    -0.264 OA
ATOM     55  H   UNL     1       5.747   2.870  17.863  1.00  0.00     0.236 HD
ENDBRANCH  51  54
ENDBRANCH  50  51
ENDBRANCH   8  50
TORSDOF 19
ENDMDL
MODEL 22
REMARK VINA RESULT:    -7.381      3.587      6.240
REMARK INTER + INTRA:         -17.524
REMARK INTER:                 -15.589
REMARK INTRA:                  -1.935
REMARK UNBOUND:                -2.592
REMARK SMILES CC[C@@H](C)[C@@H](NC(=O)[C@@H](O)Cc1ccc(O)c(Cl)c1)C(=O)N1[C@H](C(=O)NCCCCN=C(N)N)C[C@H]2CC[C@H](OS(=O)(=O)O)C[C@@H]21
REMARK SMILES IDX 22 1 36 2 46 3 35 4 23 5 45 6 37 7 39 8 38 9 20 10 21 11
REMARK SMILES IDX 5 12 6 13 7 14 8 15 9 17 11 18 12 19 17 20 19 21 15 22 14 23
REMARK SMILES IDX 13 24 18 25 16 26 10 28 3 30 4 31 2 32 1 33 24 34 25 35
REMARK SMILES IDX 26 36 27 38 28 39 29 40 30 41 31 42 32 43 33 44 34 45 40 50
REMARK SMILES IDX 41 51 42 52 43 53 44 54
REMARK H PARENT 6 16 16 27 10 29 26 37 33 46 33 47 34 48 34 49 44 55
ROOT
ATOM      1  N   UNL     1       0.973 -12.766  10.930  1.00  0.00    -0.326 N 
ATOM      2  C   UNL     1       1.689 -13.586   8.842  1.00  0.00     0.014 C 
ATOM      3  C   UNL     1       0.541 -13.662   9.853  1.00  0.00     0.091 C 
ATOM      4  C   UNL     1       2.911 -13.432   9.735  1.00  0.00     0.041 C 
ATOM      5  C   UNL     1       2.391 -12.378  10.729  1.00  0.00     0.175 C 
ATOM      6  C   UNL     1      -0.764 -13.344   9.126  1.00  0.00     0.059 C 
ATOM      7  C   UNL     1       1.625 -14.741   7.862  1.00  0.00     0.008 C 
ATOM      8  C   UNL     1      -0.777 -13.790   7.648  1.00  0.00     0.143 C 
ATOM      9  C   UNL     1       0.174 -14.977   7.393  1.00  0.00     0.034 C 
ENDROOT
BRANCH   1  10
ATOM     10  C   UNL     1       0.348 -12.448  12.124  1.00  0.00     0.246 C 
ATOM     11  O   UNL     1       1.015 -11.948  13.036  1.00  0.00    -0.272 OA
BRANCH  10  12
ATOM     12  C   UNL     1      -1.182 -12.685  12.276  1.00  0.00     0.174 C 
BRANCH  12  13
ATOM     13  N   UNL     1      -1.848 -11.432  12.627  1.00  0.00    -0.342 N 
ATOM     14  C   UNL     1      -3.128 -11.086  12.256  1.00  0.00     0.249 C 
ATOM     15  O   UNL     1      -3.869 -11.812  11.605  1.00  0.00    -0.272 OA
ATOM     16  H   UNL     1      -1.308 -10.669  13.029  1.00  0.00     0.164 HD
BRANCH  14  17
ATOM     17  C   UNL     1      -3.540  -9.689  12.767  1.00  0.00     0.207 C 
BRANCH  17  18
ATOM     18  C   UNL     1      -4.398  -8.968  11.722  1.00  0.00     0.077 C 
BRANCH  18  19
ATOM     19  C   UNL     1      -4.604  -7.511  12.072  1.00  0.00    -0.043 A 
ATOM     20  C   UNL     1      -5.579  -5.809  13.500  1.00  0.00     0.083 A 
ATOM     21  C   UNL     1      -5.349  -7.154  13.207  1.00  0.00     0.028 A 
ATOM     22  C   UNL     1      -5.069  -4.816  12.663  1.00  0.00     0.134 A 
ATOM     23  C   UNL     1      -4.329  -5.155  11.537  1.00  0.00     0.048 A 
ATOM     24  C   UNL     1      -4.099  -6.501  11.240  1.00  0.00     0.008 A 
ATOM     25  Cl  UNL     1      -6.497  -5.390  14.898  1.00  0.00    -0.080 Cl
BRANCH  22  26
ATOM     26  O   UNL     1      -5.277  -3.484  12.904  1.00  0.00    -0.506 OA
ATOM     27  H   UNL     1      -6.180  -3.402  13.261  1.00  0.00     0.293 HD
ENDBRANCH  22  26
ENDBRANCH  18  19
ENDBRANCH  17  18
BRANCH  17  28
ATOM     28  O   UNL     1      -2.386  -8.888  13.071  1.00  0.00    -0.383 OA
ATOM     29  H   UNL     1      -1.791  -8.962  12.290  1.00  0.00     0.211 HD
ENDBRANCH  17  28
ENDBRANCH  14  17
ENDBRANCH  12  13
BRANCH  12  30
ATOM     30  C   UNL     1      -1.516 -13.832  13.268  1.00  0.00     0.018 C 
ATOM     31  C   UNL     1      -1.573 -13.306  14.711  1.00  0.00     0.010 C 
BRANCH  30  32
ATOM     32  C   UNL     1      -0.544 -15.034  13.178  1.00  0.00     0.002 C 
ATOM     33  C   UNL     1      -0.366 -15.825  14.467  1.00  0.00     0.004 C 
ENDBRANCH  30  32
ENDBRANCH  12  30
ENDBRANCH  10  12
ENDBRANCH   1  10
BRANCH   5  34
ATOM     34  C   UNL     1       2.491 -10.943  10.146  1.00  0.00     0.242 C 
ATOM     35  O   UNL     1       1.524 -10.365   9.651  1.00  0.00    -0.273 OA
ATOM     36  N   UNL     1       3.750 -10.386  10.173  1.00  0.00    -0.354 N 
ATOM     37  H   UNL     1       4.535 -10.960  10.485  1.00  0.00     0.163 HD
BRANCH  36  38
ATOM     38  C   UNL     1       3.985  -8.989   9.873  1.00  0.00     0.116 C 
BRANCH  38  39
ATOM     39  C   UNL     1       3.643  -8.133  11.090  1.00  0.00     0.023 C 
BRANCH  39  40
ATOM     40  C   UNL     1       4.370  -8.593  12.349  1.00  0.00     0.026 C 
BRANCH  40  41
ATOM     41  C   UNL     1       5.865  -8.289  12.253  1.00  0.00     0.146 C 
BRANCH  41  42
ATOM     42  N   UNL     1       6.278  -7.480  13.392  1.00  0.00    -0.254 NA
ATOM     43  C   UNL     1       6.841  -8.041  14.396  1.00  0.00     0.185 C 
ATOM     44  N   UNL     1       7.145  -9.335  14.606  1.00  0.00    -0.370 N 
ATOM     45  N   UNL     1       7.209  -7.279  15.438  1.00  0.00    -0.370 N 
ATOM     46  H   UNL     1       7.360  -9.668  15.530  1.00  0.00     0.159 HD
ATOM     47  H   UNL     1       6.947 -10.049  13.911  1.00  0.00     0.159 HD
ATOM     48  H   UNL     1       7.024  -6.289  15.357  1.00  0.00     0.159 HD
ATOM     49  H   UNL     1       7.855  -7.593  16.141  1.00  0.00     0.159 HD
ENDBRANCH  41  42
ENDBRANCH  40  41
ENDBRANCH  39  40
ENDBRANCH  38  39
ENDBRANCH  36  38
ENDBRANCH   5  34
BRANCH   8  50
ATOM     50  O   UNL     1      -0.385 -12.706   6.805  1.00  0.00    -0.245 OA
BRANCH  50  51
ATOM     51  S   UNL     1      -1.410 -12.166   5.663  1.00  0.00     0.397 S 
ATOM     52  O   UNL     1      -2.741 -12.156   6.227  1.00  0.00    -0.169 OA
ATOM     53  O   UNL     1      -1.123 -12.819   4.404  1.00  0.00    -0.169 OA
BRANCH  51  54
ATOM     54  O   UNL     1      -0.980 -10.622   5.530  1.00  0.00    -0.264 OA
ATOM     55  H   UNL     1      -0.003 -10.579   5.584  1.00  0.00     0.236 HD
ENDBRANCH  51  54
ENDBRANCH  50  51
ENDBRANCH   8  50
TORSDOF 19
ENDMDL
MODEL 23
REMARK VINA RESULT:    -7.378     15.653     19.236
REMARK INTER + INTRA:         -17.519
REMARK INTER:                 -13.805
REMARK INTRA:                  -3.714
REMARK UNBOUND:                -2.592
REMARK SMILES CC[C@@H](C)[C@@H](NC(=O)[C@@H](O)Cc1ccc(O)c(Cl)c1)C(=O)N1[C@H](C(=O)NCCCCN=C(N)N)C[C@H]2CC[C@H](OS(=O)(=O)O)C[C@@H]21
REMARK SMILES IDX 22 1 36 2 46 3 35 4 23 5 45 6 37 7 39 8 38 9 20 10 21 11
REMARK SMILES IDX 5 12 6 13 7 14 8 15 9 17 11 18 12 19 17 20 19 21 15 22 14 23
REMARK SMILES IDX 13 24 18 25 16 26 10 28 3 30 4 31 2 32 1 33 24 34 25 35
REMARK SMILES IDX 26 36 27 38 28 39 29 40 30 41 31 42 32 43 33 44 34 45 40 50
REMARK SMILES IDX 41 51 42 52 43 53 44 54
REMARK H PARENT 6 16 16 27 10 29 26 37 33 46 33 47 34 48 34 49 44 55
ROOT
ATOM      1  N   UNL     1      11.993   5.594  14.696  1.00  0.00    -0.326 N 
ATOM      2  C   UNL     1      11.656   3.802  13.207  1.00  0.00     0.014 C 
ATOM      3  C   UNL     1      12.227   5.220  13.298  1.00  0.00     0.091 C 
ATOM      4  C   UNL     1      10.470   3.857  14.157  1.00  0.00     0.041 C 
ATOM      5  C   UNL     1      11.108   4.597  15.347  1.00  0.00     0.175 C 
ATOM      6  C   UNL     1      13.666   5.196  12.787  1.00  0.00     0.059 C 
ATOM      7  C   UNL     1      11.434   3.400  11.762  1.00  0.00     0.008 C 
ATOM      8  C   UNL     1      13.915   4.148  11.680  1.00  0.00     0.143 C 
ATOM      9  C   UNL     1      12.631   3.828  10.887  1.00  0.00     0.034 C 
ENDROOT
BRANCH   1  10
ATOM     10  C   UNL     1      12.282   6.774  15.360  1.00  0.00     0.246 C 
ATOM     11  O   UNL     1      13.350   6.872  15.974  1.00  0.00    -0.272 OA
BRANCH  10  12
ATOM     12  C   UNL     1      11.280   7.963  15.283  1.00  0.00     0.174 C 
BRANCH  12  13
ATOM     13  N   UNL     1      10.002   7.577  15.880  1.00  0.00    -0.342 N 
ATOM     14  C   UNL     1       9.704   7.644  17.222  1.00  0.00     0.249 C 
ATOM     15  O   UNL     1      10.478   8.066  18.072  1.00  0.00    -0.272 OA
ATOM     16  H   UNL     1       9.321   7.065  15.324  1.00  0.00     0.164 HD
BRANCH  14  17
ATOM     17  C   UNL     1       8.277   7.149  17.541  1.00  0.00     0.207 C 
BRANCH  17  18
ATOM     18  C   UNL     1       7.457   7.015  16.254  1.00  0.00     0.077 C 
BRANCH  18  19
ATOM     19  C   UNL     1       6.943   5.607  16.059  1.00  0.00    -0.043 A 
ATOM     20  C   UNL     1       6.028   3.556  16.976  1.00  0.00     0.083 A 
ATOM     21  C   UNL     1       6.455   4.873  17.151  1.00  0.00     0.028 A 
ATOM     22  C   UNL     1       6.087   2.965  15.714  1.00  0.00     0.134 A 
ATOM     23  C   UNL     1       6.569   3.680  14.623  1.00  0.00     0.048 A 
ATOM     24  C   UNL     1       6.998   4.998  14.796  1.00  0.00     0.008 A 
ATOM     25  Cl  UNL     1       5.432   2.670  18.330  1.00  0.00    -0.080 Cl
BRANCH  22  26
ATOM     26  O   UNL     1       5.690   1.673  15.495  1.00  0.00    -0.506 OA
ATOM     27  H   UNL     1       6.486   1.116  15.586  1.00  0.00     0.293 HD
ENDBRANCH  22  26
ENDBRANCH  18  19
ENDBRANCH  17  18
BRANCH  17  28
ATOM     28  O   UNL     1       7.608   8.045  18.442  1.00  0.00    -0.383 OA
ATOM     29  H   UNL     1       7.351   8.829  17.906  1.00  0.00     0.211 HD
ENDBRANCH  17  28
ENDBRANCH  14  17
ENDBRANCH  12  13
BRANCH  12  30
ATOM     30  C   UNL     1      11.118   8.519  13.843  1.00  0.00     0.018 C 
ATOM     31  C   UNL     1      11.969   9.783  13.646  1.00  0.00     0.010 C 
BRANCH  30  32
ATOM     32  C   UNL     1       9.648   8.800  13.447  1.00  0.00     0.002 C 
ATOM     33  C   UNL     1       9.206  10.252  13.573  1.00  0.00     0.004 C 
ENDBRANCH  30  32
ENDBRANCH  12  30
ENDBRANCH  10  12
ENDBRANCH   1  10
BRANCH   5  34
ATOM     34  C   UNL     1      11.931   3.634  16.244  1.00  0.00     0.242 C 
ATOM     35  O   UNL     1      11.399   2.869  17.049  1.00  0.00    -0.273 OA
ATOM     36  N   UNL     1      13.298   3.736  16.113  1.00  0.00    -0.354 N 
ATOM     37  H   UNL     1      13.681   4.472  15.519  1.00  0.00     0.163 HD
BRANCH  36  38
ATOM     38  C   UNL     1      14.205   2.776  16.707  1.00  0.00     0.116 C 
BRANCH  38  39
ATOM     39  C   UNL     1      14.633   1.752  15.659  1.00  0.00     0.023 C 
BRANCH  39  40
ATOM     40  C   UNL     1      13.702   0.545  15.610  1.00  0.00     0.026 C 
BRANCH  40  41
ATOM     41  C   UNL     1      14.187  -0.472  14.577  1.00  0.00     0.146 C 
BRANCH  41  42
ATOM     42  N   UNL     1      13.468  -0.282  13.324  1.00  0.00    -0.254 NA
ATOM     43  C   UNL     1      13.651  -1.103  12.358  1.00  0.00     0.185 C 
ATOM     44  N   UNL     1      14.441  -2.189  12.283  1.00  0.00    -0.370 N 
ATOM     45  N   UNL     1      12.982  -0.907  11.210  1.00  0.00    -0.370 N 
ATOM     46  H   UNL     1      14.672  -2.595  11.393  1.00  0.00     0.159 HD
ATOM     47  H   UNL     1      15.008  -2.490  13.070  1.00  0.00     0.159 HD
ATOM     48  H   UNL     1      12.356  -0.113  11.185  1.00  0.00     0.159 HD
ATOM     49  H   UNL     1      12.886  -1.619  10.508  1.00  0.00     0.159 HD
ENDBRANCH  41  42
ENDBRANCH  40  41
ENDBRANCH  39  40
ENDBRANCH  38  39
ENDBRANCH  36  38
ENDBRANCH   5  34
BRANCH   8  50
ATOM     50  O   UNL     1      14.408   2.937  12.254  1.00  0.00    -0.245 OA
BRANCH  50  51
ATOM     51  S   UNL     1      15.594   2.117  11.501  1.00  0.00     0.397 S 
ATOM     52  O   UNL     1      15.003   1.379  10.408  1.00  0.00    -0.169 OA
ATOM     53  O   UNL     1      16.438   1.472  12.485  1.00  0.00    -0.169 OA
BRANCH  51  54
ATOM     54  O   UNL     1      16.442   3.302  10.822  1.00  0.00    -0.264 OA
ATOM     55  H   UNL     1      17.083   3.629  11.485  1.00  0.00     0.236 HD
ENDBRANCH  51  54
ENDBRANCH  50  51
ENDBRANCH   8  50
TORSDOF 19
ENDMDL
MODEL 24
REMARK VINA RESULT:    -7.376     17.409     21.438
REMARK INTER + INTRA:         -17.514
REMARK INTER:                 -13.471
REMARK INTRA:                  -4.043
REMARK UNBOUND:                -2.592
REMARK SMILES CC[C@@H](C)[C@@H](NC(=O)[C@@H](O)Cc1ccc(O)c(Cl)c1)C(=O)N1[C@H](C(=O)NCCCCN=C(N)N)C[C@H]2CC[C@H](OS(=O)(=O)O)C[C@@H]21
REMARK SMILES IDX 22 1 36 2 46 3 35 4 23 5 45 6 37 7 39 8 38 9 20 10 21 11
REMARK SMILES IDX 5 12 6 13 7 14 8 15 9 17 11 18 12 19 17 20 19 21 15 22 14 23
REMARK SMILES IDX 13 24 18 25 16 26 10 28 3 30 4 31 2 32 1 33 24 34 25 35
REMARK SMILES IDX 26 36 27 38 28 39 29 40 30 41 31 42 32 43 33 44 34 45 40 50
REMARK SMILES IDX 41 51 42 52 43 53 44 54
REMARK H PARENT 6 16 16 27 10 29 26 37 33 46 33 47 34 48 34 49 44 55
ROOT
ATOM      1  N   UNL     1      10.055   5.366  15.583  1.00  0.00    -0.326 N 
ATOM      2  C   UNL     1       7.769   5.352  15.019  1.00  0.00     0.014 C 
ATOM      3  C   UNL     1       8.915   4.449  15.482  1.00  0.00     0.091 C 
ATOM      4  C   UNL     1       8.474   6.350  14.113  1.00  0.00     0.041 C 
ATOM      5  C   UNL     1       9.710   6.674  14.974  1.00  0.00     0.175 C 
ATOM      6  C   UNL     1       8.468   3.708  16.741  1.00  0.00     0.059 C 
ATOM      7  C   UNL     1       6.620   4.531  14.468  1.00  0.00     0.008 C 
ATOM      8  C   UNL     1       6.954   3.407  16.780  1.00  0.00     0.143 C 
ATOM      9  C   UNL     1       6.347   3.306  15.366  1.00  0.00     0.034 C 
ENDROOT
BRANCH   1  10
ATOM     10  C   UNL     1      11.369   5.113  15.939  1.00  0.00     0.246 C 
ATOM     11  O   UNL     1      11.683   5.137  17.134  1.00  0.00    -0.272 OA
BRANCH  10  12
ATOM     12  C   UNL     1      12.409   4.763  14.835  1.00  0.00     0.174 C 
BRANCH  12  13
ATOM     13  N   UNL     1      12.710   5.952  14.039  1.00  0.00    -0.342 N 
ATOM     14  C   UNL     1      13.928   6.592  14.003  1.00  0.00     0.249 C 
ATOM     15  O   UNL     1      14.915   6.214  14.623  1.00  0.00    -0.272 OA
ATOM     16  H   UNL     1      11.952   6.468  13.598  1.00  0.00     0.164 HD
BRANCH  14  17
ATOM     17  C   UNL     1      13.925   7.829  13.080  1.00  0.00     0.207 C 
BRANCH  17  18
ATOM     18  C   UNL     1      12.643   7.868  12.242  1.00  0.00     0.077 C 
BRANCH  18  19
ATOM     19  C   UNL     1      11.713   8.974  12.688  1.00  0.00    -0.043 A 
ATOM     20  C   UNL     1      11.328  11.029  13.917  1.00  0.00     0.083 A 
ATOM     21  C   UNL     1      12.199  10.037  13.465  1.00  0.00     0.028 A 
ATOM     22  C   UNL     1       9.972  10.967  13.596  1.00  0.00     0.134 A 
ATOM     23  C   UNL     1       9.478   9.920  12.827  1.00  0.00     0.048 A 
ATOM     24  C   UNL     1      10.346   8.924  12.375  1.00  0.00     0.008 A 
ATOM     25  Cl  UNL     1      11.943  12.327  14.871  1.00  0.00    -0.080 Cl
BRANCH  22  26
ATOM     26  O   UNL     1       9.078  11.911  14.025  1.00  0.00    -0.506 OA
ATOM     27  H   UNL     1       9.409  12.773  13.709  1.00  0.00     0.293 HD
ENDBRANCH  22  26
ENDBRANCH  18  19
ENDBRANCH  17  18
BRANCH  17  28
ATOM     28  O   UNL     1      15.066   7.826  12.207  1.00  0.00    -0.383 OA
ATOM     29  H   UNL     1      14.971   8.619  11.633  1.00  0.00     0.211 HD
ENDBRANCH  17  28
ENDBRANCH  14  17
ENDBRANCH  12  13
BRANCH  12  30
ATOM     30  C   UNL     1      11.971   3.558  13.960  1.00  0.00     0.018 C 
ATOM     31  C   UNL     1      13.110   2.534  13.831  1.00  0.00     0.010 C 
BRANCH  30  32
ATOM     32  C   UNL     1      11.459   3.963  12.556  1.00  0.00     0.002 C 
ATOM     33  C   UNL     1      12.374   3.589  11.396  1.00  0.00     0.004 C 
ENDBRANCH  30  32
ENDBRANCH  12  30
ENDBRANCH  10  12
ENDBRANCH   1  10
BRANCH   5  34
ATOM     34  C   UNL     1       9.384   7.723  16.070  1.00  0.00     0.242 C 
ATOM     35  O   UNL     1       8.310   7.734  16.672  1.00  0.00    -0.273 OA
ATOM     36  N   UNL     1      10.360   8.670  16.283  1.00  0.00    -0.354 N 
ATOM     37  H   UNL     1      11.177   8.680  15.670  1.00  0.00     0.163 HD
BRANCH  36  38
ATOM     38  C   UNL     1      10.319   9.585  17.405  1.00  0.00     0.116 C 
BRANCH  38  39
ATOM     39  C   UNL     1      11.653   9.555  18.147  1.00  0.00     0.023 C 
BRANCH  39  40
ATOM     40  C   UNL     1      12.100   8.137  18.486  1.00  0.00     0.026 C 
BRANCH  40  41
ATOM     41  C   UNL     1      13.625   8.028  18.459  1.00  0.00     0.146 C 
BRANCH  41  42
ATOM     42  N   UNL     1      14.061   6.989  19.382  1.00  0.00    -0.254 NA
ATOM     43  C   UNL     1      14.523   5.887  18.922  1.00  0.00     0.185 C 
ATOM     44  N   UNL     1      14.693   5.484  17.650  1.00  0.00    -0.370 N 
ATOM     45  N   UNL     1      14.915   4.940  19.790  1.00  0.00    -0.370 N 
ATOM     46  H   UNL     1      14.834   4.512  17.434  1.00  0.00     0.159 HD
ATOM     47  H   UNL     1      14.460   6.084  16.865  1.00  0.00     0.159 HD
ATOM     48  H   UNL     1      14.828   5.167  20.771  1.00  0.00     0.159 HD
ATOM     49  H   UNL     1      15.496   4.165  19.523  1.00  0.00     0.159 HD
ENDBRANCH  41  42
ENDBRANCH  40  41
ENDBRANCH  39  40
ENDBRANCH  38  39
ENDBRANCH  36  38
ENDBRANCH   5  34
BRANCH   8  50
ATOM     50  O   UNL     1       6.268   4.435  17.496  1.00  0.00    -0.245 OA
BRANCH  50  51
ATOM     51  S   UNL     1       5.383   4.049  18.805  1.00  0.00     0.397 S 
ATOM     52  O   UNL     1       5.343   2.608  18.907  1.00  0.00    -0.169 OA
ATOM     53  O   UNL     1       4.175   4.847  18.827  1.00  0.00    -0.169 OA
BRANCH  51  54
ATOM     54  O   UNL     1       6.328   4.547  20.007  1.00  0.00    -0.264 OA
ATOM     55  H   UNL     1       5.902   5.327  20.418  1.00  0.00     0.236 HD
ENDBRANCH  51  54
ENDBRANCH  50  51
ENDBRANCH   8  50
TORSDOF 19
ENDMDL
MODEL 25
REMARK VINA RESULT:    -7.373     17.015     21.421
REMARK INTER + INTRA:         -17.508
REMARK INTER:                 -14.748
REMARK INTRA:                  -2.759
REMARK UNBOUND:                -2.592
REMARK SMILES CC[C@@H](C)[C@@H](NC(=O)[C@@H](O)Cc1ccc(O)c(Cl)c1)C(=O)N1[C@H](C(=O)NCCCCN=C(N)N)C[C@H]2CC[C@H](OS(=O)(=O)O)C[C@@H]21
REMARK SMILES IDX 22 1 36 2 46 3 35 4 23 5 45 6 37 7 39 8 38 9 20 10 21 11
REMARK SMILES IDX 5 12 6 13 7 14 8 15 9 17 11 18 12 19 17 20 19 21 15 22 14 23
REMARK SMILES IDX 13 24 18 25 16 26 10 28 3 30 4 31 2 32 1 33 24 34 25 35
REMARK SMILES IDX 26 36 27 38 28 39 29 40 30 41 31 42 32 43 33 44 34 45 40 50
REMARK SMILES IDX 41 51 42 52 43 53 44 54
REMARK H PARENT 6 16 16 27 10 29 26 37 33 46 33 47 34 48 34 49 44 55
ROOT
ATOM      1  N   UNL     1      10.587   5.651  15.230  1.00  0.00    -0.326 N 
ATOM      2  C   UNL     1       8.255   5.862  14.986  1.00  0.00     0.014 C 
ATOM      3  C   UNL     1       9.374   4.832  15.169  1.00  0.00     0.091 C 
ATOM      4  C   UNL     1       8.919   6.928  14.128  1.00  0.00     0.041 C 
ATOM      5  C   UNL     1      10.276   7.050  14.846  1.00  0.00     0.175 C 
ATOM      6  C   UNL     1       9.030   3.954  16.371  1.00  0.00     0.059 C 
ATOM      7  C   UNL     1       6.983   5.200  14.496  1.00  0.00     0.008 C 
ATOM      8  C   UNL     1       7.514   3.748  16.577  1.00  0.00     0.143 C 
ATOM      9  C   UNL     1       6.727   3.882  15.258  1.00  0.00     0.034 C 
ENDROOT
BRANCH   1  10
ATOM     10  C   UNL     1      11.911   5.268  15.368  1.00  0.00     0.246 C 
ATOM     11  O   UNL     1      12.241   4.586  16.344  1.00  0.00    -0.272 OA
BRANCH  10  12
ATOM     12  C   UNL     1      12.943   5.666  14.273  1.00  0.00     0.174 C 
BRANCH  12  13
ATOM     13  N   UNL     1      12.904   4.700  13.176  1.00  0.00    -0.342 N 
ATOM     14  C   UNL     1      12.908   5.023  11.838  1.00  0.00     0.249 C 
ATOM     15  O   UNL     1      12.973   6.170  11.414  1.00  0.00    -0.272 OA
ATOM     16  H   UNL     1      12.692   3.725  13.372  1.00  0.00     0.164 HD
BRANCH  14  17
ATOM     17  C   UNL     1      12.842   3.780  10.925  1.00  0.00     0.207 C 
BRANCH  17  18
ATOM     18  C   UNL     1      14.249   3.233  10.663  1.00  0.00     0.077 C 
BRANCH  18  19
ATOM     19  C   UNL     1      14.293   1.725  10.759  1.00  0.00    -0.043 A 
ATOM     20  C   UNL     1      15.286  -0.395  10.121  1.00  0.00     0.083 A 
ATOM     21  C   UNL     1      15.278   1.000  10.071  1.00  0.00     0.028 A 
ATOM     22  C   UNL     1      14.311  -1.072  10.855  1.00  0.00     0.134 A 
ATOM     23  C   UNL     1      13.330  -0.366  11.541  1.00  0.00     0.048 A 
ATOM     24  C   UNL     1      13.318   1.029  11.491  1.00  0.00     0.008 A 
ATOM     25  Cl  UNL     1      16.504  -1.268   9.269  1.00  0.00    -0.080 Cl
BRANCH  22  26
ATOM     26  O   UNL     1      14.272  -2.438  10.926  1.00  0.00    -0.506 OA
ATOM     27  H   UNL     1      14.987  -2.708  11.531  1.00  0.00     0.293 HD
ENDBRANCH  22  26
ENDBRANCH  18  19
ENDBRANCH  17  18
BRANCH  17  28
ATOM     28  O   UNL     1      12.211   4.091   9.673  1.00  0.00    -0.383 OA
ATOM     29  H   UNL     1      11.569   3.364   9.504  1.00  0.00     0.211 HD
ENDBRANCH  17  28
ENDBRANCH  14  17
ENDBRANCH  12  13
BRANCH  12  30
ATOM     30  C   UNL     1      14.375   5.861  14.841  1.00  0.00     0.018 C 
ATOM     31  C   UNL     1      14.821   7.325  14.706  1.00  0.00     0.010 C 
BRANCH  30  32
ATOM     32  C   UNL     1      15.428   4.922  14.204  1.00  0.00     0.002 C 
ATOM     33  C   UNL     1      16.360   5.579  13.195  1.00  0.00     0.004 C 
ENDBRANCH  30  32
ENDBRANCH  12  30
ENDBRANCH  10  12
ENDBRANCH   1  10
BRANCH   5  34
ATOM     34  C   UNL     1      10.178   7.956  16.103  1.00  0.00     0.242 C 
ATOM     35  O   UNL     1       9.161   8.015  16.794  1.00  0.00    -0.273 OA
ATOM     36  N   UNL     1      11.290   8.728  16.356  1.00  0.00    -0.354 N 
ATOM     37  H   UNL     1      12.055   8.725  15.680  1.00  0.00     0.163 HD
BRANCH  36  38
ATOM     38  C   UNL     1      11.456   9.463  17.593  1.00  0.00     0.116 C 
BRANCH  38  39
ATOM     39  C   UNL     1      12.900   9.941  17.722  1.00  0.00     0.023 C 
BRANCH  39  40
ATOM     40  C   UNL     1      13.552   9.483  19.022  1.00  0.00     0.026 C 
BRANCH  40  41
ATOM     41  C   UNL     1      14.776   8.612  18.737  1.00  0.00     0.146 C 
BRANCH  41  42
ATOM     42  N   UNL     1      14.348   7.286  18.312  1.00  0.00    -0.254 NA
ATOM     43  C   UNL     1      14.477   6.293  19.109  1.00  0.00     0.185 C 
ATOM     44  N   UNL     1      14.971   6.246  20.360  1.00  0.00    -0.370 N 
ATOM     45  N   UNL     1      14.081   5.078  18.697  1.00  0.00    -0.370 N 
ATOM     46  H   UNL     1      15.238   5.369  20.773  1.00  0.00     0.159 HD
ATOM     47  H   UNL     1      15.305   7.081  20.833  1.00  0.00     0.159 HD
ATOM     48  H   UNL     1      13.687   5.026  17.767  1.00  0.00     0.159 HD
ATOM     49  H   UNL     1      13.929   4.312  19.329  1.00  0.00     0.159 HD
ENDBRANCH  41  42
ENDBRANCH  40  41
ENDBRANCH  39  40
ENDBRANCH  38  39
ENDBRANCH  36  38
ENDBRANCH   5  34
BRANCH   8  50
ATOM     50  O   UNL     1       7.011   4.709  17.506  1.00  0.00    -0.245 OA
BRANCH  50  51
ATOM     51  S   UNL     1       5.792   4.301  18.503  1.00  0.00     0.397 S 
ATOM     52  O   UNL     1       5.668   2.861  18.489  1.00  0.00    -0.169 OA
ATOM     53  O   UNL     1       4.655   5.163  18.259  1.00  0.00    -0.169 OA
BRANCH  51  54
ATOM     54  O   UNL     1       6.399   4.675  19.944  1.00  0.00    -0.264 OA
ATOM     55  H   UNL     1       7.358   4.832  19.833  1.00  0.00     0.236 HD
ENDBRANCH  51  54
ENDBRANCH  50  51
ENDBRANCH   8  50
TORSDOF 19
ENDMDL
MODEL 26
REMARK VINA RESULT:    -7.366     17.042     21.218
REMARK INTER + INTRA:         -17.494
REMARK INTER:                 -14.649
REMARK INTRA:                  -2.846
REMARK UNBOUND:                -2.592
REMARK SMILES CC[C@@H](C)[C@@H](NC(=O)[C@@H](O)Cc1ccc(O)c(Cl)c1)C(=O)N1[C@H](C(=O)NCCCCN=C(N)N)C[C@H]2CC[C@H](OS(=O)(=O)O)C[C@@H]21
REMARK SMILES IDX 22 1 36 2 46 3 35 4 23 5 45 6 37 7 39 8 38 9 20 10 21 11
REMARK SMILES IDX 5 12 6 13 7 14 8 15 9 17 11 18 12 19 17 20 19 21 15 22 14 23
REMARK SMILES IDX 13 24 18 25 16 26 10 28 3 30 4 31 2 32 1 33 24 34 25 35
REMARK SMILES IDX 26 36 27 38 28 39 29 40 30 41 31 42 32 43 33 44 34 45 40 50
REMARK SMILES IDX 41 51 42 52 43 53 44 54
REMARK H PARENT 6 16 16 27 10 29 26 37 33 46 33 47 34 48 34 49 44 55
ROOT
ATOM      1  N   UNL     1      10.078   5.721  14.726  1.00  0.00    -0.326 N 
ATOM      2  C   UNL     1       7.737   5.471  14.726  1.00  0.00     0.014 C 
ATOM      3  C   UNL     1       9.043   4.715  14.985  1.00  0.00     0.091 C 
ATOM      4  C   UNL     1       8.112   6.409  13.590  1.00  0.00     0.041 C 
ATOM      5  C   UNL     1       9.473   6.921  14.097  1.00  0.00     0.175 C 
ATOM      6  C   UNL     1       8.973   4.090  16.377  1.00  0.00     0.059 C 
ATOM      7  C   UNL     1       6.581   4.507  14.543  1.00  0.00     0.008 C 
ATOM      8  C   UNL     1       7.546   3.682  16.803  1.00  0.00     0.143 C 
ATOM      9  C   UNL     1       6.644   3.376  15.590  1.00  0.00     0.034 C 
ENDROOT
BRANCH   1  10
ATOM     10  C   UNL     1      11.457   5.610  14.781  1.00  0.00     0.246 C 
ATOM     11  O   UNL     1      12.024   5.694  15.875  1.00  0.00    -0.272 OA
BRANCH  10  12
ATOM     12  C   UNL     1      12.257   5.340  13.473  1.00  0.00     0.174 C 
BRANCH  12  13
ATOM     13  N   UNL     1      12.625   3.926  13.397  1.00  0.00    -0.342 N 
ATOM     14  C   UNL     1      12.189   3.048  12.430  1.00  0.00     0.249 C 
ATOM     15  O   UNL     1      11.459   3.365  11.500  1.00  0.00    -0.272 OA
ATOM     16  H   UNL     1      13.096   3.485  14.183  1.00  0.00     0.164 HD
BRANCH  14  17
ATOM     17  C   UNL     1      12.739   1.620  12.632  1.00  0.00     0.207 C 
BRANCH  17  18
ATOM     18  C   UNL     1      14.271   1.634  12.656  1.00  0.00     0.077 C 
BRANCH  18  19
ATOM     19  C   UNL     1      14.857   1.360  11.289  1.00  0.00    -0.043 A 
ATOM     20  C   UNL     1      15.873  -0.172   9.706  1.00  0.00     0.083 A 
ATOM     21  C   UNL     1      15.287   0.068  10.950  1.00  0.00     0.028 A 
ATOM     22  C   UNL     1      16.034   0.875   8.797  1.00  0.00     0.134 A 
ATOM     23  C   UNL     1      15.613   2.159   9.121  1.00  0.00     0.048 A 
ATOM     24  C   UNL     1      15.028   2.402  10.366  1.00  0.00     0.008 A 
ATOM     25  Cl  UNL     1      16.395  -1.766   9.307  1.00  0.00    -0.080 Cl
BRANCH  22  26
ATOM     26  O   UNL     1      16.612   0.691   7.570  1.00  0.00    -0.506 OA
ATOM     27  H   UNL     1      16.836  -0.256   7.505  1.00  0.00     0.293 HD
ENDBRANCH  22  26
ENDBRANCH  18  19
ENDBRANCH  17  18
BRANCH  17  28
ATOM     28  O   UNL     1      12.287   0.740  11.590  1.00  0.00    -0.383 OA
ATOM     29  H   UNL     1      12.329  -0.169  11.965  1.00  0.00     0.211 HD
ENDBRANCH  17  28
ENDBRANCH  14  17
ENDBRANCH  12  13
BRANCH  12  30
ATOM     30  C   UNL     1      13.483   6.280  13.315  1.00  0.00     0.018 C 
ATOM     31  C   UNL     1      13.586   6.806  11.875  1.00  0.00     0.010 C 
BRANCH  30  32
ATOM     32  C   UNL     1      14.822   5.632  13.742  1.00  0.00     0.002 C 
ATOM     33  C   UNL     1      15.800   5.351  12.609  1.00  0.00     0.004 C 
ENDBRANCH  30  32
ENDBRANCH  12  30
ENDBRANCH  10  12
ENDBRANCH   1  10
BRANCH   5  34
ATOM     34  C   UNL     1       9.304   8.060  15.138  1.00  0.00     0.242 C 
ATOM     35  O   UNL     1       8.509   8.986  14.976  1.00  0.00    -0.273 OA
ATOM     36  N   UNL     1      10.143   7.988  16.227  1.00  0.00    -0.354 N 
ATOM     37  H   UNL     1      10.862   7.264  16.246  1.00  0.00     0.163 HD
BRANCH  36  38
ATOM     38  C   UNL     1       9.977   8.837  17.389  1.00  0.00     0.116 C 
BRANCH  38  39
ATOM     39  C   UNL     1      11.181   8.688  18.316  1.00  0.00     0.023 C 
BRANCH  39  40
ATOM     40  C   UNL     1      12.385   9.493  17.839  1.00  0.00     0.026 C 
BRANCH  40  41
ATOM     41  C   UNL     1      13.573   8.574  17.552  1.00  0.00     0.146 C 
BRANCH  41  42
ATOM     42  N   UNL     1      14.143   8.101  18.807  1.00  0.00    -0.254 NA
ATOM     43  C   UNL     1      14.241   6.843  19.023  1.00  0.00     0.185 C 
ATOM     44  N   UNL     1      13.889   5.801  18.247  1.00  0.00    -0.370 N 
ATOM     45  N   UNL     1      14.766   6.427  20.187  1.00  0.00    -0.370 N 
ATOM     46  H   UNL     1      13.796   4.879  18.637  1.00  0.00     0.159 HD
ATOM     47  H   UNL     1      13.488   5.936  17.324  1.00  0.00     0.159 HD
ATOM     48  H   UNL     1      15.066   7.149  20.827  1.00  0.00     0.159 HD
ATOM     49  H   UNL     1      15.092   5.487  20.332  1.00  0.00     0.159 HD
ENDBRANCH  41  42
ENDBRANCH  40  41
ENDBRANCH  39  40
ENDBRANCH  38  39
ENDBRANCH  36  38
ENDBRANCH   5  34
BRANCH   8  50
ATOM     50  O   UNL     1       6.943   4.730  17.563  1.00  0.00    -0.245 OA
BRANCH  50  51
ATOM     51  S   UNL     1       5.815   4.367  18.678  1.00  0.00     0.397 S 
ATOM     52  O   UNL     1       4.522   4.724  18.138  1.00  0.00    -0.169 OA
ATOM     53  O   UNL     1       6.250   4.832  19.978  1.00  0.00    -0.169 OA
BRANCH  51  54
ATOM     54  O   UNL     1       5.857   2.760  18.686  1.00  0.00    -0.264 OA
ATOM     55  H   UNL     1       6.222   2.476  19.549  1.00  0.00     0.236 HD
ENDBRANCH  51  54
ENDBRANCH  50  51
ENDBRANCH   8  50
TORSDOF 19
ENDMDL
MODEL 27
REMARK VINA RESULT:    -7.361     17.514     21.453
REMARK INTER + INTRA:         -17.483
REMARK INTER:                 -13.127
REMARK INTRA:                  -4.356
REMARK UNBOUND:                -2.592
REMARK SMILES CC[C@@H](C)[C@@H](NC(=O)[C@@H](O)Cc1ccc(O)c(Cl)c1)C(=O)N1[C@H](C(=O)NCCCCN=C(N)N)C[C@H]2CC[C@H](OS(=O)(=O)O)C[C@@H]21
REMARK SMILES IDX 22 1 36 2 46 3 35 4 23 5 45 6 37 7 39 8 38 9 20 10 21 11
REMARK SMILES IDX 5 12 6 13 7 14 8 15 9 17 11 18 12 19 17 20 19 21 15 22 14 23
REMARK SMILES IDX 13 24 18 25 16 26 10 28 3 30 4 31 2 32 1 33 24 34 25 35
REMARK SMILES IDX 26 36 27 38 28 39 29 40 30 41 31 42 32 43 33 44 34 45 40 50
REMARK SMILES IDX 41 51 42 52 43 53 44 54
REMARK H PARENT 6 16 16 27 10 29 26 37 33 46 33 47 34 48 34 49 44 55
ROOT
ATOM      1  N   UNL     1      10.100   5.631  15.140  1.00  0.00    -0.326 N 
ATOM      2  C   UNL     1       8.899   5.581  17.164  1.00  0.00     0.014 C 
ATOM      3  C   UNL     1       8.752   5.865  15.667  1.00  0.00     0.091 C 
ATOM      4  C   UNL     1      10.308   6.071  17.462  1.00  0.00     0.041 C 
ATOM      5  C   UNL     1      11.063   5.477  16.258  1.00  0.00     0.175 C 
ATOM      6  C   UNL     1       7.605   5.015  15.124  1.00  0.00     0.059 C 
ATOM      7  C   UNL     1       7.732   6.156  17.942  1.00  0.00     0.008 C 
ATOM      8  C   UNL     1       6.481   4.760  16.151  1.00  0.00     0.143 C 
ATOM      9  C   UNL     1       6.401   5.877  17.212  1.00  0.00     0.034 C 
ENDROOT
BRANCH   1  10
ATOM     10  C   UNL     1      10.581   5.751  13.847  1.00  0.00     0.246 C 
ATOM     11  O   UNL     1      10.495   4.785  13.082  1.00  0.00    -0.272 OA
BRANCH  10  12
ATOM     12  C   UNL     1      11.178   7.108  13.374  1.00  0.00     0.174 C 
BRANCH  12  13
ATOM     13  N   UNL     1      12.574   7.214  13.798  1.00  0.00    -0.342 N 
ATOM     14  C   UNL     1      13.561   7.881  13.109  1.00  0.00     0.249 C 
ATOM     15  O   UNL     1      13.370   8.491  12.064  1.00  0.00    -0.272 OA
ATOM     16  H   UNL     1      12.914   6.631  14.559  1.00  0.00     0.164 HD
BRANCH  14  17
ATOM     17  C   UNL     1      14.935   7.797  13.807  1.00  0.00     0.207 C 
BRANCH  17  18
ATOM     18  C   UNL     1      15.138   8.996  14.738  1.00  0.00     0.077 C 
BRANCH  18  19
ATOM     19  C   UNL     1      14.629   8.716  16.134  1.00  0.00    -0.043 A 
ATOM     20  C   UNL     1      14.106   7.142  17.905  1.00  0.00     0.083 A 
ATOM     21  C   UNL     1      14.622   7.405  16.635  1.00  0.00     0.028 A 
ATOM     22  C   UNL     1      13.595   8.184  18.680  1.00  0.00     0.134 A 
ATOM     23  C   UNL     1      13.596   9.487  18.196  1.00  0.00     0.048 A 
ATOM     24  C   UNL     1      14.110   9.753  16.925  1.00  0.00     0.008 A 
ATOM     25  Cl  UNL     1      14.106   5.525  18.503  1.00  0.00    -0.080 Cl
BRANCH  22  26
ATOM     26  O   UNL     1      13.070   7.974  19.926  1.00  0.00    -0.506 OA
ATOM     27  H   UNL     1      13.817   7.748  20.510  1.00  0.00     0.293 HD
ENDBRANCH  22  26
ENDBRANCH  18  19
ENDBRANCH  17  18
BRANCH  17  28
ATOM     28  O   UNL     1      16.002   7.755  12.845  1.00  0.00    -0.383 OA
ATOM     29  H   UNL     1      16.830   7.637  13.363  1.00  0.00     0.211 HD
ENDBRANCH  17  28
ENDBRANCH  14  17
ENDBRANCH  12  13
BRANCH  12  30
ATOM     30  C   UNL     1      10.328   8.327  13.823  1.00  0.00     0.018 C 
ATOM     31  C   UNL     1      10.028   9.252  12.633  1.00  0.00     0.010 C 
BRANCH  30  32
ATOM     32  C   UNL     1      10.964   9.136  14.979  1.00  0.00     0.002 C 
ATOM     33  C   UNL     1      11.445  10.533  14.608  1.00  0.00     0.004 C 
ENDBRANCH  30  32
ENDBRANCH  12  30
ENDBRANCH  10  12
ENDBRANCH   1  10
BRANCH   5  34
ATOM     34  C   UNL     1      11.411   3.982  16.483  1.00  0.00     0.242 C 
ATOM     35  O   UNL     1      10.797   3.276  17.282  1.00  0.00    -0.273 OA
ATOM     36  N   UNL     1      12.490   3.517  15.765  1.00  0.00    -0.354 N 
ATOM     37  H   UNL     1      13.033   4.180  15.210  1.00  0.00     0.163 HD
BRANCH  36  38
ATOM     38  C   UNL     1      12.819   2.109  15.687  1.00  0.00     0.116 C 
BRANCH  38  39
ATOM     39  C   UNL     1      13.701   1.849  14.468  1.00  0.00     0.023 C 
BRANCH  39  40
ATOM     40  C   UNL     1      13.148   2.491  13.201  1.00  0.00     0.026 C 
BRANCH  40  41
ATOM     41  C   UNL     1      14.231   3.298  12.484  1.00  0.00     0.146 C 
BRANCH  41  42
ATOM     42  N   UNL     1      13.675   4.560  12.014  1.00  0.00    -0.254 NA
ATOM     43  C   UNL     1      13.350   4.688  10.782  1.00  0.00     0.185 C 
ATOM     44  N   UNL     1      13.433   3.807   9.769  1.00  0.00    -0.370 N 
ATOM     45  N   UNL     1      12.843   5.861  10.367  1.00  0.00    -0.370 N 
ATOM     46  H   UNL     1      13.373   4.117   8.814  1.00  0.00     0.159 HD
ATOM     47  H   UNL     1      13.782   2.864   9.910  1.00  0.00     0.159 HD
ATOM     48  H   UNL     1      12.739   6.579  11.072  1.00  0.00     0.159 HD
ATOM     49  H   UNL     1      12.353   5.964   9.497  1.00  0.00     0.159 HD
ENDBRANCH  41  42
ENDBRANCH  40  41
ENDBRANCH  39  40
ENDBRANCH  38  39
ENDBRANCH  36  38
ENDBRANCH   5  34
BRANCH   8  50
ATOM     50  O   UNL     1       6.698   3.516  16.818  1.00  0.00    -0.245 OA
BRANCH  50  51
ATOM     51  S   UNL     1       5.432   2.550  17.147  1.00  0.00     0.397 S 
ATOM     52  O   UNL     1       5.386   2.347  18.578  1.00  0.00    -0.169 OA
ATOM     53  O   UNL     1       5.416   1.437  16.221  1.00  0.00    -0.169 OA
BRANCH  51  54
ATOM     54  O   UNL     1       4.184   3.502  16.800  1.00  0.00    -0.264 OA
ATOM     55  H   UNL     1       3.994   3.409  15.844  1.00  0.00     0.236 HD
ENDBRANCH  51  54
ENDBRANCH  50  51
ENDBRANCH   8  50
TORSDOF 19
ENDMDL
MODEL 28
REMARK VINA RESULT:    -7.360     17.023     21.145
REMARK INTER + INTRA:         -17.483
REMARK INTER:                 -14.266
REMARK INTRA:                  -3.217
REMARK UNBOUND:                -2.592
REMARK SMILES CC[C@@H](C)[C@@H](NC(=O)[C@@H](O)Cc1ccc(O)c(Cl)c1)C(=O)N1[C@H](C(=O)NCCCCN=C(N)N)C[C@H]2CC[C@H](OS(=O)(=O)O)C[C@@H]21
REMARK SMILES IDX 22 1 36 2 46 3 35 4 23 5 45 6 37 7 39 8 38 9 20 10 21 11
REMARK SMILES IDX 5 12 6 13 7 14 8 15 9 17 11 18 12 19 17 20 19 21 15 22 14 23
REMARK SMILES IDX 13 24 18 25 16 26 10 28 3 30 4 31 2 32 1 33 24 34 25 35
REMARK SMILES IDX 26 36 27 38 28 39 29 40 30 41 31 42 32 43 33 44 34 45 40 50
REMARK SMILES IDX 41 51 42 52 43 53 44 54
REMARK H PARENT 6 16 16 27 10 29 26 37 33 46 33 47 34 48 34 49 44 55
ROOT
ATOM      1  N   UNL     1      10.027   6.007  15.276  1.00  0.00    -0.326 N 
ATOM      2  C   UNL     1       7.705   5.708  15.023  1.00  0.00     0.014 C 
ATOM      3  C   UNL     1       9.021   4.944  15.192  1.00  0.00     0.091 C 
ATOM      4  C   UNL     1       8.121   6.911  14.190  1.00  0.00     0.041 C 
ATOM      5  C   UNL     1       9.417   7.312  14.918  1.00  0.00     0.175 C 
ATOM      6  C   UNL     1       8.876   3.989  16.376  1.00  0.00     0.059 C 
ATOM      7  C   UNL     1       6.608   4.794  14.513  1.00  0.00     0.008 C 
ATOM      8  C   UNL     1       7.441   3.453  16.570  1.00  0.00     0.143 C 
ATOM      9  C   UNL     1       6.645   3.438  15.249  1.00  0.00     0.034 C 
ENDROOT
BRANCH   1  10
ATOM     10  C   UNL     1      11.401   5.920  15.415  1.00  0.00     0.246 C 
ATOM     11  O   UNL     1      11.893   5.930  16.548  1.00  0.00    -0.272 OA
BRANCH  10  12
ATOM     12  C   UNL     1      12.292   5.767  14.147  1.00  0.00     0.174 C 
BRANCH  12  13
ATOM     13  N   UNL     1      12.964   4.468  14.164  1.00  0.00    -0.342 N 
ATOM     14  C   UNL     1      12.475   3.318  13.585  1.00  0.00     0.249 C 
ATOM     15  O   UNL     1      11.423   3.263  12.960  1.00  0.00    -0.272 OA
ATOM     16  H   UNL     1      13.764   4.323  14.774  1.00  0.00     0.164 HD
BRANCH  14  17
ATOM     17  C   UNL     1      13.409   2.106  13.789  1.00  0.00     0.207 C 
BRANCH  17  18
ATOM     18  C   UNL     1      13.504   1.280  12.502  1.00  0.00     0.077 C 
BRANCH  18  19
ATOM     19  C   UNL     1      14.545   1.833  11.556  1.00  0.00    -0.043 A 
ATOM     20  C   UNL     1      15.781   1.690   9.473  1.00  0.00     0.083 A 
ATOM     21  C   UNL     1      14.784   1.207  10.322  1.00  0.00     0.028 A 
ATOM     22  C   UNL     1      16.543   2.796   9.849  1.00  0.00     0.134 A 
ATOM     23  C   UNL     1      16.317   3.426  11.068  1.00  0.00     0.048 A 
ATOM     24  C   UNL     1      15.322   2.943  11.921  1.00  0.00     0.008 A 
ATOM     25  Cl  UNL     1      16.060   0.908   7.961  1.00  0.00    -0.080 Cl
BRANCH  22  26
ATOM     26  O   UNL     1      17.537   3.300   9.054  1.00  0.00    -0.506 OA
ATOM     27  H   UNL     1      17.811   2.578   8.458  1.00  0.00     0.293 HD
ENDBRANCH  22  26
ENDBRANCH  18  19
ENDBRANCH  17  18
BRANCH  17  28
ATOM     28  O   UNL     1      12.942   1.268  14.859  1.00  0.00    -0.383 OA
ATOM     29  H   UNL     1      13.394   1.589  15.673  1.00  0.00     0.211 HD
ENDBRANCH  17  28
ENDBRANCH  14  17
ENDBRANCH  12  13
BRANCH  12  30
ATOM     30  C   UNL     1      13.285   6.946  13.967  1.00  0.00     0.018 C 
ATOM     31  C   UNL     1      12.534   8.281  13.853  1.00  0.00     0.010 C 
BRANCH  30  32
ATOM     32  C   UNL     1      14.244   6.771  12.764  1.00  0.00     0.002 C 
ATOM     33  C   UNL     1      13.595   6.268  11.481  1.00  0.00     0.004 C 
ENDBRANCH  30  32
ENDBRANCH  12  30
ENDBRANCH  10  12
ENDBRANCH   1  10
BRANCH   5  34
ATOM     34  C   UNL     1       9.122   8.149  16.191  1.00  0.00     0.242 C 
ATOM     35  O   UNL     1       8.980   7.634  17.299  1.00  0.00    -0.273 OA
ATOM     36  N   UNL     1       8.978   9.502  15.981  1.00  0.00    -0.354 N 
ATOM     37  H   UNL     1       8.988   9.855  15.023  1.00  0.00     0.163 HD
BRANCH  36  38
ATOM     38  C   UNL     1       8.916  10.452  17.073  1.00  0.00     0.116 C 
BRANCH  38  39
ATOM     39  C   UNL     1       7.487  10.963  17.235  1.00  0.00     0.023 C 
BRANCH  39  40
ATOM     40  C   UNL     1       7.125  11.232  18.691  1.00  0.00     0.026 C 
BRANCH  40  41
ATOM     41  C   UNL     1       5.925  10.387  19.117  1.00  0.00     0.146 C 
BRANCH  41  42
ATOM     42  N   UNL     1       5.852   9.186  18.296  1.00  0.00    -0.254 NA
ATOM     43  C   UNL     1       6.006   8.037  18.840  1.00  0.00     0.185 C 
ATOM     44  N   UNL     1       6.239   7.712  20.124  1.00  0.00    -0.370 N 
ATOM     45  N   UNL     1       5.940   6.942  18.064  1.00  0.00    -0.370 N 
ATOM     46  H   UNL     1       6.580   6.798  20.368  1.00  0.00     0.159 HD
ATOM     47  H   UNL     1       6.305   8.419  20.849  1.00  0.00     0.159 HD
ATOM     48  H   UNL     1       5.758   7.098  17.082  1.00  0.00     0.159 HD
ATOM     49  H   UNL     1       5.813   6.018  18.438  1.00  0.00     0.159 HD
ENDBRANCH  41  42
ENDBRANCH  40  41
ENDBRANCH  39  40
ENDBRANCH  38  39
ENDBRANCH  36  38
ENDBRANCH   5  34
BRANCH   8  50
ATOM     50  O   UNL     1       6.738   4.262  17.513  1.00  0.00    -0.245 OA
BRANCH  50  51
ATOM     51  S   UNL     1       5.530   3.611  18.386  1.00  0.00     0.397 S 
ATOM     52  O   UNL     1       4.311   3.732  17.620  1.00  0.00    -0.169 OA
ATOM     53  O   UNL     1       5.616   4.075  19.756  1.00  0.00    -0.169 OA
BRANCH  51  54
ATOM     54  O   UNL     1       5.907   2.048  18.368  1.00  0.00    -0.264 OA
ATOM     55  H   UNL     1       5.111   1.546  18.638  1.00  0.00     0.236 HD
ENDBRANCH  51  54
ENDBRANCH  50  51
ENDBRANCH   8  50
TORSDOF 19
ENDMDL
MODEL 29
REMARK VINA RESULT:    -7.339     16.127     19.445
REMARK INTER + INTRA:         -17.440
REMARK INTER:                 -14.899
REMARK INTRA:                  -2.540
REMARK UNBOUND:                -2.592
REMARK SMILES CC[C@@H](C)[C@@H](NC(=O)[C@@H](O)Cc1ccc(O)c(Cl)c1)C(=O)N1[C@H](C(=O)NCCCCN=C(N)N)C[C@H]2CC[C@H](OS(=O)(=O)O)C[C@@H]21
REMARK SMILES IDX 22 1 36 2 46 3 35 4 23 5 45 6 37 7 39 8 38 9 20 10 21 11
REMARK SMILES IDX 5 12 6 13 7 14 8 15 9 17 11 18 12 19 17 20 19 21 15 22 14 23
REMARK SMILES IDX 13 24 18 25 16 26 10 28 3 30 4 31 2 32 1 33 24 34 25 35
REMARK SMILES IDX 26 36 27 38 28 39 29 40 30 41 31 42 32 43 33 44 34 45 40 50
REMARK SMILES IDX 41 51 42 52 43 53 44 54
REMARK H PARENT 6 16 16 27 10 29 26 37 33 46 33 47 34 48 34 49 44 55
ROOT
ATOM      1  N   UNL     1      10.598   5.382  15.651  1.00  0.00    -0.326 N 
ATOM      2  C   UNL     1      12.626   6.452  15.116  1.00  0.00     0.014 C 
ATOM      3  C   UNL     1      11.420   6.526  16.057  1.00  0.00     0.091 C 
ATOM      4  C   UNL     1      12.013   5.928  13.827  1.00  0.00     0.041 C 
ATOM      5  C   UNL     1      11.119   4.806  14.386  1.00  0.00     0.175 C 
ATOM      6  C   UNL     1      11.932   6.575  17.496  1.00  0.00     0.059 C 
ATOM      7  C   UNL     1      13.381   7.766  15.100  1.00  0.00     0.008 C 
ATOM      8  C   UNL     1      13.292   7.291  17.647  1.00  0.00     0.143 C 
ATOM      9  C   UNL     1      13.528   8.327  16.530  1.00  0.00     0.034 C 
ENDROOT
BRANCH   1  10
ATOM     10  C   UNL     1       9.374   4.951  16.135  1.00  0.00     0.246 C 
ATOM     11  O   UNL     1       9.277   3.807  16.591  1.00  0.00    -0.272 OA
BRANCH  10  12
ATOM     12  C   UNL     1       8.163   5.928  16.133  1.00  0.00     0.174 C 
BRANCH  12  13
ATOM     13  N   UNL     1       7.430   5.815  17.394  1.00  0.00    -0.342 N 
ATOM     14  C   UNL     1       6.691   6.823  17.972  1.00  0.00     0.249 C 
ATOM     15  O   UNL     1       6.543   7.931  17.473  1.00  0.00    -0.272 OA
ATOM     16  H   UNL     1       7.586   5.010  17.996  1.00  0.00     0.164 HD
BRANCH  14  17
ATOM     17  C   UNL     1       6.050   6.399  19.310  1.00  0.00     0.207 C 
BRANCH  17  18
ATOM     18  C   UNL     1       4.522   6.405  19.198  1.00  0.00     0.077 C 
BRANCH  18  19
ATOM     19  C   UNL     1       3.952   5.005  19.212  1.00  0.00    -0.043 A 
ATOM     20  C   UNL     1       2.249   3.435  19.935  1.00  0.00     0.083 A 
ATOM     21  C   UNL     1       2.747   4.737  19.882  1.00  0.00     0.028 A 
ATOM     22  C   UNL     1       2.949   2.394  19.323  1.00  0.00     0.134 A 
ATOM     23  C   UNL     1       4.143   2.645  18.657  1.00  0.00     0.048 A 
ATOM     24  C   UNL     1       4.645   3.947  18.603  1.00  0.00     0.008 A 
ATOM     25  Cl  UNL     1       0.768   3.126  20.763  1.00  0.00    -0.080 Cl
BRANCH  22  26
ATOM     26  O   UNL     1       2.506   1.100  19.358  1.00  0.00    -0.506 OA
ATOM     27  H   UNL     1       3.263   0.538  19.108  1.00  0.00     0.293 HD
ENDBRANCH  22  26
ENDBRANCH  18  19
ENDBRANCH  17  18
BRANCH  17  28
ATOM     28  O   UNL     1       6.453   7.273  20.377  1.00  0.00    -0.383 OA
ATOM     29  H   UNL     1       6.641   6.691  21.148  1.00  0.00     0.211 HD
ENDBRANCH  17  28
ENDBRANCH  14  17
ENDBRANCH  12  13
BRANCH  12  30
ATOM     30  C   UNL     1       7.245   5.744  14.895  1.00  0.00     0.018 C 
ATOM     31  C   UNL     1       7.026   4.253  14.594  1.00  0.00     0.010 C 
BRANCH  30  32
ATOM     32  C   UNL     1       7.756   6.473  13.629  1.00  0.00     0.002 C 
ATOM     33  C   UNL     1       8.560   7.740  13.887  1.00  0.00     0.004 C 
ENDBRANCH  30  32
ENDBRANCH  12  30
ENDBRANCH  10  12
ENDBRANCH   1  10
BRANCH   5  34
ATOM     34  C   UNL     1      11.930   3.513  14.663  1.00  0.00     0.242 C 
ATOM     35  O   UNL     1      11.924   2.954  15.760  1.00  0.00    -0.273 OA
ATOM     36  N   UNL     1      12.698   3.066  13.611  1.00  0.00    -0.354 N 
ATOM     37  H   UNL     1      12.755   3.638  12.767  1.00  0.00     0.163 HD
BRANCH  36  38
ATOM     38  C   UNL     1      13.344   1.770  13.620  1.00  0.00     0.116 C 
BRANCH  38  39
ATOM     39  C   UNL     1      14.355   1.686  12.479  1.00  0.00     0.023 C 
BRANCH  39  40
ATOM     40  C   UNL     1      15.408   2.787  12.553  1.00  0.00     0.026 C 
BRANCH  40  41
ATOM     41  C   UNL     1      15.447   3.589  11.252  1.00  0.00     0.146 C 
BRANCH  41  42
ATOM     42  N   UNL     1      14.410   4.613  11.274  1.00  0.00    -0.254 NA
ATOM     43  C   UNL     1      13.718   4.836  10.221  1.00  0.00     0.185 C 
ATOM     44  N   UNL     1      13.776   4.255   9.008  1.00  0.00    -0.370 N 
ATOM     45  N   UNL     1      12.771   5.787  10.261  1.00  0.00    -0.370 N 
ATOM     46  H   UNL     1      13.347   4.692   8.210  1.00  0.00     0.159 HD
ATOM     47  H   UNL     1      14.429   3.504   8.807  1.00  0.00     0.159 HD
ATOM     48  H   UNL     1      12.656   6.269  11.142  1.00  0.00     0.159 HD
ATOM     49  H   UNL     1      12.042   5.858   9.573  1.00  0.00     0.159 HD
ENDBRANCH  41  42
ENDBRANCH  40  41
ENDBRANCH  39  40
ENDBRANCH  38  39
ENDBRANCH  36  38
ENDBRANCH   5  34
BRANCH   8  50
ATOM     50  O   UNL     1      14.354   6.337  17.612  1.00  0.00    -0.245 OA
BRANCH  50  51
ATOM     51  S   UNL     1      14.963   5.762  19.007  1.00  0.00     0.397 S 
ATOM     52  O   UNL     1      16.396   5.953  18.980  1.00  0.00    -0.169 OA
ATOM     53  O   UNL     1      14.374   4.472  19.299  1.00  0.00    -0.169 OA
BRANCH  51  54
ATOM     54  O   UNL     1      14.400   6.819  20.079  1.00  0.00    -0.264 OA
ATOM     55  H   UNL     1      13.432   6.691  20.146  1.00  0.00     0.236 HD
ENDBRANCH  51  54
ENDBRANCH  50  51
ENDBRANCH   8  50
TORSDOF 19
ENDMDL
MODEL 30
REMARK VINA RESULT:    -7.294     15.816     20.500
REMARK INTER + INTRA:         -17.348
REMARK INTER:                 -15.043
REMARK INTRA:                  -2.305
REMARK UNBOUND:                -2.592
REMARK SMILES CC[C@@H](C)[C@@H](NC(=O)[C@@H](O)Cc1ccc(O)c(Cl)c1)C(=O)N1[C@H](C(=O)NCCCCN=C(N)N)C[C@H]2CC[C@H](OS(=O)(=O)O)C[C@@H]21
REMARK SMILES IDX 22 1 36 2 46 3 35 4 23 5 45 6 37 7 39 8 38 9 20 10 21 11
REMARK SMILES IDX 5 12 6 13 7 14 8 15 9 17 11 18 12 19 17 20 19 21 15 22 14 23
REMARK SMILES IDX 13 24 18 25 16 26 10 28 3 30 4 31 2 32 1 33 24 34 25 35
REMARK SMILES IDX 26 36 27 38 28 39 29 40 30 41 31 42 32 43 33 44 34 45 40 50
REMARK SMILES IDX 41 51 42 52 43 53 44 54
REMARK H PARENT 6 16 16 27 10 29 26 37 33 46 33 47 34 48 34 49 44 55
ROOT
ATOM      1  N   UNL     1      13.815   4.433  14.811  1.00  0.00    -0.326 N 
ATOM      2  C   UNL     1      13.024   6.367  15.897  1.00  0.00     0.014 C 
ATOM      3  C   UNL     1      13.832   5.893  14.685  1.00  0.00     0.091 C 
ATOM      4  C   UNL     1      13.384   5.340  16.960  1.00  0.00     0.041 C 
ATOM      5  C   UNL     1      13.272   4.044  16.136  1.00  0.00     0.175 C 
ATOM      6  C   UNL     1      13.229   6.519  13.428  1.00  0.00     0.059 C 
ATOM      7  C   UNL     1      13.269   7.838  16.170  1.00  0.00     0.008 C 
ATOM      8  C   UNL     1      12.611   7.914  13.664  1.00  0.00     0.143 C 
ATOM      9  C   UNL     1      13.265   8.644  14.854  1.00  0.00     0.034 C 
ENDROOT
BRANCH   1  10
ATOM     10  C   UNL     1      14.399   3.466  14.011  1.00  0.00     0.246 C 
ATOM     11  O   UNL     1      15.620   3.287  14.079  1.00  0.00    -0.272 OA
BRANCH  10  12
ATOM     12  C   UNL     1      13.505   2.599  13.078  1.00  0.00     0.174 C 
BRANCH  12  13
ATOM     13  N   UNL     1      14.316   1.578  12.417  1.00  0.00    -0.342 N 
ATOM     14  C   UNL     1      14.202   0.221  12.625  1.00  0.00     0.249 C 
ATOM     15  O   UNL     1      13.378  -0.286  13.376  1.00  0.00    -0.272 OA
ATOM     16  H   UNL     1      15.141   1.853  11.889  1.00  0.00     0.164 HD
BRANCH  14  17
ATOM     17  C   UNL     1      15.213  -0.596  11.792  1.00  0.00     0.207 C 
BRANCH  17  18
ATOM     18  C   UNL     1      15.018  -0.324  10.297  1.00  0.00     0.077 C 
BRANCH  18  19
ATOM     19  C   UNL     1      16.268   0.244   9.663  1.00  0.00    -0.043 A 
ATOM     20  C   UNL     1      18.298  -0.066   8.371  1.00  0.00     0.083 A 
ATOM     21  C   UNL     1      17.121  -0.582   8.914  1.00  0.00     0.028 A 
ATOM     22  C   UNL     1      18.631   1.274   8.573  1.00  0.00     0.134 A 
ATOM     23  C   UNL     1      17.796   2.103   9.313  1.00  0.00     0.048 A 
ATOM     24  C   UNL     1      16.617   1.589   9.859  1.00  0.00     0.008 A 
ATOM     25  Cl  UNL     1      19.333  -1.096   7.455  1.00  0.00    -0.080 Cl
BRANCH  22  26
ATOM     26  O   UNL     1      19.780   1.823   8.070  1.00  0.00    -0.506 OA
ATOM     27  H   UNL     1      19.613   2.003   7.126  1.00  0.00     0.293 HD
ENDBRANCH  22  26
ENDBRANCH  18  19
ENDBRANCH  17  18
BRANCH  17  28
ATOM     28  O   UNL     1      15.071  -2.004  12.043  1.00  0.00    -0.383 OA
ATOM     29  H   UNL     1      15.958  -2.320  12.329  1.00  0.00     0.211 HD
ENDBRANCH  17  28
ENDBRANCH  14  17
ENDBRANCH  12  13
BRANCH  12  30
ATOM     30  C   UNL     1      12.688   3.451  12.069  1.00  0.00     0.018 C 
ATOM     31  C   UNL     1      11.209   3.032  12.071  1.00  0.00     0.010 C 
BRANCH  30  32
ATOM     32  C   UNL     1      13.249   3.413  10.626  1.00  0.00     0.002 C 
ATOM     33  C   UNL     1      12.963   4.649   9.784  1.00  0.00     0.004 C 
ENDBRANCH  30  32
ENDBRANCH  12  30
ENDBRANCH  10  12
ENDBRANCH   1  10
BRANCH   5  34
ATOM     34  C   UNL     1      11.800   3.571  16.010  1.00  0.00     0.242 C 
ATOM     35  O   UNL     1      11.485   2.381  16.049  1.00  0.00    -0.273 OA
ATOM     36  N   UNL     1      10.879   4.572  15.799  1.00  0.00    -0.354 N 
ATOM     37  H   UNL     1      11.214   5.526  15.656  1.00  0.00     0.163 HD
BRANCH  36  38
ATOM     38  C   UNL     1       9.451   4.338  15.873  1.00  0.00     0.116 C 
BRANCH  38  39
ATOM     39  C   UNL     1       8.797   4.702  14.542  1.00  0.00     0.023 C 
BRANCH  39  40
ATOM     40  C   UNL     1       7.292   4.451  14.546  1.00  0.00     0.026 C 
BRANCH  40  41
ATOM     41  C   UNL     1       6.851   3.819  15.865  1.00  0.00     0.146 C 
BRANCH  41  42
ATOM     42  N   UNL     1       5.815   2.826  15.613  1.00  0.00    -0.254 NA
ATOM     43  C   UNL     1       5.441   2.047  16.558  1.00  0.00     0.185 C 
ATOM     44  N   UNL     1       5.859   1.973  17.835  1.00  0.00    -0.370 N 
ATOM     45  N   UNL     1       4.488   1.136  16.304  1.00  0.00    -0.370 N 
ATOM     46  H   UNL     1       5.658   1.161  18.394  1.00  0.00     0.159 HD
ATOM     47  H   UNL     1       6.569   2.600  18.201  1.00  0.00     0.159 HD
ATOM     48  H   UNL     1       4.111   1.130  15.366  1.00  0.00     0.159 HD
ATOM     49  H   UNL     1       3.981   0.662  17.031  1.00  0.00     0.159 HD
ENDBRANCH  41  42
ENDBRANCH  40  41
ENDBRANCH  39  40
ENDBRANCH  38  39
ENDBRANCH  36  38
ENDBRANCH   5  34
BRANCH   8  50
ATOM     50  O   UNL     1      11.211   7.793  13.920  1.00  0.00    -0.245 OA
BRANCH  50  51
ATOM     51  S   UNL     1      10.154   8.639  13.019  1.00  0.00     0.397 S 
ATOM     52  O   UNL     1      10.318  10.040  13.336  1.00  0.00    -0.169 OA
ATOM     53  O   UNL     1       8.857   7.997  13.062  1.00  0.00    -0.169 OA
BRANCH  51  54
ATOM     54  O   UNL     1      10.751   8.452  11.538  1.00  0.00    -0.264 OA
ATOM     55  H   UNL     1      10.987   9.339  11.197  1.00  0.00     0.236 HD
ENDBRANCH  51  54
ENDBRANCH  50  51
ENDBRANCH   8  50
TORSDOF 19
ENDMDL
MODEL 31
REMARK VINA RESULT:    -7.293     17.292     20.952
REMARK INTER + INTRA:         -17.347
REMARK INTER:                 -13.927
REMARK INTRA:                  -3.420
REMARK UNBOUND:                -2.592
REMARK SMILES CC[C@@H](C)[C@@H](NC(=O)[C@@H](O)Cc1ccc(O)c(Cl)c1)C(=O)N1[C@H](C(=O)NCCCCN=C(N)N)C[C@H]2CC[C@H](OS(=O)(=O)O)C[C@@H]21
REMARK SMILES IDX 22 1 36 2 46 3 35 4 23 5 45 6 37 7 39 8 38 9 20 10 21 11
REMARK SMILES IDX 5 12 6 13 7 14 8 15 9 17 11 18 12 19 17 20 19 21 15 22 14 23
REMARK SMILES IDX 13 24 18 25 16 26 10 28 3 30 4 31 2 32 1 33 24 34 25 35
REMARK SMILES IDX 26 36 27 38 28 39 29 40 30 41 31 42 32 43 33 44 34 45 40 50
REMARK SMILES IDX 41 51 42 52 43 53 44 54
REMARK H PARENT 6 16 16 27 10 29 26 37 33 46 33 47 34 48 34 49 44 55
ROOT
ATOM      1  N   UNL     1      12.503   4.094  14.119  1.00  0.00    -0.326 N 
ATOM      2  C   UNL     1      12.585   5.936  15.583  1.00  0.00     0.014 C 
ATOM      3  C   UNL     1      13.030   5.460  14.197  1.00  0.00     0.091 C 
ATOM      4  C   UNL     1      12.664   4.666  16.416  1.00  0.00     0.041 C 
ATOM      5  C   UNL     1      12.005   3.665  15.449  1.00  0.00     0.175 C 
ATOM      6  C   UNL     1      12.559   6.479  13.161  1.00  0.00     0.059 C 
ATOM      7  C   UNL     1      13.371   7.159  16.014  1.00  0.00     0.008 C 
ATOM      8  C   UNL     1      12.514   7.928  13.691  1.00  0.00     0.143 C 
ATOM      9  C   UNL     1      13.513   8.155  14.844  1.00  0.00     0.034 C 
ENDROOT
BRANCH   1  10
ATOM     10  C   UNL     1      12.609   3.158  13.104  1.00  0.00     0.246 C 
ATOM     11  O   UNL     1      11.661   3.004  12.327  1.00  0.00    -0.272 OA
BRANCH  10  12
ATOM     12  C   UNL     1      13.931   2.354  12.938  1.00  0.00     0.174 C 
BRANCH  12  13
ATOM     13  N   UNL     1      14.264   2.231  11.519  1.00  0.00    -0.342 N 
ATOM     14  C   UNL     1      15.155   3.034  10.844  1.00  0.00     0.249 C 
ATOM     15  O   UNL     1      15.796   3.935  11.370  1.00  0.00    -0.272 OA
ATOM     16  H   UNL     1      13.699   1.634  10.919  1.00  0.00     0.164 HD
BRANCH  14  17
ATOM     17  C   UNL     1      15.277   2.663   9.350  1.00  0.00     0.207 C 
BRANCH  17  18
ATOM     18  C   UNL     1      16.743   2.416   8.977  1.00  0.00     0.077 C 
BRANCH  18  19
ATOM     19  C   UNL     1      17.056   0.940   8.880  1.00  0.00    -0.043 A 
ATOM     20  C   UNL     1      16.458  -1.370   9.316  1.00  0.00     0.083 A 
ATOM     21  C   UNL     1      16.144  -0.011   9.362  1.00  0.00     0.028 A 
ATOM     22  C   UNL     1      17.682  -1.786   8.790  1.00  0.00     0.134 A 
ATOM     23  C   UNL     1      18.594  -0.855   8.309  1.00  0.00     0.048 A 
ATOM     24  C   UNL     1      18.284   0.506   8.356  1.00  0.00     0.008 A 
ATOM     25  Cl  UNL     1      15.324  -2.524   9.914  1.00  0.00    -0.080 Cl
BRANCH  22  26
ATOM     26  O   UNL     1      18.038  -3.106   8.733  1.00  0.00    -0.506 OA
ATOM     27  H   UNL     1      18.533  -3.227   7.901  1.00  0.00     0.293 HD
ENDBRANCH  22  26
ENDBRANCH  18  19
ENDBRANCH  17  18
BRANCH  17  28
ATOM     28  O   UNL     1      14.742   3.702   8.514  1.00  0.00    -0.383 OA
ATOM     29  H   UNL     1      14.914   4.548   8.987  1.00  0.00     0.211 HD
ENDBRANCH  17  28
ENDBRANCH  14  17
ENDBRANCH  12  13
BRANCH  12  30
ATOM     30  C   UNL     1      13.892   0.980  13.659  1.00  0.00     0.018 C 
ATOM     31  C   UNL     1      14.681   1.033  14.977  1.00  0.00     0.010 C 
BRANCH  30  32
ATOM     32  C   UNL     1      14.395  -0.195  12.785  1.00  0.00     0.002 C 
ATOM     33  C   UNL     1      13.928  -1.577  13.222  1.00  0.00     0.004 C 
ENDBRANCH  30  32
ENDBRANCH  12  30
ENDBRANCH  10  12
ENDBRANCH   1  10
BRANCH   5  34
ATOM     34  C   UNL     1      10.456   3.747  15.510  1.00  0.00     0.242 C 
ATOM     35  O   UNL     1       9.826   3.532  16.545  1.00  0.00    -0.273 OA
ATOM     36  N   UNL     1       9.837   4.022  14.312  1.00  0.00    -0.354 N 
ATOM     37  H   UNL     1      10.405   4.071  13.465  1.00  0.00     0.163 HD
BRANCH  36  38
ATOM     38  C   UNL     1       8.428   4.346  14.226  1.00  0.00     0.116 C 
BRANCH  38  39
ATOM     39  C   UNL     1       8.251   5.853  14.062  1.00  0.00     0.023 C 
BRANCH  39  40
ATOM     40  C   UNL     1       6.981   6.367  14.732  1.00  0.00     0.026 C 
BRANCH  40  41
ATOM     41  C   UNL     1       6.980   6.030  16.223  1.00  0.00     0.146 C 
BRANCH  41  42
ATOM     42  N   UNL     1       7.288   7.225  16.998  1.00  0.00    -0.254 NA
ATOM     43  C   UNL     1       8.458   7.371  17.497  1.00  0.00     0.185 C 
ATOM     44  N   UNL     1       9.534   6.565  17.432  1.00  0.00    -0.370 N 
ATOM     45  N   UNL     1       8.721   8.477  18.212  1.00  0.00    -0.370 N 
ATOM     46  H   UNL     1      10.303   6.684  18.069  1.00  0.00     0.159 HD
ATOM     47  H   UNL     1       9.513   5.690  16.918  1.00  0.00     0.159 HD
ATOM     48  H   UNL     1       7.965   9.143  18.303  1.00  0.00     0.159 HD
ATOM     49  H   UNL     1       9.656   8.775  18.429  1.00  0.00     0.159 HD
ENDBRANCH  41  42
ENDBRANCH  40  41
ENDBRANCH  39  40
ENDBRANCH  38  39
ENDBRANCH  36  38
ENDBRANCH   5  34
BRANCH   8  50
ATOM     50  O   UNL     1      11.202   8.238  14.161  1.00  0.00    -0.245 OA
BRANCH  50  51
ATOM     51  S   UNL     1      10.315   9.359  13.386  1.00  0.00     0.397 S 
ATOM     52  O   UNL     1      11.075  10.588  13.358  1.00  0.00    -0.169 OA
ATOM     53  O   UNL     1       8.951   9.320  13.871  1.00  0.00    -0.169 OA
BRANCH  51  54
ATOM     54  O   UNL     1      10.321   8.807  11.876  1.00  0.00    -0.264 OA
ATOM     55  H   UNL     1       9.406   8.537  11.654  1.00  0.00     0.236 HD
ENDBRANCH  51  54
ENDBRANCH  50  51
ENDBRANCH   8  50
TORSDOF 19
ENDMDL
MODEL 32
REMARK VINA RESULT:    -7.288     16.974     20.388
REMARK INTER + INTRA:         -17.337
REMARK INTER:                 -12.277
REMARK INTRA:                  -5.059
REMARK UNBOUND:                -2.592
REMARK SMILES CC[C@@H](C)[C@@H](NC(=O)[C@@H](O)Cc1ccc(O)c(Cl)c1)C(=O)N1[C@H](C(=O)NCCCCN=C(N)N)C[C@H]2CC[C@H](OS(=O)(=O)O)C[C@@H]21
REMARK SMILES IDX 22 1 36 2 46 3 35 4 23 5 45 6 37 7 39 8 38 9 20 10 21 11
REMARK SMILES IDX 5 12 6 13 7 14 8 15 9 17 11 18 12 19 17 20 19 21 15 22 14 23
REMARK SMILES IDX 13 24 18 25 16 26 10 28 3 30 4 31 2 32 1 33 24 34 25 35
REMARK SMILES IDX 26 36 27 38 28 39 29 40 30 41 31 42 32 43 33 44 34 45 40 50
REMARK SMILES IDX 41 51 42 52 43 53 44 54
REMARK H PARENT 6 16 16 27 10 29 26 37 33 46 33 47 34 48 34 49 44 55
ROOT
ATOM      1  N   UNL     1      12.247   6.889  15.642  1.00  0.00    -0.326 N 
ATOM      2  C   UNL     1      11.284   4.768  15.299  1.00  0.00     0.014 C 
ATOM      3  C   UNL     1      11.528   6.120  14.622  1.00  0.00     0.091 C 
ATOM      4  C   UNL     1      11.069   5.155  16.754  1.00  0.00     0.041 C 
ATOM      5  C   UNL     1      12.215   6.167  16.939  1.00  0.00     0.175 C 
ATOM      6  C   UNL     1      12.217   5.873  13.282  1.00  0.00     0.059 C 
ATOM      7  C   UNL     1      10.210   3.983  14.571  1.00  0.00     0.008 C 
ATOM      8  C   UNL     1      11.813   4.541  12.612  1.00  0.00     0.143 C 
ATOM      9  C   UNL     1      10.407   4.079  13.043  1.00  0.00     0.034 C 
ENDROOT
BRANCH   1  10
ATOM     10  C   UNL     1      12.715   8.191  15.607  1.00  0.00     0.246 C 
ATOM     11  O   UNL     1      13.934   8.392  15.593  1.00  0.00    -0.272 OA
BRANCH  10  12
ATOM     12  C   UNL     1      11.700   9.369  15.542  1.00  0.00     0.174 C 
BRANCH  12  13
ATOM     13  N   UNL     1      10.396   8.932  16.040  1.00  0.00    -0.342 N 
ATOM     14  C   UNL     1       9.982   9.017  17.350  1.00  0.00     0.249 C 
ATOM     15  O   UNL     1      10.658   9.501  18.249  1.00  0.00    -0.272 OA
ATOM     16  H   UNL     1       9.792   8.370  15.445  1.00  0.00     0.164 HD
BRANCH  14  17
ATOM     17  C   UNL     1       8.560   8.456  17.563  1.00  0.00     0.207 C 
BRANCH  17  18
ATOM     18  C   UNL     1       7.852   8.266  16.218  1.00  0.00     0.077 C 
BRANCH  18  19
ATOM     19  C   UNL     1       7.341   6.853  16.046  1.00  0.00    -0.043 A 
ATOM     20  C   UNL     1       6.483   4.796  17.003  1.00  0.00     0.083 A 
ATOM     21  C   UNL     1       6.907   6.117  17.159  1.00  0.00     0.028 A 
ATOM     22  C   UNL     1       6.492   4.205  15.740  1.00  0.00     0.134 A 
ATOM     23  C   UNL     1       6.919   4.923  14.629  1.00  0.00     0.048 A 
ATOM     24  C   UNL     1       7.346   6.244  14.781  1.00  0.00     0.008 A 
ATOM     25  Cl  UNL     1       5.954   3.907  18.383  1.00  0.00    -0.080 Cl
BRANCH  22  26
ATOM     26  O   UNL     1       6.096   2.910  15.539  1.00  0.00    -0.506 OA
ATOM     27  H   UNL     1       5.672   2.615  16.367  1.00  0.00     0.293 HD
ENDBRANCH  22  26
ENDBRANCH  18  19
ENDBRANCH  17  18
BRANCH  17  28
ATOM     28  O   UNL     1       7.778   9.329  18.394  1.00  0.00    -0.383 OA
ATOM     29  H   UNL     1       8.271   9.412  19.241  1.00  0.00     0.211 HD
ENDBRANCH  17  28
ENDBRANCH  14  17
ENDBRANCH  12  13
BRANCH  12  30
ATOM     30  C   UNL     1      11.610  10.007  14.129  1.00  0.00     0.018 C 
ATOM     31  C   UNL     1      11.702  11.538  14.214  1.00  0.00     0.010 C 
BRANCH  30  32
ATOM     32  C   UNL     1      10.345   9.593  13.339  1.00  0.00     0.002 C 
ATOM     33  C   UNL     1       9.214  10.614  13.339  1.00  0.00     0.004 C 
ENDBRANCH  30  32
ENDBRANCH  12  30
ENDBRANCH  10  12
ENDBRANCH   1  10
BRANCH   5  34
ATOM     34  C   UNL     1      13.568   5.456  17.207  1.00  0.00     0.242 C 
ATOM     35  O   UNL     1      14.401   5.271  16.319  1.00  0.00    -0.273 OA
ATOM     36  N   UNL     1      13.746   5.001  18.494  1.00  0.00    -0.354 N 
ATOM     37  H   UNL     1      12.971   5.078  19.154  1.00  0.00     0.163 HD
BRANCH  36  38
ATOM     38  C   UNL     1      15.023   4.513  18.972  1.00  0.00     0.116 C 
BRANCH  38  39
ATOM     39  C   UNL     1      14.876   3.076  19.466  1.00  0.00     0.023 C 
BRANCH  39  40
ATOM     40  C   UNL     1      13.464   2.534  19.271  1.00  0.00     0.026 C 
BRANCH  40  41
ATOM     41  C   UNL     1      13.425   1.521  18.127  1.00  0.00     0.146 C 
BRANCH  41  42
ATOM     42  N   UNL     1      14.334   1.940  17.068  1.00  0.00    -0.254 NA
ATOM     43  C   UNL     1      13.952   1.883  15.847  1.00  0.00     0.185 C 
ATOM     44  N   UNL     1      12.780   1.480  15.325  1.00  0.00    -0.370 N 
ATOM     45  N   UNL     1      14.806   2.270  14.885  1.00  0.00    -0.370 N 
ATOM     46  H   UNL     1      12.703   1.257  14.347  1.00  0.00     0.159 HD
ATOM     47  H   UNL     1      12.014   1.166  15.913  1.00  0.00     0.159 HD
ATOM     48  H   UNL     1      15.711   2.598  15.194  1.00  0.00     0.159 HD
ATOM     49  H   UNL     1      14.512   2.479  13.948  1.00  0.00     0.159 HD
ENDBRANCH  41  42
ENDBRANCH  40  41
ENDBRANCH  39  40
ENDBRANCH  38  39
ENDBRANCH  36  38
ENDBRANCH   5  34
BRANCH   8  50
ATOM     50  O   UNL     1      12.751   3.519  12.950  1.00  0.00    -0.245 OA
BRANCH  50  51
ATOM     51  S   UNL     1      13.135   2.385  11.848  1.00  0.00     0.397 S 
ATOM     52  O   UNL     1      12.277   1.242  12.066  1.00  0.00    -0.169 OA
ATOM     53  O   UNL     1      14.575   2.251  11.770  1.00  0.00    -0.169 OA
BRANCH  51  54
ATOM     54  O   UNL     1      12.625   3.060  10.481  1.00  0.00    -0.264 OA
ATOM     55  H   UNL     1      13.303   2.893   9.795  1.00  0.00     0.236 HD
ENDBRANCH  51  54
ENDBRANCH  50  51
ENDBRANCH   8  50
TORSDOF 19
ENDMDL
MODEL 33
REMARK VINA RESULT:    -7.259      2.897      5.527
REMARK INTER + INTRA:         -17.278
REMARK INTER:                 -13.720
REMARK INTRA:                  -3.559
REMARK UNBOUND:                -2.592
REMARK SMILES CC[C@@H](C)[C@@H](NC(=O)[C@@H](O)Cc1ccc(O)c(Cl)c1)C(=O)N1[C@H](C(=O)NCCCCN=C(N)N)C[C@H]2CC[C@H](OS(=O)(=O)O)C[C@@H]21
REMARK SMILES IDX 22 1 36 2 46 3 35 4 23 5 45 6 37 7 39 8 38 9 20 10 21 11
REMARK SMILES IDX 5 12 6 13 7 14 8 15 9 17 11 18 12 19 17 20 19 21 15 22 14 23
REMARK SMILES IDX 13 24 18 25 16 26 10 28 3 30 4 31 2 32 1 33 24 34 25 35
REMARK SMILES IDX 26 36 27 38 28 39 29 40 30 41 31 42 32 43 33 44 34 45 40 50
REMARK SMILES IDX 41 51 42 52 43 53 44 54
REMARK H PARENT 6 16 16 27 10 29 26 37 33 46 33 47 34 48 34 49 44 55
ROOT
ATOM      1  N   UNL     1       0.617 -12.928  11.250  1.00  0.00    -0.326 N 
ATOM      2  C   UNL     1       2.828 -13.292  11.971  1.00  0.00     0.014 C 
ATOM      3  C   UNL     1       1.669 -13.948  11.215  1.00  0.00     0.091 C 
ATOM      4  C   UNL     1       2.113 -12.471  13.033  1.00  0.00     0.041 C 
ATOM      5  C   UNL     1       0.997 -11.838  12.182  1.00  0.00     0.175 C 
ATOM      6  C   UNL     1       2.182 -14.413   9.854  1.00  0.00     0.059 C 
ATOM      7  C   UNL     1       3.852 -14.326  12.396  1.00  0.00     0.008 C 
ATOM      8  C   UNL     1       3.666 -14.841   9.862  1.00  0.00     0.143 C 
ATOM      9  C   UNL     1       4.121 -15.327  11.253  1.00  0.00     0.034 C 
ENDROOT
BRANCH   1  10
ATOM     10  C   UNL     1      -0.670 -12.963  10.741  1.00  0.00     0.246 C 
ATOM     11  O   UNL     1      -0.833 -12.970   9.516  1.00  0.00    -0.272 OA
BRANCH  10  12
ATOM     12  C   UNL     1      -1.879 -13.036  11.718  1.00  0.00     0.174 C 
BRANCH  12  13
ATOM     13  N   UNL     1      -2.034 -11.760  12.416  1.00  0.00    -0.342 N 
ATOM     14  C   UNL     1      -3.102 -10.903  12.268  1.00  0.00     0.249 C 
ATOM     15  O   UNL     1      -4.064 -11.131  11.547  1.00  0.00    -0.272 OA
ATOM     16  H   UNL     1      -1.247 -11.366  12.925  1.00  0.00     0.164 HD
BRANCH  14  17
ATOM     17  C   UNL     1      -2.965  -9.628  13.127  1.00  0.00     0.207 C 
BRANCH  17  18
ATOM     18  C   UNL     1      -3.049  -8.377  12.247  1.00  0.00     0.077 C 
BRANCH  18  19
ATOM     19  C   UNL     1      -4.195  -7.479  12.654  1.00  0.00    -0.043 A 
ATOM     20  C   UNL     1      -5.081  -5.259  13.071  1.00  0.00     0.083 A 
ATOM     21  C   UNL     1      -4.038  -6.084  12.648  1.00  0.00     0.028 A 
ATOM     22  C   UNL     1      -6.283  -5.821  13.504  1.00  0.00     0.134 A 
ATOM     23  C   UNL     1      -6.452  -7.200  13.515  1.00  0.00     0.048 A 
ATOM     24  C   UNL     1      -5.409  -8.028  13.094  1.00  0.00     0.008 A 
ATOM     25  Cl  UNL     1      -4.869  -3.548  13.057  1.00  0.00    -0.080 Cl
BRANCH  22  26
ATOM     26  O   UNL     1      -7.330  -5.053  13.938  1.00  0.00    -0.506 OA
ATOM     27  H   UNL     1      -7.929  -4.940  13.177  1.00  0.00     0.293 HD
ENDBRANCH  22  26
ENDBRANCH  18  19
ENDBRANCH  17  18
BRANCH  17  28
ATOM     28  O   UNL     1      -1.723  -9.621  13.849  1.00  0.00    -0.383 OA
ATOM     29  H   UNL     1      -1.309  -8.747  13.669  1.00  0.00     0.211 HD
ENDBRANCH  17  28
ENDBRANCH  14  17
ENDBRANCH  12  13
BRANCH  12  30
ATOM     30  C   UNL     1      -1.789 -14.239  12.696  1.00  0.00     0.018 C 
ATOM     31  C   UNL     1      -1.768 -15.568  11.926  1.00  0.00     0.010 C 
BRANCH  30  32
ATOM     32  C   UNL     1      -2.911 -14.259  13.762  1.00  0.00     0.002 C 
ATOM     33  C   UNL     1      -4.207 -14.932  13.331  1.00  0.00     0.004 C 
ENDBRANCH  30  32
ENDBRANCH  12  30
ENDBRANCH  10  12
ENDBRANCH   1  10
BRANCH   5  34
ATOM     34  C   UNL     1       1.507 -10.598  11.400  1.00  0.00     0.242 C 
ATOM     35  O   UNL     1       1.441 -10.521  10.173  1.00  0.00    -0.273 OA
ATOM     36  N   UNL     1       2.086  -9.616  12.172  1.00  0.00    -0.354 N 
ATOM     37  H   UNL     1       2.220  -9.790  13.169  1.00  0.00     0.163 HD
BRANCH  36  38
ATOM     38  C   UNL     1       2.418  -8.310  11.642  1.00  0.00     0.116 C 
BRANCH  38  39
ATOM     39  C   UNL     1       3.757  -7.845  12.208  1.00  0.00     0.023 C 
BRANCH  39  40
ATOM     40  C   UNL     1       4.852  -7.795  11.149  1.00  0.00     0.026 C 
BRANCH  40  41
ATOM     41  C   UNL     1       5.497  -9.169  10.970  1.00  0.00     0.146 C 
BRANCH  41  42
ATOM     42  N   UNL     1       5.963  -9.320   9.598  1.00  0.00    -0.254 NA
ATOM     43  C   UNL     1       5.300 -10.049   8.781  1.00  0.00     0.185 C 
ATOM     44  N   UNL     1       4.168 -10.751   8.970  1.00  0.00    -0.370 N 
ATOM     45  N   UNL     1       5.749 -10.179   7.521  1.00  0.00    -0.370 N 
ATOM     46  H   UNL     1       3.894 -11.467   8.319  1.00  0.00     0.159 HD
ATOM     47  H   UNL     1       3.685 -10.753   9.863  1.00  0.00     0.159 HD
ATOM     48  H   UNL     1       6.594  -9.674   7.292  1.00  0.00     0.159 HD
ATOM     49  H   UNL     1       5.176 -10.526   6.773  1.00  0.00     0.159 HD
ENDBRANCH  41  42
ENDBRANCH  40  41
ENDBRANCH  39  40
ENDBRANCH  38  39
ENDBRANCH  36  38
ENDBRANCH   5  34
BRANCH   8  50
ATOM     50  O   UNL     1       4.494 -13.745   9.472  1.00  0.00    -0.245 OA
BRANCH  50  51
ATOM     51  S   UNL     1       5.782 -14.012   8.514  1.00  0.00     0.397 S 
ATOM     52  O   UNL     1       5.757 -15.400   8.111  1.00  0.00    -0.169 OA
ATOM     53  O   UNL     1       6.960 -13.414   9.106  1.00  0.00    -0.169 OA
BRANCH  51  54
ATOM     54  O   UNL     1       5.403 -13.167   7.200  1.00  0.00    -0.264 OA
ATOM     55  H   UNL     1       5.995 -13.459   6.477  1.00  0.00     0.236 HD
ENDBRANCH  51  54
ENDBRANCH  50  51
ENDBRANCH   8  50
TORSDOF 19
ENDMDL
MODEL 34
REMARK VINA RESULT:    -7.251      2.725      5.365
REMARK INTER + INTRA:         -17.262
REMARK INTER:                 -13.861
REMARK INTRA:                  -3.401
REMARK UNBOUND:                -2.592
REMARK SMILES CC[C@@H](C)[C@@H](NC(=O)[C@@H](O)Cc1ccc(O)c(Cl)c1)C(=O)N1[C@H](C(=O)NCCCCN=C(N)N)C[C@H]2CC[C@H](OS(=O)(=O)O)C[C@@H]21
REMARK SMILES IDX 22 1 36 2 46 3 35 4 23 5 45 6 37 7 39 8 38 9 20 10 21 11
REMARK SMILES IDX 5 12 6 13 7 14 8 15 9 17 11 18 12 19 17 20 19 21 15 22 14 23
REMARK SMILES IDX 13 24 18 25 16 26 10 28 3 30 4 31 2 32 1 33 24 34 25 35
REMARK SMILES IDX 26 36 27 38 28 39 29 40 30 41 31 42 32 43 33 44 34 45 40 50
REMARK SMILES IDX 41 51 42 52 43 53 44 54
REMARK H PARENT 6 16 16 27 10 29 26 37 33 46 33 47 34 48 34 49 44 55
ROOT
ATOM      1  N   UNL     1       0.865 -12.613  10.875  1.00  0.00    -0.326 N 
ATOM      2  C   UNL     1       2.881 -12.669  12.089  1.00  0.00     0.014 C 
ATOM      3  C   UNL     1       2.036 -13.467  11.093  1.00  0.00     0.091 C 
ATOM      4  C   UNL     1       1.829 -11.987  12.950  1.00  0.00     0.041 C 
ATOM      5  C   UNL     1       0.856 -11.503  11.859  1.00  0.00     0.175 C 
ATOM      6  C   UNL     1       2.910 -13.819   9.891  1.00  0.00     0.059 C 
ATOM      7  C   UNL     1       3.922 -13.553  12.748  1.00  0.00     0.008 C 
ATOM      8  C   UNL     1       4.399 -14.026  10.244  1.00  0.00     0.143 C 
ATOM      9  C   UNL     1       4.590 -14.476  11.707  1.00  0.00     0.034 C 
ENDROOT
BRANCH   1  10
ATOM     10  C   UNL     1      -0.252 -12.822  10.084  1.00  0.00     0.246 C 
ATOM     11  O   UNL     1      -0.189 -12.569   8.876  1.00  0.00    -0.272 OA
BRANCH  10  12
ATOM     12  C   UNL     1      -1.544 -13.410  10.721  1.00  0.00     0.174 C 
BRANCH  12  13
ATOM     13  N   UNL     1      -2.108 -12.456  11.675  1.00  0.00    -0.342 N 
ATOM     14  C   UNL     1      -3.430 -12.072  11.721  1.00  0.00     0.249 C 
ATOM     15  O   UNL     1      -4.295 -12.515  10.976  1.00  0.00    -0.272 OA
ATOM     16  H   UNL     1      -1.487 -11.891  12.249  1.00  0.00     0.164 HD
BRANCH  14  17
ATOM     17  C   UNL     1      -3.711 -11.036  12.830  1.00  0.00     0.207 C 
BRANCH  17  18
ATOM     18  C   UNL     1      -2.894  -9.762  12.592  1.00  0.00     0.077 C 
BRANCH  18  19
ATOM     19  C   UNL     1      -3.763  -8.525  12.612  1.00  0.00    -0.043 A 
ATOM     20  C   UNL     1      -5.128  -6.894  11.445  1.00  0.00     0.083 A 
ATOM     21  C   UNL     1      -4.367  -8.064  11.432  1.00  0.00     0.028 A 
ATOM     22  C   UNL     1      -5.289  -6.179  12.632  1.00  0.00     0.134 A 
ATOM     23  C   UNL     1      -4.697  -6.624  13.808  1.00  0.00     0.048 A 
ATOM     24  C   UNL     1      -3.933  -7.793  13.798  1.00  0.00     0.008 A 
ATOM     25  Cl  UNL     1      -5.861  -6.344   9.984  1.00  0.00    -0.080 Cl
BRANCH  22  26
ATOM     26  O   UNL     1      -6.017  -5.022  12.691  1.00  0.00    -0.506 OA
ATOM     27  H   UNL     1      -6.080  -4.683  11.779  1.00  0.00     0.293 HD
ENDBRANCH  22  26
ENDBRANCH  18  19
ENDBRANCH  17  18
BRANCH  17  28
ATOM     28  O   UNL     1      -3.397 -11.568  14.127  1.00  0.00    -0.383 OA
ATOM     29  H   UNL     1      -2.799 -10.912  14.553  1.00  0.00     0.211 HD
ENDBRANCH  17  28
ENDBRANCH  14  17
ENDBRANCH  12  13
BRANCH  12  30
ATOM     30  C   UNL     1      -1.318 -14.812  11.349  1.00  0.00     0.018 C 
ATOM     31  C   UNL     1      -2.288 -15.842  10.748  1.00  0.00     0.010 C 
BRANCH  30  32
ATOM     32  C   UNL     1      -1.419 -14.825  12.894  1.00  0.00     0.002 C 
ATOM     33  C   UNL     1      -0.114 -15.097  13.630  1.00  0.00     0.004 C 
ENDBRANCH  30  32
ENDBRANCH  12  30
ENDBRANCH  10  12
ENDBRANCH   1  10
BRANCH   5  34
ATOM     34  C   UNL     1       1.343 -10.183  11.204  1.00  0.00     0.242 C 
ATOM     35  O   UNL     1       1.526  -9.154  11.855  1.00  0.00    -0.273 OA
ATOM     36  N   UNL     1       1.504 -10.231   9.838  1.00  0.00    -0.354 N 
ATOM     37  H   UNL     1       1.223 -11.076   9.340  1.00  0.00     0.163 HD
BRANCH  36  38
ATOM     38  C   UNL     1       2.152  -9.168   9.097  1.00  0.00     0.116 C 
BRANCH  38  39
ATOM     39  C   UNL     1       3.512  -9.643   8.592  1.00  0.00     0.023 C 
BRANCH  39  40
ATOM     40  C   UNL     1       4.664  -8.818   9.156  1.00  0.00     0.026 C 
BRANCH  40  41
ATOM     41  C   UNL     1       5.011  -9.270  10.574  1.00  0.00     0.146 C 
BRANCH  41  42
ATOM     42  N   UNL     1       5.821  -8.252  11.231  1.00  0.00    -0.254 NA
ATOM     43  C   UNL     1       5.257  -7.382  11.982  1.00  0.00     0.185 C 
ATOM     44  N   UNL     1       3.959  -7.225  12.301  1.00  0.00    -0.370 N 
ATOM     45  N   UNL     1       6.020  -6.450  12.575  1.00  0.00    -0.370 N 
ATOM     46  H   UNL     1       3.630  -6.362  12.699  1.00  0.00     0.159 HD
ATOM     47  H   UNL     1       3.244  -7.854  11.949  1.00  0.00     0.159 HD
ATOM     48  H   UNL     1       7.014  -6.502  12.394  1.00  0.00     0.159 HD
ATOM     49  H   UNL     1       5.699  -5.895  13.349  1.00  0.00     0.159 HD
ENDBRANCH  41  42
ENDBRANCH  40  41
ENDBRANCH  39  40
ENDBRANCH  38  39
ENDBRANCH  36  38
ENDBRANCH   5  34
BRANCH   8  50
ATOM     50  O   UNL     1       5.124 -12.811  10.045  1.00  0.00    -0.245 OA
BRANCH  50  51
ATOM     51  S   UNL     1       6.147 -12.684   8.788  1.00  0.00     0.397 S 
ATOM     52  O   UNL     1       7.229 -11.808   9.179  1.00  0.00    -0.169 OA
ATOM     53  O   UNL     1       5.396 -12.465   7.569  1.00  0.00    -0.169 OA
BRANCH  51  54
ATOM     54  O   UNL     1       6.782 -14.160   8.721  1.00  0.00    -0.264 OA
ATOM     55  H   UNL     1       6.488 -14.648   9.517  1.00  0.00     0.236 HD
ENDBRANCH  51  54
ENDBRANCH  50  51
ENDBRANCH   8  50
TORSDOF 19
ENDMDL
MODEL 35
REMARK VINA RESULT:    -7.233     18.224     22.342
REMARK INTER + INTRA:         -17.225
REMARK INTER:                 -13.540
REMARK INTRA:                  -3.685
REMARK UNBOUND:                -2.592
REMARK SMILES CC[C@@H](C)[C@@H](NC(=O)[C@@H](O)Cc1ccc(O)c(Cl)c1)C(=O)N1[C@H](C(=O)NCCCCN=C(N)N)C[C@H]2CC[C@H](OS(=O)(=O)O)C[C@@H]21
REMARK SMILES IDX 22 1 36 2 46 3 35 4 23 5 45 6 37 7 39 8 38 9 20 10 21 11
REMARK SMILES IDX 5 12 6 13 7 14 8 15 9 17 11 18 12 19 17 20 19 21 15 22 14 23
REMARK SMILES IDX 13 24 18 25 16 26 10 28 3 30 4 31 2 32 1 33 24 34 25 35
REMARK SMILES IDX 26 36 27 38 28 39 29 40 30 41 31 42 32 43 33 44 34 45 40 50
REMARK SMILES IDX 41 51 42 52 43 53 44 54
REMARK H PARENT 6 16 16 27 10 29 26 37 33 46 33 47 34 48 34 49 44 55
ROOT
ATOM      1  N   UNL     1      12.155   6.902  15.578  1.00  0.00    -0.326 N 
ATOM      2  C   UNL     1      12.675   7.437  13.345  1.00  0.00     0.014 C 
ATOM      3  C   UNL     1      13.175   6.645  14.556  1.00  0.00     0.091 C 
ATOM      4  C   UNL     1      12.028   8.656  13.985  1.00  0.00     0.041 C 
ATOM      5  C   UNL     1      11.242   7.980  15.124  1.00  0.00     0.175 C 
ATOM      6  C   UNL     1      13.417   5.201  14.123  1.00  0.00     0.059 C 
ATOM      7  C   UNL     1      13.783   7.631  12.329  1.00  0.00     0.008 C 
ATOM      8  C   UNL     1      13.867   5.060  12.652  1.00  0.00     0.143 C 
ATOM      9  C   UNL     1      14.586   6.326  12.143  1.00  0.00     0.034 C 
ENDROOT
BRANCH   1  10
ATOM     10  C   UNL     1      12.082   6.463  16.889  1.00  0.00     0.246 C 
ATOM     11  O   UNL     1      11.391   5.474  17.154  1.00  0.00    -0.272 OA
BRANCH  10  12
ATOM     12  C   UNL     1      12.903   7.196  17.990  1.00  0.00     0.174 C 
BRANCH  12  13
ATOM     13  N   UNL     1      13.324   8.510  17.507  1.00  0.00    -0.342 N 
ATOM     14  C   UNL     1      12.714   9.702  17.825  1.00  0.00     0.249 C 
ATOM     15  O   UNL     1      11.755   9.797  18.581  1.00  0.00    -0.272 OA
ATOM     16  H   UNL     1      14.004   8.575  16.753  1.00  0.00     0.164 HD
BRANCH  14  17
ATOM     17  C   UNL     1      13.383  10.915  17.143  1.00  0.00     0.207 C 
BRANCH  17  18
ATOM     18  C   UNL     1      14.901  10.720  17.073  1.00  0.00     0.077 C 
BRANCH  18  19
ATOM     19  C   UNL     1      15.359  10.374  15.674  1.00  0.00    -0.043 A 
ATOM     20  C   UNL     1      16.643   8.971  14.168  1.00  0.00     0.083 A 
ATOM     21  C   UNL     1      16.181   9.258  15.453  1.00  0.00     0.028 A 
ATOM     22  C   UNL     1      16.289   9.794  13.099  1.00  0.00     0.134 A 
ATOM     23  C   UNL     1      15.475  10.903  13.303  1.00  0.00     0.048 A 
ATOM     24  C   UNL     1      15.013  11.194  14.589  1.00  0.00     0.008 A 
ATOM     25  Cl  UNL     1      17.652   7.595  13.917  1.00  0.00    -0.080 Cl
BRANCH  22  26
ATOM     26  O   UNL     1      16.725   9.559  11.823  1.00  0.00    -0.506 OA
ATOM     27  H   UNL     1      17.612   9.162  11.899  1.00  0.00     0.293 HD
ENDBRANCH  22  26
ENDBRANCH  18  19
ENDBRANCH  17  18
BRANCH  17  28
ATOM     28  O   UNL     1      13.091  12.132  17.849  1.00  0.00    -0.383 OA
ATOM     29  H   UNL     1      13.276  12.863  17.217  1.00  0.00     0.211 HD
ENDBRANCH  17  28
ENDBRANCH  14  17
ENDBRANCH  12  13
BRANCH  12  30
ATOM     30  C   UNL     1      14.092   6.348  18.515  1.00  0.00     0.018 C 
ATOM     31  C   UNL     1      15.198   7.251  19.083  1.00  0.00     0.010 C 
BRANCH  30  32
ATOM     32  C   UNL     1      14.683   5.384  17.457  1.00  0.00     0.002 C 
ATOM     33  C   UNL     1      16.006   5.824  16.843  1.00  0.00     0.004 C 
ENDBRANCH  30  32
ENDBRANCH  12  30
ENDBRANCH  10  12
ENDBRANCH   1  10
BRANCH   5  34
ATOM     34  C   UNL     1       9.899   7.388  14.620  1.00  0.00     0.242 C 
ATOM     35  O   UNL     1       9.676   7.187  13.426  1.00  0.00    -0.273 OA
ATOM     36  N   UNL     1       8.958   7.154  15.598  1.00  0.00    -0.354 N 
ATOM     37  H   UNL     1       9.158   7.453  16.553  1.00  0.00     0.163 HD
BRANCH  36  38
ATOM     38  C   UNL     1       7.743   6.411  15.339  1.00  0.00     0.116 C 
BRANCH  38  39
ATOM     39  C   UNL     1       7.978   4.925  15.602  1.00  0.00     0.023 C 
BRANCH  39  40
ATOM     40  C   UNL     1       7.525   4.049  14.439  1.00  0.00     0.026 C 
BRANCH  40  41
ATOM     41  C   UNL     1       6.325   3.192  14.841  1.00  0.00     0.146 C 
BRANCH  41  42
ATOM     42  N   UNL     1       6.255   3.093  16.293  1.00  0.00    -0.254 NA
ATOM     43  C   UNL     1       5.741   2.052  16.832  1.00  0.00     0.185 C 
ATOM     44  N   UNL     1       5.215   0.952  16.262  1.00  0.00    -0.370 N 
ATOM     45  N   UNL     1       5.682   1.981  18.172  1.00  0.00    -0.370 N 
ATOM     46  H   UNL     1       4.631   0.329  16.793  1.00  0.00     0.159 HD
ATOM     47  H   UNL     1       5.191   0.834  15.254  1.00  0.00     0.159 HD
ATOM     48  H   UNL     1       6.065   2.767  18.680  1.00  0.00     0.159 HD
ATOM     49  H   UNL     1       5.519   1.121  18.665  1.00  0.00     0.159 HD
ENDBRANCH  41  42
ENDBRANCH  40  41
ENDBRANCH  39  40
ENDBRANCH  38  39
ENDBRANCH  36  38
ENDBRANCH   5  34
BRANCH   8  50
ATOM     50  O   UNL     1      12.737   4.813  11.815  1.00  0.00    -0.245 OA
BRANCH  50  51
ATOM     51  S   UNL     1      12.744   3.532  10.814  1.00  0.00     0.397 S 
ATOM     52  O   UNL     1      11.743   2.598  11.277  1.00  0.00    -0.169 OA
ATOM     53  O   UNL     1      14.110   3.119  10.562  1.00  0.00    -0.169 OA
BRANCH  51  54
ATOM     54  O   UNL     1      12.159   4.164   9.456  1.00  0.00    -0.264 OA
ATOM     55  H   UNL     1      11.646   4.962   9.695  1.00  0.00     0.236 HD
ENDBRANCH  51  54
ENDBRANCH  50  51
ENDBRANCH   8  50
TORSDOF 19
ENDMDL
MODEL 36
REMARK VINA RESULT:    -7.200     18.009     21.958
REMARK INTER + INTRA:         -17.158
REMARK INTER:                 -13.215
REMARK INTRA:                  -3.944
REMARK UNBOUND:                -2.592
REMARK SMILES CC[C@@H](C)[C@@H](NC(=O)[C@@H](O)Cc1ccc(O)c(Cl)c1)C(=O)N1[C@H](C(=O)NCCCCN=C(N)N)C[C@H]2CC[C@H](OS(=O)(=O)O)C[C@@H]21
REMARK SMILES IDX 22 1 36 2 46 3 35 4 23 5 45 6 37 7 39 8 38 9 20 10 21 11
REMARK SMILES IDX 5 12 6 13 7 14 8 15 9 17 11 18 12 19 17 20 19 21 15 22 14 23
REMARK SMILES IDX 13 24 18 25 16 26 10 28 3 30 4 31 2 32 1 33 24 34 25 35
REMARK SMILES IDX 26 36 27 38 28 39 29 40 30 41 31 42 32 43 33 44 34 45 40 50
REMARK SMILES IDX 41 51 42 52 43 53 44 54
REMARK H PARENT 6 16 16 27 10 29 26 37 33 46 33 47 34 48 34 49 44 55
ROOT
ATOM      1  N   UNL     1      10.463   5.527  14.950  1.00  0.00    -0.326 N 
ATOM      2  C   UNL     1       8.210   4.853  14.829  1.00  0.00     0.014 C 
ATOM      3  C   UNL     1       9.475   4.729  15.683  1.00  0.00     0.091 C 
ATOM      4  C   UNL     1       8.765   4.905  13.414  1.00  0.00     0.041 C 
ATOM      5  C   UNL     1       9.930   5.892  13.614  1.00  0.00     0.175 C 
ATOM      6  C   UNL     1       9.133   5.137  17.115  1.00  0.00     0.059 C 
ATOM      7  C   UNL     1       7.202   3.781  15.193  1.00  0.00     0.008 C 
ATOM      8  C   UNL     1       7.681   4.808  17.524  1.00  0.00     0.143 C 
ATOM      9  C   UNL     1       7.108   3.620  16.725  1.00  0.00     0.034 C 
ENDROOT
BRANCH   1  10
ATOM     10  C   UNL     1      11.796   5.767  15.234  1.00  0.00     0.246 C 
ATOM     11  O   UNL     1      12.130   6.880  15.655  1.00  0.00    -0.272 OA
BRANCH  10  12
ATOM     12  C   UNL     1      12.836   4.623  15.058  1.00  0.00     0.174 C 
BRANCH  12  13
ATOM     13  N   UNL     1      13.789   4.972  14.005  1.00  0.00    -0.342 N 
ATOM     14  C   UNL     1      15.095   5.355  14.217  1.00  0.00     0.249 C 
ATOM     15  O   UNL     1      15.616   5.419  15.323  1.00  0.00    -0.272 OA
ATOM     16  H   UNL     1      13.459   5.116  13.054  1.00  0.00     0.164 HD
BRANCH  14  17
ATOM     17  C   UNL     1      15.841   5.676  12.904  1.00  0.00     0.207 C 
BRANCH  17  18
ATOM     18  C   UNL     1      16.849   4.569  12.577  1.00  0.00     0.077 C 
BRANCH  18  19
ATOM     19  C   UNL     1      16.499   3.853  11.292  1.00  0.00    -0.043 A 
ATOM     20  C   UNL     1      17.175   2.555   9.358  1.00  0.00     0.083 A 
ATOM     21  C   UNL     1      17.491   3.173  10.568  1.00  0.00     0.028 A 
ATOM     22  C   UNL     1      15.871   2.612   8.864  1.00  0.00     0.134 A 
ATOM     23  C   UNL     1      14.879   3.282   9.571  1.00  0.00     0.048 A 
ATOM     24  C   UNL     1      15.193   3.903  10.782  1.00  0.00     0.008 A 
ATOM     25  Cl  UNL     1      18.407   1.725   8.482  1.00  0.00    -0.080 Cl
BRANCH  22  26
ATOM     26  O   UNL     1      15.516   2.030   7.677  1.00  0.00    -0.506 OA
ATOM     27  H   UNL     1      15.719   2.677   6.976  1.00  0.00     0.293 HD
ENDBRANCH  22  26
ENDBRANCH  18  19
ENDBRANCH  17  18
BRANCH  17  28
ATOM     28  O   UNL     1      16.528   6.935  12.994  1.00  0.00    -0.383 OA
ATOM     29  H   UNL     1      16.182   7.486  12.257  1.00  0.00     0.211 HD
ENDBRANCH  17  28
ENDBRANCH  14  17
ENDBRANCH  12  13
BRANCH  12  30
ATOM     30  C   UNL     1      12.172   3.240  14.820  1.00  0.00     0.018 C 
ATOM     31  C   UNL     1      12.436   2.296  16.004  1.00  0.00     0.010 C 
BRANCH  30  32
ATOM     32  C   UNL     1      12.601   2.564  13.495  1.00  0.00     0.002 C 
ATOM     33  C   UNL     1      11.698   2.842  12.300  1.00  0.00     0.004 C 
ENDBRANCH  30  32
ENDBRANCH  12  30
ENDBRANCH  10  12
ENDBRANCH   1  10
BRANCH   5  34
ATOM     34  C   UNL     1       9.441   7.365  13.601  1.00  0.00     0.242 C 
ATOM     35  O   UNL     1       8.855   7.855  12.636  1.00  0.00    -0.273 OA
ATOM     36  N   UNL     1       9.757   8.097  14.723  1.00  0.00    -0.354 N 
ATOM     37  H   UNL     1      10.348   7.671  15.438  1.00  0.00     0.163 HD
BRANCH  36  38
ATOM     38  C   UNL     1       9.198   9.410  14.973  1.00  0.00     0.116 C 
BRANCH  38  39
ATOM     39  C   UNL     1      10.027  10.471  14.254  1.00  0.00     0.023 C 
BRANCH  39  40
ATOM     40  C   UNL     1      11.436  10.595  14.824  1.00  0.00     0.026 C 
BRANCH  40  41
ATOM     41  C   UNL     1      12.484  10.300  13.750  1.00  0.00     0.146 C 
BRANCH  41  42
ATOM     42  N   UNL     1      12.103   9.108  13.004  1.00  0.00    -0.254 NA
ATOM     43  C   UNL     1      12.981   8.488  12.310  1.00  0.00     0.185 C 
ATOM     44  N   UNL     1      14.288   8.755  12.129  1.00  0.00    -0.370 N 
ATOM     45  N   UNL     1      12.609   7.393  11.626  1.00  0.00    -0.370 N 
ATOM     46  H   UNL     1      14.797   8.333  11.371  1.00  0.00     0.159 HD
ATOM     47  H   UNL     1      14.739   9.541  12.585  1.00  0.00     0.159 HD
ATOM     48  H   UNL     1      11.640   7.117  11.715  1.00  0.00     0.159 HD
ATOM     49  H   UNL     1      13.268   6.730  11.261  1.00  0.00     0.159 HD
ENDBRANCH  41  42
ENDBRANCH  40  41
ENDBRANCH  39  40
ENDBRANCH  38  39
ENDBRANCH  36  38
ENDBRANCH   5  34
BRANCH   8  50
ATOM     50  O   UNL     1       6.842   5.944  17.312  1.00  0.00    -0.245 OA
BRANCH  50  51
ATOM     51  S   UNL     1       6.706   7.071  18.477  1.00  0.00     0.397 S 
ATOM     52  O   UNL     1       7.543   8.193  18.113  1.00  0.00    -0.169 OA
ATOM     53  O   UNL     1       6.805   6.441  19.777  1.00  0.00    -0.169 OA
BRANCH  51  54
ATOM     54  O   UNL     1       5.191   7.573  18.283  1.00  0.00    -0.264 OA
ATOM     55  H   UNL     1       4.850   7.180  17.454  1.00  0.00     0.236 HD
ENDBRANCH  51  54
ENDBRANCH  50  51
ENDBRANCH   8  50
TORSDOF 19
ENDMDL
MODEL 37
REMARK VINA RESULT:    -7.168      2.760      4.610
REMARK INTER + INTRA:         -17.094
REMARK INTER:                 -15.149
REMARK INTRA:                  -1.945
REMARK UNBOUND:                -2.592
REMARK SMILES CC[C@@H](C)[C@@H](NC(=O)[C@@H](O)Cc1ccc(O)c(Cl)c1)C(=O)N1[C@H](C(=O)NCCCCN=C(N)N)C[C@H]2CC[C@H](OS(=O)(=O)O)C[C@@H]21
REMARK SMILES IDX 22 1 36 2 46 3 35 4 23 5 45 6 37 7 39 8 38 9 20 10 21 11
REMARK SMILES IDX 5 12 6 13 7 14 8 15 9 17 11 18 12 19 17 20 19 21 15 22 14 23
REMARK SMILES IDX 13 24 18 25 16 26 10 28 3 30 4 31 2 32 1 33 24 34 25 35
REMARK SMILES IDX 26 36 27 38 28 39 29 40 30 41 31 42 32 43 33 44 34 45 40 50
REMARK SMILES IDX 41 51 42 52 43 53 44 54
REMARK H PARENT 6 16 16 27 10 29 26 37 33 46 33 47 34 48 34 49 44 55
ROOT
ATOM      1  N   UNL     1       2.221 -11.303  11.184  1.00  0.00    -0.326 N 
ATOM      2  C   UNL     1       4.061 -10.149  10.275  1.00  0.00     0.014 C 
ATOM      3  C   UNL     1       2.767  -9.947  11.069  1.00  0.00     0.091 C 
ATOM      4  C   UNL     1       3.699 -11.284   9.329  1.00  0.00     0.041 C 
ATOM      5  C   UNL     1       2.973 -12.230  10.303  1.00  0.00     0.175 C 
ATOM      6  C   UNL     1       3.101  -9.190  12.352  1.00  0.00     0.059 C 
ATOM      7  C   UNL     1       4.557  -8.835   9.704  1.00  0.00     0.008 C 
ATOM      8  C   UNL     1       4.281  -8.204  12.203  1.00  0.00     0.143 C 
ATOM      9  C   UNL     1       4.441  -7.708  10.752  1.00  0.00     0.034 C 
ENDROOT
BRANCH   1  10
ATOM     10  C   UNL     1       1.053 -11.741  11.784  1.00  0.00     0.246 C 
ATOM     11  O   UNL     1       1.039 -11.932  13.005  1.00  0.00    -0.272 OA
BRANCH  10  12
ATOM     12  C   UNL     1      -0.225 -11.942  10.920  1.00  0.00     0.174 C 
BRANCH  12  13
ATOM     13  N   UNL     1      -1.416 -11.631  11.710  1.00  0.00    -0.342 N 
ATOM     14  C   UNL     1      -1.692 -10.405  12.274  1.00  0.00     0.249 C 
ATOM     15  O   UNL     1      -0.975  -9.421  12.151  1.00  0.00    -0.272 OA
ATOM     16  H   UNL     1      -2.021 -12.384  12.027  1.00  0.00     0.164 HD
BRANCH  14  17
ATOM     17  C   UNL     1      -3.018 -10.399  13.064  1.00  0.00     0.207 C 
BRANCH  17  18
ATOM     18  C   UNL     1      -3.242  -9.034  13.724  1.00  0.00     0.077 C 
BRANCH  18  19
ATOM     19  C   UNL     1      -3.983  -8.083  12.810  1.00  0.00    -0.043 A 
ATOM     20  C   UNL     1      -4.630  -5.826  12.204  1.00  0.00     0.083 A 
ATOM     21  C   UNL     1      -3.906  -6.697  13.018  1.00  0.00     0.028 A 
ATOM     22  C   UNL     1      -5.434  -6.330  11.182  1.00  0.00     0.134 A 
ATOM     23  C   UNL     1      -5.519  -7.701  10.965  1.00  0.00     0.048 A 
ATOM     24  C   UNL     1      -4.797  -8.576  11.779  1.00  0.00     0.008 A 
ATOM     25  Cl  UNL     1      -4.523  -4.126  12.475  1.00  0.00    -0.080 Cl
BRANCH  22  26
ATOM     26  O   UNL     1      -6.170  -5.516  10.365  1.00  0.00    -0.506 OA
ATOM     27  H   UNL     1      -5.973  -5.785   9.449  1.00  0.00     0.293 HD
ENDBRANCH  22  26
ENDBRANCH  18  19
ENDBRANCH  17  18
BRANCH  17  28
ATOM     28  O   UNL     1      -3.025 -11.422  14.072  1.00  0.00    -0.383 OA
ATOM     29  H   UNL     1      -3.292 -10.978  14.909  1.00  0.00     0.211 HD
ENDBRANCH  17  28
ENDBRANCH  14  17
ENDBRANCH  12  13
BRANCH  12  30
ATOM     30  C   UNL     1      -0.296 -13.350  10.271  1.00  0.00     0.018 C 
ATOM     31  C   UNL     1      -0.228 -13.251   8.739  1.00  0.00     0.010 C 
BRANCH  30  32
ATOM     32  C   UNL     1      -1.540 -14.168  10.696  1.00  0.00     0.002 C 
ATOM     33  C   UNL     1      -1.287 -15.239  11.749  1.00  0.00     0.004 C 
ENDBRANCH  30  32
ENDBRANCH  12  30
ENDBRANCH  10  12
ENDBRANCH   1  10
BRANCH   5  34
ATOM     34  C   UNL     1       3.975 -13.081  11.128  1.00  0.00     0.242 C 
ATOM     35  O   UNL     1       3.934 -13.139  12.357  1.00  0.00    -0.273 OA
ATOM     36  N   UNL     1       4.946 -13.722  10.390  1.00  0.00    -0.354 N 
ATOM     37  H   UNL     1       5.001 -13.539   9.387  1.00  0.00     0.163 HD
BRANCH  36  38
ATOM     38  C   UNL     1       5.822 -14.720  10.967  1.00  0.00     0.116 C 
BRANCH  38  39
ATOM     39  C   UNL     1       7.269 -14.424  10.581  1.00  0.00     0.023 C 
BRANCH  39  40
ATOM     40  C   UNL     1       7.614 -12.944  10.705  1.00  0.00     0.026 C 
BRANCH  40  41
ATOM     41  C   UNL     1       8.799 -12.587   9.808  1.00  0.00     0.146 C 
BRANCH  41  42
ATOM     42  N   UNL     1       8.314 -12.045   8.545  1.00  0.00    -0.254 NA
ATOM     43  C   UNL     1       8.561 -12.666   7.453  1.00  0.00     0.185 C 
ATOM     44  N   UNL     1       9.233 -13.812   7.243  1.00  0.00    -0.370 N 
ATOM     45  N   UNL     1       8.109 -12.147   6.300  1.00  0.00    -0.370 N 
ATOM     46  H   UNL     1       9.559 -14.054   6.322  1.00  0.00     0.159 HD
ATOM     47  H   UNL     1       9.632 -14.345   8.010  1.00  0.00     0.159 HD
ATOM     48  H   UNL     1       7.583 -11.287   6.370  1.00  0.00     0.159 HD
ATOM     49  H   UNL     1       8.052 -12.679   5.450  1.00  0.00     0.159 HD
ENDBRANCH  41  42
ENDBRANCH  40  41
ENDBRANCH  39  40
ENDBRANCH  38  39
ENDBRANCH  36  38
ENDBRANCH   5  34
BRANCH   8  50
ATOM     50  O   UNL     1       5.499  -8.833  12.604  1.00  0.00    -0.245 OA
BRANCH  50  51
ATOM     51  S   UNL     1       6.570  -8.005  13.505  1.00  0.00     0.397 S 
ATOM     52  O   UNL     1       7.897  -8.331  13.032  1.00  0.00    -0.169 OA
ATOM     53  O   UNL     1       6.215  -8.114  14.905  1.00  0.00    -0.169 OA
BRANCH  51  54
ATOM     54  O   UNL     1       6.300  -6.490  13.041  1.00  0.00    -0.264 OA
ATOM     55  H   UNL     1       7.159  -6.099  12.782  1.00  0.00     0.236 HD
ENDBRANCH  51  54
ENDBRANCH  50  51
ENDBRANCH   8  50
TORSDOF 19
ENDMDL
MODEL 38
REMARK VINA RESULT:    -7.168     16.606     20.240
REMARK INTER + INTRA:         -17.093
REMARK INTER:                 -14.808
REMARK INTRA:                  -2.285
REMARK UNBOUND:                -2.592
REMARK SMILES CC[C@@H](C)[C@@H](NC(=O)[C@@H](O)Cc1ccc(O)c(Cl)c1)C(=O)N1[C@H](C(=O)NCCCCN=C(N)N)C[C@H]2CC[C@H](OS(=O)(=O)O)C[C@@H]21
REMARK SMILES IDX 22 1 36 2 46 3 35 4 23 5 45 6 37 7 39 8 38 9 20 10 21 11
REMARK SMILES IDX 5 12 6 13 7 14 8 15 9 17 11 18 12 19 17 20 19 21 15 22 14 23
REMARK SMILES IDX 13 24 18 25 16 26 10 28 3 30 4 31 2 32 1 33 24 34 25 35
REMARK SMILES IDX 26 36 27 38 28 39 29 40 30 41 31 42 32 43 33 44 34 45 40 50
REMARK SMILES IDX 41 51 42 52 43 53 44 54
REMARK H PARENT 6 16 16 27 10 29 26 37 33 46 33 47 34 48 34 49 44 55
ROOT
ATOM      1  N   UNL     1      10.802   8.266  13.986  1.00  0.00    -0.326 N 
ATOM      2  C   UNL     1      12.449   9.550  15.072  1.00  0.00     0.014 C 
ATOM      3  C   UNL     1      11.040   8.976  15.245  1.00  0.00     0.091 C 
ATOM      4  C   UNL     1      12.498   9.877  13.588  1.00  0.00     0.041 C 
ATOM      5  C   UNL     1      11.867   8.598  13.007  1.00  0.00     0.175 C 
ATOM      6  C   UNL     1      11.000   8.177  16.546  1.00  0.00     0.059 C 
ATOM      7  C   UNL     1      12.716  10.647  16.084  1.00  0.00     0.008 C 
ATOM      8  C   UNL     1      11.936   8.729  17.644  1.00  0.00     0.143 C 
ATOM      9  C   UNL     1      12.195  10.240  17.478  1.00  0.00     0.034 C 
ENDROOT
BRANCH   1  10
ATOM     10  C   UNL     1       9.687   7.566  13.558  1.00  0.00     0.246 C 
ATOM     11  O   UNL     1       8.978   8.049  12.670  1.00  0.00    -0.272 OA
BRANCH  10  12
ATOM     12  C   UNL     1       9.375   6.170  14.173  1.00  0.00     0.174 C 
BRANCH  12  13
ATOM     13  N   UNL     1       8.635   6.330  15.424  1.00  0.00    -0.342 N 
ATOM     14  C   UNL     1       7.263   6.318  15.537  1.00  0.00     0.249 C 
ATOM     15  O   UNL     1       6.502   6.140  14.594  1.00  0.00    -0.272 OA
ATOM     16  H   UNL     1       9.122   6.640  16.261  1.00  0.00     0.164 HD
BRANCH  14  17
ATOM     17  C   UNL     1       6.783   6.530  16.989  1.00  0.00     0.207 C 
BRANCH  17  18
ATOM     18  C   UNL     1       7.293   5.402  17.892  1.00  0.00     0.077 C 
BRANCH  18  19
ATOM     19  C   UNL     1       6.211   4.389  18.190  1.00  0.00    -0.043 A 
ATOM     20  C   UNL     1       4.572   3.450  19.713  1.00  0.00     0.083 A 
ATOM     21  C   UNL     1       5.535   4.416  19.420  1.00  0.00     0.028 A 
ATOM     22  C   UNL     1       4.279   2.452  18.782  1.00  0.00     0.134 A 
ATOM     23  C   UNL     1       4.941   2.413  17.560  1.00  0.00     0.048 A 
ATOM     24  C   UNL     1       5.907   3.378  17.266  1.00  0.00     0.008 A 
ATOM     25  Cl  UNL     1       3.752   3.500  21.229  1.00  0.00    -0.080 Cl
BRANCH  22  26
ATOM     26  O   UNL     1       3.350   1.477  19.028  1.00  0.00    -0.506 OA
ATOM     27  H   UNL     1       2.719   1.848  19.673  1.00  0.00     0.293 HD
ENDBRANCH  22  26
ENDBRANCH  18  19
ENDBRANCH  17  18
BRANCH  17  28
ATOM     28  O   UNL     1       5.349   6.584  17.057  1.00  0.00    -0.383 OA
ATOM     29  H   UNL     1       5.033   6.610  16.125  1.00  0.00     0.211 HD
ENDBRANCH  17  28
ENDBRANCH  14  17
ENDBRANCH  12  13
BRANCH  12  30
ATOM     30  C   UNL     1      10.645   5.293  14.344  1.00  0.00     0.018 C 
ATOM     31  C   UNL     1      10.793   4.312  13.170  1.00  0.00     0.010 C 
BRANCH  30  32
ATOM     32  C   UNL     1      10.694   4.526  15.688  1.00  0.00     0.002 C 
ATOM     33  C   UNL     1      11.950   4.748  16.519  1.00  0.00     0.004 C 
ENDBRANCH  30  32
ENDBRANCH  12  30
ENDBRANCH  10  12
ENDBRANCH   1  10
BRANCH   5  34
ATOM     34  C   UNL     1      12.900   7.445  12.906  1.00  0.00     0.242 C 
ATOM     35  O   UNL     1      13.522   7.031  13.884  1.00  0.00    -0.273 OA
ATOM     36  N   UNL     1      13.111   6.957  11.635  1.00  0.00    -0.354 N 
ATOM     37  H   UNL     1      12.656   7.421  10.849  1.00  0.00     0.163 HD
BRANCH  36  38
ATOM     38  C   UNL     1      13.871   5.749  11.387  1.00  0.00     0.116 C 
BRANCH  38  39
ATOM     39  C   UNL     1      13.159   4.894  10.342  1.00  0.00     0.023 C 
BRANCH  39  40
ATOM     40  C   UNL     1      14.020   3.734   9.853  1.00  0.00     0.026 C 
BRANCH  40  41
ATOM     41  C   UNL     1      14.427   2.832  11.018  1.00  0.00     0.146 C 
BRANCH  41  42
ATOM     42  N   UNL     1      13.782   1.532  10.883  1.00  0.00    -0.254 NA
ATOM     43  C   UNL     1      13.157   1.029  11.880  1.00  0.00     0.185 C 
ATOM     44  N   UNL     1      12.971   1.516  13.120  1.00  0.00    -0.370 N 
ATOM     45  N   UNL     1      12.573  -0.172  11.736  1.00  0.00    -0.370 N 
ATOM     46  H   UNL     1      12.675   0.913  13.869  1.00  0.00     0.159 HD
ATOM     47  H   UNL     1      13.336   2.422  13.397  1.00  0.00     0.159 HD
ATOM     48  H   UNL     1      12.658  -0.606  10.827  1.00  0.00     0.159 HD
ATOM     49  H   UNL     1      11.879  -0.519  12.374  1.00  0.00     0.159 HD
ENDBRANCH  41  42
ENDBRANCH  40  41
ENDBRANCH  39  40
ENDBRANCH  38  39
ENDBRANCH  36  38
ENDBRANCH   5  34
BRANCH   8  50
ATOM     50  O   UNL     1      13.190   8.048  17.606  1.00  0.00    -0.245 OA
BRANCH  50  51
ATOM     51  S   UNL     1      14.014   7.804  18.988  1.00  0.00     0.397 S 
ATOM     52  O   UNL     1      15.180   8.658  18.969  1.00  0.00    -0.169 OA
ATOM     53  O   UNL     1      14.117   6.384  19.248  1.00  0.00    -0.169 OA
BRANCH  51  54
ATOM     54  O   UNL     1      13.023   8.439  20.084  1.00  0.00    -0.264 OA
ATOM     55  H   UNL     1      13.273   8.075  20.958  1.00  0.00     0.236 HD
ENDBRANCH  51  54
ENDBRANCH  50  51
ENDBRANCH   8  50
TORSDOF 19
ENDMDL
MODEL 39
REMARK VINA RESULT:    -7.122     17.283     20.673
REMARK INTER + INTRA:         -17.000
REMARK INTER:                 -12.369
REMARK INTRA:                  -4.632
REMARK UNBOUND:                -2.592
REMARK SMILES CC[C@@H](C)[C@@H](NC(=O)[C@@H](O)Cc1ccc(O)c(Cl)c1)C(=O)N1[C@H](C(=O)NCCCCN=C(N)N)C[C@H]2CC[C@H](OS(=O)(=O)O)C[C@@H]21
REMARK SMILES IDX 22 1 36 2 46 3 35 4 23 5 45 6 37 7 39 8 38 9 20 10 21 11
REMARK SMILES IDX 5 12 6 13 7 14 8 15 9 17 11 18 12 19 17 20 19 21 15 22 14 23
REMARK SMILES IDX 13 24 18 25 16 26 10 28 3 30 4 31 2 32 1 33 24 34 25 35
REMARK SMILES IDX 26 36 27 38 28 39 29 40 30 41 31 42 32 43 33 44 34 45 40 50
REMARK SMILES IDX 41 51 42 52 43 53 44 54
REMARK H PARENT 6 16 16 27 10 29 26 37 33 46 33 47 34 48 34 49 44 55
ROOT
ATOM      1  N   UNL     1      15.204   2.254  11.075  1.00  0.00    -0.326 N 
ATOM      2  C   UNL     1      15.126   2.657  13.393  1.00  0.00     0.014 C 
ATOM      3  C   UNL     1      16.051   2.723  12.175  1.00  0.00     0.091 C 
ATOM      4  C   UNL     1      14.268   1.437  13.096  1.00  0.00     0.041 C 
ATOM      5  C   UNL     1      13.942   1.688  11.612  1.00  0.00     0.175 C 
ATOM      6  C   UNL     1      16.636   4.132  12.088  1.00  0.00     0.059 C 
ATOM      7  C   UNL     1      15.922   2.710  14.682  1.00  0.00     0.008 C 
ATOM      8  C   UNL     1      16.835   4.808  13.462  1.00  0.00     0.143 C 
ATOM      9  C   UNL     1      17.034   3.777  14.592  1.00  0.00     0.034 C 
ENDROOT
BRANCH   1  10
ATOM     10  C   UNL     1      15.504   2.080   9.735  1.00  0.00     0.246 C 
ATOM     11  O   UNL     1      15.043   2.875   8.908  1.00  0.00    -0.272 OA
BRANCH  10  12
ATOM     12  C   UNL     1      16.446   0.919   9.303  1.00  0.00     0.174 C 
BRANCH  12  13
ATOM     13  N   UNL     1      16.127  -0.290  10.062  1.00  0.00    -0.342 N 
ATOM     14  C   UNL     1      15.155  -1.203   9.721  1.00  0.00     0.249 C 
ATOM     15  O   UNL     1      14.461  -1.117   8.716  1.00  0.00    -0.272 OA
ATOM     16  H   UNL     1      16.510  -0.414  10.996  1.00  0.00     0.164 HD
BRANCH  14  17
ATOM     17  C   UNL     1      15.048  -2.364  10.733  1.00  0.00     0.207 C 
BRANCH  17  18
ATOM     18  C   UNL     1      16.209  -2.313  11.731  1.00  0.00     0.077 C 
BRANCH  18  19
ATOM     19  C   UNL     1      15.729  -2.022  13.136  1.00  0.00    -0.043 A 
ATOM     20  C   UNL     1      13.996  -2.126  14.829  1.00  0.00     0.083 A 
ATOM     21  C   UNL     1      14.454  -2.439  13.549  1.00  0.00     0.028 A 
ATOM     22  C   UNL     1      14.804  -1.395  15.701  1.00  0.00     0.134 A 
ATOM     23  C   UNL     1      16.068  -0.977  15.305  1.00  0.00     0.048 A 
ATOM     24  C   UNL     1      16.530  -1.287  14.023  1.00  0.00     0.008 A 
ATOM     25  Cl  UNL     1      12.426  -2.646  15.319  1.00  0.00    -0.080 Cl
BRANCH  22  26
ATOM     26  O   UNL     1      14.393  -1.055  16.962  1.00  0.00    -0.506 OA
ATOM     27  H   UNL     1      14.653  -1.790  17.549  1.00  0.00     0.293 HD
ENDBRANCH  22  26
ENDBRANCH  18  19
ENDBRANCH  17  18
BRANCH  17  28
ATOM     28  O   UNL     1      15.051  -3.636  10.063  1.00  0.00    -0.383 OA
ATOM     29  H   UNL     1      14.436  -3.543   9.301  1.00  0.00     0.211 HD
ENDBRANCH  17  28
ENDBRANCH  14  17
ENDBRANCH  12  13
BRANCH  12  30
ATOM     30  C   UNL     1      17.949   1.299   9.398  1.00  0.00     0.018 C 
ATOM     31  C   UNL     1      18.695   0.900   8.116  1.00  0.00     0.010 C 
BRANCH  30  32
ATOM     32  C   UNL     1      18.663   0.705  10.636  1.00  0.00     0.002 C 
ATOM     33  C   UNL     1      19.485   1.694  11.452  1.00  0.00     0.004 C 
ENDBRANCH  30  32
ENDBRANCH  12  30
ENDBRANCH  10  12
ENDBRANCH   1  10
BRANCH   5  34
ATOM     34  C   UNL     1      12.773   2.695  11.446  1.00  0.00     0.242 C 
ATOM     35  O   UNL     1      12.587   3.322  10.403  1.00  0.00    -0.273 OA
ATOM     36  N   UNL     1      11.992   2.877  12.566  1.00  0.00    -0.354 N 
ATOM     37  H   UNL     1      12.268   2.420  13.436  1.00  0.00     0.163 HD
BRANCH  36  38
ATOM     38  C   UNL     1      10.742   3.607  12.527  1.00  0.00     0.116 C 
BRANCH  38  39
ATOM     39  C   UNL     1      10.492   4.279  13.875  1.00  0.00     0.023 C 
BRANCH  39  40
ATOM     40  C   UNL     1      10.070   5.737  13.731  1.00  0.00     0.026 C 
BRANCH  40  41
ATOM     41  C   UNL     1      11.283   6.663  13.809  1.00  0.00     0.146 C 
BRANCH  41  42
ATOM     42  N   UNL     1      12.380   6.106  13.027  1.00  0.00    -0.254 NA
ATOM     43  C   UNL     1      12.723   6.666  11.929  1.00  0.00     0.185 C 
ATOM     44  N   UNL     1      12.221   7.756  11.319  1.00  0.00    -0.370 N 
ATOM     45  N   UNL     1      13.733   6.134  11.221  1.00  0.00    -0.370 N 
ATOM     46  H   UNL     1      12.421   7.939  10.351  1.00  0.00     0.159 HD
ATOM     47  H   UNL     1      11.460   8.290  11.725  1.00  0.00     0.159 HD
ATOM     48  H   UNL     1      14.173   5.313  11.615  1.00  0.00     0.159 HD
ATOM     49  H   UNL     1      14.210   6.635  10.493  1.00  0.00     0.159 HD
ENDBRANCH  41  42
ENDBRANCH  40  41
ENDBRANCH  39  40
ENDBRANCH  38  39
ENDBRANCH  36  38
ENDBRANCH   5  34
BRANCH   8  50
ATOM     50  O   UNL     1      15.701   5.615  13.780  1.00  0.00    -0.245 OA
BRANCH  50  51
ATOM     51  S   UNL     1      15.872   7.228  13.903  1.00  0.00     0.397 S 
ATOM     52  O   UNL     1      14.934   7.702  14.896  1.00  0.00    -0.169 OA
ATOM     53  O   UNL     1      15.938   7.812  12.580  1.00  0.00    -0.169 OA
BRANCH  51  54
ATOM     54  O   UNL     1      17.326   7.360  14.576  1.00  0.00    -0.264 OA
ATOM     55  H   UNL     1      17.227   7.876  15.402  1.00  0.00     0.236 HD
ENDBRANCH  51  54
ENDBRANCH  50  51
ENDBRANCH   8  50
TORSDOF 19
ENDMDL
MODEL 40
REMARK VINA RESULT:    -7.119      2.420      4.211
REMARK INTER + INTRA:         -16.995
REMARK INTER:                 -15.443
REMARK INTRA:                  -1.552
REMARK UNBOUND:                -2.592
REMARK SMILES CC[C@@H](C)[C@@H](NC(=O)[C@@H](O)Cc1ccc(O)c(Cl)c1)C(=O)N1[C@H](C(=O)NCCCCN=C(N)N)C[C@H]2CC[C@H](OS(=O)(=O)O)C[C@@H]21
REMARK SMILES IDX 22 1 36 2 46 3 35 4 23 5 45 6 37 7 39 8 38 9 20 10 21 11
REMARK SMILES IDX 5 12 6 13 7 14 8 15 9 17 11 18 12 19 17 20 19 21 15 22 14 23
REMARK SMILES IDX 13 24 18 25 16 26 10 28 3 30 4 31 2 32 1 33 24 34 25 35
REMARK SMILES IDX 26 36 27 38 28 39 29 40 30 41 31 42 32 43 33 44 34 45 40 50
REMARK SMILES IDX 41 51 42 52 43 53 44 54
REMARK H PARENT 6 16 16 27 10 29 26 37 33 46 33 47 34 48 34 49 44 55
ROOT
ATOM      1  N   UNL     1       0.790 -10.827  11.999  1.00  0.00    -0.326 N 
ATOM      2  C   UNL     1       2.547 -10.394  10.492  1.00  0.00     0.014 C 
ATOM      3  C   UNL     1       1.523  -9.707  11.401  1.00  0.00     0.091 C 
ATOM      4  C   UNL     1       1.788 -11.616   9.996  1.00  0.00     0.041 C 
ATOM      5  C   UNL     1       1.149 -12.093  11.314  1.00  0.00     0.175 C 
ATOM      6  C   UNL     1       2.267  -8.750  12.329  1.00  0.00     0.059 C 
ATOM      7  C   UNL     1       3.121  -9.417   9.486  1.00  0.00     0.008 C 
ATOM      8  C   UNL     1       3.535  -8.133  11.700  1.00  0.00     0.143 C 
ATOM      9  C   UNL     1       3.444  -8.067  10.162  1.00  0.00     0.034 C 
ENDROOT
BRANCH   1  10
ATOM     10  C   UNL     1      -0.269 -10.819  12.891  1.00  0.00     0.246 C 
ATOM     11  O   UNL     1      -0.113 -10.308  14.005  1.00  0.00    -0.272 OA
BRANCH  10  12
ATOM     12  C   UNL     1      -1.641 -11.413  12.458  1.00  0.00     0.174 C 
BRANCH  12  13
ATOM     13  N   UNL     1      -2.554 -10.335  12.080  1.00  0.00    -0.342 N 
ATOM     14  C   UNL     1      -2.966  -9.320  12.913  1.00  0.00     0.249 C 
ATOM     15  O   UNL     1      -2.585  -9.190  14.070  1.00  0.00    -0.272 OA
ATOM     16  H   UNL     1      -3.071 -10.397  11.207  1.00  0.00     0.164 HD
BRANCH  14  17
ATOM     17  C   UNL     1      -3.945  -8.345  12.225  1.00  0.00     0.207 C 
BRANCH  17  18
ATOM     18  C   UNL     1      -4.950  -7.791  13.240  1.00  0.00     0.077 C 
BRANCH  18  19
ATOM     19  C   UNL     1      -5.069  -6.286  13.149  1.00  0.00    -0.043 A 
ATOM     20  C   UNL     1      -5.756  -4.301  11.937  1.00  0.00     0.083 A 
ATOM     21  C   UNL     1      -5.693  -5.690  12.042  1.00  0.00     0.028 A 
ATOM     22  C   UNL     1      -5.198  -3.499  12.934  1.00  0.00     0.134 A 
ATOM     23  C   UNL     1      -4.577  -4.076  14.036  1.00  0.00     0.048 A 
ATOM     24  C   UNL     1      -4.510  -5.467  14.142  1.00  0.00     0.008 A 
ATOM     25  Cl  UNL     1      -6.527  -3.587  10.569  1.00  0.00    -0.080 Cl
BRANCH  22  26
ATOM     26  O   UNL     1      -5.227  -2.132  12.869  1.00  0.00    -0.506 OA
ATOM     27  H   UNL     1      -6.165  -1.870  12.901  1.00  0.00     0.293 HD
ENDBRANCH  22  26
ENDBRANCH  18  19
ENDBRANCH  17  18
BRANCH  17  28
ATOM     28  O   UNL     1      -4.655  -8.993  11.157  1.00  0.00    -0.383 OA
ATOM     29  H   UNL     1      -4.022  -9.632  10.758  1.00  0.00     0.211 HD
ENDBRANCH  17  28
ENDBRANCH  14  17
ENDBRANCH  12  13
BRANCH  12  30
ATOM     30  C   UNL     1      -2.250 -12.358  13.529  1.00  0.00     0.018 C 
ATOM     31  C   UNL     1      -1.334 -13.567  13.776  1.00  0.00     0.010 C 
BRANCH  30  32
ATOM     32  C   UNL     1      -3.683 -12.836  13.192  1.00  0.00     0.002 C 
ATOM     33  C   UNL     1      -3.888 -14.345  13.216  1.00  0.00     0.004 C 
ENDBRANCH  30  32
ENDBRANCH  12  30
ENDBRANCH  10  12
ENDBRANCH   1  10
BRANCH   5  34
ATOM     34  C   UNL     1       2.149 -12.917  12.168  1.00  0.00     0.242 C 
ATOM     35  O   UNL     1       2.171 -12.854  13.397  1.00  0.00    -0.273 OA
ATOM     36  N   UNL     1       3.043 -13.680  11.451  1.00  0.00    -0.354 N 
ATOM     37  H   UNL     1       3.053 -13.598  10.433  1.00  0.00     0.163 HD
BRANCH  36  38
ATOM     38  C   UNL     1       3.896 -14.667  12.080  1.00  0.00     0.116 C 
BRANCH  38  39
ATOM     39  C   UNL     1       5.361 -14.334  11.809  1.00  0.00     0.023 C 
BRANCH  39  40
ATOM     40  C   UNL     1       5.703 -12.888  12.155  1.00  0.00     0.026 C 
BRANCH  40  41
ATOM     41  C   UNL     1       6.734 -12.326  11.176  1.00  0.00     0.146 C 
BRANCH  41  42
ATOM     42  N   UNL     1       8.025 -12.201  11.838  1.00  0.00    -0.254 NA
ATOM     43  C   UNL     1       8.927 -13.088  11.641  1.00  0.00     0.185 C 
ATOM     44  N   UNL     1       8.899 -14.196  10.878  1.00  0.00    -0.370 N 
ATOM     45  N   UNL     1      10.109 -12.957  12.265  1.00  0.00    -0.370 N 
ATOM     46  H   UNL     1       9.579 -14.925  11.007  1.00  0.00     0.159 HD
ATOM     47  H   UNL     1       8.083 -14.442  10.325  1.00  0.00     0.159 HD
ATOM     48  H   UNL     1      10.217 -12.143  12.855  1.00  0.00     0.159 HD
ATOM     49  H   UNL     1      10.930 -13.463  11.986  1.00  0.00     0.159 HD
ENDBRANCH  41  42
ENDBRANCH  40  41
ENDBRANCH  39  40
ENDBRANCH  38  39
ENDBRANCH  36  38
ENDBRANCH   5  34
BRANCH   8  50
ATOM     50  O   UNL     1       4.683  -8.903  12.054  1.00  0.00    -0.245 OA
BRANCH  50  51
ATOM     51  S   UNL     1       6.024  -8.150  12.582  1.00  0.00     0.397 S 
ATOM     52  O   UNL     1       5.905  -6.746  12.258  1.00  0.00    -0.169 OA
ATOM     53  O   UNL     1       7.193  -8.919  12.209  1.00  0.00    -0.169 OA
BRANCH  51  54
ATOM     54  O   UNL     1       5.856  -8.246  14.179  1.00  0.00    -0.264 OA
ATOM     55  H   UNL     1       4.980  -7.874  14.409  1.00  0.00     0.236 HD
ENDBRANCH  51  54
ENDBRANCH  50  51
ENDBRANCH   8  50
TORSDOF 19
ENDMDL
MODEL 41
REMARK VINA RESULT:    -7.091     17.202     21.809
REMARK INTER + INTRA:         -16.938
REMARK INTER:                 -14.630
REMARK INTRA:                  -2.308
REMARK UNBOUND:                -2.592
REMARK SMILES CC[C@@H](C)[C@@H](NC(=O)[C@@H](O)Cc1ccc(O)c(Cl)c1)C(=O)N1[C@H](C(=O)NCCCCN=C(N)N)C[C@H]2CC[C@H](OS(=O)(=O)O)C[C@@H]21
REMARK SMILES IDX 22 1 36 2 46 3 35 4 23 5 45 6 37 7 39 8 38 9 20 10 21 11
REMARK SMILES IDX 5 12 6 13 7 14 8 15 9 17 11 18 12 19 17 20 19 21 15 22 14 23
REMARK SMILES IDX 13 24 18 25 16 26 10 28 3 30 4 31 2 32 1 33 24 34 25 35
REMARK SMILES IDX 26 36 27 38 28 39 29 40 30 41 31 42 32 43 33 44 34 45 40 50
REMARK SMILES IDX 41 51 42 52 43 53 44 54
REMARK H PARENT 6 16 16 27 10 29 26 37 33 46 33 47 34 48 34 49 44 55
ROOT
ATOM      1  N   UNL     1      10.047   5.623  14.492  1.00  0.00    -0.326 N 
ATOM      2  C   UNL     1       7.705   5.435  14.646  1.00  0.00     0.014 C 
ATOM      3  C   UNL     1       9.005   4.645  14.822  1.00  0.00     0.091 C 
ATOM      4  C   UNL     1       8.030   6.360  13.484  1.00  0.00     0.041 C 
ATOM      5  C   UNL     1       9.434   6.837  13.899  1.00  0.00     0.175 C 
ATOM      6  C   UNL     1       9.009   4.027  16.219  1.00  0.00     0.059 C 
ATOM      7  C   UNL     1       6.514   4.502  14.543  1.00  0.00     0.008 C 
ATOM      8  C   UNL     1       7.603   3.658  16.739  1.00  0.00     0.143 C 
ATOM      9  C   UNL     1       6.616   3.372  15.589  1.00  0.00     0.034 C 
ENDROOT
BRANCH   1  10
ATOM     10  C   UNL     1      11.423   5.475  14.457  1.00  0.00     0.246 C 
ATOM     11  O   UNL     1      11.974   4.770  15.308  1.00  0.00    -0.272 OA
BRANCH  10  12
ATOM     12  C   UNL     1      12.239   6.165  13.325  1.00  0.00     0.174 C 
BRANCH  12  13
ATOM     13  N   UNL     1      12.377   5.258  12.186  1.00  0.00    -0.342 N 
ATOM     14  C   UNL     1      13.205   4.159  12.147  1.00  0.00     0.249 C 
ATOM     15  O   UNL     1      13.907   3.799  13.084  1.00  0.00    -0.272 OA
ATOM     16  H   UNL     1      11.978   5.515  11.287  1.00  0.00     0.164 HD
BRANCH  14  17
ATOM     17  C   UNL     1      13.140   3.412  10.797  1.00  0.00     0.207 C 
BRANCH  17  18
ATOM     18  C   UNL     1      14.508   3.430  10.108  1.00  0.00     0.077 C 
BRANCH  18  19
ATOM     19  C   UNL     1      15.090   2.040   9.978  1.00  0.00    -0.043 A 
ATOM     20  C   UNL     1      16.595   0.485   8.882  1.00  0.00     0.083 A 
ATOM     21  C   UNL     1      16.095   1.779   9.034  1.00  0.00     0.028 A 
ATOM     22  C   UNL     1      16.094  -0.553   9.668  1.00  0.00     0.134 A 
ATOM     23  C   UNL     1      15.099  -0.309  10.606  1.00  0.00     0.048 A 
ATOM     24  C   UNL     1      14.595   0.985  10.760  1.00  0.00     0.008 A 
ATOM     25  Cl  UNL     1      17.830   0.184   7.716  1.00  0.00    -0.080 Cl
BRANCH  22  26
ATOM     26  O   UNL     1      16.545  -1.840   9.547  1.00  0.00    -0.506 OA
ATOM     27  H   UNL     1      17.158  -1.852   8.788  1.00  0.00     0.293 HD
ENDBRANCH  22  26
ENDBRANCH  18  19
ENDBRANCH  17  18
BRANCH  17  28
ATOM     28  O   UNL     1      12.160   4.001   9.927  1.00  0.00    -0.383 OA
ATOM     29  H   UNL     1      12.130   4.957  10.159  1.00  0.00     0.211 HD
ENDBRANCH  17  28
ENDBRANCH  14  17
ENDBRANCH  12  13
BRANCH  12  30
ATOM     30  C   UNL     1      13.608   6.708  13.819  1.00  0.00     0.018 C 
ATOM     31  C   UNL     1      13.415   7.717  14.961  1.00  0.00     0.010 C 
BRANCH  30  32
ATOM     32  C   UNL     1      14.469   7.334  12.695  1.00  0.00     0.002 C 
ATOM     33  C   UNL     1      14.148   8.785  12.361  1.00  0.00     0.004 C 
ENDBRANCH  30  32
ENDBRANCH  12  30
ENDBRANCH  10  12
ENDBRANCH   1  10
BRANCH   5  34
ATOM     34  C   UNL     1       9.363   7.983  14.944  1.00  0.00     0.242 C 
ATOM     35  O   UNL     1       9.880   7.892  16.057  1.00  0.00    -0.273 OA
ATOM     36  N   UNL     1       8.635   9.085  14.555  1.00  0.00    -0.354 N 
ATOM     37  H   UNL     1       8.129   9.053  13.669  1.00  0.00     0.163 HD
BRANCH  36  38
ATOM     38  C   UNL     1       8.643  10.322  15.309  1.00  0.00     0.116 C 
BRANCH  38  39
ATOM     39  C   UNL     1       9.513  11.356  14.598  1.00  0.00     0.023 C 
BRANCH  39  40
ATOM     40  C   UNL     1      10.962  11.324  15.072  1.00  0.00     0.026 C 
BRANCH  40  41
ATOM     41  C   UNL     1      11.039  11.491  16.590  1.00  0.00     0.146 C 
BRANCH  41  42
ATOM     42  N   UNL     1      12.146  10.703  17.116  1.00  0.00    -0.254 NA
ATOM     43  C   UNL     1      11.914   9.771  17.962  1.00  0.00     0.185 C 
ATOM     44  N   UNL     1      10.750   9.353  18.492  1.00  0.00    -0.370 N 
ATOM     45  N   UNL     1      12.949   9.059  18.439  1.00  0.00    -0.370 N 
ATOM     46  H   UNL     1      10.739   8.783  19.320  1.00  0.00     0.159 HD
ATOM     47  H   UNL     1       9.864   9.775  18.231  1.00  0.00     0.159 HD
ATOM     48  H   UNL     1      13.863   9.304  18.083  1.00  0.00     0.159 HD
ATOM     49  H   UNL     1      12.833   8.179  18.908  1.00  0.00     0.159 HD
ENDBRANCH  41  42
ENDBRANCH  40  41
ENDBRANCH  39  40
ENDBRANCH  38  39
ENDBRANCH  36  38
ENDBRANCH   5  34
BRANCH   8  50
ATOM     50  O   UNL     1       7.079   4.723  17.532  1.00  0.00    -0.245 OA
BRANCH  50  51
ATOM     51  S   UNL     1       5.881   4.422  18.591  1.00  0.00     0.397 S 
ATOM     52  O   UNL     1       5.679   2.991  18.640  1.00  0.00    -0.169 OA
ATOM     53  O   UNL     1       4.784   5.337  18.357  1.00  0.00    -0.169 OA
BRANCH  51  54
ATOM     54  O   UNL     1       6.566   4.816  19.992  1.00  0.00    -0.264 OA
ATOM     55  H   UNL     1       7.214   4.117  20.214  1.00  0.00     0.236 HD
ENDBRANCH  51  54
ENDBRANCH  50  51
ENDBRANCH   8  50
TORSDOF 19
ENDMDL
MODEL 42
REMARK VINA RESULT:    -7.077     17.462     20.804
REMARK INTER + INTRA:         -16.910
REMARK INTER:                 -13.134
REMARK INTRA:                  -3.776
REMARK UNBOUND:                -2.592
REMARK SMILES CC[C@@H](C)[C@@H](NC(=O)[C@@H](O)Cc1ccc(O)c(Cl)c1)C(=O)N1[C@H](C(=O)NCCCCN=C(N)N)C[C@H]2CC[C@H](OS(=O)(=O)O)C[C@@H]21
REMARK SMILES IDX 22 1 36 2 46 3 35 4 23 5 45 6 37 7 39 8 38 9 20 10 21 11
REMARK SMILES IDX 5 12 6 13 7 14 8 15 9 17 11 18 12 19 17 20 19 21 15 22 14 23
REMARK SMILES IDX 13 24 18 25 16 26 10 28 3 30 4 31 2 32 1 33 24 34 25 35
REMARK SMILES IDX 26 36 27 38 28 39 29 40 30 41 31 42 32 43 33 44 34 45 40 50
REMARK SMILES IDX 41 51 42 52 43 53 44 54
REMARK H PARENT 6 16 16 27 10 29 26 37 33 46 33 47 34 48 34 49 44 55
ROOT
ATOM      1  N   UNL     1      11.684   5.724  15.563  1.00  0.00    -0.326 N 
ATOM      2  C   UNL     1      13.507   6.661  14.406  1.00  0.00     0.014 C 
ATOM      3  C   UNL     1      11.984   6.510  14.363  1.00  0.00     0.091 C 
ATOM      4  C   UNL     1      13.958   5.339  15.009  1.00  0.00     0.041 C 
ATOM      5  C   UNL     1      12.940   5.202  16.156  1.00  0.00     0.175 C 
ATOM      6  C   UNL     1      11.364   7.900  14.234  1.00  0.00     0.059 C 
ATOM      7  C   UNL     1      14.048   7.085  13.055  1.00  0.00     0.008 C 
ATOM      8  C   UNL     1      12.236   8.898  13.442  1.00  0.00     0.143 C 
ATOM      9  C   UNL     1      13.162   8.187  12.435  1.00  0.00     0.034 C 
ENDROOT
BRANCH   1  10
ATOM     10  C   UNL     1      10.469   5.261  16.040  1.00  0.00     0.246 C 
ATOM     11  O   UNL     1      10.441   4.219  16.703  1.00  0.00    -0.272 OA
BRANCH  10  12
ATOM     12  C   UNL     1       9.175   6.083  15.770  1.00  0.00     0.174 C 
BRANCH  12  13
ATOM     13  N   UNL     1       8.239   5.919  16.882  1.00  0.00    -0.342 N 
ATOM     14  C   UNL     1       8.049   6.831  17.896  1.00  0.00     0.249 C 
ATOM     15  O   UNL     1       8.631   7.906  17.964  1.00  0.00    -0.272 OA
ATOM     16  H   UNL     1       7.804   5.015  17.044  1.00  0.00     0.164 HD
BRANCH  14  17
ATOM     17  C   UNL     1       7.004   6.361  18.930  1.00  0.00     0.207 C 
BRANCH  17  18
ATOM     18  C   UNL     1       5.615   6.277  18.289  1.00  0.00     0.077 C 
BRANCH  18  19
ATOM     19  C   UNL     1       4.967   4.932  18.527  1.00  0.00    -0.043 A 
ATOM     20  C   UNL     1       4.299   2.747  17.714  1.00  0.00     0.083 A 
ATOM     21  C   UNL     1       4.941   3.968  17.507  1.00  0.00     0.028 A 
ATOM     22  C   UNL     1       3.679   2.481  18.935  1.00  0.00     0.134 A 
ATOM     23  C   UNL     1       3.698   3.427  19.954  1.00  0.00     0.048 A 
ATOM     24  C   UNL     1       4.338   4.651  19.750  1.00  0.00     0.008 A 
ATOM     25  Cl  UNL     1       4.277   1.575  16.448  1.00  0.00    -0.080 Cl
BRANCH  22  26
ATOM     26  O   UNL     1       3.028   1.302  19.180  1.00  0.00    -0.506 OA
ATOM     27  H   UNL     1       3.632   0.755  19.715  1.00  0.00     0.293 HD
ENDBRANCH  22  26
ENDBRANCH  18  19
ENDBRANCH  17  18
BRANCH  17  28
ATOM     28  O   UNL     1       6.956   7.251  20.057  1.00  0.00    -0.383 OA
ATOM     29  H   UNL     1       6.239   6.913  20.640  1.00  0.00     0.211 HD
ENDBRANCH  17  28
ENDBRANCH  14  17
ENDBRANCH  12  13
BRANCH  12  30
ATOM     30  C   UNL     1       8.530   5.751  14.398  1.00  0.00     0.018 C 
ATOM     31  C   UNL     1       7.162   6.438  14.257  1.00  0.00     0.010 C 
BRANCH  30  32
ATOM     32  C   UNL     1       8.393   4.233  14.126  1.00  0.00     0.002 C 
ATOM     33  C   UNL     1       7.051   3.622  14.506  1.00  0.00     0.004 C 
ENDBRANCH  30  32
ENDBRANCH  12  30
ENDBRANCH  10  12
ENDBRANCH   1  10
BRANCH   5  34
ATOM     34  C   UNL     1      13.355   6.041  17.393  1.00  0.00     0.242 C 
ATOM     35  O   UNL     1      14.326   5.749  18.091  1.00  0.00    -0.273 OA
ATOM     36  N   UNL     1      12.528   7.102  17.685  1.00  0.00    -0.354 N 
ATOM     37  H   UNL     1      11.672   7.222  17.143  1.00  0.00     0.163 HD
BRANCH  36  38
ATOM     38  C   UNL     1      12.880   8.110  18.664  1.00  0.00     0.116 C 
BRANCH  38  39
ATOM     39  C   UNL     1      11.857   9.243  18.633  1.00  0.00     0.023 C 
BRANCH  39  40
ATOM     40  C   UNL     1      11.560   9.720  17.215  1.00  0.00     0.026 C 
BRANCH  40  41
ATOM     41  C   UNL     1      10.350  10.654  17.200  1.00  0.00     0.146 C 
BRANCH  41  42
ATOM     42  N   UNL     1      10.080  11.089  15.836  1.00  0.00    -0.254 NA
ATOM     43  C   UNL     1       9.081  10.600  15.201  1.00  0.00     0.185 C 
ATOM     44  N   UNL     1       8.168   9.693  15.592  1.00  0.00    -0.370 N 
ATOM     45  N   UNL     1       8.852  11.010  13.943  1.00  0.00    -0.370 N 
ATOM     46  H   UNL     1       7.591   9.222  14.916  1.00  0.00     0.159 HD
ATOM     47  H   UNL     1       8.184   9.287  16.523  1.00  0.00     0.159 HD
ATOM     48  H   UNL     1       9.491  11.702  13.574  1.00  0.00     0.159 HD
ATOM     49  H   UNL     1       7.977  10.862  13.473  1.00  0.00     0.159 HD
ENDBRANCH  41  42
ENDBRANCH  40  41
ENDBRANCH  39  40
ENDBRANCH  38  39
ENDBRANCH  36  38
ENDBRANCH   5  34
BRANCH   8  50
ATOM     50  O   UNL     1      13.043   9.663  14.339  1.00  0.00    -0.245 OA
BRANCH  50  51
ATOM     51  S   UNL     1      13.280  11.246  14.054  1.00  0.00     0.397 S 
ATOM     52  O   UNL     1      14.126  11.369  12.888  1.00  0.00    -0.169 OA
ATOM     53  O   UNL     1      13.596  11.921  15.296  1.00  0.00    -0.169 OA
BRANCH  51  54
ATOM     54  O   UNL     1      11.818  11.726  13.587  1.00  0.00    -0.264 OA
ATOM     55  H   UNL     1      11.927  12.276  12.784  1.00  0.00     0.236 HD
ENDBRANCH  51  54
ENDBRANCH  50  51
ENDBRANCH   8  50
TORSDOF 19
ENDMDL
MODEL 43
REMARK VINA RESULT:    -7.065     16.470     20.952
REMARK INTER + INTRA:         -16.885
REMARK INTER:                 -14.099
REMARK INTRA:                  -2.786
REMARK UNBOUND:                -2.592
REMARK SMILES CC[C@@H](C)[C@@H](NC(=O)[C@@H](O)Cc1ccc(O)c(Cl)c1)C(=O)N1[C@H](C(=O)NCCCCN=C(N)N)C[C@H]2CC[C@H](OS(=O)(=O)O)C[C@@H]21
REMARK SMILES IDX 22 1 36 2 46 3 35 4 23 5 45 6 37 7 39 8 38 9 20 10 21 11
REMARK SMILES IDX 5 12 6 13 7 14 8 15 9 17 11 18 12 19 17 20 19 21 15 22 14 23
REMARK SMILES IDX 13 24 18 25 16 26 10 28 3 30 4 31 2 32 1 33 24 34 25 35
REMARK SMILES IDX 26 36 27 38 28 39 29 40 30 41 31 42 32 43 33 44 34 45 40 50
REMARK SMILES IDX 41 51 42 52 43 53 44 54
REMARK H PARENT 6 16 16 27 10 29 26 37 33 46 33 47 34 48 34 49 44 55
ROOT
ATOM      1  N   UNL     1      13.529   6.518  16.001  1.00  0.00    -0.326 N 
ATOM      2  C   UNL     1      12.827   7.378  18.077  1.00  0.00     0.014 C 
ATOM      3  C   UNL     1      12.928   7.719  16.587  1.00  0.00     0.091 C 
ATOM      4  C   UNL     1      14.068   6.530  18.311  1.00  0.00     0.041 C 
ATOM      5  C   UNL     1      14.009   5.614  17.075  1.00  0.00     0.175 C 
ATOM      6  C   UNL     1      11.548   8.152  16.096  1.00  0.00     0.059 C 
ATOM      7  C   UNL     1      12.613   8.628  18.906  1.00  0.00     0.008 C 
ATOM      8  C   UNL     1      10.700   8.864  17.172  1.00  0.00     0.143 C 
ATOM      9  C   UNL     1      11.577   9.555  18.236  1.00  0.00     0.034 C 
ENDROOT
BRANCH   1  10
ATOM     10  C   UNL     1      13.878   6.250  14.688  1.00  0.00     0.246 C 
ATOM     11  O   UNL     1      14.991   5.771  14.447  1.00  0.00    -0.272 OA
BRANCH  10  12
ATOM     12  C   UNL     1      12.849   6.517  13.551  1.00  0.00     0.174 C 
BRANCH  12  13
ATOM     13  N   UNL     1      12.919   5.450  12.554  1.00  0.00    -0.342 N 
ATOM     14  C   UNL     1      12.069   4.368  12.493  1.00  0.00     0.249 C 
ATOM     15  O   UNL     1      11.132   4.193  13.262  1.00  0.00    -0.272 OA
ATOM     16  H   UNL     1      13.735   5.376  11.952  1.00  0.00     0.164 HD
BRANCH  14  17
ATOM     17  C   UNL     1      12.412   3.406  11.336  1.00  0.00     0.207 C 
BRANCH  17  18
ATOM     18  C   UNL     1      13.888   2.999  11.397  1.00  0.00     0.077 C 
BRANCH  18  19
ATOM     19  C   UNL     1      14.071   1.513  11.186  1.00  0.00    -0.043 A 
ATOM     20  C   UNL     1      15.261  -0.333  10.157  1.00  0.00     0.083 A 
ATOM     21  C   UNL     1      15.124   1.036  10.390  1.00  0.00     0.028 A 
ATOM     22  C   UNL     1      14.349  -1.231  10.714  1.00  0.00     0.134 A 
ATOM     23  C   UNL     1      13.302  -0.771  11.504  1.00  0.00     0.048 A 
ATOM     24  C   UNL     1      13.161   0.598  11.738  1.00  0.00     0.008 A 
ATOM     25  Cl  UNL     1      16.561  -0.901   9.176  1.00  0.00    -0.080 Cl
BRANCH  22  26
ATOM     26  O   UNL     1      14.437  -2.581  10.505  1.00  0.00    -0.506 OA
ATOM     27  H   UNL     1      14.131  -3.012  11.324  1.00  0.00     0.293 HD
ENDBRANCH  22  26
ENDBRANCH  18  19
ENDBRANCH  17  18
BRANCH  17  28
ATOM     28  O   UNL     1      12.136   4.009  10.062  1.00  0.00    -0.383 OA
ATOM     29  H   UNL     1      12.608   4.873  10.062  1.00  0.00     0.211 HD
ENDBRANCH  17  28
ENDBRANCH  14  17
ENDBRANCH  12  13
BRANCH  12  30
ATOM     30  C   UNL     1      13.004   7.928  12.921  1.00  0.00     0.018 C 
ATOM     31  C   UNL     1      11.862   8.213  11.933  1.00  0.00     0.010 C 
BRANCH  30  32
ATOM     32  C   UNL     1      14.372   8.154  12.233  1.00  0.00     0.002 C 
ATOM     33  C   UNL     1      15.135   9.390  12.691  1.00  0.00     0.004 C 
ENDBRANCH  30  32
ENDBRANCH  12  30
ENDBRANCH  10  12
ENDBRANCH   1  10
BRANCH   5  34
ATOM     34  C   UNL     1      13.022   4.434  17.284  1.00  0.00     0.242 C 
ATOM     35  O   UNL     1      13.215   3.556  18.124  1.00  0.00    -0.273 OA
ATOM     36  N   UNL     1      11.946   4.413  16.425  1.00  0.00    -0.354 N 
ATOM     37  H   UNL     1      11.904   5.100  15.672  1.00  0.00     0.163 HD
BRANCH  36  38
ATOM     38  C   UNL     1      10.823   3.517  16.615  1.00  0.00     0.116 C 
BRANCH  38  39
ATOM     39  C   UNL     1       9.571   4.321  16.954  1.00  0.00     0.023 C 
BRANCH  39  40
ATOM     40  C   UNL     1       8.813   4.772  15.710  1.00  0.00     0.026 C 
BRANCH  40  41
ATOM     41  C   UNL     1       7.493   4.012  15.574  1.00  0.00     0.146 C 
BRANCH  41  42
ATOM     42  N   UNL     1       7.104   3.466  16.868  1.00  0.00    -0.254 NA
ATOM     43  C   UNL     1       6.153   2.612  16.934  1.00  0.00     0.185 C 
ATOM     44  N   UNL     1       5.392   2.086  15.956  1.00  0.00    -0.370 N 
ATOM     45  N   UNL     1       5.807   2.123  18.136  1.00  0.00    -0.370 N 
ATOM     46  H   UNL     1       4.529   1.618  16.174  1.00  0.00     0.159 HD
ATOM     47  H   UNL     1       5.529   2.336  14.982  1.00  0.00     0.159 HD
ATOM     48  H   UNL     1       6.337   2.462  18.927  1.00  0.00     0.159 HD
ATOM     49  H   UNL     1       5.250   1.294  18.247  1.00  0.00     0.159 HD
ENDBRANCH  41  42
ENDBRANCH  40  41
ENDBRANCH  39  40
ENDBRANCH  38  39
ENDBRANCH  36  38
ENDBRANCH   5  34
BRANCH   8  50
ATOM     50  O   UNL     1       9.849   7.924  17.828  1.00  0.00    -0.245 OA
BRANCH  50  51
ATOM     51  S   UNL     1       8.240   8.008  17.607  1.00  0.00     0.397 S 
ATOM     52  O   UNL     1       7.629   6.936  18.361  1.00  0.00    -0.169 OA
ATOM     53  O   UNL     1       7.952   8.209  16.202  1.00  0.00    -0.169 OA
BRANCH  51  54
ATOM     54  O   UNL     1       7.864   9.362  18.388  1.00  0.00    -0.264 OA
ATOM     55  H   UNL     1       7.523  10.002  17.730  1.00  0.00     0.236 HD
ENDBRANCH  51  54
ENDBRANCH  50  51
ENDBRANCH   8  50
TORSDOF 19
ENDMDL
MODEL 44
REMARK VINA RESULT:    -7.059     17.098     20.482
REMARK INTER + INTRA:         -16.873
REMARK INTER:                 -14.567
REMARK INTRA:                  -2.306
REMARK UNBOUND:                -2.592
REMARK SMILES CC[C@@H](C)[C@@H](NC(=O)[C@@H](O)Cc1ccc(O)c(Cl)c1)C(=O)N1[C@H](C(=O)NCCCCN=C(N)N)C[C@H]2CC[C@H](OS(=O)(=O)O)C[C@@H]21
REMARK SMILES IDX 22 1 36 2 46 3 35 4 23 5 45 6 37 7 39 8 38 9 20 10 21 11
REMARK SMILES IDX 5 12 6 13 7 14 8 15 9 17 11 18 12 19 17 20 19 21 15 22 14 23
REMARK SMILES IDX 13 24 18 25 16 26 10 28 3 30 4 31 2 32 1 33 24 34 25 35
REMARK SMILES IDX 26 36 27 38 28 39 29 40 30 41 31 42 32 43 33 44 34 45 40 50
REMARK SMILES IDX 41 51 42 52 43 53 44 54
REMARK H PARENT 6 16 16 27 10 29 26 37 33 46 33 47 34 48 34 49 44 55
ROOT
ATOM      1  N   UNL     1       9.614   8.536  15.214  1.00  0.00    -0.326 N 
ATOM      2  C   UNL     1      10.107  10.517  14.041  1.00  0.00     0.014 C 
ATOM      3  C   UNL     1       9.552   9.993  15.369  1.00  0.00     0.091 C 
ATOM      4  C   UNL     1       9.610   9.485  13.040  1.00  0.00     0.041 C 
ATOM      5  C   UNL     1       9.926   8.188  13.806  1.00  0.00     0.175 C 
ATOM      6  C   UNL     1      10.341  10.634  16.509  1.00  0.00     0.059 C 
ATOM      7  C   UNL     1       9.749  11.977  13.843  1.00  0.00     0.008 C 
ATOM      8  C   UNL     1      10.843  12.060  16.192  1.00  0.00     0.143 C 
ATOM      9  C   UNL     1       9.952  12.769  15.152  1.00  0.00     0.034 C 
ENDROOT
BRANCH   1  10
ATOM     10  C   UNL     1       9.227   7.534  16.088  1.00  0.00     0.246 C 
ATOM     11  O   UNL     1       9.989   7.210  17.005  1.00  0.00    -0.272 OA
BRANCH  10  12
ATOM     12  C   UNL     1       7.830   6.869  15.922  1.00  0.00     0.174 C 
BRANCH  12  13
ATOM     13  N   UNL     1       7.286   6.518  17.234  1.00  0.00    -0.342 N 
ATOM     14  C   UNL     1       6.577   7.371  18.049  1.00  0.00     0.249 C 
ATOM     15  O   UNL     1       6.296   8.525  17.749  1.00  0.00    -0.272 OA
ATOM     16  H   UNL     1       7.571   5.651  17.682  1.00  0.00     0.164 HD
BRANCH  14  17
ATOM     17  C   UNL     1       6.153   6.710  19.378  1.00  0.00     0.207 C 
BRANCH  17  18
ATOM     18  C   UNL     1       4.630   6.560  19.440  1.00  0.00     0.077 C 
BRANCH  18  19
ATOM     19  C   UNL     1       4.208   5.107  19.432  1.00  0.00    -0.043 A 
ATOM     20  C   UNL     1       4.002   2.984  18.277  1.00  0.00     0.083 A 
ATOM     21  C   UNL     1       4.437   4.310  18.300  1.00  0.00     0.028 A 
ATOM     22  C   UNL     1       3.337   2.448  19.381  1.00  0.00     0.134 A 
ATOM     23  C   UNL     1       3.104   3.227  20.508  1.00  0.00     0.048 A 
ATOM     24  C   UNL     1       3.536   4.555  20.533  1.00  0.00     0.008 A 
ATOM     25  Cl  UNL     1       4.292   2.020  16.877  1.00  0.00    -0.080 Cl
BRANCH  22  26
ATOM     26  O   UNL     1       2.883   1.157  19.401  1.00  0.00    -0.506 OA
ATOM     27  H   UNL     1       2.208   1.087  18.701  1.00  0.00     0.293 HD
ENDBRANCH  22  26
ENDBRANCH  18  19
ENDBRANCH  17  18
BRANCH  17  28
ATOM     28  O   UNL     1       6.602   7.480  20.505  1.00  0.00    -0.383 OA
ATOM     29  H   UNL     1       6.948   8.325  20.137  1.00  0.00     0.211 HD
ENDBRANCH  17  28
ENDBRANCH  14  17
ENDBRANCH  12  13
BRANCH  12  30
ATOM     30  C   UNL     1       7.852   5.661  14.948  1.00  0.00     0.018 C 
ATOM     31  C   UNL     1       6.742   4.657  15.296  1.00  0.00     0.010 C 
BRANCH  30  32
ATOM     32  C   UNL     1       9.220   4.939  14.884  1.00  0.00     0.002 C 
ATOM     33  C   UNL     1       9.466   3.911  15.981  1.00  0.00     0.004 C 
ENDBRANCH  30  32
ENDBRANCH  12  30
ENDBRANCH  10  12
ENDBRANCH   1  10
BRANCH   5  34
ATOM     34  C   UNL     1      11.418   7.785  13.658  1.00  0.00     0.242 C 
ATOM     35  O   UNL     1      12.268   8.090  14.494  1.00  0.00    -0.273 OA
ATOM     36  N   UNL     1      11.730   7.110  12.499  1.00  0.00    -0.354 N 
ATOM     37  H   UNL     1      11.005   6.992  11.789  1.00  0.00     0.163 HD
BRANCH  36  38
ATOM     38  C   UNL     1      13.015   6.475  12.296  1.00  0.00     0.116 C 
BRANCH  38  39
ATOM     39  C   UNL     1      13.036   5.114  12.988  1.00  0.00     0.023 C 
BRANCH  39  40
ATOM     40  C   UNL     1      11.836   4.250  12.611  1.00  0.00     0.026 C 
BRANCH  40  41
ATOM     41  C   UNL     1      12.105   3.484  11.316  1.00  0.00     0.146 C 
BRANCH  41  42
ATOM     42  N   UNL     1      11.838   2.066  11.518  1.00  0.00    -0.254 NA
ATOM     43  C   UNL     1      12.815   1.247  11.629  1.00  0.00     0.185 C 
ATOM     44  N   UNL     1      14.141   1.472  11.592  1.00  0.00    -0.370 N 
ATOM     45  N   UNL     1      12.547  -0.057  11.810  1.00  0.00    -0.370 N 
ATOM     46  H   UNL     1      14.786   0.714  11.447  1.00  0.00     0.159 HD
ATOM     47  H   UNL     1      14.520   2.406  11.475  1.00  0.00     0.159 HD
ATOM     48  H   UNL     1      11.570  -0.311  11.859  1.00  0.00     0.159 HD
ATOM     49  H   UNL     1      13.233  -0.712  12.138  1.00  0.00     0.159 HD
ENDBRANCH  41  42
ENDBRANCH  40  41
ENDBRANCH  39  40
ENDBRANCH  38  39
ENDBRANCH  36  38
ENDBRANCH   5  34
BRANCH   8  50
ATOM     50  O   UNL     1      12.177  12.009  15.688  1.00  0.00    -0.245 OA
BRANCH  50  51
ATOM     51  S   UNL     1      13.387  11.529  16.663  1.00  0.00     0.397 S 
ATOM     52  O   UNL     1      12.814  11.170  17.941  1.00  0.00    -0.169 OA
ATOM     53  O   UNL     1      14.493  12.457  16.560  1.00  0.00    -0.169 OA
BRANCH  51  54
ATOM     54  O   UNL     1      13.837  10.144  15.982  1.00  0.00    -0.264 OA
ATOM     55  H   UNL     1      13.479  10.129  15.071  1.00  0.00     0.236 HD
ENDBRANCH  51  54
ENDBRANCH  50  51
ENDBRANCH   8  50
TORSDOF 19
ENDMDL
MODEL 45
REMARK VINA RESULT:    -7.007     18.067     21.891
REMARK INTER + INTRA:         -16.767
REMARK INTER:                 -12.711
REMARK INTRA:                  -4.056
REMARK UNBOUND:                -2.592
REMARK SMILES CC[C@@H](C)[C@@H](NC(=O)[C@@H](O)Cc1ccc(O)c(Cl)c1)C(=O)N1[C@H](C(=O)NCCCCN=C(N)N)C[C@H]2CC[C@H](OS(=O)(=O)O)C[C@@H]21
REMARK SMILES IDX 22 1 36 2 46 3 35 4 23 5 45 6 37 7 39 8 38 9 20 10 21 11
REMARK SMILES IDX 5 12 6 13 7 14 8 15 9 17 11 18 12 19 17 20 19 21 15 22 14 23
REMARK SMILES IDX 13 24 18 25 16 26 10 28 3 30 4 31 2 32 1 33 24 34 25 35
REMARK SMILES IDX 26 36 27 38 28 39 29 40 30 41 31 42 32 43 33 44 34 45 40 50
REMARK SMILES IDX 41 51 42 52 43 53 44 54
REMARK H PARENT 6 16 16 27 10 29 26 37 33 46 33 47 34 48 34 49 44 55
ROOT
ATOM      1  N   UNL     1      11.348   5.177  14.163  1.00  0.00    -0.326 N 
ATOM      2  C   UNL     1       9.522   6.655  14.312  1.00  0.00     0.014 C 
ATOM      3  C   UNL     1       9.887   5.193  14.041  1.00  0.00     0.091 C 
ATOM      4  C   UNL     1      10.694   7.411  13.707  1.00  0.00     0.041 C 
ATOM      5  C   UNL     1      11.867   6.565  14.237  1.00  0.00     0.175 C 
ATOM      6  C   UNL     1       9.072   4.308  14.982  1.00  0.00     0.059 C 
ATOM      7  C   UNL     1       8.115   6.959  13.836  1.00  0.00     0.008 C 
ATOM      8  C   UNL     1       7.682   4.885  15.329  1.00  0.00     0.143 C 
ATOM      9  C   UNL     1       7.150   5.819  14.223  1.00  0.00     0.034 C 
ENDROOT
BRANCH   1  10
ATOM     10  C   UNL     1      12.241   4.131  14.003  1.00  0.00     0.246 C 
ATOM     11  O   UNL     1      11.846   2.972  14.172  1.00  0.00    -0.272 OA
BRANCH  10  12
ATOM     12  C   UNL     1      13.706   4.431  13.574  1.00  0.00     0.174 C 
BRANCH  12  13
ATOM     13  N   UNL     1      13.964   3.867  12.250  1.00  0.00    -0.342 N 
ATOM     14  C   UNL     1      13.797   4.537  11.059  1.00  0.00     0.249 C 
ATOM     15  O   UNL     1      13.436   5.705  10.978  1.00  0.00    -0.272 OA
ATOM     16  H   UNL     1      14.116   2.866  12.150  1.00  0.00     0.164 HD
BRANCH  14  17
ATOM     17  C   UNL     1      14.134   3.664   9.831  1.00  0.00     0.207 C 
BRANCH  17  18
ATOM     18  C   UNL     1      15.597   3.211   9.883  1.00  0.00     0.077 C 
BRANCH  18  19
ATOM     19  C   UNL     1      15.723   1.707   9.783  1.00  0.00    -0.043 A 
ATOM     20  C   UNL     1      15.877  -0.466  10.850  1.00  0.00     0.083 A 
ATOM     21  C   UNL     1      15.711   0.917  10.942  1.00  0.00     0.028 A 
ATOM     22  C   UNL     1      16.057  -1.065   9.603  1.00  0.00     0.134 A 
ATOM     23  C   UNL     1      16.071  -0.295   8.447  1.00  0.00     0.048 A 
ATOM     24  C   UNL     1      15.907   1.090   8.536  1.00  0.00     0.008 A 
ATOM     25  Cl  UNL     1      15.860  -1.420  12.286  1.00  0.00    -0.080 Cl
BRANCH  22  26
ATOM     26  O   UNL     1      16.234  -2.415   9.464  1.00  0.00    -0.506 OA
ATOM     27  H   UNL     1      17.175  -2.595   9.648  1.00  0.00     0.293 HD
ENDBRANCH  22  26
ENDBRANCH  18  19
ENDBRANCH  17  18
BRANCH  17  28
ATOM     28  O   UNL     1      13.900   4.379   8.607  1.00  0.00    -0.383 OA
ATOM     29  H   UNL     1      14.618   5.050   8.543  1.00  0.00     0.211 HD
ENDBRANCH  17  28
ENDBRANCH  14  17
ENDBRANCH  12  13
BRANCH  12  30
ATOM     30  C   UNL     1      14.747   3.968  14.628  1.00  0.00     0.018 C 
ATOM     31  C   UNL     1      15.459   5.174  15.260  1.00  0.00     0.010 C 
BRANCH  30  32
ATOM     32  C   UNL     1      15.789   2.966  14.074  1.00  0.00     0.002 C 
ATOM     33  C   UNL     1      17.178   3.540  13.829  1.00  0.00     0.004 C 
ENDBRANCH  30  32
ENDBRANCH  12  30
ENDBRANCH  10  12
ENDBRANCH   1  10
BRANCH   5  34
ATOM     34  C   UNL     1      12.228   6.940  15.699  1.00  0.00     0.242 C 
ATOM     35  O   UNL     1      11.978   6.199  16.649  1.00  0.00    -0.273 OA
ATOM     36  N   UNL     1      12.799   8.183  15.860  1.00  0.00    -0.354 N 
ATOM     37  H   UNL     1      12.871   8.800  15.050  1.00  0.00     0.163 HD
BRANCH  36  38
ATOM     38  C   UNL     1      13.392   8.604  17.113  1.00  0.00     0.116 C 
BRANCH  38  39
ATOM     39  C   UNL     1      14.891   8.828  16.927  1.00  0.00     0.023 C 
BRANCH  39  40
ATOM     40  C   UNL     1      15.195   9.984  15.981  1.00  0.00     0.026 C 
BRANCH  40  41
ATOM     41  C   UNL     1      15.723   9.465  14.643  1.00  0.00     0.146 C 
BRANCH  41  42
ATOM     42  N   UNL     1      14.653   9.472  13.655  1.00  0.00    -0.254 NA
ATOM     43  C   UNL     1      14.628   8.575  12.742  1.00  0.00     0.185 C 
ATOM     44  N   UNL     1      15.471   7.552  12.511  1.00  0.00    -0.370 N 
ATOM     45  N   UNL     1      13.635   8.602  11.838  1.00  0.00    -0.370 N 
ATOM     46  H   UNL     1      15.471   7.078  11.624  1.00  0.00     0.159 HD
ATOM     47  H   UNL     1      16.272   7.376  13.110  1.00  0.00     0.159 HD
ATOM     48  H   UNL     1      12.950   9.338  11.945  1.00  0.00     0.159 HD
ATOM     49  H   UNL     1      13.413   7.817  11.251  1.00  0.00     0.159 HD
ENDBRANCH  41  42
ENDBRANCH  40  41
ENDBRANCH  39  40
ENDBRANCH  38  39
ENDBRANCH  36  38
ENDBRANCH   5  34
BRANCH   8  50
ATOM     50  O   UNL     1       7.748   5.620  16.551  1.00  0.00    -0.245 OA
BRANCH  50  51
ATOM     51  S   UNL     1       6.604   5.396  17.685  1.00  0.00     0.397 S 
ATOM     52  O   UNL     1       7.133   5.855  18.950  1.00  0.00    -0.169 OA
ATOM     53  O   UNL     1       6.025   4.077  17.538  1.00  0.00    -0.169 OA
BRANCH  51  54
ATOM     54  O   UNL     1       5.492   6.476  17.258  1.00  0.00    -0.264 OA
ATOM     55  H   UNL     1       5.382   6.423  16.287  1.00  0.00     0.236 HD
ENDBRANCH  51  54
ENDBRANCH  50  51
ENDBRANCH   8  50
TORSDOF 19
ENDMDL
MODEL 46
REMARK VINA RESULT:    -7.006      4.933      9.779
REMARK INTER + INTRA:         -16.766
REMARK INTER:                 -13.277
REMARK INTRA:                  -3.489
REMARK UNBOUND:                -2.592
REMARK SMILES CC[C@@H](C)[C@@H](NC(=O)[C@@H](O)Cc1ccc(O)c(Cl)c1)C(=O)N1[C@H](C(=O)NCCCCN=C(N)N)C[C@H]2CC[C@H](OS(=O)(=O)O)C[C@@H]21
REMARK SMILES IDX 22 1 36 2 46 3 35 4 23 5 45 6 37 7 39 8 38 9 20 10 21 11
REMARK SMILES IDX 5 12 6 13 7 14 8 15 9 17 11 18 12 19 17 20 19 21 15 22 14 23
REMARK SMILES IDX 13 24 18 25 16 26 10 28 3 30 4 31 2 32 1 33 24 34 25 35
REMARK SMILES IDX 26 36 27 38 28 39 29 40 30 41 31 42 32 43 33 44 34 45 40 50
REMARK SMILES IDX 41 51 42 52 43 53 44 54
REMARK H PARENT 6 16 16 27 10 29 26 37 33 46 33 47 34 48 34 49 44 55
ROOT
ATOM      1  N   UNL     1       2.300 -12.711  11.936  1.00  0.00    -0.326 N 
ATOM      2  C   UNL     1       0.575 -14.106  12.725  1.00  0.00     0.014 C 
ATOM      3  C   UNL     1       1.305 -12.791  13.010  1.00  0.00     0.091 C 
ATOM      4  C   UNL     1       1.681 -14.990  12.169  1.00  0.00     0.041 C 
ATOM      5  C   UNL     1       2.361 -14.000  11.204  1.00  0.00     0.175 C 
ATOM      6  C   UNL     1       0.267 -11.675  13.120  1.00  0.00     0.059 C 
ATOM      7  C   UNL     1      -0.206 -14.567  13.940  1.00  0.00     0.008 C 
ATOM      8  C   UNL     1      -1.090 -12.144  13.688  1.00  0.00     0.143 C 
ATOM      9  C   UNL     1      -0.942 -13.381  14.597  1.00  0.00     0.034 C 
ENDROOT
BRANCH   1  10
ATOM     10  C   UNL     1       3.262 -11.748  11.688  1.00  0.00     0.246 C 
ATOM     11  O   UNL     1       4.423 -11.946  12.063  1.00  0.00    -0.272 OA
BRANCH  10  12
ATOM     12  C   UNL     1       2.874 -10.460  10.905  1.00  0.00     0.174 C 
BRANCH  12  13
ATOM     13  N   UNL     1       3.940 -10.105   9.968  1.00  0.00    -0.342 N 
ATOM     14  C   UNL     1       4.022 -10.540   8.664  1.00  0.00     0.249 C 
ATOM     15  O   UNL     1       3.186 -11.259   8.131  1.00  0.00    -0.272 OA
ATOM     16  H   UNL     1       4.780  -9.647  10.311  1.00  0.00     0.164 HD
BRANCH  14  17
ATOM     17  C   UNL     1       5.274 -10.006   7.937  1.00  0.00     0.207 C 
BRANCH  17  18
ATOM     18  C   UNL     1       6.531 -10.268   8.772  1.00  0.00     0.077 C 
BRANCH  18  19
ATOM     19  C   UNL     1       7.467 -11.240   8.090  1.00  0.00    -0.043 A 
ATOM     20  C   UNL     1       7.928 -12.812   6.301  1.00  0.00     0.083 A 
ATOM     21  C   UNL     1       7.082 -11.878   6.901  1.00  0.00     0.028 A 
ATOM     22  C   UNL     1       9.159 -13.114   6.883  1.00  0.00     0.134 A 
ATOM     23  C   UNL     1       9.553 -12.489   8.060  1.00  0.00     0.048 A 
ATOM     24  C   UNL     1       8.708 -11.556   8.665  1.00  0.00     0.008 A 
ATOM     25  Cl  UNL     1       7.436 -13.586   4.840  1.00  0.00    -0.080 Cl
BRANCH  22  26
ATOM     26  O   UNL     1      10.017 -14.030   6.337  1.00  0.00    -0.506 OA
ATOM     27  H   UNL     1       9.819 -14.066   5.383  1.00  0.00     0.293 HD
ENDBRANCH  22  26
ENDBRANCH  18  19
ENDBRANCH  17  18
BRANCH  17  28
ATOM     28  O   UNL     1       5.160  -8.598   7.675  1.00  0.00    -0.383 OA
ATOM     29  H   UNL     1       5.546  -8.144   8.458  1.00  0.00     0.211 HD
ENDBRANCH  17  28
ENDBRANCH  14  17
ENDBRANCH  12  13
BRANCH  12  30
ATOM     30  C   UNL     1       2.493  -9.282  11.841  1.00  0.00     0.018 C 
ATOM     31  C   UNL     1       1.116  -8.710  11.466  1.00  0.00     0.010 C 
BRANCH  30  32
ATOM     32  C   UNL     1       3.547  -8.149  11.877  1.00  0.00     0.002 C 
ATOM     33  C   UNL     1       4.748  -8.405  12.778  1.00  0.00     0.004 C 
ENDBRANCH  30  32
ENDBRANCH  12  30
ENDBRANCH  10  12
ENDBRANCH   1  10
BRANCH   5  34
ATOM     34  C   UNL     1       1.600 -13.903   9.855  1.00  0.00     0.242 C 
ATOM     35  O   UNL     1       0.862 -12.957   9.582  1.00  0.00    -0.273 OA
ATOM     36  N   UNL     1       1.769 -14.977   9.009  1.00  0.00    -0.354 N 
ATOM     37  H   UNL     1       2.296 -15.785   9.340  1.00  0.00     0.163 HD
BRANCH  36  38
ATOM     38  C   UNL     1       1.313 -14.957   7.634  1.00  0.00     0.116 C 
BRANCH  38  39
ATOM     39  C   UNL     1       2.361 -14.285   6.751  1.00  0.00     0.023 C 
BRANCH  39  40
ATOM     40  C   UNL     1       1.736 -13.467   5.625  1.00  0.00     0.026 C 
BRANCH  40  41
ATOM     41  C   UNL     1       0.211 -13.465   5.739  1.00  0.00     0.146 C 
BRANCH  41  42
ATOM     42  N   UNL     1      -0.312 -12.171   5.319  1.00  0.00    -0.254 NA
ATOM     43  C   UNL     1      -0.275 -11.181   6.129  1.00  0.00     0.185 C 
ATOM     44  N   UNL     1       0.193 -11.110   7.388  1.00  0.00    -0.370 N 
ATOM     45  N   UNL     1      -0.767  -9.998   5.724  1.00  0.00    -0.370 N 
ATOM     46  H   UNL     1      -0.063 -10.343   7.988  1.00  0.00     0.159 HD
ATOM     47  H   UNL     1       0.612 -11.912   7.847  1.00  0.00     0.159 HD
ATOM     48  H   UNL     1      -1.132  -9.963   4.782  1.00  0.00     0.159 HD
ATOM     49  H   UNL     1      -0.564  -9.135   6.196  1.00  0.00     0.159 HD
ENDBRANCH  41  42
ENDBRANCH  40  41
ENDBRANCH  39  40
ENDBRANCH  38  39
ENDBRANCH  36  38
ENDBRANCH   5  34
BRANCH   8  50
ATOM     50  O   UNL     1      -1.982 -12.468  12.621  1.00  0.00    -0.245 OA
BRANCH  50  51
ATOM     51  S   UNL     1      -3.539 -12.006  12.707  1.00  0.00     0.397 S 
ATOM     52  O   UNL     1      -3.598 -10.776  13.465  1.00  0.00    -0.169 OA
ATOM     53  O   UNL     1      -4.367 -13.145  13.042  1.00  0.00    -0.169 OA
BRANCH  51  54
ATOM     54  O   UNL     1      -3.852 -11.596  11.184  1.00  0.00    -0.264 OA
ATOM     55  H   UNL     1      -3.840 -10.619  11.129  1.00  0.00     0.236 HD
ENDBRANCH  51  54
ENDBRANCH  50  51
ENDBRANCH   8  50
TORSDOF 19
ENDMDL
MODEL 47
REMARK VINA RESULT:    -6.956     18.500     22.207
REMARK INTER + INTRA:         -16.664
REMARK INTER:                 -11.907
REMARK INTRA:                  -4.757
REMARK UNBOUND:                -2.592
REMARK SMILES CC[C@@H](C)[C@@H](NC(=O)[C@@H](O)Cc1ccc(O)c(Cl)c1)C(=O)N1[C@H](C(=O)NCCCCN=C(N)N)C[C@H]2CC[C@H](OS(=O)(=O)O)C[C@@H]21
REMARK SMILES IDX 22 1 36 2 46 3 35 4 23 5 45 6 37 7 39 8 38 9 20 10 21 11
REMARK SMILES IDX 5 12 6 13 7 14 8 15 9 17 11 18 12 19 17 20 19 21 15 22 14 23
REMARK SMILES IDX 13 24 18 25 16 26 10 28 3 30 4 31 2 32 1 33 24 34 25 35
REMARK SMILES IDX 26 36 27 38 28 39 29 40 30 41 31 42 32 43 33 44 34 45 40 50
REMARK SMILES IDX 41 51 42 52 43 53 44 54
REMARK H PARENT 6 16 16 27 10 29 26 37 33 46 33 47 34 48 34 49 44 55
ROOT
ATOM      1  N   UNL     1      13.793   6.993  16.430  1.00  0.00    -0.326 N 
ATOM      2  C   UNL     1      15.260   8.765  16.926  1.00  0.00     0.014 C 
ATOM      3  C   UNL     1      14.799   7.846  15.792  1.00  0.00     0.091 C 
ATOM      4  C   UNL     1      15.186   7.857  18.144  1.00  0.00     0.041 C 
ATOM      5  C   UNL     1      13.821   7.186  17.900  1.00  0.00     0.175 C 
ATOM      6  C   UNL     1      14.369   8.714  14.611  1.00  0.00     0.059 C 
ATOM      7  C   UNL     1      16.574   9.438  16.580  1.00  0.00     0.008 C 
ATOM      8  C   UNL     1      15.157  10.037  14.493  1.00  0.00     0.143 C 
ATOM      9  C   UNL     1      16.563   9.932  15.118  1.00  0.00     0.034 C 
ENDROOT
BRANCH   1  10
ATOM     10  C   UNL     1      13.043   5.956  15.900  1.00  0.00     0.246 C 
ATOM     11  O   UNL     1      12.573   5.104  16.661  1.00  0.00    -0.272 OA
BRANCH  10  12
ATOM     12  C   UNL     1      12.773   5.910  14.368  1.00  0.00     0.174 C 
BRANCH  12  13
ATOM     13  N   UNL     1      11.333   5.963  14.114  1.00  0.00    -0.342 N 
ATOM     14  C   UNL     1      10.575   7.112  14.100  1.00  0.00     0.249 C 
ATOM     15  O   UNL     1      11.034   8.234  14.274  1.00  0.00    -0.272 OA
ATOM     16  H   UNL     1      10.791   5.103  14.107  1.00  0.00     0.164 HD
BRANCH  14  17
ATOM     17  C   UNL     1       9.082   6.837  13.819  1.00  0.00     0.207 C 
BRANCH  17  18
ATOM     18  C   UNL     1       8.822   5.330  13.733  1.00  0.00     0.077 C 
BRANCH  18  19
ATOM     19  C   UNL     1       7.868   4.862  14.808  1.00  0.00    -0.043 A 
ATOM     20  C   UNL     1       7.017   5.010  17.075  1.00  0.00     0.083 A 
ATOM     21  C   UNL     1       7.865   5.477  16.069  1.00  0.00     0.028 A 
ATOM     22  C   UNL     1       6.172   3.928  16.829  1.00  0.00     0.134 A 
ATOM     23  C   UNL     1       6.164   3.309  15.584  1.00  0.00     0.048 A 
ATOM     24  C   UNL     1       7.013   3.773  14.576  1.00  0.00     0.008 A 
ATOM     25  Cl  UNL     1       7.028   5.779  18.618  1.00  0.00    -0.080 Cl
BRANCH  22  26
ATOM     26  O   UNL     1       5.331   3.428  17.786  1.00  0.00    -0.506 OA
ATOM     27  H   UNL     1       5.523   2.475  17.858  1.00  0.00     0.293 HD
ENDBRANCH  22  26
ENDBRANCH  18  19
ENDBRANCH  17  18
BRANCH  17  28
ATOM     28  O   UNL     1       8.662   7.465  12.597  1.00  0.00    -0.383 OA
ATOM     29  H   UNL     1       7.689   7.593  12.678  1.00  0.00     0.211 HD
ENDBRANCH  17  28
ENDBRANCH  14  17
ENDBRANCH  12  13
BRANCH  12  30
ATOM     30  C   UNL     1      13.453   4.699  13.675  1.00  0.00     0.018 C 
ATOM     31  C   UNL     1      14.945   4.974  13.435  1.00  0.00     0.010 C 
BRANCH  30  32
ATOM     32  C   UNL     1      12.770   4.276  12.351  1.00  0.00     0.002 C 
ATOM     33  C   UNL     1      13.577   4.543  11.088  1.00  0.00     0.004 C 
ENDBRANCH  30  32
ENDBRANCH  12  30
ENDBRANCH  10  12
ENDBRANCH   1  10
BRANCH   5  34
ATOM     34  C   UNL     1      12.648   8.092  18.359  1.00  0.00     0.242 C 
ATOM     35  O   UNL     1      12.600   8.586  19.486  1.00  0.00    -0.273 OA
ATOM     36  N   UNL     1      11.641   8.259  17.435  1.00  0.00    -0.354 N 
ATOM     37  H   UNL     1      11.680   7.728  16.565  1.00  0.00     0.163 HD
BRANCH  36  38
ATOM     38  C   UNL     1      10.585   9.234  17.610  1.00  0.00     0.116 C 
BRANCH  38  39
ATOM     39  C   UNL     1       9.224   8.546  17.532  1.00  0.00     0.023 C 
BRANCH  39  40
ATOM     40  C   UNL     1       8.108   9.504  17.130  1.00  0.00     0.026 C 
BRANCH  40  41
ATOM     41  C   UNL     1       8.069   9.684  15.612  1.00  0.00     0.146 C 
BRANCH  41  42
ATOM     42  N   UNL     1       8.452  11.046  15.268  1.00  0.00    -0.254 NA
ATOM     43  C   UNL     1       8.977  11.287  14.125  1.00  0.00     0.185 C 
ATOM     44  N   UNL     1       9.259  10.451  13.109  1.00  0.00    -0.370 N 
ATOM     45  N   UNL     1       9.327  12.549  13.829  1.00  0.00    -0.370 N 
ATOM     46  H   UNL     1       9.889  10.729  12.376  1.00  0.00     0.159 HD
ATOM     47  H   UNL     1       9.047   9.459  13.160  1.00  0.00     0.159 HD
ATOM     48  H   UNL     1       9.140  13.245  14.538  1.00  0.00     0.159 HD
ATOM     49  H   UNL     1       9.517  12.855  12.891  1.00  0.00     0.159 HD
ENDBRANCH  41  42
ENDBRANCH  40  41
ENDBRANCH  39  40
ENDBRANCH  38  39
ENDBRANCH  36  38
ENDBRANCH   5  34
BRANCH   8  50
ATOM     50  O   UNL     1      14.448  11.090  15.147  1.00  0.00    -0.245 OA
BRANCH  50  51
ATOM     51  S   UNL     1      13.497  12.080  14.276  1.00  0.00     0.397 S 
ATOM     52  O   UNL     1      14.132  12.295  12.995  1.00  0.00    -0.169 OA
ATOM     53  O   UNL     1      13.060  13.186  15.102  1.00  0.00    -0.169 OA
BRANCH  51  54
ATOM     54  O   UNL     1      12.221  11.147  13.981  1.00  0.00    -0.264 OA
ATOM     55  H   UNL     1      12.421  10.611  13.186  1.00  0.00     0.236 HD
ENDBRANCH  51  54
ENDBRANCH  50  51
ENDBRANCH   8  50
TORSDOF 19
ENDMDL
MODEL 48
REMARK VINA RESULT:    -6.914     17.093     21.065
REMARK INTER + INTRA:         -16.580
REMARK INTER:                 -13.534
REMARK INTRA:                  -3.047
REMARK UNBOUND:                -2.592
REMARK SMILES CC[C@@H](C)[C@@H](NC(=O)[C@@H](O)Cc1ccc(O)c(Cl)c1)C(=O)N1[C@H](C(=O)NCCCCN=C(N)N)C[C@H]2CC[C@H](OS(=O)(=O)O)C[C@@H]21
REMARK SMILES IDX 22 1 36 2 46 3 35 4 23 5 45 6 37 7 39 8 38 9 20 10 21 11
REMARK SMILES IDX 5 12 6 13 7 14 8 15 9 17 11 18 12 19 17 20 19 21 15 22 14 23
REMARK SMILES IDX 13 24 18 25 16 26 10 28 3 30 4 31 2 32 1 33 24 34 25 35
REMARK SMILES IDX 26 36 27 38 28 39 29 40 30 41 31 42 32 43 33 44 34 45 40 50
REMARK SMILES IDX 41 51 42 52 43 53 44 54
REMARK H PARENT 6 16 16 27 10 29 26 37 33 46 33 47 34 48 34 49 44 55
ROOT
ATOM      1  N   UNL     1      10.157   5.361  15.308  1.00  0.00    -0.326 N 
ATOM      2  C   UNL     1       7.984   4.693  14.695  1.00  0.00     0.014 C 
ATOM      3  C   UNL     1       9.078   4.468  15.742  1.00  0.00     0.091 C 
ATOM      4  C   UNL     1       8.783   4.932  13.422  1.00  0.00     0.041 C 
ATOM      5  C   UNL     1       9.862   5.892  13.955  1.00  0.00     0.175 C 
ATOM      6  C   UNL     1       8.472   4.684  17.128  1.00  0.00     0.059 C 
ATOM      7  C   UNL     1       6.961   3.575  14.731  1.00  0.00     0.008 C 
ATOM      8  C   UNL     1       6.981   4.294  17.221  1.00  0.00     0.143 C 
ATOM      9  C   UNL     1       6.598   3.216  16.187  1.00  0.00     0.034 C 
ENDROOT
BRANCH   1  10
ATOM     10  C   UNL     1      11.410   5.572  15.858  1.00  0.00     0.246 C 
ATOM     11  O   UNL     1      11.636   6.632  16.451  1.00  0.00    -0.272 OA
BRANCH  10  12
ATOM     12  C   UNL     1      12.490   4.456  15.756  1.00  0.00     0.174 C 
BRANCH  12  13
ATOM     13  N   UNL     1      12.421   3.813  14.445  1.00  0.00    -0.342 N 
ATOM     14  C   UNL     1      13.060   4.261  13.310  1.00  0.00     0.249 C 
ATOM     15  O   UNL     1      13.789   5.244  13.282  1.00  0.00    -0.272 OA
ATOM     16  H   UNL     1      11.734   3.082  14.277  1.00  0.00     0.164 HD
BRANCH  14  17
ATOM     17  C   UNL     1      12.776   3.376  12.078  1.00  0.00     0.207 C 
BRANCH  17  18
ATOM     18  C   UNL     1      13.895   3.526  11.042  1.00  0.00     0.077 C 
BRANCH  18  19
ATOM     19  C   UNL     1      14.441   2.186  10.605  1.00  0.00    -0.043 A 
ATOM     20  C   UNL     1      14.570  -0.221  10.876  1.00  0.00     0.083 A 
ATOM     21  C   UNL     1      14.027   1.009  11.249  1.00  0.00     0.028 A 
ATOM     22  C   UNL     1      15.527  -0.284   9.863  1.00  0.00     0.134 A 
ATOM     23  C   UNL     1      15.946   0.873   9.218  1.00  0.00     0.048 A 
ATOM     24  C   UNL     1      15.406   2.106   9.589  1.00  0.00     0.008 A 
ATOM     25  Cl  UNL     1      14.049  -1.656  11.679  1.00  0.00    -0.080 Cl
BRANCH  22  26
ATOM     26  O   UNL     1      16.096  -1.466   9.471  1.00  0.00    -0.506 OA
ATOM     27  H   UNL     1      15.842  -2.133  10.136  1.00  0.00     0.293 HD
ENDBRANCH  22  26
ENDBRANCH  18  19
ENDBRANCH  17  18
BRANCH  17  28
ATOM     28  O   UNL     1      11.518   3.717  11.475  1.00  0.00    -0.383 OA
ATOM     29  H   UNL     1      11.383   3.071  10.744  1.00  0.00     0.211 HD
ENDBRANCH  17  28
ENDBRANCH  14  17
ENDBRANCH  12  13
BRANCH  12  30
ATOM     30  C   UNL     1      12.408   3.434  16.922  1.00  0.00     0.018 C 
ATOM     31  C   UNL     1      13.432   3.770  18.017  1.00  0.00     0.010 C 
BRANCH  30  32
ATOM     32  C   UNL     1      12.576   1.962  16.471  1.00  0.00     0.002 C 
ATOM     33  C   UNL     1      13.778   1.234  17.058  1.00  0.00     0.004 C 
ENDBRANCH  30  32
ENDBRANCH  12  30
ENDBRANCH  10  12
ENDBRANCH   1  10
BRANCH   5  34
ATOM     34  C   UNL     1       9.338   7.351  14.039  1.00  0.00     0.242 C 
ATOM     35  O   UNL     1       8.620   7.740  14.959  1.00  0.00    -0.273 OA
ATOM     36  N   UNL     1       9.691   8.162  12.983  1.00  0.00    -0.354 N 
ATOM     37  H   UNL     1      10.186   7.750  12.191  1.00  0.00     0.163 HD
BRANCH  36  38
ATOM     38  C   UNL     1       9.474   9.593  13.001  1.00  0.00     0.116 C 
BRANCH  38  39
ATOM     39  C   UNL     1      10.636  10.284  13.712  1.00  0.00     0.023 C 
BRANCH  39  40
ATOM     40  C   UNL     1      10.203  11.554  14.438  1.00  0.00     0.026 C 
BRANCH  40  41
ATOM     41  C   UNL     1      10.477  11.442  15.937  1.00  0.00     0.146 C 
BRANCH  41  42
ATOM     42  N   UNL     1       9.810  10.263  16.474  1.00  0.00    -0.254 NA
ATOM     43  C   UNL     1      10.302   9.666  17.493  1.00  0.00     0.185 C 
ATOM     44  N   UNL     1      11.403   9.948  18.214  1.00  0.00    -0.370 N 
ATOM     45  N   UNL     1       9.674   8.579  17.970  1.00  0.00    -0.370 N 
ATOM     46  H   UNL     1      11.803   9.261  18.829  1.00  0.00     0.159 HD
ATOM     47  H   UNL     1      11.990  10.748  17.998  1.00  0.00     0.159 HD
ATOM     48  H   UNL     1       8.829   8.302  17.489  1.00  0.00     0.159 HD
ATOM     49  H   UNL     1       9.853   8.204  18.884  1.00  0.00     0.159 HD
ENDBRANCH  41  42
ENDBRANCH  40  41
ENDBRANCH  39  40
ENDBRANCH  38  39
ENDBRANCH  36  38
ENDBRANCH   5  34
BRANCH   8  50
ATOM     50  O   UNL     1       6.160   5.442  17.005  1.00  0.00    -0.245 OA
BRANCH  50  51
ATOM     51  S   UNL     1       5.191   5.973  18.199  1.00  0.00     0.397 S 
ATOM     52  O   UNL     1       5.097   7.412  18.090  1.00  0.00    -0.169 OA
ATOM     53  O   UNL     1       5.554   5.327  19.443  1.00  0.00    -0.169 OA
BRANCH  51  54
ATOM     54  O   UNL     1       3.757   5.405  17.745  1.00  0.00    -0.264 OA
ATOM     55  H   UNL     1       3.287   5.104  18.550  1.00  0.00     0.236 HD
ENDBRANCH  51  54
ENDBRANCH  50  51
ENDBRANCH   8  50
TORSDOF 19
ENDMDL
MODEL 49
REMARK VINA RESULT:    -6.914     15.773     19.624
REMARK INTER + INTRA:         -16.580
REMARK INTER:                 -14.073
REMARK INTRA:                  -2.507
REMARK UNBOUND:                -2.592
REMARK SMILES CC[C@@H](C)[C@@H](NC(=O)[C@@H](O)Cc1ccc(O)c(Cl)c1)C(=O)N1[C@H](C(=O)NCCCCN=C(N)N)C[C@H]2CC[C@H](OS(=O)(=O)O)C[C@@H]21
REMARK SMILES IDX 22 1 36 2 46 3 35 4 23 5 45 6 37 7 39 8 38 9 20 10 21 11
REMARK SMILES IDX 5 12 6 13 7 14 8 15 9 17 11 18 12 19 17 20 19 21 15 22 14 23
REMARK SMILES IDX 13 24 18 25 16 26 10 28 3 30 4 31 2 32 1 33 24 34 25 35
REMARK SMILES IDX 26 36 27 38 28 39 29 40 30 41 31 42 32 43 33 44 34 45 40 50
REMARK SMILES IDX 41 51 42 52 43 53 44 54
REMARK H PARENT 6 16 16 27 10 29 26 37 33 46 33 47 34 48 34 49 44 55
ROOT
ATOM      1  N   UNL     1      12.709   4.184  15.215  1.00  0.00    -0.326 N 
ATOM      2  C   UNL     1      13.763   5.947  14.066  1.00  0.00     0.014 C 
ATOM      3  C   UNL     1      13.935   4.480  14.469  1.00  0.00     0.091 C 
ATOM      4  C   UNL     1      13.017   6.535  15.253  1.00  0.00     0.041 C 
ATOM      5  C   UNL     1      11.962   5.437  15.484  1.00  0.00     0.175 C 
ATOM      6  C   UNL     1      14.233   3.665  13.211  1.00  0.00     0.059 C 
ATOM      7  C   UNL     1      15.087   6.553  13.645  1.00  0.00     0.008 C 
ATOM      8  C   UNL     1      15.017   4.447  12.136  1.00  0.00     0.143 C 
ATOM      9  C   UNL     1      15.873   5.574  12.748  1.00  0.00     0.034 C 
ENDROOT
BRANCH   1  10
ATOM     10  C   UNL     1      12.311   3.014  15.841  1.00  0.00     0.246 C 
ATOM     11  O   UNL     1      11.105   2.772  15.951  1.00  0.00    -0.272 OA
BRANCH  10  12
ATOM     12  C   UNL     1      13.388   2.013  16.351  1.00  0.00     0.174 C 
BRANCH  12  13
ATOM     13  N   UNL     1      13.272   0.746  15.630  1.00  0.00    -0.342 N 
ATOM     14  C   UNL     1      14.267   0.175  14.869  1.00  0.00     0.249 C 
ATOM     15  O   UNL     1      15.384   0.660  14.733  1.00  0.00    -0.272 OA
ATOM     16  H   UNL     1      12.359   0.310  15.522  1.00  0.00     0.164 HD
BRANCH  14  17
ATOM     17  C   UNL     1      13.832  -1.156  14.220  1.00  0.00     0.207 C 
BRANCH  17  18
ATOM     18  C   UNL     1      13.382  -0.924  12.773  1.00  0.00     0.077 C 
BRANCH  18  19
ATOM     19  C   UNL     1      14.459  -1.306  11.782  1.00  0.00    -0.043 A 
ATOM     20  C   UNL     1      15.661  -0.886   9.718  1.00  0.00     0.083 A 
ATOM     21  C   UNL     1      14.701  -0.505  10.656  1.00  0.00     0.028 A 
ATOM     22  C   UNL     1      16.383  -2.067   9.897  1.00  0.00     0.134 A 
ATOM     23  C   UNL     1      16.153  -2.870  11.009  1.00  0.00     0.048 A 
ATOM     24  C   UNL     1      15.192  -2.492  11.948  1.00  0.00     0.008 A 
ATOM     25  Cl  UNL     1      15.944   0.112   8.340  1.00  0.00    -0.080 Cl
BRANCH  22  26
ATOM     26  O   UNL     1      17.326  -2.487   9.000  1.00  0.00    -0.506 OA
ATOM     27  H   UNL     1      17.054  -2.147   8.127  1.00  0.00     0.293 HD
ENDBRANCH  22  26
ENDBRANCH  18  19
ENDBRANCH  17  18
BRANCH  17  28
ATOM     28  O   UNL     1      12.762  -1.767  14.959  1.00  0.00    -0.383 OA
ATOM     29  H   UNL     1      13.177  -2.164  15.758  1.00  0.00     0.211 HD
ENDBRANCH  17  28
ENDBRANCH  14  17
ENDBRANCH  12  13
BRANCH  12  30
ATOM     30  C   UNL     1      13.349   1.824  17.891  1.00  0.00     0.018 C 
ATOM     31  C   UNL     1      13.504   3.173  18.611  1.00  0.00     0.010 C 
BRANCH  30  32
ATOM     32  C   UNL     1      14.398   0.815  18.420  1.00  0.00     0.002 C 
ATOM     33  C   UNL     1      15.836   1.316  18.430  1.00  0.00     0.004 C 
ENDBRANCH  30  32
ENDBRANCH  12  30
ENDBRANCH  10  12
ENDBRANCH   1  10
BRANCH   5  34
ATOM     34  C   UNL     1      10.763   5.583  14.510  1.00  0.00     0.242 C 
ATOM     35  O   UNL     1      10.799   6.324  13.528  1.00  0.00    -0.273 OA
ATOM     36  N   UNL     1       9.639   4.866  14.853  1.00  0.00    -0.354 N 
ATOM     37  H   UNL     1       9.629   4.364  15.742  1.00  0.00     0.163 HD
BRANCH  36  38
ATOM     38  C   UNL     1       8.513   4.714  13.955  1.00  0.00     0.116 C 
BRANCH  38  39
ATOM     39  C   UNL     1       7.272   5.360  14.565  1.00  0.00     0.023 C 
BRANCH  39  40
ATOM     40  C   UNL     1       6.920   4.775  15.928  1.00  0.00     0.026 C 
BRANCH  40  41
ATOM     41  C   UNL     1       6.398   3.345  15.785  1.00  0.00     0.146 C 
BRANCH  41  42
ATOM     42  N   UNL     1       5.077   3.240  16.389  1.00  0.00    -0.254 NA
ATOM     43  C   UNL     1       4.940   2.649  17.516  1.00  0.00     0.185 C 
ATOM     44  N   UNL     1       5.861   2.064  18.304  1.00  0.00    -0.370 N 
ATOM     45  N   UNL     1       3.713   2.559  18.054  1.00  0.00    -0.370 N 
ATOM     46  H   UNL     1       5.584   1.430  19.033  1.00  0.00     0.159 HD
ATOM     47  H   UNL     1       6.846   2.052  18.054  1.00  0.00     0.159 HD
ATOM     48  H   UNL     1       2.961   2.983  17.527  1.00  0.00     0.159 HD
ATOM     49  H   UNL     1       3.557   2.331  19.020  1.00  0.00     0.159 HD
ENDBRANCH  41  42
ENDBRANCH  40  41
ENDBRANCH  39  40
ENDBRANCH  38  39
ENDBRANCH  36  38
ENDBRANCH   5  34
BRANCH   8  50
ATOM     50  O   UNL     1      14.114   5.025  11.193  1.00  0.00    -0.245 OA
BRANCH  50  51
ATOM     51  S   UNL     1      13.534   4.115   9.976  1.00  0.00     0.397 S 
ATOM     52  O   UNL     1      14.197   2.831  10.022  1.00  0.00    -0.169 OA
ATOM     53  O   UNL     1      13.485   4.902   8.761  1.00  0.00    -0.169 OA
BRANCH  51  54
ATOM     54  O   UNL     1      12.022   3.844  10.451  1.00  0.00    -0.264 OA
ATOM     55  H   UNL     1      11.774   4.554  11.078  1.00  0.00     0.236 HD
ENDBRANCH  51  54
ENDBRANCH  50  51
ENDBRANCH   8  50
TORSDOF 19
ENDMDL
MODEL 50
REMARK VINA RESULT:    -6.867     17.172     21.720
REMARK INTER + INTRA:         -16.485
REMARK INTER:                 -13.447
REMARK INTRA:                  -3.039
REMARK UNBOUND:                -2.592
REMARK SMILES CC[C@@H](C)[C@@H](NC(=O)[C@@H](O)Cc1ccc(O)c(Cl)c1)C(=O)N1[C@H](C(=O)NCCCCN=C(N)N)C[C@H]2CC[C@H](OS(=O)(=O)O)C[C@@H]21
REMARK SMILES IDX 22 1 36 2 46 3 35 4 23 5 45 6 37 7 39 8 38 9 20 10 21 11
REMARK SMILES IDX 5 12 6 13 7 14 8 15 9 17 11 18 12 19 17 20 19 21 15 22 14 23
REMARK SMILES IDX 13 24 18 25 16 26 10 28 3 30 4 31 2 32 1 33 24 34 25 35
REMARK SMILES IDX 26 36 27 38 28 39 29 40 30 41 31 42 32 43 33 44 34 45 40 50
REMARK SMILES IDX 41 51 42 52 43 53 44 54
REMARK H PARENT 6 16 16 27 10 29 26 37 33 46 33 47 34 48 34 49 44 55
ROOT
ATOM      1  N   UNL     1      10.178   5.584  14.820  1.00  0.00    -0.326 N 
ATOM      2  C   UNL     1       7.824   5.529  14.796  1.00  0.00     0.014 C 
ATOM      3  C   UNL     1       9.062   4.649  14.992  1.00  0.00     0.091 C 
ATOM      4  C   UNL     1       8.285   6.525  13.742  1.00  0.00     0.041 C 
ATOM      5  C   UNL     1       9.679   6.878  14.293  1.00  0.00     0.175 C 
ATOM      6  C   UNL     1       8.929   3.919  16.327  1.00  0.00     0.059 C 
ATOM      7  C   UNL     1       6.594   4.683  14.531  1.00  0.00     0.008 C 
ATOM      8  C   UNL     1       7.469   3.596  16.716  1.00  0.00     0.143 C 
ATOM      9  C   UNL     1       6.556   3.467  15.480  1.00  0.00     0.034 C 
ENDROOT
BRANCH   1  10
ATOM     10  C   UNL     1      11.543   5.355  14.867  1.00  0.00     0.246 C 
ATOM     11  O   UNL     1      12.067   5.072  15.949  1.00  0.00    -0.272 OA
BRANCH  10  12
ATOM     12  C   UNL     1      12.377   5.418  13.555  1.00  0.00     0.174 C 
BRANCH  12  13
ATOM     13  N   UNL     1      13.095   4.160  13.360  1.00  0.00    -0.342 N 
ATOM     14  C   UNL     1      12.591   3.054  12.712  1.00  0.00     0.249 C 
ATOM     15  O   UNL     1      11.481   3.013  12.196  1.00  0.00    -0.272 OA
ATOM     16  H   UNL     1      13.961   3.990  13.865  1.00  0.00     0.164 HD
BRANCH  14  17
ATOM     17  C   UNL     1      13.586   1.874  12.685  1.00  0.00     0.207 C 
BRANCH  17  18
ATOM     18  C   UNL     1      13.568   1.190  11.315  1.00  0.00     0.077 C 
BRANCH  18  19
ATOM     19  C   UNL     1      14.855   1.419  10.555  1.00  0.00    -0.043 A 
ATOM     20  C   UNL     1      16.986   0.602   9.733  1.00  0.00     0.083 A 
ATOM     21  C   UNL     1      15.777   0.374  10.391  1.00  0.00     0.028 A 
ATOM     22  C   UNL     1      17.282   1.872   9.236  1.00  0.00     0.134 A 
ATOM     23  C   UNL     1      16.378   2.916   9.391  1.00  0.00     0.048 A 
ATOM     24  C   UNL     1      15.168   2.691  10.051  1.00  0.00     0.008 A 
ATOM     25  Cl  UNL     1      18.106  -0.695   9.542  1.00  0.00    -0.080 Cl
BRANCH  22  26
ATOM     26  O   UNL     1      18.458   2.146   8.593  1.00  0.00    -0.506 OA
ATOM     27  H   UNL     1      19.175   1.815   9.165  1.00  0.00     0.293 HD
ENDBRANCH  22  26
ENDBRANCH  18  19
ENDBRANCH  17  18
BRANCH  17  28
ATOM     28  O   UNL     1      13.273   0.911  13.704  1.00  0.00    -0.383 OA
ATOM     29  H   UNL     1      12.291   0.886  13.762  1.00  0.00     0.211 HD
ENDBRANCH  17  28
ENDBRANCH  14  17
ENDBRANCH  12  13
BRANCH  12  30
ATOM     30  C   UNL     1      13.318   6.652  13.501  1.00  0.00     0.018 C 
ATOM     31  C   UNL     1      13.382   7.229  12.078  1.00  0.00     0.010 C 
BRANCH  30  32
ATOM     32  C   UNL     1      14.747   6.367  14.024  1.00  0.00     0.002 C 
ATOM     33  C   UNL     1      15.202   7.242  15.184  1.00  0.00     0.004 C 
ENDBRANCH  30  32
ENDBRANCH  12  30
ENDBRANCH  10  12
ENDBRANCH   1  10
BRANCH   5  34
ATOM     34  C   UNL     1       9.595   7.937  15.425  1.00  0.00     0.242 C 
ATOM     35  O   UNL     1       9.027   9.018  15.274  1.00  0.00    -0.273 OA
ATOM     36  N   UNL     1      10.249   7.602  16.590  1.00  0.00    -0.354 N 
ATOM     37  H   UNL     1      10.803   6.745  16.613  1.00  0.00     0.163 HD
BRANCH  36  38
ATOM     38  C   UNL     1      10.094   8.366  17.810  1.00  0.00     0.116 C 
BRANCH  38  39
ATOM     39  C   UNL     1      11.466   8.754  18.356  1.00  0.00     0.023 C 
BRANCH  39  40
ATOM     40  C   UNL     1      12.517   8.875  17.258  1.00  0.00     0.026 C 
BRANCH  40  41
ATOM     41  C   UNL     1      12.678  10.331  16.820  1.00  0.00     0.146 C 
BRANCH  41  42
ATOM     42  N   UNL     1      13.490  10.394  15.612  1.00  0.00    -0.254 NA
ATOM     43  C   UNL     1      12.919  10.477  14.469  1.00  0.00     0.185 C 
ATOM     44  N   UNL     1      11.611  10.521  14.156  1.00  0.00    -0.370 N 
ATOM     45  N   UNL     1      13.685  10.531  13.367  1.00  0.00    -0.370 N 
ATOM     46  H   UNL     1      11.302  10.339  13.217  1.00  0.00     0.159 HD
ATOM     47  H   UNL     1      10.891  10.504  14.872  1.00  0.00     0.159 HD
ATOM     48  H   UNL     1      14.685  10.512  13.515  1.00  0.00     0.159 HD
ATOM     49  H   UNL     1      13.334  10.831  12.475  1.00  0.00     0.159 HD
ENDBRANCH  41  42
ENDBRANCH  40  41
ENDBRANCH  39  40
ENDBRANCH  38  39
ENDBRANCH  36  38
ENDBRANCH   5  34
BRANCH   8  50
ATOM     50  O   UNL     1       6.948   4.623  17.559  1.00  0.00    -0.245 OA
BRANCH  50  51
ATOM     51  S   UNL     1       5.765   4.269  18.618  1.00  0.00     0.397 S 
ATOM     52  O   UNL     1       5.626   2.831  18.668  1.00  0.00    -0.169 OA
ATOM     53  O   UNL     1       4.628   5.135  18.383  1.00  0.00    -0.169 OA
BRANCH  51  54
ATOM     54  O   UNL     1       6.430   4.693  20.019  1.00  0.00    -0.264 OA
ATOM     55  H   UNL     1       7.257   4.179  20.125  1.00  0.00     0.236 HD
ENDBRANCH  51  54
ENDBRANCH  50  51
ENDBRANCH   8  50
TORSDOF 19
ENDMDL
