MODEL 1
REMARK VINA RESULT:    -6.323      0.000      0.000
REMARK INTER + INTRA:         -19.552
REMARK INTER:                 -15.749
REMARK INTRA:                  -3.803
REMARK UNBOUND:                -3.803
REMARK SMILES CCCCCCC[C@H](N)[C@H](O)C(=O)N[C@H](C)C(=O)N(C)[C@H](CC(C)C)C(=O)N[C@@H](Cc1ccc(O)cc1)C(=O)N[C@@H](Cc1ccc(O)cc1)C(=O)O
REMARK SMILES IDX 18 1 17 2 15 3 16 4 14 5 12 6 13 7 10 9 11 10 8 12 9 13 7 16
REMARK SMILES IDX 6 17 5 18 4 19 3 20 2 21 1 22 19 23 20 24 21 25 22 26 23 27
REMARK SMILES IDX 24 28 25 29 26 30 27 31 28 32 29 34 30 35 31 36 32 37 37 38
REMARK SMILES IDX 33 39 36 40 34 41 35 42 38 44 39 45 40 46 41 48 42 49 43 50
REMARK SMILES IDX 44 51 49 52 45 53 48 54 46 55 47 56 50 58 51 59 52 60
REMARK H PARENT 14 8 11 11 9 14 9 15 28 33 35 43 40 47 47 57 52 61
ROOT
ATOM      1  O   UNL     1      17.498  10.255  -1.194  1.00  0.00    -0.272 OA
ATOM      2  C   UNL     1      16.910   9.191  -1.438  1.00  0.00     0.245 C 
ENDROOT
BRANCH   2   3
ATOM      3  C   UNL     1      17.671   7.858  -1.227  1.00  0.00     0.168 C 
ATOM      4  C   UNL     1      17.782   7.528   0.258  1.00  0.00     0.041 C 
BRANCH   3   5
ATOM      5  N   UNL     1      17.160   6.734  -1.995  1.00  0.00    -0.342 N 
ATOM      6  C   UNL     1      17.810   6.264  -3.117  1.00  0.00     0.251 C 
ATOM      7  O   UNL     1      18.828   6.773  -3.572  1.00  0.00    -0.272 OA
ATOM      8  H   UNL     1      16.303   6.252  -1.735  1.00  0.00     0.164 HD
BRANCH   6   9
ATOM      9  C   UNL     1      17.170   4.986  -3.682  1.00  0.00     0.219 C 
BRANCH   9  10
ATOM     10  O   UNL     1      15.802   4.830  -3.285  1.00  0.00    -0.382 OA
ATOM     11  H   UNL     1      15.462   5.752  -3.261  1.00  0.00     0.211 HD
ENDBRANCH   9  10
BRANCH   9  12
ATOM     12  C   UNL     1      17.314   4.862  -5.222  1.00  0.00     0.089 C 
BRANCH  12  13
ATOM     13  N   UNL     1      18.649   4.297  -5.522  1.00  0.00    -0.325 NA
ATOM     14  H   UNL     1      18.747   3.397  -5.049  1.00  0.00     0.119 HD
ATOM     15  H   UNL     1      19.364   4.897  -5.104  1.00  0.00     0.119 HD
ENDBRANCH  12  13
BRANCH  12  16
ATOM     16  C   UNL     1      16.216   4.043  -5.942  1.00  0.00     0.022 C 
BRANCH  16  17
ATOM     17  C   UNL     1      15.111   4.785  -6.705  1.00  0.00     0.002 C 
BRANCH  17  18
ATOM     18  C   UNL     1      15.067   6.294  -6.472  1.00  0.00     0.000 C 
BRANCH  18  19
ATOM     19  C   UNL     1      14.148   7.049  -7.441  1.00  0.00    -0.000 C 
BRANCH  19  20
ATOM     20  C   UNL     1      14.752   8.314  -8.058  1.00  0.00    -0.000 C 
BRANCH  20  21
ATOM     21  C   UNL     1      16.253   8.188  -8.334  1.00  0.00    -0.003 C 
ATOM     22  C   UNL     1      16.519   7.769  -9.772  1.00  0.00     0.004 C 
ENDBRANCH  20  21
ENDBRANCH  19  20
ENDBRANCH  18  19
ENDBRANCH  17  18
ENDBRANCH  16  17
ENDBRANCH  12  16
ENDBRANCH   9  12
ENDBRANCH   6   9
ENDBRANCH   3   5
ENDBRANCH   2   3
BRANCH   2  23
ATOM     23  N   UNL     1      15.561   9.203  -1.775  1.00  0.00    -0.332 N 
ATOM     24  C   UNL     1      15.047   9.080  -3.131  1.00  0.00     0.147 C 
BRANCH  23  25
ATOM     25  C   UNL     1      14.521   9.218  -0.709  1.00  0.00     0.174 C 
BRANCH  25  26
ATOM     26  C   UNL     1      14.980   9.957   0.570  1.00  0.00     0.038 C 
BRANCH  26  27
ATOM     27  C   UNL     1      14.166  11.202   0.989  1.00  0.00    -0.015 C 
ATOM     28  C   UNL     1      12.790  11.250   0.326  1.00  0.00     0.007 C 
ATOM     29  C   UNL     1      14.041  11.364   2.501  1.00  0.00     0.007 C 
ENDBRANCH  26  27
ENDBRANCH  25  26
BRANCH  25  30
ATOM     30  C   UNL     1      14.008   7.783  -0.447  1.00  0.00     0.243 C 
ATOM     31  O   UNL     1      14.456   6.811  -1.054  1.00  0.00    -0.273 OA
ATOM     32  N   UNL     1      13.020   7.669   0.497  1.00  0.00    -0.342 N 
ATOM     33  H   UNL     1      12.802   8.498   1.056  1.00  0.00     0.164 HD
BRANCH  32  34
ATOM     34  C   UNL     1      12.396   6.393   0.855  1.00  0.00     0.175 C 
BRANCH  34  35
ATOM     35  C   UNL     1      13.156   5.699   1.996  1.00  0.00     0.070 C 
BRANCH  35  36
ATOM     36  C   UNL     1      13.640   4.316   1.622  1.00  0.00    -0.045 A 
ATOM     37  C   UNL     1      14.663   3.706   2.362  1.00  0.00     0.007 A 
ATOM     38  C   UNL     1      13.094   3.637   0.525  1.00  0.00     0.007 A 
ATOM     39  C   UNL     1      15.125   2.436   2.016  1.00  0.00     0.046 A 
ATOM     40  C   UNL     1      13.557   2.365   0.177  1.00  0.00     0.046 A 
ATOM     41  C   UNL     1      14.569   1.776   0.927  1.00  0.00     0.115 A 
BRANCH  41  42
ATOM     42  O   UNL     1      15.050   0.538   0.621  1.00  0.00    -0.508 OA
ATOM     43  H   UNL     1      14.937  -0.034   1.398  1.00  0.00     0.293 HD
ENDBRANCH  41  42
ENDBRANCH  35  36
ENDBRANCH  34  35
BRANCH  34  44
ATOM     44  C   UNL     1      10.922   6.668   1.227  1.00  0.00     0.243 C 
ATOM     45  O   UNL     1      10.125   5.806   1.586  1.00  0.00    -0.273 OA
ATOM     46  N   UNL     1      10.531   7.969   0.993  1.00  0.00    -0.341 N 
ATOM     47  H   UNL     1      11.197   8.619   0.583  1.00  0.00     0.164 HD
BRANCH  46  48
ATOM     48  C   UNL     1       9.164   8.450   1.205  1.00  0.00     0.196 C 
BRANCH  48  49
ATOM     49  C   UNL     1       9.037   9.209   2.536  1.00  0.00     0.072 C 
BRANCH  49  50
ATOM     50  C   UNL     1       7.864   8.738   3.365  1.00  0.00    -0.045 A 
ATOM     51  C   UNL     1       7.669   7.367   3.585  1.00  0.00     0.007 A 
ATOM     52  C   UNL     1       6.949   9.651   3.904  1.00  0.00     0.007 A 
ATOM     53  C   UNL     1       6.582   6.919   4.336  1.00  0.00     0.046 A 
ATOM     54  C   UNL     1       5.860   9.204   4.656  1.00  0.00     0.046 A 
ATOM     55  C   UNL     1       5.687   7.840   4.866  1.00  0.00     0.115 A 
BRANCH  55  56
ATOM     56  O   UNL     1       4.637   7.362   5.594  1.00  0.00    -0.508 OA
ATOM     57  H   UNL     1       4.708   6.395   5.634  1.00  0.00     0.293 HD
ENDBRANCH  55  56
ENDBRANCH  49  50
ENDBRANCH  48  49
BRANCH  48  58
ATOM     58  C   UNL     1       8.776   9.378   0.045  1.00  0.00     0.326 C 
ATOM     59  O   UNL     1       7.883   9.208  -0.770  1.00  0.00    -0.250 OA
BRANCH  58  60
ATOM     60  O   UNL     1       9.532  10.502  -0.026  1.00  0.00    -0.480 OA
ATOM     61  H   UNL     1      10.439  10.155  -0.174  1.00  0.00     0.296 HD
ENDBRANCH  58  60
ENDBRANCH  48  58
ENDBRANCH  46  48
ENDBRANCH  34  44
ENDBRANCH  32  34
ENDBRANCH  25  30
ENDBRANCH  23  25
ENDBRANCH   2  23
TORSDOF 28
ENDMDL
MODEL 2
REMARK VINA RESULT:    -6.004      3.341      8.243
REMARK INTER + INTRA:         -18.756
REMARK INTER:                 -11.582
REMARK INTRA:                  -7.174
REMARK UNBOUND:                -3.803
REMARK SMILES CCCCCCC[C@H](N)[C@H](O)C(=O)N[C@H](C)C(=O)N(C)[C@H](CC(C)C)C(=O)N[C@@H](Cc1ccc(O)cc1)C(=O)N[C@@H](Cc1ccc(O)cc1)C(=O)O
REMARK SMILES IDX 18 1 17 2 15 3 16 4 14 5 12 6 13 7 10 9 11 10 8 12 9 13 7 16
REMARK SMILES IDX 6 17 5 18 4 19 3 20 2 21 1 22 19 23 20 24 21 25 22 26 23 27
REMARK SMILES IDX 24 28 25 29 26 30 27 31 28 32 29 34 30 35 31 36 32 37 37 38
REMARK SMILES IDX 33 39 36 40 34 41 35 42 38 44 39 45 40 46 41 48 42 49 43 50
REMARK SMILES IDX 44 51 49 52 45 53 48 54 46 55 47 56 50 58 51 59 52 60
REMARK H PARENT 14 8 11 11 9 14 9 15 28 33 35 43 40 47 47 57 52 61
ROOT
ATOM      1  O   UNL     1      17.374   4.357  -7.019  1.00  0.00    -0.272 OA
ATOM      2  C   UNL     1      16.354   4.708  -6.409  1.00  0.00     0.245 C 
ENDROOT
BRANCH   2   3
ATOM      3  C   UNL     1      15.918   3.896  -5.164  1.00  0.00     0.168 C 
ATOM      4  C   UNL     1      15.379   2.528  -5.571  1.00  0.00     0.041 C 
BRANCH   3   5
ATOM      5  N   UNL     1      16.924   3.792  -4.119  1.00  0.00    -0.342 N 
ATOM      6  C   UNL     1      16.592   3.486  -2.816  1.00  0.00     0.251 C 
ATOM      7  O   UNL     1      15.438   3.321  -2.433  1.00  0.00    -0.272 OA
ATOM      8  H   UNL     1      17.912   3.943  -4.309  1.00  0.00     0.164 HD
BRANCH   6   9
ATOM      9  C   UNL     1      17.824   3.290  -1.918  1.00  0.00     0.219 C 
BRANCH   9  10
ATOM     10  O   UNL     1      18.874   2.566  -2.572  1.00  0.00    -0.382 OA
ATOM     11  H   UNL     1      19.393   3.268  -3.022  1.00  0.00     0.211 HD
ENDBRANCH   9  10
BRANCH   9  12
ATOM     12  C   UNL     1      18.359   4.617  -1.321  1.00  0.00     0.089 C 
BRANCH  12  13
ATOM     13  N   UNL     1      17.529   5.730  -1.835  1.00  0.00    -0.325 NA
ATOM     14  H   UNL     1      18.064   6.255  -2.530  1.00  0.00     0.119 HD
ATOM     15  H   UNL     1      17.356   6.393  -1.076  1.00  0.00     0.119 HD
ENDBRANCH  12  13
BRANCH  12  16
ATOM     16  C   UNL     1      18.438   4.683   0.224  1.00  0.00     0.022 C 
BRANCH  16  17
ATOM     17  C   UNL     1      17.723   3.608   1.054  1.00  0.00     0.002 C 
BRANCH  17  18
ATOM     18  C   UNL     1      16.464   4.082   1.776  1.00  0.00     0.000 C 
BRANCH  18  19
ATOM     19  C   UNL     1      15.334   4.523   0.837  1.00  0.00    -0.000 C 
BRANCH  19  20
ATOM     20  C   UNL     1      13.924   4.129   1.287  1.00  0.00    -0.000 C 
BRANCH  20  21
ATOM     21  C   UNL     1      13.272   3.086   0.375  1.00  0.00    -0.003 C 
ATOM     22  C   UNL     1      13.868   1.705   0.599  1.00  0.00     0.004 C 
ENDBRANCH  20  21
ENDBRANCH  19  20
ENDBRANCH  18  19
ENDBRANCH  17  18
ENDBRANCH  16  17
ENDBRANCH  12  16
ENDBRANCH   9  12
ENDBRANCH   6   9
ENDBRANCH   3   5
ENDBRANCH   2   3
BRANCH   2  23
ATOM     23  N   UNL     1      15.696   5.879  -6.770  1.00  0.00    -0.332 N 
ATOM     24  C   UNL     1      14.318   5.942  -7.235  1.00  0.00     0.147 C 
BRANCH  23  25
ATOM     25  C   UNL     1      16.352   7.201  -6.574  1.00  0.00     0.174 C 
BRANCH  25  26
ATOM     26  C   UNL     1      17.727   7.301  -7.276  1.00  0.00     0.038 C 
BRANCH  26  27
ATOM     27  C   UNL     1      17.717   7.520  -8.805  1.00  0.00    -0.015 C 
ATOM     28  C   UNL     1      16.504   8.323  -9.273  1.00  0.00     0.007 C 
ATOM     29  C   UNL     1      19.008   8.137  -9.338  1.00  0.00     0.007 C 
ENDBRANCH  26  27
ENDBRANCH  25  26
BRANCH  25  30
ATOM     30  C   UNL     1      16.395   7.555  -5.070  1.00  0.00     0.243 C 
ATOM     31  O   UNL     1      17.206   7.038  -4.303  1.00  0.00    -0.273 OA
ATOM     32  N   UNL     1      15.468   8.474  -4.650  1.00  0.00    -0.342 N 
ATOM     33  H   UNL     1      14.925   8.961  -5.368  1.00  0.00     0.164 HD
BRANCH  32  34
ATOM     34  C   UNL     1      15.344   8.909  -3.256  1.00  0.00     0.175 C 
BRANCH  34  35
ATOM     35  C   UNL     1      14.862   7.763  -2.354  1.00  0.00     0.070 C 
BRANCH  35  36
ATOM     36  C   UNL     1      13.848   8.213  -1.327  1.00  0.00    -0.045 A 
ATOM     37  C   UNL     1      13.693   9.579  -1.046  1.00  0.00     0.007 A 
ATOM     38  C   UNL     1      13.070   7.281  -0.628  1.00  0.00     0.007 A 
ATOM     39  C   UNL     1      12.769  10.004  -0.090  1.00  0.00     0.046 A 
ATOM     40  C   UNL     1      12.146   7.705   0.330  1.00  0.00     0.046 A 
ATOM     41  C   UNL     1      12.003   9.065   0.589  1.00  0.00     0.115 A 
BRANCH  41  42
ATOM     42  O   UNL     1      11.115   9.521   1.517  1.00  0.00    -0.508 OA
ATOM     43  H   UNL     1      11.602   9.720   2.334  1.00  0.00     0.293 HD
ENDBRANCH  41  42
ENDBRANCH  35  36
ENDBRANCH  34  35
BRANCH  34  44
ATOM     44  C   UNL     1      16.714   9.463  -2.804  1.00  0.00     0.243 C 
ATOM     45  O   UNL     1      17.287  10.412  -3.332  1.00  0.00    -0.273 OA
ATOM     46  N   UNL     1      17.314   8.707  -1.819  1.00  0.00    -0.341 N 
ATOM     47  H   UNL     1      16.851   7.861  -1.496  1.00  0.00     0.164 HD
BRANCH  46  48
ATOM     48  C   UNL     1      18.644   8.996  -1.279  1.00  0.00     0.196 C 
BRANCH  48  49
ATOM     49  C   UNL     1      18.749   8.588   0.200  1.00  0.00     0.072 C 
BRANCH  49  50
ATOM     50  C   UNL     1      17.473   8.849   0.967  1.00  0.00    -0.045 A 
ATOM     51  C   UNL     1      17.085  10.167   1.251  1.00  0.00     0.007 A 
ATOM     52  C   UNL     1      16.675   7.791   1.421  1.00  0.00     0.007 A 
ATOM     53  C   UNL     1      15.917  10.420   1.970  1.00  0.00     0.046 A 
ATOM     54  C   UNL     1      15.506   8.044   2.142  1.00  0.00     0.046 A 
ATOM     55  C   UNL     1      15.136   9.358   2.409  1.00  0.00     0.115 A 
BRANCH  55  56
ATOM     56  O   UNL     1      14.003   9.647   3.110  1.00  0.00    -0.508 OA
ATOM     57  H   UNL     1      13.510  10.329   2.627  1.00  0.00     0.293 HD
ENDBRANCH  55  56
ENDBRANCH  49  50
ENDBRANCH  48  49
BRANCH  48  58
ATOM     58  C   UNL     1      19.693   8.232  -2.100  1.00  0.00     0.326 C 
ATOM     59  O   UNL     1      20.431   7.342  -1.710  1.00  0.00    -0.250 OA
BRANCH  58  60
ATOM     60  O   UNL     1      19.753   8.622  -3.398  1.00  0.00    -0.480 OA
ATOM     61  H   UNL     1      20.700   8.853  -3.521  1.00  0.00     0.296 HD
ENDBRANCH  58  60
ENDBRANCH  48  58
ENDBRANCH  46  48
ENDBRANCH  34  44
ENDBRANCH  32  34
ENDBRANCH  25  30
ENDBRANCH  23  25
ENDBRANCH   2  23
TORSDOF 28
ENDMDL
MODEL 3
REMARK VINA RESULT:    -5.367      2.921      7.685
REMARK INTER + INTRA:         -17.171
REMARK INTER:                 -11.791
REMARK INTRA:                  -5.380
REMARK UNBOUND:                -3.803
REMARK SMILES CCCCCCC[C@H](N)[C@H](O)C(=O)N[C@H](C)C(=O)N(C)[C@H](CC(C)C)C(=O)N[C@@H](Cc1ccc(O)cc1)C(=O)N[C@@H](Cc1ccc(O)cc1)C(=O)O
REMARK SMILES IDX 18 1 17 2 15 3 16 4 14 5 12 6 13 7 10 9 11 10 8 12 9 13 7 16
REMARK SMILES IDX 6 17 5 18 4 19 3 20 2 21 1 22 19 23 20 24 21 25 22 26 23 27
REMARK SMILES IDX 24 28 25 29 26 30 27 31 28 32 29 34 30 35 31 36 32 37 37 38
REMARK SMILES IDX 33 39 36 40 34 41 35 42 38 44 39 45 40 46 41 48 42 49 43 50
REMARK SMILES IDX 44 51 49 52 45 53 48 54 46 55 47 56 50 58 51 59 52 60
REMARK H PARENT 14 8 11 11 9 14 9 15 28 33 35 43 40 47 47 57 52 61
ROOT
ATOM      1  O   UNL     1      17.743   4.125  -6.715  1.00  0.00    -0.272 OA
ATOM      2  C   UNL     1      16.608   4.253  -6.232  1.00  0.00     0.245 C 
ENDROOT
BRANCH   2   3
ATOM      3  C   UNL     1      16.165   3.280  -5.111  1.00  0.00     0.168 C 
ATOM      4  C   UNL     1      16.272   1.832  -5.578  1.00  0.00     0.041 C 
BRANCH   3   5
ATOM      5  N   UNL     1      16.821   3.486  -3.829  1.00  0.00    -0.342 N 
ATOM      6  C   UNL     1      16.191   3.204  -2.635  1.00  0.00     0.251 C 
ATOM      7  O   UNL     1      15.034   2.806  -2.559  1.00  0.00    -0.272 OA
ATOM      8  H   UNL     1      17.771   3.846  -3.764  1.00  0.00     0.164 HD
BRANCH   6   9
ATOM      9  C   UNL     1      17.120   3.361  -1.421  1.00  0.00     0.219 C 
BRANCH   9  10
ATOM     10  O   UNL     1      18.481   3.609  -1.795  1.00  0.00    -0.382 OA
ATOM     11  H   UNL     1      18.997   3.243  -1.044  1.00  0.00     0.211 HD
ENDBRANCH   9  10
BRANCH   9  12
ATOM     12  C   UNL     1      16.624   4.427  -0.408  1.00  0.00     0.089 C 
BRANCH  12  13
ATOM     13  N   UNL     1      15.750   5.382  -1.126  1.00  0.00    -0.325 NA
ATOM     14  H   UNL     1      15.761   5.163  -2.124  1.00  0.00     0.119 HD
ATOM     15  H   UNL     1      16.153   6.319  -1.053  1.00  0.00     0.119 HD
ENDBRANCH  12  13
BRANCH  12  16
ATOM     16  C   UNL     1      15.901   3.883   0.847  1.00  0.00     0.022 C 
BRANCH  16  17
ATOM     17  C   UNL     1      14.722   4.674   1.431  1.00  0.00     0.002 C 
BRANCH  17  18
ATOM     18  C   UNL     1      15.000   5.350   2.771  1.00  0.00     0.000 C 
BRANCH  18  19
ATOM     19  C   UNL     1      14.257   6.679   2.967  1.00  0.00    -0.000 C 
BRANCH  19  20
ATOM     20  C   UNL     1      12.758   6.550   3.248  1.00  0.00    -0.000 C 
BRANCH  20  21
ATOM     21  C   UNL     1      12.095   7.887   3.589  1.00  0.00    -0.003 C 
ATOM     22  C   UNL     1      13.105   9.024   3.585  1.00  0.00     0.004 C 
ENDBRANCH  20  21
ENDBRANCH  19  20
ENDBRANCH  18  19
ENDBRANCH  17  18
ENDBRANCH  16  17
ENDBRANCH  12  16
ENDBRANCH   9  12
ENDBRANCH   6   9
ENDBRANCH   3   5
ENDBRANCH   2   3
BRANCH   2  23
ATOM     23  N   UNL     1      15.808   5.327  -6.610  1.00  0.00    -0.332 N 
ATOM     24  C   UNL     1      14.500   5.202  -7.236  1.00  0.00     0.147 C 
BRANCH  23  25
ATOM     25  C   UNL     1      16.208   6.719  -6.266  1.00  0.00     0.174 C 
BRANCH  25  26
ATOM     26  C   UNL     1      17.461   7.194  -7.038  1.00  0.00     0.038 C 
BRANCH  26  27
ATOM     27  C   UNL     1      17.229   8.146  -8.232  1.00  0.00    -0.015 C 
ATOM     28  C   UNL     1      18.223   7.911  -9.369  1.00  0.00     0.007 C 
ATOM     29  C   UNL     1      15.796   8.122  -8.758  1.00  0.00     0.007 C 
ENDBRANCH  26  27
ENDBRANCH  25  26
BRANCH  25  30
ATOM     30  C   UNL     1      16.326   6.875  -4.732  1.00  0.00     0.243 C 
ATOM     31  O   UNL     1      15.494   6.395  -3.964  1.00  0.00    -0.273 OA
ATOM     32  N   UNL     1      17.412   7.586  -4.290  1.00  0.00    -0.342 N 
ATOM     33  H   UNL     1      18.130   7.830  -4.977  1.00  0.00     0.164 HD
BRANCH  32  34
ATOM     34  C   UNL     1      17.670   7.857  -2.873  1.00  0.00     0.175 C 
BRANCH  34  35
ATOM     35  C   UNL     1      19.075   8.442  -2.664  1.00  0.00     0.070 C 
BRANCH  35  36
ATOM     36  C   UNL     1      19.428   8.607  -1.202  1.00  0.00    -0.045 A 
ATOM     37  C   UNL     1      19.340   7.510  -0.331  1.00  0.00     0.007 A 
ATOM     38  C   UNL     1      19.822   9.851  -0.694  1.00  0.00     0.007 A 
ATOM     39  C   UNL     1      19.650   7.656   1.021  1.00  0.00     0.046 A 
ATOM     40  C   UNL     1      20.131   9.998   0.661  1.00  0.00     0.046 A 
ATOM     41  C   UNL     1      20.043   8.897   1.506  1.00  0.00     0.115 A 
BRANCH  41  42
ATOM     42  O   UNL     1      20.334   8.998   2.834  1.00  0.00    -0.508 OA
ATOM     43  H   UNL     1      20.266   8.113   3.229  1.00  0.00     0.293 HD
ENDBRANCH  41  42
ENDBRANCH  35  36
ENDBRANCH  34  35
BRANCH  34  44
ATOM     44  C   UNL     1      16.566   8.808  -2.359  1.00  0.00     0.243 C 
ATOM     45  O   UNL     1      16.404   9.960  -2.751  1.00  0.00    -0.273 OA
ATOM     46  N   UNL     1      15.841   8.289  -1.307  1.00  0.00    -0.341 N 
ATOM     47  H   UNL     1      16.090   7.374  -0.939  1.00  0.00     0.164 HD
BRANCH  46  48
ATOM     48  C   UNL     1      14.788   9.031  -0.610  1.00  0.00     0.196 C 
BRANCH  48  49
ATOM     49  C   UNL     1      13.703   8.086  -0.067  1.00  0.00     0.072 C 
BRANCH  49  50
ATOM     50  C   UNL     1      12.345   8.746   0.014  1.00  0.00    -0.045 A 
ATOM     51  C   UNL     1      11.183   7.964  -0.050  1.00  0.00     0.007 A 
ATOM     52  C   UNL     1      12.226  10.137   0.132  1.00  0.00     0.007 A 
ATOM     53  C   UNL     1       9.924   8.563   0.011  1.00  0.00     0.046 A 
ATOM     54  C   UNL     1      10.966  10.737   0.192  1.00  0.00     0.046 A 
ATOM     55  C   UNL     1       9.825   9.944   0.132  1.00  0.00     0.115 A 
BRANCH  55  56
ATOM     56  O   UNL     1       8.577  10.491   0.187  1.00  0.00    -0.508 OA
ATOM     57  H   UNL     1       8.230  10.553  -0.718  1.00  0.00     0.293 HD
ENDBRANCH  55  56
ENDBRANCH  49  50
ENDBRANCH  48  49
BRANCH  48  58
ATOM     58  C   UNL     1      15.415   9.815   0.551  1.00  0.00     0.326 C 
ATOM     59  O   UNL     1      15.225  10.985   0.841  1.00  0.00    -0.250 OA
BRANCH  58  60
ATOM     60  O   UNL     1      16.256   9.073   1.315  1.00  0.00    -0.480 OA
ATOM     61  H   UNL     1      17.097   9.092   0.809  1.00  0.00     0.296 HD
ENDBRANCH  58  60
ENDBRANCH  48  58
ENDBRANCH  46  48
ENDBRANCH  34  44
ENDBRANCH  32  34
ENDBRANCH  25  30
ENDBRANCH  23  25
ENDBRANCH   2  23
TORSDOF 28
ENDMDL
MODEL 4
REMARK VINA RESULT:    -5.357     23.526     28.400
REMARK INTER + INTRA:         -17.147
REMARK INTER:                 -10.304
REMARK INTRA:                  -6.842
REMARK UNBOUND:                -3.803
REMARK SMILES CCCCCCC[C@H](N)[C@H](O)C(=O)N[C@H](C)C(=O)N(C)[C@H](CC(C)C)C(=O)N[C@@H](Cc1ccc(O)cc1)C(=O)N[C@@H](Cc1ccc(O)cc1)C(=O)O
REMARK SMILES IDX 18 1 17 2 15 3 16 4 14 5 12 6 13 7 10 9 11 10 8 12 9 13 7 16
REMARK SMILES IDX 6 17 5 18 4 19 3 20 2 21 1 22 19 23 20 24 21 25 22 26 23 27
REMARK SMILES IDX 24 28 25 29 26 30 27 31 28 32 29 34 30 35 31 36 32 37 37 38
REMARK SMILES IDX 33 39 36 40 34 41 35 42 38 44 39 45 40 46 41 48 42 49 43 50
REMARK SMILES IDX 44 51 49 52 45 53 48 54 46 55 47 56 50 58 51 59 52 60
REMARK H PARENT 14 8 11 11 9 14 9 15 28 33 35 43 40 47 47 57 52 61
ROOT
ATOM      1  O   UNL     1      -7.388  -9.868   4.602  1.00  0.00    -0.272 OA
ATOM      2  C   UNL     1      -8.183 -10.634   5.167  1.00  0.00     0.245 C 
ENDROOT
BRANCH   2   3
ATOM      3  C   UNL     1      -9.282 -11.319   4.318  1.00  0.00     0.168 C 
ATOM      4  C   UNL     1      -9.363 -10.694   2.929  1.00  0.00     0.041 C 
BRANCH   3   5
ATOM      5  N   UNL     1      -9.190 -12.770   4.254  1.00  0.00    -0.342 N 
ATOM      6  C   UNL     1      -8.029 -13.409   3.873  1.00  0.00     0.251 C 
ATOM      7  O   UNL     1      -7.014 -12.817   3.524  1.00  0.00    -0.272 OA
ATOM      8  H   UNL     1      -9.979 -13.368   4.488  1.00  0.00     0.164 HD
BRANCH   6   9
ATOM      9  C   UNL     1      -8.118 -14.937   4.017  1.00  0.00     0.219 C 
BRANCH   9  10
ATOM     10  O   UNL     1      -9.293 -15.359   4.720  1.00  0.00    -0.382 OA
ATOM     11  H   UNL     1      -9.264 -14.838   5.552  1.00  0.00     0.211 HD
ENDBRANCH   9  10
BRANCH   9  12
ATOM     12  C   UNL     1      -7.987 -15.685   2.664  1.00  0.00     0.089 C 
BRANCH  12  13
ATOM     13  N   UNL     1      -8.251 -14.722   1.571  1.00  0.00    -0.325 NA
ATOM     14  H   UNL     1      -8.265 -15.222   0.680  1.00  0.00     0.119 HD
ATOM     15  H   UNL     1      -7.462 -14.075   1.501  1.00  0.00     0.119 HD
ENDBRANCH  12  13
BRANCH  12  16
ATOM     16  C   UNL     1      -6.643 -16.412   2.419  1.00  0.00     0.022 C 
BRANCH  16  17
ATOM     17  C   UNL     1      -5.960 -16.278   1.051  1.00  0.00     0.002 C 
BRANCH  17  18
ATOM     18  C   UNL     1      -4.753 -17.190   0.841  1.00  0.00     0.000 C 
BRANCH  18  19
ATOM     19  C   UNL     1      -3.426 -16.590   1.324  1.00  0.00    -0.000 C 
BRANCH  19  20
ATOM     20  C   UNL     1      -3.308 -15.070   1.178  1.00  0.00    -0.000 C 
BRANCH  20  21
ATOM     21  C   UNL     1      -1.973 -14.628   0.571  1.00  0.00    -0.003 C 
ATOM     22  C   UNL     1      -2.025 -14.638  -0.949  1.00  0.00     0.004 C 
ENDBRANCH  20  21
ENDBRANCH  19  20
ENDBRANCH  18  19
ENDBRANCH  17  18
ENDBRANCH  16  17
ENDBRANCH  12  16
ENDBRANCH   9  12
ENDBRANCH   6   9
ENDBRANCH   3   5
ENDBRANCH   2   3
BRANCH   2  23
ATOM     23  N   UNL     1      -8.004 -10.957   6.508  1.00  0.00    -0.332 N 
ATOM     24  C   UNL     1      -8.877 -10.518   7.587  1.00  0.00     0.147 C 
BRANCH  23  25
ATOM     25  C   UNL     1      -6.937 -11.912   6.914  1.00  0.00     0.174 C 
BRANCH  25  26
ATOM     26  C   UNL     1      -7.028 -12.318   8.404  1.00  0.00     0.038 C 
BRANCH  26  27
ATOM     27  C   UNL     1      -6.048 -13.408   8.894  1.00  0.00    -0.015 C 
ATOM     28  C   UNL     1      -5.250 -12.968  10.121  1.00  0.00     0.007 C 
ATOM     29  C   UNL     1      -6.717 -14.758   9.143  1.00  0.00     0.007 C 
ENDBRANCH  26  27
ENDBRANCH  25  26
BRANCH  25  30
ATOM     30  C   UNL     1      -5.550 -11.368   6.502  1.00  0.00     0.243 C 
ATOM     31  O   UNL     1      -4.985 -10.480   7.138  1.00  0.00    -0.273 OA
ATOM     32  N   UNL     1      -5.000 -11.935   5.382  1.00  0.00    -0.342 N 
ATOM     33  H   UNL     1      -5.462 -12.760   4.992  1.00  0.00     0.164 HD
BRANCH  32  34
ATOM     34  C   UNL     1      -3.706 -11.525   4.829  1.00  0.00     0.175 C 
BRANCH  34  35
ATOM     35  C   UNL     1      -2.806 -12.740   4.554  1.00  0.00     0.070 C 
BRANCH  35  36
ATOM     36  C   UNL     1      -3.248 -13.977   5.303  1.00  0.00    -0.045 A 
ATOM     37  C   UNL     1      -4.097 -14.906   4.684  1.00  0.00     0.007 A 
ATOM     38  C   UNL     1      -2.839 -14.202   6.624  1.00  0.00     0.007 A 
ATOM     39  C   UNL     1      -4.521 -16.043   5.372  1.00  0.00     0.046 A 
ATOM     40  C   UNL     1      -3.264 -15.339   7.314  1.00  0.00     0.046 A 
ATOM     41  C   UNL     1      -4.101 -16.251   6.681  1.00  0.00     0.115 A 
BRANCH  41  42
ATOM     42  O   UNL     1      -4.541 -17.373   7.318  1.00  0.00    -0.508 OA
ATOM     43  H   UNL     1      -4.819 -18.017   6.646  1.00  0.00     0.293 HD
ENDBRANCH  41  42
ENDBRANCH  35  36
ENDBRANCH  34  35
BRANCH  34  44
ATOM     44  C   UNL     1      -3.971 -10.702   3.549  1.00  0.00     0.243 C 
ATOM     45  O   UNL     1      -4.050  -9.477   3.516  1.00  0.00    -0.273 OA
ATOM     46  N   UNL     1      -4.245 -11.479   2.443  1.00  0.00    -0.341 N 
ATOM     47  H   UNL     1      -4.282 -12.490   2.547  1.00  0.00     0.164 HD
BRANCH  46  48
ATOM     48  C   UNL     1      -4.593 -10.922   1.134  1.00  0.00     0.196 C 
BRANCH  48  49
ATOM     49  C   UNL     1      -3.598 -11.373   0.052  1.00  0.00     0.072 C 
BRANCH  49  50
ATOM     50  C   UNL     1      -2.352 -10.517   0.015  1.00  0.00    -0.045 A 
ATOM     51  C   UNL     1      -1.116 -11.095  -0.308  1.00  0.00     0.007 A 
ATOM     52  C   UNL     1      -2.406  -9.151   0.320  1.00  0.00     0.007 A 
ATOM     53  C   UNL     1       0.043 -10.318  -0.332  1.00  0.00     0.046 A 
ATOM     54  C   UNL     1      -1.246  -8.373   0.297  1.00  0.00     0.046 A 
ATOM     55  C   UNL     1      -0.031  -8.964  -0.030  1.00  0.00     0.115 A 
BRANCH  55  56
ATOM     56  O   UNL     1       1.124  -8.240  -0.063  1.00  0.00    -0.508 OA
ATOM     57  H   UNL     1       1.800  -8.721   0.440  1.00  0.00     0.293 HD
ENDBRANCH  55  56
ENDBRANCH  49  50
ENDBRANCH  48  49
BRANCH  48  58
ATOM     58  C   UNL     1      -6.008 -11.383   0.756  1.00  0.00     0.326 C 
ATOM     59  O   UNL     1      -6.952 -10.681   0.431  1.00  0.00    -0.250 OA
BRANCH  58  60
ATOM     60  O   UNL     1      -6.166 -12.731   0.792  1.00  0.00    -0.480 OA
ATOM     61  H   UNL     1      -7.100 -12.841   1.072  1.00  0.00     0.296 HD
ENDBRANCH  58  60
ENDBRANCH  48  58
ENDBRANCH  46  48
ENDBRANCH  34  44
ENDBRANCH  32  34
ENDBRANCH  25  30
ENDBRANCH  23  25
ENDBRANCH   2  23
TORSDOF 28
ENDMDL
MODEL 5
REMARK VINA RESULT:    -5.315     13.303     18.963
REMARK INTER + INTRA:         -17.042
REMARK INTER:                  -9.651
REMARK INTRA:                  -7.390
REMARK UNBOUND:                -3.803
REMARK SMILES CCCCCCC[C@H](N)[C@H](O)C(=O)N[C@H](C)C(=O)N(C)[C@H](CC(C)C)C(=O)N[C@@H](Cc1ccc(O)cc1)C(=O)N[C@@H](Cc1ccc(O)cc1)C(=O)O
REMARK SMILES IDX 18 1 17 2 15 3 16 4 14 5 12 6 13 7 10 9 11 10 8 12 9 13 7 16
REMARK SMILES IDX 6 17 5 18 4 19 3 20 2 21 1 22 19 23 20 24 21 25 22 26 23 27
REMARK SMILES IDX 24 28 25 29 26 30 27 31 28 32 29 34 30 35 31 36 32 37 37 38
REMARK SMILES IDX 33 39 36 40 34 41 35 42 38 44 39 45 40 46 41 48 42 49 43 50
REMARK SMILES IDX 44 51 49 52 45 53 48 54 46 55 47 56 50 58 51 59 52 60
REMARK H PARENT 14 8 11 11 9 14 9 15 28 33 35 43 40 47 47 57 52 61
ROOT
ATOM      1  O   UNL     1      14.680 -11.190  -5.566  1.00  0.00    -0.272 OA
ATOM      2  C   UNL     1      14.033 -11.568  -4.578  1.00  0.00     0.245 C 
ENDROOT
BRANCH   2   3
ATOM      3  C   UNL     1      14.774 -12.337  -3.457  1.00  0.00     0.168 C 
ATOM      4  C   UNL     1      14.817 -13.831  -3.762  1.00  0.00     0.041 C 
BRANCH   3   5
ATOM      5  N   UNL     1      16.090 -11.814  -3.124  1.00  0.00    -0.342 N 
ATOM      6  C   UNL     1      16.261 -10.811  -2.194  1.00  0.00     0.251 C 
ATOM      7  O   UNL     1      15.331 -10.261  -1.614  1.00  0.00    -0.272 OA
ATOM      8  H   UNL     1      16.936 -12.169  -3.566  1.00  0.00     0.164 HD
BRANCH   6   9
ATOM      9  C   UNL     1      17.741 -10.519  -1.900  1.00  0.00     0.219 C 
BRANCH   9  10
ATOM     10  O   UNL     1      18.596 -11.624  -2.216  1.00  0.00    -0.382 OA
ATOM     11  H   UNL     1      19.241 -11.637  -1.476  1.00  0.00     0.211 HD
ENDBRANCH   9  10
BRANCH   9  12
ATOM     12  C   UNL     1      18.250  -9.218  -2.573  1.00  0.00     0.089 C 
BRANCH  12  13
ATOM     13  N   UNL     1      17.356  -8.898  -3.709  1.00  0.00    -0.325 NA
ATOM     14  H   UNL     1      17.726  -8.090  -4.212  1.00  0.00     0.119 HD
ATOM     15  H   UNL     1      16.451  -8.593  -3.342  1.00  0.00     0.119 HD
ENDBRANCH  12  13
BRANCH  12  16
ATOM     16  C   UNL     1      18.394  -7.986  -1.647  1.00  0.00     0.022 C 
BRANCH  16  17
ATOM     17  C   UNL     1      17.350  -6.864  -1.729  1.00  0.00     0.002 C 
BRANCH  17  18
ATOM     18  C   UNL     1      16.165  -7.015  -0.779  1.00  0.00     0.000 C 
BRANCH  18  19
ATOM     19  C   UNL     1      14.797  -6.840  -1.452  1.00  0.00    -0.000 C 
BRANCH  19  20
ATOM     20  C   UNL     1      13.818  -5.927  -0.709  1.00  0.00    -0.000 C 
BRANCH  20  21
ATOM     21  C   UNL     1      13.519  -4.629  -1.463  1.00  0.00    -0.003 C 
ATOM     22  C   UNL     1      14.004  -3.413  -0.688  1.00  0.00     0.004 C 
ENDBRANCH  20  21
ENDBRANCH  19  20
ENDBRANCH  18  19
ENDBRANCH  17  18
ENDBRANCH  16  17
ENDBRANCH  12  16
ENDBRANCH   9  12
ENDBRANCH   6   9
ENDBRANCH   3   5
ENDBRANCH   2   3
BRANCH   2  23
ATOM     23  N   UNL     1      12.700 -11.196  -4.436  1.00  0.00    -0.332 N 
ATOM     24  C   UNL     1      11.574 -12.116  -4.505  1.00  0.00     0.147 C 
BRANCH  23  25
ATOM     25  C   UNL     1      12.346  -9.799  -4.065  1.00  0.00     0.174 C 
BRANCH  25  26
ATOM     26  C   UNL     1      11.377  -9.722  -2.861  1.00  0.00     0.038 C 
BRANCH  26  27
ATOM     27  C   UNL     1      11.547  -8.525  -1.900  1.00  0.00    -0.015 C 
ATOM     28  C   UNL     1      10.479  -7.452  -2.109  1.00  0.00     0.007 C 
ATOM     29  C   UNL     1      11.621  -8.931  -0.431  1.00  0.00     0.007 C 
ENDBRANCH  26  27
ENDBRANCH  25  26
BRANCH  25  30
ATOM     30  C   UNL     1      11.854  -9.026  -5.310  1.00  0.00     0.243 C 
ATOM     31  O   UNL     1      10.674  -8.708  -5.453  1.00  0.00    -0.273 OA
ATOM     32  N   UNL     1      12.815  -8.726  -6.241  1.00  0.00    -0.342 N 
ATOM     33  H   UNL     1      13.791  -8.897  -5.986  1.00  0.00     0.164 HD
BRANCH  32  34
ATOM     34  C   UNL     1      12.525  -8.023  -7.493  1.00  0.00     0.175 C 
BRANCH  34  35
ATOM     35  C   UNL     1      13.016  -6.568  -7.443  1.00  0.00     0.070 C 
BRANCH  35  36
ATOM     36  C   UNL     1      14.360  -6.426  -6.765  1.00  0.00    -0.045 A 
ATOM     37  C   UNL     1      15.532  -6.780  -7.450  1.00  0.00     0.007 A 
ATOM     38  C   UNL     1      14.454  -5.966  -5.445  1.00  0.00     0.007 A 
ATOM     39  C   UNL     1      16.776  -6.666  -6.828  1.00  0.00     0.046 A 
ATOM     40  C   UNL     1      15.699  -5.853  -4.821  1.00  0.00     0.046 A 
ATOM     41  C   UNL     1      16.849  -6.203  -5.520  1.00  0.00     0.115 A 
BRANCH  41  42
ATOM     42  O   UNL     1      18.083  -6.109  -4.948  1.00  0.00    -0.508 OA
ATOM     43  H   UNL     1      18.690  -5.714  -5.595  1.00  0.00     0.293 HD
ENDBRANCH  41  42
ENDBRANCH  35  36
ENDBRANCH  34  35
BRANCH  34  44
ATOM     44  C   UNL     1      13.181  -8.813  -8.648  1.00  0.00     0.243 C 
ATOM     45  O   UNL     1      12.905  -8.664  -9.835  1.00  0.00    -0.273 OA
ATOM     46  N   UNL     1      14.027  -9.814  -8.218  1.00  0.00    -0.341 N 
ATOM     47  H   UNL     1      14.133  -9.975  -7.219  1.00  0.00     0.164 HD
BRANCH  46  48
ATOM     48  C   UNL     1      14.710 -10.738  -9.126  1.00  0.00     0.196 C 
BRANCH  48  49
ATOM     49  C   UNL     1      16.201 -10.870  -8.773  1.00  0.00     0.072 C 
BRANCH  49  50
ATOM     50  C   UNL     1      17.024  -9.708  -9.281  1.00  0.00    -0.045 A 
ATOM     51  C   UNL     1      18.273  -9.433  -8.706  1.00  0.00     0.007 A 
ATOM     52  C   UNL     1      16.550  -8.883 -10.309  1.00  0.00     0.007 A 
ATOM     53  C   UNL     1      19.036  -8.355  -9.157  1.00  0.00     0.046 A 
ATOM     54  C   UNL     1      17.313  -7.804 -10.760  1.00  0.00     0.046 A 
ATOM     55  C   UNL     1      18.551  -7.550 -10.180  1.00  0.00     0.115 A 
BRANCH  55  56
ATOM     56  O   UNL     1      19.326  -6.506 -10.591  1.00  0.00    -0.508 OA
ATOM     57  H   UNL     1      20.258  -6.768 -10.514  1.00  0.00     0.293 HD
ENDBRANCH  55  56
ENDBRANCH  49  50
ENDBRANCH  48  49
BRANCH  48  58
ATOM     58  C   UNL     1      14.036 -12.114  -9.038  1.00  0.00     0.326 C 
ATOM     59  O   UNL     1      14.179 -13.057  -9.798  1.00  0.00    -0.250 OA
BRANCH  58  60
ATOM     60  O   UNL     1      13.209 -12.244  -7.969  1.00  0.00    -0.480 OA
ATOM     61  H   UNL     1      12.718 -13.072  -8.163  1.00  0.00     0.296 HD
ENDBRANCH  58  60
ENDBRANCH  48  58
ENDBRANCH  46  48
ENDBRANCH  34  44
ENDBRANCH  32  34
ENDBRANCH  25  30
ENDBRANCH  23  25
ENDBRANCH   2  23
TORSDOF 28
ENDMDL
MODEL 6
REMARK VINA RESULT:    -5.291     12.928     17.204
REMARK INTER + INTRA:         -16.980
REMARK INTER:                  -9.632
REMARK INTRA:                  -7.348
REMARK UNBOUND:                -3.803
REMARK SMILES CCCCCCC[C@H](N)[C@H](O)C(=O)N[C@H](C)C(=O)N(C)[C@H](CC(C)C)C(=O)N[C@@H](Cc1ccc(O)cc1)C(=O)N[C@@H](Cc1ccc(O)cc1)C(=O)O
REMARK SMILES IDX 18 1 17 2 15 3 16 4 14 5 12 6 13 7 10 9 11 10 8 12 9 13 7 16
REMARK SMILES IDX 6 17 5 18 4 19 3 20 2 21 1 22 19 23 20 24 21 25 22 26 23 27
REMARK SMILES IDX 24 28 25 29 26 30 27 31 28 32 29 34 30 35 31 36 32 37 37 38
REMARK SMILES IDX 33 39 36 40 34 41 35 42 38 44 39 45 40 46 41 48 42 49 43 50
REMARK SMILES IDX 44 51 49 52 45 53 48 54 46 55 47 56 50 58 51 59 52 60
REMARK H PARENT 14 8 11 11 9 14 9 15 28 33 35 43 40 47 47 57 52 61
ROOT
ATOM      1  O   UNL     1      19.373  -7.211  -3.126  1.00  0.00    -0.272 OA
ATOM      2  C   UNL     1      18.746  -7.282  -2.058  1.00  0.00     0.245 C 
ENDROOT
BRANCH   2   3
ATOM      3  C   UNL     1      18.595  -8.665  -1.377  1.00  0.00     0.168 C 
ATOM      4  C   UNL     1      19.029  -8.600   0.083  1.00  0.00     0.041 C 
BRANCH   3   5
ATOM      5  N   UNL     1      17.285  -9.280  -1.527  1.00  0.00    -0.342 N 
ATOM      6  C   UNL     1      17.132 -10.552  -2.037  1.00  0.00     0.251 C 
ATOM      7  O   UNL     1      18.068 -11.238  -2.436  1.00  0.00    -0.272 OA
ATOM      8  H   UNL     1      16.432  -8.795  -1.262  1.00  0.00     0.164 HD
BRANCH   6   9
ATOM      9  C   UNL     1      15.679 -11.049  -1.970  1.00  0.00     0.219 C 
BRANCH   9  10
ATOM     10  O   UNL     1      14.922 -10.403  -0.939  1.00  0.00    -0.382 OA
ATOM     11  H   UNL     1      14.356  -9.769  -1.431  1.00  0.00     0.211 HD
ENDBRANCH   9  10
BRANCH   9  12
ATOM     12  C   UNL     1      14.942 -10.961  -3.331  1.00  0.00     0.089 C 
BRANCH  12  13
ATOM     13  N   UNL     1      15.439  -9.769  -4.056  1.00  0.00    -0.325 NA
ATOM     14  H   UNL     1      15.233  -8.932  -3.507  1.00  0.00     0.119 HD
ATOM     15  H   UNL     1      14.903  -9.660  -4.920  1.00  0.00     0.119 HD
ENDBRANCH  12  13
BRANCH  12  16
ATOM     16  C   UNL     1      15.040 -12.213  -4.237  1.00  0.00     0.022 C 
BRANCH  16  17
ATOM     17  C   UNL     1      16.130 -12.270  -5.316  1.00  0.00     0.002 C 
BRANCH  17  18
ATOM     18  C   UNL     1      15.640 -12.021  -6.741  1.00  0.00     0.000 C 
BRANCH  18  19
ATOM     19  C   UNL     1      16.142 -10.706  -7.354  1.00  0.00    -0.000 C 
BRANCH  19  20
ATOM     20  C   UNL     1      16.586 -10.799  -8.816  1.00  0.00    -0.000 C 
BRANCH  20  21
ATOM     21  C   UNL     1      18.090 -11.044  -8.971  1.00  0.00    -0.003 C 
ATOM     22  C   UNL     1      18.596 -10.549 -10.317  1.00  0.00     0.004 C 
ENDBRANCH  20  21
ENDBRANCH  19  20
ENDBRANCH  18  19
ENDBRANCH  17  18
ENDBRANCH  16  17
ENDBRANCH  12  16
ENDBRANCH   9  12
ENDBRANCH   6   9
ENDBRANCH   3   5
ENDBRANCH   2   3
BRANCH   2  23
ATOM     23  N   UNL     1      18.301  -6.121  -1.435  1.00  0.00    -0.332 N 
ATOM     24  C   UNL     1      19.166  -5.153  -0.778  1.00  0.00     0.147 C 
BRANCH  23  25
ATOM     25  C   UNL     1      16.868  -5.725  -1.520  1.00  0.00     0.174 C 
BRANCH  25  26
ATOM     26  C   UNL     1      16.060  -6.115  -0.260  1.00  0.00     0.038 C 
BRANCH  26  27
ATOM     27  C   UNL     1      15.427  -4.962   0.550  1.00  0.00    -0.015 C 
ATOM     28  C   UNL     1      16.305  -4.518   1.719  1.00  0.00     0.007 C 
ATOM     29  C   UNL     1      15.029  -3.764  -0.308  1.00  0.00     0.007 C 
ENDBRANCH  26  27
ENDBRANCH  25  26
BRANCH  25  30
ATOM     30  C   UNL     1      16.250  -6.242  -2.839  1.00  0.00     0.243 C 
ATOM     31  O   UNL     1      15.487  -7.206  -2.865  1.00  0.00    -0.273 OA
ATOM     32  N   UNL     1      16.614  -5.561  -3.972  1.00  0.00    -0.342 N 
ATOM     33  H   UNL     1      17.136  -4.689  -3.853  1.00  0.00     0.164 HD
BRANCH  32  34
ATOM     34  C   UNL     1      16.148  -5.927  -5.312  1.00  0.00     0.175 C 
BRANCH  34  35
ATOM     35  C   UNL     1      16.783  -7.245  -5.784  1.00  0.00     0.070 C 
BRANCH  35  36
ATOM     36  C   UNL     1      17.327  -7.161  -7.192  1.00  0.00    -0.045 A 
ATOM     37  C   UNL     1      16.446  -7.110  -8.283  1.00  0.00     0.007 A 
ATOM     38  C   UNL     1      18.708  -7.156  -7.430  1.00  0.00     0.007 A 
ATOM     39  C   UNL     1      16.939  -7.046  -9.587  1.00  0.00     0.046 A 
ATOM     40  C   UNL     1      19.202  -7.093  -8.735  1.00  0.00     0.046 A 
ATOM     41  C   UNL     1      18.312  -7.037  -9.802  1.00  0.00     0.115 A 
BRANCH  41  42
ATOM     42  O   UNL     1      18.753  -6.977 -11.091  1.00  0.00    -0.508 OA
ATOM     43  H   UNL     1      18.679  -7.865 -11.480  1.00  0.00     0.293 HD
ENDBRANCH  41  42
ENDBRANCH  35  36
ENDBRANCH  34  35
BRANCH  34  44
ATOM     44  C   UNL     1      14.606  -6.009  -5.277  1.00  0.00     0.243 C 
ATOM     45  O   UNL     1      13.864  -5.052  -5.073  1.00  0.00    -0.273 OA
ATOM     46  N   UNL     1      14.122  -7.298  -5.368  1.00  0.00    -0.341 N 
ATOM     47  H   UNL     1      14.782  -8.070  -5.418  1.00  0.00     0.164 HD
BRANCH  46  48
ATOM     48  C   UNL     1      12.699  -7.632  -5.289  1.00  0.00     0.196 C 
BRANCH  48  49
ATOM     49  C   UNL     1      12.290  -8.610  -6.403  1.00  0.00     0.072 C 
BRANCH  49  50
ATOM     50  C   UNL     1      12.625  -8.093  -7.783  1.00  0.00    -0.045 A 
ATOM     51  C   UNL     1      13.139  -8.967  -8.752  1.00  0.00     0.007 A 
ATOM     52  C   UNL     1      12.450  -6.741  -8.109  1.00  0.00     0.007 A 
ATOM     53  C   UNL     1      13.464  -8.498 -10.025  1.00  0.00     0.046 A 
ATOM     54  C   UNL     1      12.777  -6.272  -9.383  1.00  0.00     0.046 A 
ATOM     55  C   UNL     1      13.281  -7.156 -10.331  1.00  0.00     0.115 A 
BRANCH  55  56
ATOM     56  O   UNL     1      13.613  -6.737 -11.586  1.00  0.00    -0.508 OA
ATOM     57  H   UNL     1      13.713  -7.519 -12.152  1.00  0.00     0.293 HD
ENDBRANCH  55  56
ENDBRANCH  49  50
ENDBRANCH  48  49
BRANCH  48  58
ATOM     58  C   UNL     1      12.408  -8.261  -3.919  1.00  0.00     0.326 C 
ATOM     59  O   UNL     1      12.156  -9.431  -3.682  1.00  0.00    -0.250 OA
BRANCH  58  60
ATOM     60  O   UNL     1      12.465  -7.374  -2.893  1.00  0.00    -0.480 OA
ATOM     61  H   UNL     1      11.722  -7.652  -2.314  1.00  0.00     0.296 HD
ENDBRANCH  58  60
ENDBRANCH  48  58
ENDBRANCH  46  48
ENDBRANCH  34  44
ENDBRANCH  32  34
ENDBRANCH  25  30
ENDBRANCH  23  25
ENDBRANCH   2  23
TORSDOF 28
ENDMDL
MODEL 7
REMARK VINA RESULT:    -5.147      2.532      7.570
REMARK INTER + INTRA:         -16.622
REMARK INTER:                 -12.162
REMARK INTRA:                  -4.460
REMARK UNBOUND:                -3.803
REMARK SMILES CCCCCCC[C@H](N)[C@H](O)C(=O)N[C@H](C)C(=O)N(C)[C@H](CC(C)C)C(=O)N[C@@H](Cc1ccc(O)cc1)C(=O)N[C@@H](Cc1ccc(O)cc1)C(=O)O
REMARK SMILES IDX 18 1 17 2 15 3 16 4 14 5 12 6 13 7 10 9 11 10 8 12 9 13 7 16
REMARK SMILES IDX 6 17 5 18 4 19 3 20 2 21 1 22 19 23 20 24 21 25 22 26 23 27
REMARK SMILES IDX 24 28 25 29 26 30 27 31 28 32 29 34 30 35 31 36 32 37 37 38
REMARK SMILES IDX 33 39 36 40 34 41 35 42 38 44 39 45 40 46 41 48 42 49 43 50
REMARK SMILES IDX 44 51 49 52 45 53 48 54 46 55 47 56 50 58 51 59 52 60
REMARK H PARENT 14 8 11 11 9 14 9 15 28 33 35 43 40 47 47 57 52 61
ROOT
ATOM      1  O   UNL     1      17.792   4.136  -6.596  1.00  0.00    -0.272 OA
ATOM      2  C   UNL     1      16.627   4.262  -6.192  1.00  0.00     0.245 C 
ENDROOT
BRANCH   2   3
ATOM      3  C   UNL     1      16.118   3.304  -5.086  1.00  0.00     0.168 C 
ATOM      4  C   UNL     1      16.092   1.864  -5.587  1.00  0.00     0.041 C 
BRANCH   3   5
ATOM      5  N   UNL     1      16.809   3.422  -3.811  1.00  0.00    -0.342 N 
ATOM      6  C   UNL     1      16.174   3.170  -2.613  1.00  0.00     0.251 C 
ATOM      7  O   UNL     1      14.987   2.873  -2.527  1.00  0.00    -0.272 OA
ATOM      8  H   UNL     1      17.787   3.696  -3.754  1.00  0.00     0.164 HD
BRANCH   6   9
ATOM      9  C   UNL     1      17.131   3.217  -1.412  1.00  0.00     0.219 C 
BRANCH   9  10
ATOM     10  O   UNL     1      18.509   3.231  -1.803  1.00  0.00    -0.382 OA
ATOM     11  H   UNL     1      18.969   2.812  -1.043  1.00  0.00     0.211 HD
ENDBRANCH   9  10
BRANCH   9  12
ATOM     12  C   UNL     1      16.824   4.382  -0.434  1.00  0.00     0.089 C 
BRANCH  12  13
ATOM     13  N   UNL     1      15.826   5.273  -1.068  1.00  0.00    -0.325 NA
ATOM     14  H   UNL     1      15.654   4.959  -2.025  1.00  0.00     0.119 HD
ATOM     15  H   UNL     1      16.231   6.208  -1.163  1.00  0.00     0.119 HD
ENDBRANCH  12  13
BRANCH  12  16
ATOM     16  C   UNL     1      16.348   3.972   0.980  1.00  0.00     0.022 C 
BRANCH  16  17
ATOM     17  C   UNL     1      16.027   2.498   1.263  1.00  0.00     0.002 C 
BRANCH  17  18
ATOM     18  C   UNL     1      14.548   2.130   1.160  1.00  0.00     0.000 C 
BRANCH  18  19
ATOM     19  C   UNL     1      14.292   0.638   0.909  1.00  0.00    -0.000 C 
BRANCH  19  20
ATOM     20  C   UNL     1      14.108  -0.211   2.171  1.00  0.00    -0.000 C 
BRANCH  20  21
ATOM     21  C   UNL     1      13.552  -1.607   1.878  1.00  0.00    -0.003 C 
ATOM     22  C   UNL     1      13.330  -1.814   0.388  1.00  0.00     0.004 C 
ENDBRANCH  20  21
ENDBRANCH  19  20
ENDBRANCH  18  19
ENDBRANCH  17  18
ENDBRANCH  16  17
ENDBRANCH  12  16
ENDBRANCH   9  12
ENDBRANCH   6   9
ENDBRANCH   3   5
ENDBRANCH   2   3
BRANCH   2  23
ATOM     23  N   UNL     1      15.846   5.321  -6.642  1.00  0.00    -0.332 N 
ATOM     24  C   UNL     1      14.596   5.173  -7.373  1.00  0.00     0.147 C 
BRANCH  23  25
ATOM     25  C   UNL     1      16.195   6.721  -6.274  1.00  0.00     0.174 C 
BRANCH  25  26
ATOM     26  C   UNL     1      17.518   7.199  -6.916  1.00  0.00     0.038 C 
BRANCH  26  27
ATOM     27  C   UNL     1      17.429   7.809  -8.333  1.00  0.00    -0.015 C 
ATOM     28  C   UNL     1      17.921   6.848  -9.415  1.00  0.00     0.007 C 
ATOM     29  C   UNL     1      16.041   8.341  -8.679  1.00  0.00     0.007 C 
ENDBRANCH  26  27
ENDBRANCH  25  26
BRANCH  25  30
ATOM     30  C   UNL     1      16.150   6.895  -4.739  1.00  0.00     0.243 C 
ATOM     31  O   UNL     1      15.332   6.298  -4.041  1.00  0.00    -0.273 OA
ATOM     32  N   UNL     1      17.075   7.759  -4.212  1.00  0.00    -0.342 N 
ATOM     33  H   UNL     1      17.809   8.105  -4.836  1.00  0.00     0.164 HD
BRANCH  32  34
ATOM     34  C   UNL     1      17.163   8.067  -2.782  1.00  0.00     0.175 C 
BRANCH  34  35
ATOM     35  C   UNL     1      18.358   8.984  -2.480  1.00  0.00     0.070 C 
BRANCH  35  36
ATOM     36  C   UNL     1      18.602   9.156  -0.998  1.00  0.00    -0.045 A 
ATOM     37  C   UNL     1      18.820   8.032  -0.187  1.00  0.00     0.007 A 
ATOM     38  C   UNL     1      18.592  10.428  -0.411  1.00  0.00     0.007 A 
ATOM     39  C   UNL     1      19.033   8.180   1.184  1.00  0.00     0.046 A 
ATOM     40  C   UNL     1      18.804  10.577   0.962  1.00  0.00     0.046 A 
ATOM     41  C   UNL     1      19.024   9.450   1.747  1.00  0.00     0.115 A 
BRANCH  41  42
ATOM     42  O   UNL     1      19.233   9.551   3.091  1.00  0.00    -0.508 OA
ATOM     43  H   UNL     1      19.420   8.663   3.438  1.00  0.00     0.293 HD
ENDBRANCH  41  42
ENDBRANCH  35  36
ENDBRANCH  34  35
BRANCH  34  44
ATOM     44  C   UNL     1      15.823   8.702  -2.347  1.00  0.00     0.243 C 
ATOM     45  O   UNL     1      15.324   9.695  -2.869  1.00  0.00    -0.273 OA
ATOM     46  N   UNL     1      15.285   8.127  -1.215  1.00  0.00    -0.341 N 
ATOM     47  H   UNL     1      15.797   7.382  -0.749  1.00  0.00     0.164 HD
BRANCH  46  48
ATOM     48  C   UNL     1      14.057   8.603  -0.575  1.00  0.00     0.196 C 
BRANCH  48  49
ATOM     49  C   UNL     1      13.301   7.453   0.111  1.00  0.00     0.072 C 
BRANCH  49  50
ATOM     50  C   UNL     1      11.897   7.840   0.517  1.00  0.00    -0.045 A 
ATOM     51  C   UNL     1      10.956   8.186  -0.464  1.00  0.00     0.007 A 
ATOM     52  C   UNL     1      11.522   7.881   1.866  1.00  0.00     0.007 A 
ATOM     53  C   UNL     1       9.661   8.557  -0.100  1.00  0.00     0.046 A 
ATOM     54  C   UNL     1      10.226   8.254   2.230  1.00  0.00     0.046 A 
ATOM     55  C   UNL     1       9.306   8.588   1.242  1.00  0.00     0.115 A 
BRANCH  55  56
ATOM     56  O   UNL     1       8.031   8.958   1.555  1.00  0.00    -0.508 OA
ATOM     57  H   UNL     1       7.441   8.212   1.367  1.00  0.00     0.293 HD
ENDBRANCH  55  56
ENDBRANCH  49  50
ENDBRANCH  48  49
BRANCH  48  58
ATOM     58  C   UNL     1      14.417   9.675   0.463  1.00  0.00     0.326 C 
ATOM     59  O   UNL     1      13.871  10.753   0.633  1.00  0.00    -0.250 OA
BRANCH  58  60
ATOM     60  O   UNL     1      15.457   9.326   1.262  1.00  0.00    -0.480 OA
ATOM     61  H   UNL     1      16.244   9.547   0.718  1.00  0.00     0.296 HD
ENDBRANCH  58  60
ENDBRANCH  48  58
ENDBRANCH  46  48
ENDBRANCH  34  44
ENDBRANCH  32  34
ENDBRANCH  25  30
ENDBRANCH  23  25
ENDBRANCH   2  23
TORSDOF 28
ENDMDL
MODEL 8
REMARK VINA RESULT:    -5.126     11.136     16.111
REMARK INTER + INTRA:         -16.569
REMARK INTER:                 -10.060
REMARK INTRA:                  -6.510
REMARK UNBOUND:                -3.803
REMARK SMILES CCCCCCC[C@H](N)[C@H](O)C(=O)N[C@H](C)C(=O)N(C)[C@H](CC(C)C)C(=O)N[C@@H](Cc1ccc(O)cc1)C(=O)N[C@@H](Cc1ccc(O)cc1)C(=O)O
REMARK SMILES IDX 18 1 17 2 15 3 16 4 14 5 12 6 13 7 10 9 11 10 8 12 9 13 7 16
REMARK SMILES IDX 6 17 5 18 4 19 3 20 2 21 1 22 19 23 20 24 21 25 22 26 23 27
REMARK SMILES IDX 24 28 25 29 26 30 27 31 28 32 29 34 30 35 31 36 32 37 37 38
REMARK SMILES IDX 33 39 36 40 34 41 35 42 38 44 39 45 40 46 41 48 42 49 43 50
REMARK SMILES IDX 44 51 49 52 45 53 48 54 46 55 47 56 50 58 51 59 52 60
REMARK H PARENT 14 8 11 11 9 14 9 15 28 33 35 43 40 47 47 57 52 61
ROOT
ATOM      1  O   UNL     1      16.326 -10.961  -0.397  1.00  0.00    -0.272 OA
ATOM      2  C   UNL     1      17.052  -9.957  -0.447  1.00  0.00     0.245 C 
ENDROOT
BRANCH   2   3
ATOM      3  C   UNL     1      17.960  -9.760  -1.687  1.00  0.00     0.168 C 
ATOM      4  C   UNL     1      18.914 -10.938  -1.853  1.00  0.00     0.041 C 
BRANCH   3   5
ATOM      5  N   UNL     1      17.251  -9.460  -2.922  1.00  0.00    -0.342 N 
ATOM      6  C   UNL     1      17.649  -8.440  -3.760  1.00  0.00     0.251 C 
ATOM      7  O   UNL     1      18.590  -7.692  -3.515  1.00  0.00    -0.272 OA
ATOM      8  H   UNL     1      16.433  -9.990  -3.213  1.00  0.00     0.164 HD
BRANCH   6   9
ATOM      9  C   UNL     1      16.844  -8.397  -5.069  1.00  0.00     0.219 C 
BRANCH   9  10
ATOM     10  O   UNL     1      16.402  -9.694  -5.488  1.00  0.00    -0.382 OA
ATOM     11  H   UNL     1      16.245  -9.584  -6.451  1.00  0.00     0.211 HD
ENDBRANCH   9  10
BRANCH   9  12
ATOM     12  C   UNL     1      15.657  -7.400  -5.022  1.00  0.00     0.089 C 
BRANCH  12  13
ATOM     13  N   UNL     1      15.822  -6.534  -3.832  1.00  0.00    -0.325 NA
ATOM     14  H   UNL     1      14.932  -6.077  -3.624  1.00  0.00     0.119 HD
ATOM     15  H   UNL     1      16.465  -5.773  -4.062  1.00  0.00     0.119 HD
ENDBRANCH  12  13
BRANCH  12  16
ATOM     16  C   UNL     1      15.451  -6.532  -6.286  1.00  0.00     0.022 C 
BRANCH  16  17
ATOM     17  C   UNL     1      14.034  -6.067  -6.650  1.00  0.00     0.002 C 
BRANCH  17  18
ATOM     18  C   UNL     1      13.478  -6.648  -7.948  1.00  0.00     0.000 C 
BRANCH  18  19
ATOM     19  C   UNL     1      14.091  -7.999  -8.340  1.00  0.00    -0.000 C 
BRANCH  19  20
ATOM     20  C   UNL     1      13.535  -8.616  -9.627  1.00  0.00    -0.000 C 
BRANCH  20  21
ATOM     21  C   UNL     1      12.234  -7.958 -10.094  1.00  0.00    -0.003 C 
ATOM     22  C   UNL     1      11.208  -8.998 -10.516  1.00  0.00     0.004 C 
ENDBRANCH  20  21
ENDBRANCH  19  20
ENDBRANCH  18  19
ENDBRANCH  17  18
ENDBRANCH  16  17
ENDBRANCH  12  16
ENDBRANCH   9  12
ENDBRANCH   6   9
ENDBRANCH   3   5
ENDBRANCH   2   3
BRANCH   2  23
ATOM     23  N   UNL     1      16.953  -8.977   0.534  1.00  0.00    -0.332 N 
ATOM     24  C   UNL     1      16.841  -9.244   1.960  1.00  0.00     0.147 C 
BRANCH  23  25
ATOM     25  C   UNL     1      17.089  -7.538   0.176  1.00  0.00     0.174 C 
BRANCH  25  26
ATOM     26  C   UNL     1      18.231  -6.832   0.943  1.00  0.00     0.038 C 
BRANCH  26  27
ATOM     27  C   UNL     1      19.673  -7.287   0.627  1.00  0.00    -0.015 C 
ATOM     28  C   UNL     1      20.263  -6.564  -0.584  1.00  0.00     0.007 C 
ATOM     29  C   UNL     1      20.617  -7.188   1.823  1.00  0.00     0.007 C 
ENDBRANCH  26  27
ENDBRANCH  25  26
BRANCH  25  30
ATOM     30  C   UNL     1      15.722  -6.827   0.302  1.00  0.00     0.243 C 
ATOM     31  O   UNL     1      15.353  -6.310   1.355  1.00  0.00    -0.273 OA
ATOM     32  N   UNL     1      14.952  -6.818  -0.832  1.00  0.00    -0.342 N 
ATOM     33  H   UNL     1      15.384  -7.141  -1.702  1.00  0.00     0.164 HD
BRANCH  32  34
ATOM     34  C   UNL     1      13.618  -6.214  -0.890  1.00  0.00     0.175 C 
BRANCH  34  35
ATOM     35  C   UNL     1      13.633  -4.900  -1.687  1.00  0.00     0.070 C 
BRANCH  35  36
ATOM     36  C   UNL     1      14.243  -3.754  -0.912  1.00  0.00    -0.045 A 
ATOM     37  C   UNL     1      15.609  -3.461  -1.052  1.00  0.00     0.007 A 
ATOM     38  C   UNL     1      13.468  -2.986  -0.033  1.00  0.00     0.007 A 
ATOM     39  C   UNL     1      16.184  -2.414  -0.331  1.00  0.00     0.046 A 
ATOM     40  C   UNL     1      14.044  -1.939   0.690  1.00  0.00     0.046 A 
ATOM     41  C   UNL     1      15.397  -1.661   0.533  1.00  0.00     0.115 A 
BRANCH  41  42
ATOM     42  O   UNL     1      15.999  -0.649   1.221  1.00  0.00    -0.508 OA
ATOM     43  H   UNL     1      16.567  -0.157   0.605  1.00  0.00     0.293 HD
ENDBRANCH  41  42
ENDBRANCH  35  36
ENDBRANCH  34  35
BRANCH  34  44
ATOM     44  C   UNL     1      12.649  -7.250  -1.504  1.00  0.00     0.243 C 
ATOM     45  O   UNL     1      11.561  -7.553  -1.022  1.00  0.00    -0.273 OA
ATOM     46  N   UNL     1      13.175  -7.915  -2.591  1.00  0.00    -0.341 N 
ATOM     47  H   UNL     1      14.128  -7.711  -2.882  1.00  0.00     0.164 HD
BRANCH  46  48
ATOM     48  C   UNL     1      12.470  -8.988  -3.297  1.00  0.00     0.196 C 
BRANCH  48  49
ATOM     49  C   UNL     1      12.407  -8.715  -4.809  1.00  0.00     0.072 C 
BRANCH  49  50
ATOM     50  C   UNL     1      10.998  -8.787  -5.355  1.00  0.00    -0.045 A 
ATOM     51  C   UNL     1       9.920  -8.992  -4.482  1.00  0.00     0.007 A 
ATOM     52  C   UNL     1      10.751  -8.671  -6.729  1.00  0.00     0.007 A 
ATOM     53  C   UNL     1       8.618  -9.073  -4.975  1.00  0.00     0.046 A 
ATOM     54  C   UNL     1       9.447  -8.753  -7.222  1.00  0.00     0.046 A 
ATOM     55  C   UNL     1       8.391  -8.952  -6.340  1.00  0.00     0.115 A 
BRANCH  55  56
ATOM     56  O   UNL     1       7.103  -9.039  -6.782  1.00  0.00    -0.508 OA
ATOM     57  H   UNL     1       6.525  -8.628  -6.119  1.00  0.00     0.293 HD
ENDBRANCH  55  56
ENDBRANCH  49  50
ENDBRANCH  48  49
BRANCH  48  58
ATOM     58  C   UNL     1      13.198 -10.315  -3.043  1.00  0.00     0.326 C 
ATOM     59  O   UNL     1      12.699 -11.423  -2.932  1.00  0.00    -0.250 OA
BRANCH  58  60
ATOM     60  O   UNL     1      14.546 -10.184  -2.954  1.00  0.00    -0.480 OA
ATOM     61  H   UNL     1      14.758 -10.608  -2.094  1.00  0.00     0.296 HD
ENDBRANCH  58  60
ENDBRANCH  48  58
ENDBRANCH  46  48
ENDBRANCH  34  44
ENDBRANCH  32  34
ENDBRANCH  25  30
ENDBRANCH  23  25
ENDBRANCH   2  23
TORSDOF 28
ENDMDL
MODEL 9
REMARK VINA RESULT:    -4.954     13.305     17.589
REMARK INTER + INTRA:         -16.141
REMARK INTER:                  -9.329
REMARK INTRA:                  -6.812
REMARK UNBOUND:                -3.803
REMARK SMILES CCCCCCC[C@H](N)[C@H](O)C(=O)N[C@H](C)C(=O)N(C)[C@H](CC(C)C)C(=O)N[C@@H](Cc1ccc(O)cc1)C(=O)N[C@@H](Cc1ccc(O)cc1)C(=O)O
REMARK SMILES IDX 18 1 17 2 15 3 16 4 14 5 12 6 13 7 10 9 11 10 8 12 9 13 7 16
REMARK SMILES IDX 6 17 5 18 4 19 3 20 2 21 1 22 19 23 20 24 21 25 22 26 23 27
REMARK SMILES IDX 24 28 25 29 26 30 27 31 28 32 29 34 30 35 31 36 32 37 37 38
REMARK SMILES IDX 33 39 36 40 34 41 35 42 38 44 39 45 40 46 41 48 42 49 43 50
REMARK SMILES IDX 44 51 49 52 45 53 48 54 46 55 47 56 50 58 51 59 52 60
REMARK H PARENT 14 8 11 11 9 14 9 15 28 33 35 43 40 47 47 57 52 61
ROOT
ATOM      1  O   UNL     1      13.678 -12.363   0.785  1.00  0.00    -0.272 OA
ATOM      2  C   UNL     1      13.219 -11.847   1.815  1.00  0.00     0.245 C 
ENDROOT
BRANCH   2   3
ATOM      3  C   UNL     1      14.201 -11.177   2.808  1.00  0.00     0.168 C 
ATOM      4  C   UNL     1      14.113 -11.832   4.182  1.00  0.00     0.041 C 
BRANCH   3   5
ATOM      5  N   UNL     1      15.575 -11.082   2.339  1.00  0.00    -0.342 N 
ATOM      6  C   UNL     1      16.077  -9.923   1.787  1.00  0.00     0.251 C 
ATOM      7  O   UNL     1      15.407  -8.911   1.611  1.00  0.00    -0.272 OA
ATOM      8  H   UNL     1      16.218 -11.868   2.401  1.00  0.00     0.164 HD
BRANCH   6   9
ATOM      9  C   UNL     1      17.585 -10.008   1.496  1.00  0.00     0.219 C 
BRANCH   9  10
ATOM     10  O   UNL     1      18.269 -10.902   2.382  1.00  0.00    -0.382 OA
ATOM     11  H   UNL     1      18.398 -10.366   3.196  1.00  0.00     0.211 HD
ENDBRANCH   9  10
BRANCH   9  12
ATOM     12  C   UNL     1      17.901 -10.349   0.017  1.00  0.00     0.089 C 
BRANCH  12  13
ATOM     13  N   UNL     1      16.625 -10.617  -0.685  1.00  0.00    -0.325 NA
ATOM     14  H   UNL     1      16.803 -10.696  -1.687  1.00  0.00     0.119 HD
ATOM     15  H   UNL     1      16.015  -9.802  -0.585  1.00  0.00     0.119 HD
ENDBRANCH  12  13
BRANCH  12  16
ATOM     16  C   UNL     1      18.724  -9.294  -0.761  1.00  0.00     0.022 C 
BRANCH  16  17
ATOM     17  C   UNL     1      18.199  -7.855  -0.851  1.00  0.00     0.002 C 
BRANCH  17  18
ATOM     18  C   UNL     1      17.878  -7.372  -2.263  1.00  0.00     0.000 C 
BRANCH  18  19
ATOM     19  C   UNL     1      17.576  -5.871  -2.357  1.00  0.00    -0.000 C 
BRANCH  19  20
ATOM     20  C   UNL     1      16.982  -5.409  -3.691  1.00  0.00    -0.000 C 
BRANCH  20  21
ATOM     21  C   UNL     1      17.238  -6.394  -4.835  1.00  0.00    -0.003 C 
ATOM     22  C   UNL     1      16.046  -6.474  -5.776  1.00  0.00     0.004 C 
ENDBRANCH  20  21
ENDBRANCH  19  20
ENDBRANCH  18  19
ENDBRANCH  17  18
ENDBRANCH  16  17
ENDBRANCH  12  16
ENDBRANCH   9  12
ENDBRANCH   6   9
ENDBRANCH   3   5
ENDBRANCH   2   3
BRANCH   2  23
ATOM     23  N   UNL     1      11.843 -11.769   2.000  1.00  0.00    -0.332 N 
ATOM     24  C   UNL     1      11.002 -12.882   2.414  1.00  0.00     0.147 C 
BRANCH  23  25
ATOM     25  C   UNL     1      11.145 -10.458   1.903  1.00  0.00     0.174 C 
BRANCH  25  26
ATOM     26  C   UNL     1      10.396 -10.077   3.202  1.00  0.00     0.038 C 
BRANCH  26  27
ATOM     27  C   UNL     1       9.200  -9.109   3.062  1.00  0.00    -0.015 C 
ATOM     28  C   UNL     1       7.862  -9.786   3.355  1.00  0.00     0.007 C 
ATOM     29  C   UNL     1       9.350  -7.835   3.890  1.00  0.00     0.007 C 
ENDBRANCH  26  27
ENDBRANCH  25  26
BRANCH  25  30
ATOM     30  C   UNL     1      10.256 -10.421   0.639  1.00  0.00     0.243 C 
ATOM     31  O   UNL     1       9.396 -11.273   0.424  1.00  0.00    -0.273 OA
ATOM     32  N   UNL     1      10.496  -9.382  -0.224  1.00  0.00    -0.342 N 
ATOM     33  H   UNL     1      11.125  -8.640   0.091  1.00  0.00     0.164 HD
BRANCH  32  34
ATOM     34  C   UNL     1       9.769  -9.203  -1.484  1.00  0.00     0.175 C 
BRANCH  34  35
ATOM     35  C   UNL     1       9.033  -7.855  -1.518  1.00  0.00     0.070 C 
BRANCH  35  36
ATOM     36  C   UNL     1       7.862  -7.804  -0.563  1.00  0.00    -0.045 A 
ATOM     37  C   UNL     1       6.832  -8.752  -0.664  1.00  0.00     0.007 A 
ATOM     38  C   UNL     1       7.775  -6.805   0.416  1.00  0.00     0.007 A 
ATOM     39  C   UNL     1       5.740  -8.704   0.204  1.00  0.00     0.046 A 
ATOM     40  C   UNL     1       6.682  -6.756   1.284  1.00  0.00     0.046 A 
ATOM     41  C   UNL     1       5.674  -7.708   1.171  1.00  0.00     0.115 A 
BRANCH  41  42
ATOM     42  O   UNL     1       4.590  -7.696   1.997  1.00  0.00    -0.508 OA
ATOM     43  H   UNL     1       4.877  -7.980   2.881  1.00  0.00     0.293 HD
ENDBRANCH  41  42
ENDBRANCH  35  36
ENDBRANCH  34  35
BRANCH  34  44
ATOM     44  C   UNL     1      10.781  -9.338  -2.644  1.00  0.00     0.243 C 
ATOM     45  O   UNL     1      10.475  -9.582  -3.808  1.00  0.00    -0.273 OA
ATOM     46  N   UNL     1      12.096  -9.288  -2.233  1.00  0.00    -0.341 N 
ATOM     47  H   UNL     1      12.301  -9.201  -1.241  1.00  0.00     0.164 HD
BRANCH  46  48
ATOM     48  C   UNL     1      13.232  -9.460  -3.142  1.00  0.00     0.196 C 
BRANCH  48  49
ATOM     49  C   UNL     1      14.451  -8.648  -2.675  1.00  0.00     0.072 C 
BRANCH  49  50
ATOM     50  C   UNL     1      14.093  -7.233  -2.282  1.00  0.00    -0.045 A 
ATOM     51  C   UNL     1      14.397  -6.765  -0.995  1.00  0.00     0.007 A 
ATOM     52  C   UNL     1      13.438  -6.380  -3.180  1.00  0.00     0.007 A 
ATOM     53  C   UNL     1      14.059  -5.466  -0.617  1.00  0.00     0.046 A 
ATOM     54  C   UNL     1      13.098  -5.079  -2.801  1.00  0.00     0.046 A 
ATOM     55  C   UNL     1      13.413  -4.633  -1.522  1.00  0.00     0.115 A 
BRANCH  55  56
ATOM     56  O   UNL     1      13.098  -3.371  -1.113  1.00  0.00    -0.508 OA
ATOM     57  H   UNL     1      13.576  -2.739  -1.674  1.00  0.00     0.293 HD
ENDBRANCH  55  56
ENDBRANCH  49  50
ENDBRANCH  48  49
BRANCH  48  58
ATOM     58  C   UNL     1      13.598 -10.949  -3.207  1.00  0.00     0.326 C 
ATOM     59  O   UNL     1      14.470 -11.523  -2.575  1.00  0.00    -0.250 OA
BRANCH  58  60
ATOM     60  O   UNL     1      12.828 -11.659  -4.068  1.00  0.00    -0.480 OA
ATOM     61  H   UNL     1      12.537 -10.985  -4.720  1.00  0.00     0.296 HD
ENDBRANCH  58  60
ENDBRANCH  48  58
ENDBRANCH  46  48
ENDBRANCH  34  44
ENDBRANCH  32  34
ENDBRANCH  25  30
ENDBRANCH  23  25
ENDBRANCH   2  23
TORSDOF 28
ENDMDL
MODEL 10
REMARK VINA RESULT:    -4.741     13.318     18.137
REMARK INTER + INTRA:         -15.612
REMARK INTER:                  -8.349
REMARK INTRA:                  -7.263
REMARK UNBOUND:                -3.803
REMARK SMILES CCCCCCC[C@H](N)[C@H](O)C(=O)N[C@H](C)C(=O)N(C)[C@H](CC(C)C)C(=O)N[C@@H](Cc1ccc(O)cc1)C(=O)N[C@@H](Cc1ccc(O)cc1)C(=O)O
REMARK SMILES IDX 18 1 17 2 15 3 16 4 14 5 12 6 13 7 10 9 11 10 8 12 9 13 7 16
REMARK SMILES IDX 6 17 5 18 4 19 3 20 2 21 1 22 19 23 20 24 21 25 22 26 23 27
REMARK SMILES IDX 24 28 25 29 26 30 27 31 28 32 29 34 30 35 31 36 32 37 37 38
REMARK SMILES IDX 33 39 36 40 34 41 35 42 38 44 39 45 40 46 41 48 42 49 43 50
REMARK SMILES IDX 44 51 49 52 45 53 48 54 46 55 47 56 50 58 51 59 52 60
REMARK H PARENT 14 8 11 11 9 14 9 15 28 33 35 43 40 47 47 57 52 61
ROOT
ATOM      1  O   UNL     1      15.392 -10.848  -0.766  1.00  0.00    -0.272 OA
ATOM      2  C   UNL     1      15.740  -9.663  -0.656  1.00  0.00     0.245 C 
ENDROOT
BRANCH   2   3
ATOM      3  C   UNL     1      17.120  -9.240  -1.219  1.00  0.00     0.168 C 
ATOM      4  C   UNL     1      18.190 -10.264  -0.856  1.00  0.00     0.041 C 
BRANCH   3   5
ATOM      5  N   UNL     1      17.130  -8.927  -2.640  1.00  0.00    -0.342 N 
ATOM      6  C   UNL     1      17.115  -7.627  -3.098  1.00  0.00     0.251 C 
ATOM      7  O   UNL     1      17.051  -6.650  -2.360  1.00  0.00    -0.272 OA
ATOM      8  H   UNL     1      17.148  -9.655  -3.349  1.00  0.00     0.164 HD
BRANCH   6   9
ATOM      9  C   UNL     1      17.275  -7.532  -4.624  1.00  0.00     0.219 C 
BRANCH   9  10
ATOM     10  O   UNL     1      17.849  -8.715  -5.194  1.00  0.00    -0.382 OA
ATOM     11  H   UNL     1      18.221  -8.403  -6.048  1.00  0.00     0.211 HD
ENDBRANCH   9  10
BRANCH   9  12
ATOM     12  C   UNL     1      15.959  -7.154  -5.352  1.00  0.00     0.089 C 
BRANCH  12  13
ATOM     13  N   UNL     1      15.157  -6.294  -4.451  1.00  0.00    -0.325 NA
ATOM     14  H   UNL     1      14.358  -5.920  -4.967  1.00  0.00     0.119 HD
ATOM     15  H   UNL     1      15.714  -5.476  -4.193  1.00  0.00     0.119 HD
ENDBRANCH  12  13
BRANCH  12  16
ATOM     16  C   UNL     1      16.119  -6.474  -6.733  1.00  0.00     0.022 C 
BRANCH  16  17
ATOM     17  C   UNL     1      16.098  -7.341  -7.999  1.00  0.00     0.002 C 
BRANCH  17  18
ATOM     18  C   UNL     1      17.288  -7.144  -8.935  1.00  0.00     0.000 C 
BRANCH  18  19
ATOM     19  C   UNL     1      18.653  -7.258  -8.242  1.00  0.00    -0.000 C 
BRANCH  19  20
ATOM     20  C   UNL     1      19.263  -8.662  -8.236  1.00  0.00    -0.000 C 
BRANCH  20  21
ATOM     21  C   UNL     1      19.052  -9.414  -9.553  1.00  0.00    -0.003 C 
ATOM     22  C   UNL     1      18.662 -10.863  -9.309  1.00  0.00     0.004 C 
ENDBRANCH  20  21
ENDBRANCH  19  20
ENDBRANCH  18  19
ENDBRANCH  17  18
ENDBRANCH  16  17
ENDBRANCH  12  16
ENDBRANCH   9  12
ENDBRANCH   6   9
ENDBRANCH   3   5
ENDBRANCH   2   3
BRANCH   2  23
ATOM     23  N   UNL     1      14.852  -8.721  -0.148  1.00  0.00    -0.332 N 
ATOM     24  C   UNL     1      14.752  -8.353   1.256  1.00  0.00     0.147 C 
BRANCH  23  25
ATOM     25  C   UNL     1      14.006  -7.913  -1.069  1.00  0.00     0.174 C 
BRANCH  25  26
ATOM     26  C   UNL     1      13.616  -6.538  -0.478  1.00  0.00     0.038 C 
BRANCH  26  27
ATOM     27  C   UNL     1      13.655  -5.327  -1.437  1.00  0.00    -0.015 C 
ATOM     28  C   UNL     1      12.342  -5.140  -2.197  1.00  0.00     0.007 C 
ATOM     29  C   UNL     1      14.071  -4.026  -0.756  1.00  0.00     0.007 C 
ENDBRANCH  26  27
ENDBRANCH  25  26
BRANCH  25  30
ATOM     30  C   UNL     1      12.797  -8.748  -1.551  1.00  0.00     0.243 C 
ATOM     31  O   UNL     1      12.022  -9.286  -0.762  1.00  0.00    -0.273 OA
ATOM     32  N   UNL     1      12.653  -8.852  -2.911  1.00  0.00    -0.342 N 
ATOM     33  H   UNL     1      13.250  -8.263  -3.497  1.00  0.00     0.164 HD
BRANCH  32  34
ATOM     34  C   UNL     1      11.583  -9.625  -3.547  1.00  0.00     0.175 C 
BRANCH  34  35
ATOM     35  C   UNL     1      10.618  -8.713  -4.319  1.00  0.00     0.070 C 
BRANCH  35  36
ATOM     36  C   UNL     1      11.039  -8.499  -5.756  1.00  0.00    -0.045 A 
ATOM     37  C   UNL     1      12.214  -7.788  -6.044  1.00  0.00     0.007 A 
ATOM     38  C   UNL     1      10.259  -8.982  -6.814  1.00  0.00     0.007 A 
ATOM     39  C   UNL     1      12.604  -7.573  -7.366  1.00  0.00     0.046 A 
ATOM     40  C   UNL     1      10.648  -8.767  -8.138  1.00  0.00     0.046 A 
ATOM     41  C   UNL     1      11.819  -8.064  -8.402  1.00  0.00     0.115 A 
BRANCH  41  42
ATOM     42  O   UNL     1      12.234  -7.830  -9.680  1.00  0.00    -0.508 OA
ATOM     43  H   UNL     1      13.187  -8.011  -9.728  1.00  0.00     0.293 HD
ENDBRANCH  41  42
ENDBRANCH  35  36
ENDBRANCH  34  35
BRANCH  34  44
ATOM     44  C   UNL     1      12.236 -10.683  -4.464  1.00  0.00     0.243 C 
ATOM     45  O   UNL     1      11.658 -11.674  -4.902  1.00  0.00    -0.273 OA
ATOM     46  N   UNL     1      13.589 -10.488  -4.650  1.00  0.00    -0.341 N 
ATOM     47  H   UNL     1      14.047  -9.718  -4.170  1.00  0.00     0.164 HD
BRANCH  46  48
ATOM     48  C   UNL     1      14.435 -11.399  -5.424  1.00  0.00     0.196 C 
BRANCH  48  49
ATOM     49  C   UNL     1      15.156 -10.660  -6.564  1.00  0.00     0.072 C 
BRANCH  49  50
ATOM     50  C   UNL     1      14.457 -10.821  -7.895  1.00  0.00    -0.045 A 
ATOM     51  C   UNL     1      13.235 -11.505  -7.964  1.00  0.00     0.007 A 
ATOM     52  C   UNL     1      15.022 -10.313  -9.072  1.00  0.00     0.007 A 
ATOM     53  C   UNL     1      12.587 -11.671  -9.189  1.00  0.00     0.046 A 
ATOM     54  C   UNL     1      14.375 -10.480 -10.298  1.00  0.00     0.046 A 
ATOM     55  C   UNL     1      13.161 -11.157 -10.345  1.00  0.00     0.115 A 
BRANCH  55  56
ATOM     56  O   UNL     1      12.497 -11.342 -11.522  1.00  0.00    -0.508 OA
ATOM     57  H   UNL     1      12.341 -12.293 -11.639  1.00  0.00     0.293 HD
ENDBRANCH  55  56
ENDBRANCH  49  50
ENDBRANCH  48  49
BRANCH  48  58
ATOM     58  C   UNL     1      15.471 -12.036  -4.487  1.00  0.00     0.326 C 
ATOM     59  O   UNL     1      15.454 -13.166  -4.025  1.00  0.00    -0.250 OA
BRANCH  58  60
ATOM     60  O   UNL     1      16.504 -11.211  -4.182  1.00  0.00    -0.480 OA
ATOM     61  H   UNL     1      16.515 -11.217  -3.200  1.00  0.00     0.296 HD
ENDBRANCH  58  60
ENDBRANCH  48  58
ENDBRANCH  46  48
ENDBRANCH  34  44
ENDBRANCH  32  34
ENDBRANCH  25  30
ENDBRANCH  23  25
ENDBRANCH   2  23
TORSDOF 28
ENDMDL
