MODEL 1
REMARK VINA RESULT:    -5.803      0.000      0.000
REMARK INTER + INTRA:         -25.136
REMARK INTER:                 -16.658
REMARK INTRA:                  -8.478
REMARK UNBOUND:                -8.478
REMARK SMILES CCCCCC(=O)N[C@H](CC(=O)O)C(=O)N[C@H]1C(=O)N[C@H](CCCN=C(N)N)C(=O)N[C@@H]2CC[C@H](O)N(C2=O)[C@@H](CC(C)C)C(=O)N(C)[C@@H](Cc2ccccc2)C(=O)N[C@H](C(C)C)C(=O)O[C@@H]1C
REMARK SMILES IDX 30 1 31 2 29 3 32 5 35 6 37 7 34 8 38 9 33 10 39 11 36 12
REMARK SMILES IDX 40 14 41 15 42 16 43 17 44 18 45 19 46 20 47 21 48 22 49 23
REMARK SMILES IDX 50 24 51 25 52 26 56 27 53 28 55 29 54 30 57 31 58 32 59 33
REMARK SMILES IDX 60 35 61 36 62 37 63 38 64 39 65 40 66 41 67 42 68 43 21 45
REMARK SMILES IDX 20 46 18 47 19 48 17 50 16 52 14 53 15 54 9 56 8 57 6 58
REMARK SMILES IDX 7 59 5 61 4 62 3 63 2 64 1 65 10 66 11 67 12 68 13 69 22 71
REMARK SMILES IDX 23 72 24 73 25 74 26 75 27 76 28 77
REMARK H PARENT 31 4 36 13 59 34 20 49 16 55 8 60 13 70 27 78 27 79 28 80
REMARK H PARENT 28 81
REMARK Flexibility Score:  259.900
ROOT
ATOM      1  O   UNL     1       7.983   2.553  -4.887  1.00  0.00    -0.273 OA
ATOM      2  N   UNL     1       7.701   4.689  -4.122  1.00  0.00    -0.343 N 
ATOM      3  C   UNL     1       8.181   3.761  -5.020  1.00  0.00     0.243 C 
ATOM      4  H   UNL     1       7.870   5.676  -4.271  1.00  0.00     0.164 HD
ENDROOT
BRANCH   2   5
ATOM      5  C   UNL     1       7.030   4.262  -2.899  1.00  0.00     0.171 C 
ATOM      6  C   UNL     1       5.203   5.600  -1.089  1.00  0.00     0.214 C 
ATOM      7  N   UNL     1       6.624   5.665  -0.840  1.00  0.00    -0.303 N 
ATOM      8  C   UNL     1       4.773   4.322  -1.792  1.00  0.00     0.057 C 
ATOM      9  C   UNL     1       7.554   5.092  -1.692  1.00  0.00     0.247 C 
ATOM     10  C   UNL     1       5.518   4.182  -3.102  1.00  0.00     0.040 C 
ATOM     11  O   UNL     1       8.773   5.226  -1.519  1.00  0.00    -0.272 OA
BRANCH   6  12
ATOM     12  O   UNL     1       4.848   6.727  -1.857  1.00  0.00    -0.373 OA
ATOM     13  H   UNL     1       3.874   6.703  -1.968  1.00  0.00     0.213 HD
ENDBRANCH   6  12
BRANCH   7  14
ATOM     14  C   UNL     1       7.069   6.502   0.294  1.00  0.00     0.177 C 
BRANCH  14  15
ATOM     15  C   UNL     1       7.088   8.019   0.022  1.00  0.00     0.038 C 
BRANCH  15  16
ATOM     16  C   UNL     1       8.393   8.689  -0.460  1.00  0.00    -0.015 C 
ATOM     17  C   UNL     1       9.644   7.971   0.055  1.00  0.00     0.007 C 
ATOM     18  C   UNL     1       8.440  10.143   0.027  1.00  0.00     0.007 C 
ENDBRANCH  15  16
ENDBRANCH  14  15
BRANCH  14  19
ATOM     19  C   UNL     1       6.673   5.829   1.654  1.00  0.00     0.245 C 
ATOM     20  O   UNL     1       7.255   4.770   1.944  1.00  0.00    -0.272 OA
BRANCH  19  21
ATOM     21  N   UNL     1       5.654   6.284   2.472  1.00  0.00    -0.332 N 
ATOM     22  C   UNL     1       4.234   6.149   2.201  1.00  0.00     0.147 C 
BRANCH  21  23
ATOM     23  C   UNL     1       6.031   6.980   3.732  1.00  0.00     0.178 C 
BRANCH  23  24
ATOM     24  C   UNL     1       6.008   8.520   3.651  1.00  0.00     0.070 C 
BRANCH  24  25
ATOM     25  C   UNL     1       7.343   9.227   3.607  1.00  0.00    -0.045 A 
ATOM     26  C   UNL     1       8.536   8.502   3.498  1.00  0.00     0.004 A 
ATOM     27  C   UNL     1       7.404  10.627   3.679  1.00  0.00     0.004 A 
ATOM     28  C   UNL     1       9.766   9.162   3.475  1.00  0.00     0.000 A 
ATOM     29  C   UNL     1       8.635  11.286   3.655  1.00  0.00     0.000 A 
ATOM     30  C   UNL     1       9.815  10.552   3.556  1.00  0.00     0.000 A 
ENDBRANCH  24  25
ENDBRANCH  23  24
BRANCH  23  31
ATOM     31  C   UNL     1       5.341   6.383   4.982  1.00  0.00     0.243 C 
ATOM     32  O   UNL     1       5.498   5.227   5.367  1.00  0.00    -0.273 OA
ATOM     33  N   UNL     1       4.378   7.213   5.531  1.00  0.00    -0.341 N 
ATOM     34  H   UNL     1       4.290   8.164   5.164  1.00  0.00     0.164 HD
BRANCH  33  35
ATOM     35  C   UNL     1       3.516   6.808   6.645  1.00  0.00     0.194 C 
BRANCH  35  36
ATOM     36  C   UNL     1       2.045   7.296   6.520  1.00  0.00     0.017 C 
ATOM     37  C   UNL     1       1.580   7.296   5.053  1.00  0.00     0.010 C 
ATOM     38  C   UNL     1       1.828   8.710   7.071  1.00  0.00     0.010 C 
ENDBRANCH  35  36
BRANCH  35  39
ATOM     39  C   UNL     1       4.127   7.158   8.031  1.00  0.00     0.329 C 
ATOM     40  O   UNL     1       4.960   8.039   8.211  1.00  0.00    -0.250 OA
BRANCH  39  41
ATOM     41  O   UNL     1       3.567   6.431   9.045  1.00  0.00    -0.458 OA
BRANCH  41  42
ATOM     42  C   UNL     1       4.233   6.500  10.328  1.00  0.00     0.205 CG0
ATOM     43  C   UNL     1       5.120   5.262  10.446  1.00  0.00     0.056 C 
ATOM     44  G   UNL     1       3.163   6.567  11.435  1.00  0.00     0.000 G0
ENDBRANCH  41  42
ENDBRANCH  39  41
ENDBRANCH  35  39
ENDBRANCH  33  35
ENDBRANCH  23  31
ENDBRANCH  21  23
ENDBRANCH  19  21
ENDBRANCH  14  19
ENDBRANCH   7  14
ENDBRANCH   2   5
BRANCH   3  45
ATOM     45  C   UNL     1       8.962   4.339  -6.208  1.00  0.00     0.171 C 
BRANCH  45  46
ATOM     46  N   UNL     1       7.964   4.634  -7.229  1.00  0.00    -0.342 N 
ATOM     47  C   UNL     1       7.771   5.898  -7.725  1.00  0.00     0.247 C 
ATOM     48  O   UNL     1       8.471   6.858  -7.401  1.00  0.00    -0.273 OA
ATOM     49  H   UNL     1       7.400   3.856  -7.567  1.00  0.00     0.164 HD
BRANCH  47  50
ATOM     50  C   UNL     1       6.594   6.040  -8.701  1.00  0.00     0.212 CG0
ATOM     51  G   UNL     1       6.968   5.294  -9.997  1.00  0.00     0.000 G0
BRANCH  50  52
ATOM     52  N   UNL     1       5.445   5.458  -8.012  1.00  0.00    -0.339 N 
ATOM     53  C   UNL     1       4.270   5.131  -8.645  1.00  0.00     0.243 C 
ATOM     54  O   UNL     1       4.077   5.354  -9.837  1.00  0.00    -0.273 OA
ATOM     55  H   UNL     1       5.503   5.352  -7.001  1.00  0.00     0.164 HD
BRANCH  53  56
ATOM     56  C   UNL     1       3.170   4.613  -7.698  1.00  0.00     0.182 C 
BRANCH  56  57
ATOM     57  N   UNL     1       3.187   5.338  -6.424  1.00  0.00    -0.344 N 
ATOM     58  C   UNL     1       2.067   5.940  -5.904  1.00  0.00     0.220 C 
ATOM     59  O   UNL     1       0.996   5.976  -6.500  1.00  0.00    -0.275 OA
ATOM     60  H   UNL     1       4.023   5.246  -5.853  1.00  0.00     0.164 HD
BRANCH  58  61
ATOM     61  C   UNL     1       2.302   6.582  -4.549  1.00  0.00     0.100 C 
BRANCH  61  62
ATOM     62  C   UNL     1       1.980   5.665  -3.369  1.00  0.00     0.010 C 
BRANCH  62  63
ATOM     63  C   UNL     1       0.481   5.508  -3.087  1.00  0.00     0.000 C 
BRANCH  63  64
ATOM     64  C   UNL     1       0.142   5.254  -1.619  1.00  0.00    -0.003 C 
ATOM     65  C   UNL     1       1.322   5.574  -0.714  1.00  0.00     0.004 C 
ENDBRANCH  63  64
ENDBRANCH  62  63
ENDBRANCH  61  62
ENDBRANCH  58  61
ENDBRANCH  56  57
BRANCH  56  66
ATOM     66  C   UNL     1       3.267   3.101  -7.501  1.00  0.00     0.157 C 
BRANCH  66  67
ATOM     67  C   UNL     1       3.966   2.763  -6.216  1.00  0.00     0.305 C 
ATOM     68  O   UNL     1       3.450   2.354  -5.187  1.00  0.00    -0.252 OA
BRANCH  67  69
ATOM     69  O   UNL     1       5.301   2.910  -6.306  1.00  0.00    -0.481 OA
ATOM     70  H   UNL     1       5.429   3.688  -6.889  1.00  0.00     0.296 HD
ENDBRANCH  67  69
ENDBRANCH  66  67
ENDBRANCH  56  66
ENDBRANCH  53  56
ENDBRANCH  50  52
ENDBRANCH  47  50
ENDBRANCH  45  46
BRANCH  45  71
ATOM     71  C   UNL     1      10.000   3.328  -6.708  1.00  0.00     0.037 C 
BRANCH  71  72
ATOM     72  C   UNL     1      10.034   3.245  -8.236  1.00  0.00     0.026 C 
BRANCH  72  73
ATOM     73  C   UNL     1       9.620   1.861  -8.732  1.00  0.00     0.146 C 
BRANCH  73  74
ATOM     74  N   UNL     1       8.271   1.968  -9.279  1.00  0.00    -0.254 NA
ATOM     75  C   UNL     1       7.307   1.474  -8.594  1.00  0.00     0.185 C 
ATOM     76  N   UNL     1       6.054   1.557  -9.070  1.00  0.00    -0.370 N 
ATOM     77  N   UNL     1       7.348   0.848  -7.405  1.00  0.00    -0.370 N 
ATOM     78  H   UNL     1       5.934   2.008  -9.966  1.00  0.00     0.159 HD
ATOM     79  H   UNL     1       5.274   1.070  -8.665  1.00  0.00     0.159 HD
ATOM     80  H   UNL     1       8.225   0.716  -6.925  1.00  0.00     0.159 HD
ATOM     81  H   UNL     1       6.508   0.603  -6.907  1.00  0.00     0.159 HD
ENDBRANCH  73  74
ENDBRANCH  72  73
ENDBRANCH  71  72
ENDBRANCH  45  71
ENDBRANCH   3  45
TORSDOF 20
ENDMDL
MODEL 2
REMARK VINA RESULT:    -5.398      7.806     13.669
REMARK INTER + INTRA:         -23.973
REMARK INTER:                 -17.398
REMARK INTRA:                  -6.575
REMARK UNBOUND:                -8.478
REMARK SMILES CCCCCC(=O)N[C@H](CC(=O)O)C(=O)N[C@H]1C(=O)N[C@H](CCCN=C(N)N)C(=O)N[C@@H]2CC[C@H](O)N(C2=O)[C@@H](CC(C)C)C(=O)N(C)[C@@H](Cc2ccccc2)C(=O)N[C@H](C(C)C)C(=O)O[C@@H]1C
REMARK SMILES IDX 30 1 31 2 29 3 32 5 35 6 37 7 34 8 38 9 33 10 39 11 36 12
REMARK SMILES IDX 40 14 41 15 42 16 43 17 44 18 45 19 46 20 47 21 48 22 49 23
REMARK SMILES IDX 50 24 51 25 52 26 56 27 53 28 55 29 54 30 57 31 58 32 59 33
REMARK SMILES IDX 60 35 61 36 62 37 63 38 64 39 65 40 66 41 67 42 68 43 21 45
REMARK SMILES IDX 20 46 18 47 19 48 17 50 16 52 14 53 15 54 9 56 8 57 6 58
REMARK SMILES IDX 7 59 5 61 4 62 3 63 2 64 1 65 10 66 11 67 12 68 13 69 22 71
REMARK SMILES IDX 23 72 24 73 25 74 26 75 27 76 28 77
REMARK H PARENT 31 4 36 13 59 34 20 49 16 55 8 60 13 70 27 78 27 79 28 80
REMARK H PARENT 28 81
REMARK Flexibility Score:  259.900
ROOT
ATOM      1  O   UNL     1      -4.206   3.399   5.501  1.00  0.00    -0.273 OA
ATOM      2  N   UNL     1      -2.171   3.368   6.545  1.00  0.00    -0.343 N 
ATOM      3  C   UNL     1      -3.518   3.084   6.473  1.00  0.00     0.243 C 
ATOM      4  H   UNL     1      -1.634   3.081   7.353  1.00  0.00     0.164 HD
ENDROOT
BRANCH   2   5
ATOM      5  C   UNL     1      -1.524   4.167   5.510  1.00  0.00     0.171 C 
ATOM      6  C   UNL     1       1.241   4.447   4.685  1.00  0.00     0.214 C 
ATOM      7  N   UNL     1       0.706   5.335   5.690  1.00  0.00    -0.303 N 
ATOM      8  C   UNL     1       0.198   3.969   3.688  1.00  0.00     0.057 C 
ATOM      9  C   UNL     1      -0.590   5.224   6.166  1.00  0.00     0.247 C 
ATOM     10  C   UNL     1      -0.931   3.276   4.419  1.00  0.00     0.040 C 
ATOM     11  O   UNL     1      -1.013   5.932   7.089  1.00  0.00    -0.272 OA
BRANCH   6  12
ATOM     12  O   UNL     1       1.827   3.350   5.347  1.00  0.00    -0.373 OA
ATOM     13  H   UNL     1       1.360   3.249   6.204  1.00  0.00     0.213 HD
ENDBRANCH   6  12
BRANCH   7  14
ATOM     14  C   UNL     1       1.649   6.290   6.310  1.00  0.00     0.177 C 
BRANCH  14  15
ATOM     15  C   UNL     1       2.653   5.672   7.303  1.00  0.00     0.038 C 
BRANCH  15  16
ATOM     16  C   UNL     1       2.324   5.663   8.812  1.00  0.00    -0.015 C 
ATOM     17  C   UNL     1       1.541   6.906   9.246  1.00  0.00     0.007 C 
ATOM     18  C   UNL     1       3.623   5.605   9.626  1.00  0.00     0.007 C 
ENDBRANCH  15  16
ENDBRANCH  14  15
BRANCH  14  19
ATOM     19  C   UNL     1       1.959   7.467   5.322  1.00  0.00     0.245 C 
ATOM     20  O   UNL     1       0.999   8.177   4.979  1.00  0.00    -0.272 OA
BRANCH  19  21
ATOM     21  N   UNL     1       3.195   7.679   4.739  1.00  0.00    -0.332 N 
ATOM     22  C   UNL     1       3.873   6.759   3.842  1.00  0.00     0.147 C 
BRANCH  21  23
ATOM     23  C   UNL     1       3.907   8.947   5.057  1.00  0.00     0.178 C 
BRANCH  23  24
ATOM     24  C   UNL     1       5.114   8.790   6.005  1.00  0.00     0.070 C 
BRANCH  24  25
ATOM     25  C   UNL     1       4.862   8.991   7.481  1.00  0.00    -0.045 A 
ATOM     26  C   UNL     1       3.742   9.705   7.926  1.00  0.00     0.004 A 
ATOM     27  C   UNL     1       5.753   8.467   8.429  1.00  0.00     0.004 A 
ATOM     28  C   UNL     1       3.525   9.902   9.291  1.00  0.00     0.000 A 
ATOM     29  C   UNL     1       5.534   8.664   9.793  1.00  0.00     0.000 A 
ATOM     30  C   UNL     1       4.421   9.384  10.223  1.00  0.00     0.000 A 
ENDBRANCH  24  25
ENDBRANCH  23  24
BRANCH  23  31
ATOM     31  C   UNL     1       4.169   9.823   3.808  1.00  0.00     0.243 C 
ATOM     32  O   UNL     1       3.283  10.268   3.084  1.00  0.00    -0.273 OA
ATOM     33  N   UNL     1       5.508   9.911   3.466  1.00  0.00    -0.341 N 
ATOM     34  H   UNL     1       6.200   9.515   4.107  1.00  0.00     0.164 HD
BRANCH  33  35
ATOM     35  C   UNL     1       5.979  10.588   2.255  1.00  0.00     0.194 C 
BRANCH  35  36
ATOM     36  C   UNL     1       6.473   9.624   1.139  1.00  0.00     0.017 C 
ATOM     37  C   UNL     1       5.367   9.352   0.105  1.00  0.00     0.010 C 
ATOM     38  C   UNL     1       6.942   8.266   1.678  1.00  0.00     0.010 C 
ENDBRANCH  35  36
BRANCH  35  39
ATOM     39  C   UNL     1       7.018  11.704   2.559  1.00  0.00     0.329 C 
ATOM     40  O   UNL     1       8.230  11.527   2.573  1.00  0.00    -0.250 OA
BRANCH  39  41
ATOM     41  O   UNL     1       6.432  12.928   2.725  1.00  0.00    -0.458 OA
BRANCH  41  42
ATOM     42  C   UNL     1       7.096  13.838   3.635  1.00  0.00     0.205 CG0
ATOM     43  C   UNL     1       6.428  15.202   3.480  1.00  0.00     0.056 C 
ATOM     44  G   UNL     1       8.597  13.873   3.287  1.00  0.00     0.000 G0
ENDBRANCH  41  42
ENDBRANCH  39  41
ENDBRANCH  35  39
ENDBRANCH  33  35
ENDBRANCH  23  31
ENDBRANCH  21  23
ENDBRANCH  19  21
ENDBRANCH  14  19
ENDBRANCH   7  14
ENDBRANCH   2   5
BRANCH   3  45
ATOM     45  C   UNL     1      -4.096   2.331   7.678  1.00  0.00     0.171 C 
BRANCH  45  46
ATOM     46  N   UNL     1      -4.296   0.960   7.227  1.00  0.00    -0.342 N 
ATOM     47  C   UNL     1      -3.944  -0.125   7.989  1.00  0.00     0.247 C 
ATOM     48  O   UNL     1      -3.503  -0.022   9.135  1.00  0.00    -0.273 OA
ATOM     49  H   UNL     1      -4.711   0.829   6.306  1.00  0.00     0.164 HD
BRANCH  47  50
ATOM     50  C   UNL     1      -4.113  -1.486   7.300  1.00  0.00     0.212 CG0
ATOM     51  G   UNL     1      -5.097  -2.319   8.145  1.00  0.00     0.000 G0
BRANCH  50  52
ATOM     52  N   UNL     1      -4.613  -1.186   5.961  1.00  0.00    -0.339 N 
ATOM     53  C   UNL     1      -5.729  -1.777   5.421  1.00  0.00     0.243 C 
ATOM     54  O   UNL     1      -6.365  -2.649   6.006  1.00  0.00    -0.273 OA
ATOM     55  H   UNL     1      -4.064  -0.552   5.383  1.00  0.00     0.164 HD
BRANCH  53  56
ATOM     56  C   UNL     1      -6.012  -1.366   3.962  1.00  0.00     0.182 C 
BRANCH  56  57
ATOM     57  N   UNL     1      -4.796  -0.870   3.309  1.00  0.00    -0.344 N 
ATOM     58  C   UNL     1      -4.260  -1.472   2.197  1.00  0.00     0.220 C 
ATOM     59  O   UNL     1      -4.715  -2.505   1.717  1.00  0.00    -0.275 OA
ATOM     60  H   UNL     1      -4.448   0.036   3.611  1.00  0.00     0.164 HD
BRANCH  58  61
ATOM     61  C   UNL     1      -3.037  -0.755   1.656  1.00  0.00     0.100 C 
BRANCH  61  62
ATOM     62  C   UNL     1      -1.734  -1.151   2.350  1.00  0.00     0.010 C 
BRANCH  62  63
ATOM     63  C   UNL     1      -0.474  -0.559   1.705  1.00  0.00     0.000 C 
BRANCH  63  64
ATOM     64  C   UNL     1      -0.501   0.961   1.554  1.00  0.00    -0.003 C 
ATOM     65  C   UNL     1      -0.429   1.376   0.092  1.00  0.00     0.004 C 
ENDBRANCH  63  64
ENDBRANCH  62  63
ENDBRANCH  61  62
ENDBRANCH  58  61
ENDBRANCH  56  57
BRANCH  56  66
ATOM     66  C   UNL     1      -7.163  -0.365   3.875  1.00  0.00     0.157 C 
BRANCH  66  67
ATOM     67  C   UNL     1      -6.854   0.886   4.646  1.00  0.00     0.305 C 
ATOM     68  O   UNL     1      -7.057   1.083   5.835  1.00  0.00    -0.252 OA
BRANCH  67  69
ATOM     69  O   UNL     1      -6.251   1.820   3.886  1.00  0.00    -0.481 OA
ATOM     70  H   UNL     1      -6.610   1.679   2.985  1.00  0.00     0.296 HD
ENDBRANCH  67  69
ENDBRANCH  66  67
ENDBRANCH  56  66
ENDBRANCH  53  56
ENDBRANCH  50  52
ENDBRANCH  47  50
ENDBRANCH  45  46
BRANCH  45  71
ATOM     71  C   UNL     1      -5.411   2.975   8.129  1.00  0.00     0.037 C 
BRANCH  71  72
ATOM     72  C   UNL     1      -5.937   2.362   9.430  1.00  0.00     0.026 C 
BRANCH  72  73
ATOM     73  C   UNL     1      -5.817   3.338  10.598  1.00  0.00     0.146 C 
BRANCH  73  74
ATOM     74  N   UNL     1      -4.926   2.741  11.589  1.00  0.00    -0.254 NA
ATOM     75  C   UNL     1      -4.123   3.518  12.217  1.00  0.00     0.185 C 
ATOM     76  N   UNL     1      -3.291   2.999  13.135  1.00  0.00    -0.370 N 
ATOM     77  N   UNL     1      -3.969   4.849  12.099  1.00  0.00    -0.370 N 
ATOM     78  H   UNL     1      -3.337   2.001  13.282  1.00  0.00     0.159 HD
ATOM     79  H   UNL     1      -2.541   3.517  13.558  1.00  0.00     0.159 HD
ATOM     80  H   UNL     1      -4.531   5.375  11.447  1.00  0.00     0.159 HD
ATOM     81  H   UNL     1      -3.384   5.371  12.730  1.00  0.00     0.159 HD
ENDBRANCH  73  74
ENDBRANCH  72  73
ENDBRANCH  71  72
ENDBRANCH  45  71
ENDBRANCH   3  45
TORSDOF 20
ENDMDL
MODEL 3
REMARK VINA RESULT:    -5.337      1.439      2.144
REMARK INTER + INTRA:         -23.799
REMARK INTER:                 -17.474
REMARK INTRA:                  -6.325
REMARK UNBOUND:                -8.478
REMARK SMILES CCCCCC(=O)N[C@H](CC(=O)O)C(=O)N[C@H]1C(=O)N[C@H](CCCN=C(N)N)C(=O)N[C@@H]2CC[C@H](O)N(C2=O)[C@@H](CC(C)C)C(=O)N(C)[C@@H](Cc2ccccc2)C(=O)N[C@H](C(C)C)C(=O)O[C@@H]1C
REMARK SMILES IDX 30 1 31 2 29 3 32 5 35 6 37 7 34 8 38 9 33 10 39 11 36 12
REMARK SMILES IDX 40 14 41 15 42 16 43 17 44 18 45 19 46 20 47 21 48 22 49 23
REMARK SMILES IDX 50 24 51 25 52 26 56 27 53 28 55 29 54 30 57 31 58 32 59 33
REMARK SMILES IDX 60 35 61 36 62 37 63 38 64 39 65 40 66 41 67 42 68 43 21 45
REMARK SMILES IDX 20 46 18 47 19 48 17 50 16 52 14 53 15 54 9 56 8 57 6 58
REMARK SMILES IDX 7 59 5 61 4 62 3 63 2 64 1 65 10 66 11 67 12 68 13 69 22 71
REMARK SMILES IDX 23 72 24 73 25 74 26 75 27 76 28 77
REMARK H PARENT 31 4 36 13 59 34 20 49 16 55 8 60 13 70 27 78 27 79 28 80
REMARK H PARENT 28 81
REMARK Flexibility Score:  259.900
ROOT
ATOM      1  O   UNL     1       8.274   2.511  -4.415  1.00  0.00    -0.273 OA
ATOM      2  N   UNL     1       7.643   4.611  -3.763  1.00  0.00    -0.343 N 
ATOM      3  C   UNL     1       8.236   3.722  -4.634  1.00  0.00     0.243 C 
ATOM      4  H   UNL     1       7.618   5.599  -3.984  1.00  0.00     0.164 HD
ENDROOT
BRANCH   2   5
ATOM      5  C   UNL     1       7.135   4.159  -2.473  1.00  0.00     0.171 C 
ATOM      6  C   UNL     1       5.316   5.345  -0.553  1.00  0.00     0.214 C 
ATOM      7  N   UNL     1       6.734   5.590  -0.433  1.00  0.00    -0.303 N 
ATOM      8  C   UNL     1       4.988   3.996  -1.174  1.00  0.00     0.057 C 
ATOM      9  C   UNL     1       7.653   5.096  -1.344  1.00  0.00     0.247 C 
ATOM     10  C   UNL     1       5.633   3.890  -2.539  1.00  0.00     0.040 C 
ATOM     11  O   UNL     1       8.856   5.382  -1.284  1.00  0.00    -0.272 OA
BRANCH   6  12
ATOM     12  O   UNL     1       4.762   6.388  -1.322  1.00  0.00    -0.373 OA
ATOM     13  H   UNL     1       4.156   5.975  -1.973  1.00  0.00     0.213 HD
ENDBRANCH   6  12
BRANCH   7  14
ATOM     14  C   UNL     1       7.165   6.522   0.631  1.00  0.00     0.177 C 
BRANCH  14  15
ATOM     15  C   UNL     1       7.002   8.018   0.299  1.00  0.00     0.038 C 
BRANCH  15  16
ATOM     16  C   UNL     1       8.139   8.762  -0.436  1.00  0.00    -0.015 C 
ATOM     17  C   UNL     1       9.523   8.394   0.105  1.00  0.00     0.007 C 
ATOM     18  C   UNL     1       7.950  10.277  -0.282  1.00  0.00     0.007 C 
ENDBRANCH  15  16
ENDBRANCH  14  15
BRANCH  14  19
ATOM     19  C   UNL     1       6.943   5.876   2.042  1.00  0.00     0.245 C 
ATOM     20  O   UNL     1       7.593   4.848   2.296  1.00  0.00    -0.272 OA
BRANCH  19  21
ATOM     21  N   UNL     1       5.999   6.318   2.952  1.00  0.00    -0.332 N 
ATOM     22  C   UNL     1       4.587   5.980   2.933  1.00  0.00     0.147 C 
BRANCH  21  23
ATOM     23  C   UNL     1       6.454   7.226   4.041  1.00  0.00     0.178 C 
BRANCH  23  24
ATOM     24  C   UNL     1       6.046   8.703   3.863  1.00  0.00     0.070 C 
BRANCH  24  25
ATOM     25  C   UNL     1       7.158   9.726   3.838  1.00  0.00    -0.045 A 
ATOM     26  C   UNL     1       8.455   9.366   3.452  1.00  0.00     0.004 A 
ATOM     27  C   UNL     1       6.904  11.055   4.208  1.00  0.00     0.004 A 
ATOM     28  C   UNL     1       9.481  10.314   3.449  1.00  0.00     0.000 A 
ATOM     29  C   UNL     1       7.931  12.001   4.203  1.00  0.00     0.000 A 
ATOM     30  C   UNL     1       9.219  11.629   3.826  1.00  0.00     0.000 A 
ENDBRANCH  24  25
ENDBRANCH  23  24
BRANCH  23  31
ATOM     31  C   UNL     1       6.203   6.647   5.454  1.00  0.00     0.243 C 
ATOM     32  O   UNL     1       6.698   5.601   5.865  1.00  0.00    -0.273 OA
ATOM     33  N   UNL     1       5.218   7.317   6.159  1.00  0.00    -0.341 N 
ATOM     34  H   UNL     1       4.838   8.180   5.762  1.00  0.00     0.164 HD
BRANCH  33  35
ATOM     35  C   UNL     1       4.731   6.874   7.469  1.00  0.00     0.194 C 
BRANCH  35  36
ATOM     36  C   UNL     1       3.188   6.965   7.637  1.00  0.00     0.017 C 
ATOM     37  C   UNL     1       2.604   5.641   8.158  1.00  0.00     0.010 C 
ATOM     38  C   UNL     1       2.458   7.308   6.333  1.00  0.00     0.010 C 
ENDBRANCH  35  36
BRANCH  35  39
ATOM     39  C   UNL     1       5.485   7.553   8.647  1.00  0.00     0.329 C 
ATOM     40  O   UNL     1       5.861   8.718   8.640  1.00  0.00    -0.250 OA
BRANCH  39  41
ATOM     41  O   UNL     1       5.604   6.728   9.731  1.00  0.00    -0.458 OA
BRANCH  41  42
ATOM     42  C   UNL     1       6.025   7.351  10.968  1.00  0.00     0.205 CG0
ATOM     43  C   UNL     1       7.358   6.720  11.364  1.00  0.00     0.056 C 
ATOM     44  G   UNL     1       4.929   7.129  12.029  1.00  0.00     0.000 G0
ENDBRANCH  41  42
ENDBRANCH  39  41
ENDBRANCH  35  39
ENDBRANCH  33  35
ENDBRANCH  23  31
ENDBRANCH  21  23
ENDBRANCH  19  21
ENDBRANCH  14  19
ENDBRANCH   7  14
ENDBRANCH   2   5
BRANCH   3  45
ATOM     45  C   UNL     1       8.827   4.344  -5.907  1.00  0.00     0.171 C 
BRANCH  45  46
ATOM     46  N   UNL     1       7.702   4.522  -6.816  1.00  0.00    -0.342 N 
ATOM     47  C   UNL     1       7.458   5.709  -7.461  1.00  0.00     0.247 C 
ATOM     48  O   UNL     1       8.207   6.682  -7.377  1.00  0.00    -0.273 OA
ATOM     49  H   UNL     1       7.088   3.723  -6.959  1.00  0.00     0.164 HD
BRANCH  47  50
ATOM     50  C   UNL     1       6.160   5.747  -8.280  1.00  0.00     0.212 CG0
ATOM     51  G   UNL     1       6.040   4.405  -9.030  1.00  0.00     0.000 G0
BRANCH  50  52
ATOM     52  N   UNL     1       5.091   5.963  -7.308  1.00  0.00    -0.339 N 
ATOM     53  C   UNL     1       4.379   4.941  -6.729  1.00  0.00     0.243 C 
ATOM     54  O   UNL     1       4.552   3.762  -7.027  1.00  0.00    -0.273 OA
ATOM     55  H   UNL     1       4.826   6.924  -7.103  1.00  0.00     0.164 HD
BRANCH  53  56
ATOM     56  C   UNL     1       3.244   5.415  -5.800  1.00  0.00     0.182 C 
BRANCH  56  57
ATOM     57  N   UNL     1       1.934   5.010  -6.320  1.00  0.00    -0.344 N 
ATOM     58  C   UNL     1       1.468   5.424  -7.544  1.00  0.00     0.220 C 
ATOM     59  O   UNL     1       2.079   6.216  -8.253  1.00  0.00    -0.275 OA
ATOM     60  H   UNL     1       1.443   4.278  -5.813  1.00  0.00     0.164 HD
BRANCH  58  61
ATOM     61  C   UNL     1       0.116   4.836  -7.903  1.00  0.00     0.100 C 
BRANCH  61  62
ATOM     62  C   UNL     1      -1.002   5.223  -6.934  1.00  0.00     0.010 C 
BRANCH  62  63
ATOM     63  C   UNL     1      -1.577   4.045  -6.137  1.00  0.00     0.000 C 
BRANCH  63  64
ATOM     64  C   UNL     1      -2.014   4.403  -4.717  1.00  0.00    -0.003 C 
ATOM     65  C   UNL     1      -3.487   4.092  -4.495  1.00  0.00     0.004 C 
ENDBRANCH  63  64
ENDBRANCH  62  63
ENDBRANCH  61  62
ENDBRANCH  58  61
ENDBRANCH  56  57
BRANCH  56  66
ATOM     66  C   UNL     1       3.322   6.919  -5.542  1.00  0.00     0.157 C 
BRANCH  66  67
ATOM     67  C   UNL     1       2.471   7.315  -4.370  1.00  0.00     0.305 C 
ATOM     68  O   UNL     1       2.841   7.471  -3.216  1.00  0.00    -0.252 OA
BRANCH  67  69
ATOM     69  O   UNL     1       1.193   7.548  -4.722  1.00  0.00    -0.481 OA
ATOM     70  H   UNL     1       0.758   7.854  -3.898  1.00  0.00     0.296 HD
ENDBRANCH  67  69
ENDBRANCH  66  67
ENDBRANCH  56  66
ENDBRANCH  53  56
ENDBRANCH  50  52
ENDBRANCH  47  50
ENDBRANCH  45  46
BRANCH  45  71
ATOM     71  C   UNL     1       9.897   3.424  -6.504  1.00  0.00     0.037 C 
BRANCH  71  72
ATOM     72  C   UNL     1       9.894   3.454  -8.034  1.00  0.00     0.026 C 
BRANCH  72  73
ATOM     73  C   UNL     1       9.510   2.097  -8.621  1.00  0.00     0.146 C 
BRANCH  73  74
ATOM     74  N   UNL     1       8.135   2.190  -9.101  1.00  0.00    -0.254 NA
ATOM     75  C   UNL     1       7.236   1.525  -8.475  1.00  0.00     0.185 C 
ATOM     76  N   UNL     1       5.961   1.592  -8.892  1.00  0.00    -0.370 N 
ATOM     77  N   UNL     1       7.369   0.725  -7.403  1.00  0.00    -0.370 N 
ATOM     78  H   UNL     1       5.773   2.168  -9.700  1.00  0.00     0.159 HD
ATOM     79  H   UNL     1       5.233   0.992  -8.546  1.00  0.00     0.159 HD
ATOM     80  H   UNL     1       8.273   0.583  -6.978  1.00  0.00     0.159 HD
ATOM     81  H   UNL     1       6.569   0.344  -6.925  1.00  0.00     0.159 HD
ENDBRANCH  73  74
ENDBRANCH  72  73
ENDBRANCH  71  72
ENDBRANCH  45  71
ENDBRANCH   3  45
TORSDOF 20
ENDMDL
MODEL 4
REMARK VINA RESULT:    -5.257      8.073     13.862
REMARK INTER + INTRA:         -23.569
REMARK INTER:                 -17.455
REMARK INTRA:                  -6.114
REMARK UNBOUND:                -8.478
REMARK SMILES CCCCCC(=O)N[C@H](CC(=O)O)C(=O)N[C@H]1C(=O)N[C@H](CCCN=C(N)N)C(=O)N[C@@H]2CC[C@H](O)N(C2=O)[C@@H](CC(C)C)C(=O)N(C)[C@@H](Cc2ccccc2)C(=O)N[C@H](C(C)C)C(=O)O[C@@H]1C
REMARK SMILES IDX 30 1 31 2 29 3 32 5 35 6 37 7 34 8 38 9 33 10 39 11 36 12
REMARK SMILES IDX 40 14 41 15 42 16 43 17 44 18 45 19 46 20 47 21 48 22 49 23
REMARK SMILES IDX 50 24 51 25 52 26 56 27 53 28 55 29 54 30 57 31 58 32 59 33
REMARK SMILES IDX 60 35 61 36 62 37 63 38 64 39 65 40 66 41 67 42 68 43 21 45
REMARK SMILES IDX 20 46 18 47 19 48 17 50 16 52 14 53 15 54 9 56 8 57 6 58
REMARK SMILES IDX 7 59 5 61 4 62 3 63 2 64 1 65 10 66 11 67 12 68 13 69 22 71
REMARK SMILES IDX 23 72 24 73 25 74 26 75 27 76 28 77
REMARK H PARENT 31 4 36 13 59 34 20 49 16 55 8 60 13 70 27 78 27 79 28 80
REMARK H PARENT 28 81
REMARK Flexibility Score:  259.900
ROOT
ATOM      1  O   UNL     1      -4.159   2.940   5.024  1.00  0.00    -0.273 OA
ATOM      2  N   UNL     1      -2.102   2.917   6.023  1.00  0.00    -0.343 N 
ATOM      3  C   UNL     1      -3.439   2.587   5.959  1.00  0.00     0.243 C 
ATOM      4  H   UNL     1      -1.536   2.597   6.800  1.00  0.00     0.164 HD
ENDROOT
BRANCH   2   5
ATOM      5  C   UNL     1      -1.508   3.808   5.032  1.00  0.00     0.171 C 
ATOM      6  C   UNL     1       1.239   4.400   4.319  1.00  0.00     0.214 C 
ATOM      7  N   UNL     1       0.578   5.199   5.324  1.00  0.00    -0.303 N 
ATOM      8  C   UNL     1       0.287   3.843   3.272  1.00  0.00     0.057 C 
ATOM      9  C   UNL     1      -0.715   4.938   5.748  1.00  0.00     0.247 C 
ATOM     10  C   UNL     1      -0.786   3.015   3.944  1.00  0.00     0.040 C 
ATOM     11  O   UNL     1      -1.243   5.573   6.671  1.00  0.00    -0.272 OA
BRANCH   6  12
ATOM     12  O   UNL     1       1.915   3.353   4.976  1.00  0.00    -0.373 OA
ATOM     13  H   UNL     1       1.464   3.216   5.837  1.00  0.00     0.213 HD
ENDBRANCH   6  12
BRANCH   7  14
ATOM     14  C   UNL     1       1.392   6.231   6.002  1.00  0.00     0.177 C 
BRANCH  14  15
ATOM     15  C   UNL     1       2.387   5.697   7.051  1.00  0.00     0.038 C 
BRANCH  15  16
ATOM     16  C   UNL     1       1.958   5.612   8.532  1.00  0.00    -0.015 C 
ATOM     17  C   UNL     1       1.072   6.789   8.953  1.00  0.00     0.007 C 
ATOM     18  C   UNL     1       3.200   5.600   9.432  1.00  0.00     0.007 C 
ENDBRANCH  15  16
ENDBRANCH  14  15
BRANCH  14  19
ATOM     19  C   UNL     1       1.652   7.438   5.036  1.00  0.00     0.245 C 
ATOM     20  O   UNL     1       0.683   8.175   4.789  1.00  0.00    -0.272 OA
BRANCH  19  21
ATOM     21  N   UNL     1       2.848   7.652   4.374  1.00  0.00    -0.332 N 
ATOM     22  C   UNL     1       3.341   6.871   3.253  1.00  0.00     0.147 C 
BRANCH  21  23
ATOM     23  C   UNL     1       3.716   8.765   4.846  1.00  0.00     0.178 C 
BRANCH  23  24
ATOM     24  C   UNL     1       4.809   8.350   5.852  1.00  0.00     0.070 C 
BRANCH  24  25
ATOM     25  C   UNL     1       4.581   8.707   7.303  1.00  0.00    -0.045 A 
ATOM     26  C   UNL     1       5.502   8.331   8.288  1.00  0.00     0.004 A 
ATOM     27  C   UNL     1       3.434   9.420   7.684  1.00  0.00     0.004 A 
ATOM     28  C   UNL     1       5.276   8.650   9.628  1.00  0.00     0.000 A 
ATOM     29  C   UNL     1       3.209   9.740   9.024  1.00  0.00     0.000 A 
ATOM     30  C   UNL     1       4.129   9.352   9.995  1.00  0.00     0.000 A 
ENDBRANCH  24  25
ENDBRANCH  23  24
BRANCH  23  31
ATOM     31  C   UNL     1       4.202   9.681   3.697  1.00  0.00     0.243 C 
ATOM     32  O   UNL     1       3.452  10.318   2.962  1.00  0.00    -0.273 OA
ATOM     33  N   UNL     1       5.560   9.578   3.445  1.00  0.00    -0.341 N 
ATOM     34  H   UNL     1       6.133   9.027   4.089  1.00  0.00     0.164 HD
BRANCH  33  35
ATOM     35  C   UNL     1       6.219  10.261   2.329  1.00  0.00     0.194 C 
BRANCH  35  36
ATOM     36  C   UNL     1       6.591   9.327   1.143  1.00  0.00     0.017 C 
ATOM     37  C   UNL     1       5.509   9.353   0.050  1.00  0.00     0.010 C 
ATOM     38  C   UNL     1       6.784   7.865   1.563  1.00  0.00     0.010 C 
ENDBRANCH  35  36
BRANCH  35  39
ATOM     39  C   UNL     1       7.426  11.127   2.787  1.00  0.00     0.329 C 
ATOM     40  O   UNL     1       8.408  10.681   3.371  1.00  0.00    -0.250 OA
BRANCH  39  41
ATOM     41  O   UNL     1       7.313  12.430   2.389  1.00  0.00    -0.458 OA
BRANCH  41  42
ATOM     42  C   UNL     1       8.379  12.939   1.552  1.00  0.00     0.205 CG0
ATOM     43  C   UNL     1       8.124  14.432   1.351  1.00  0.00     0.056 C 
ATOM     44  G   UNL     1       8.378  12.157   0.223  1.00  0.00     0.000 G0
ENDBRANCH  41  42
ENDBRANCH  39  41
ENDBRANCH  35  39
ENDBRANCH  33  35
ENDBRANCH  23  31
ENDBRANCH  21  23
ENDBRANCH  19  21
ENDBRANCH  14  19
ENDBRANCH   7  14
ENDBRANCH   2   5
BRANCH   3  45
ATOM     45  C   UNL     1      -3.962   1.733   7.121  1.00  0.00     0.171 C 
BRANCH  45  46
ATOM     46  N   UNL     1      -5.323   1.364   6.757  1.00  0.00    -0.342 N 
ATOM     47  C   UNL     1      -5.880   0.161   7.112  1.00  0.00     0.247 C 
ATOM     48  O   UNL     1      -5.300  -0.660   7.822  1.00  0.00    -0.273 OA
ATOM     49  H   UNL     1      -5.860   2.040   6.216  1.00  0.00     0.164 HD
BRANCH  47  50
ATOM     50  C   UNL     1      -7.278  -0.104   6.534  1.00  0.00     0.212 CG0
ATOM     51  G   UNL     1      -8.070   1.217   6.602  1.00  0.00     0.000 G0
BRANCH  50  52
ATOM     52  N   UNL     1      -7.053  -0.572   5.170  1.00  0.00    -0.339 N 
ATOM     53  C   UNL     1      -6.730  -1.871   4.860  1.00  0.00     0.243 C 
ATOM     54  O   UNL     1      -6.552  -2.731   5.718  1.00  0.00    -0.273 OA
ATOM     55  H   UNL     1      -7.077   0.119   4.422  1.00  0.00     0.164 HD
BRANCH  53  56
ATOM     56  C   UNL     1      -6.455  -2.109   3.361  1.00  0.00     0.182 C 
BRANCH  56  57
ATOM     57  N   UNL     1      -5.565  -3.258   3.165  1.00  0.00    -0.344 N 
ATOM     58  C   UNL     1      -6.040  -4.531   2.962  1.00  0.00     0.220 C 
ATOM     59  O   UNL     1      -7.233  -4.808   3.002  1.00  0.00    -0.275 OA
ATOM     60  H   UNL     1      -4.579  -3.057   3.024  1.00  0.00     0.164 HD
BRANCH  58  61
ATOM     61  C   UNL     1      -4.942  -5.551   2.724  1.00  0.00     0.100 C 
BRANCH  61  62
ATOM     62  C   UNL     1      -4.839  -6.018   1.272  1.00  0.00     0.010 C 
BRANCH  62  63
ATOM     63  C   UNL     1      -3.782  -5.273   0.446  1.00  0.00     0.000 C 
BRANCH  63  64
ATOM     64  C   UNL     1      -2.745  -4.526   1.283  1.00  0.00    -0.003 C 
ATOM     65  C   UNL     1      -2.040  -3.453   0.466  1.00  0.00     0.004 C 
ENDBRANCH  63  64
ENDBRANCH  62  63
ENDBRANCH  61  62
ENDBRANCH  58  61
ENDBRANCH  56  57
BRANCH  56  66
ATOM     66  C   UNL     1      -5.927  -0.848   2.681  1.00  0.00     0.157 C 
BRANCH  66  67
ATOM     67  C   UNL     1      -4.462  -0.658   2.950  1.00  0.00     0.305 C 
ATOM     68  O   UNL     1      -3.533  -1.155   2.332  1.00  0.00    -0.252 OA
BRANCH  67  69
ATOM     69  O   UNL     1      -4.234   0.200   3.962  1.00  0.00    -0.481 OA
ATOM     70  H   UNL     1      -3.806  -0.342   4.658  1.00  0.00     0.296 HD
ENDBRANCH  67  69
ENDBRANCH  66  67
ENDBRANCH  56  66
ENDBRANCH  53  56
ENDBRANCH  50  52
ENDBRANCH  47  50
ENDBRANCH  45  46
BRANCH  45  71
ATOM     71  C   UNL     1      -3.922   2.530   8.429  1.00  0.00     0.037 C 
BRANCH  71  72
ATOM     72  C   UNL     1      -3.502   1.664   9.619  1.00  0.00     0.026 C 
BRANCH  72  73
ATOM     73  C   UNL     1      -4.608   1.578  10.668  1.00  0.00     0.146 C 
BRANCH  73  74
ATOM     74  N   UNL     1      -5.104   2.930  10.907  1.00  0.00    -0.254 NA
ATOM     75  C   UNL     1      -4.574   3.602  11.862  1.00  0.00     0.185 C 
ATOM     76  N   UNL     1      -5.008   4.850  12.105  1.00  0.00    -0.370 N 
ATOM     77  N   UNL     1      -3.596   3.239  12.709  1.00  0.00    -0.370 N 
ATOM     78  H   UNL     1      -5.750   5.199  11.516  1.00  0.00     0.159 HD
ATOM     79  H   UNL     1      -4.746   5.378  12.918  1.00  0.00     0.159 HD
ATOM     80  H   UNL     1      -3.170   2.327  12.642  1.00  0.00     0.159 HD
ATOM     81  H   UNL     1      -3.179   3.897  13.348  1.00  0.00     0.159 HD
ENDBRANCH  73  74
ENDBRANCH  72  73
ENDBRANCH  71  72
ENDBRANCH  45  71
ENDBRANCH   3  45
TORSDOF 20
ENDMDL
MODEL 5
REMARK VINA RESULT:    -5.210      8.625     13.601
REMARK INTER + INTRA:         -23.436
REMARK INTER:                 -16.926
REMARK INTRA:                  -6.510
REMARK UNBOUND:                -8.478
REMARK SMILES CCCCCC(=O)N[C@H](CC(=O)O)C(=O)N[C@H]1C(=O)N[C@H](CCCN=C(N)N)C(=O)N[C@@H]2CC[C@H](O)N(C2=O)[C@@H](CC(C)C)C(=O)N(C)[C@@H](Cc2ccccc2)C(=O)N[C@H](C(C)C)C(=O)O[C@@H]1C
REMARK SMILES IDX 30 1 31 2 29 3 32 5 35 6 37 7 34 8 38 9 33 10 39 11 36 12
REMARK SMILES IDX 40 14 41 15 42 16 43 17 44 18 45 19 46 20 47 21 48 22 49 23
REMARK SMILES IDX 50 24 51 25 52 26 56 27 53 28 55 29 54 30 57 31 58 32 59 33
REMARK SMILES IDX 60 35 61 36 62 37 63 38 64 39 65 40 66 41 67 42 68 43 21 45
REMARK SMILES IDX 20 46 18 47 19 48 17 50 16 52 14 53 15 54 9 56 8 57 6 58
REMARK SMILES IDX 7 59 5 61 4 62 3 63 2 64 1 65 10 66 11 67 12 68 13 69 22 71
REMARK SMILES IDX 23 72 24 73 25 74 26 75 27 76 28 77
REMARK H PARENT 31 4 36 13 59 34 20 49 16 55 8 60 13 70 27 78 27 79 28 80
REMARK H PARENT 28 81
REMARK Flexibility Score:  259.900
ROOT
ATOM      1  O   UNL     1      -4.258   3.210   5.615  1.00  0.00    -0.273 OA
ATOM      2  N   UNL     1      -2.210   3.123   6.631  1.00  0.00    -0.343 N 
ATOM      3  C   UNL     1      -3.568   2.887   6.582  1.00  0.00     0.243 C 
ATOM      4  H   UNL     1      -1.672   2.830   7.437  1.00  0.00     0.164 HD
ENDROOT
BRANCH   2   5
ATOM      5  C   UNL     1      -1.550   3.881   5.574  1.00  0.00     0.171 C 
ATOM      6  C   UNL     1       1.222   4.581   5.097  1.00  0.00     0.214 C 
ATOM      7  N   UNL     1       0.383   5.479   5.856  1.00  0.00    -0.303 N 
ATOM      8  C   UNL     1       0.457   3.772   4.062  1.00  0.00     0.057 C 
ATOM      9  C   UNL     1      -0.935   5.182   6.163  1.00  0.00     0.247 C 
ATOM     10  C   UNL     1      -0.640   2.980   4.740  1.00  0.00     0.040 C 
ATOM     11  O   UNL     1      -1.621   5.916   6.887  1.00  0.00    -0.272 OA
BRANCH   6  12
ATOM     12  O   UNL     1       1.872   3.725   6.008  1.00  0.00    -0.373 OA
ATOM     13  H   UNL     1       2.648   3.346   5.543  1.00  0.00     0.213 HD
ENDBRANCH   6  12
BRANCH   7  14
ATOM     14  C   UNL     1       1.031   6.678   6.428  1.00  0.00     0.177 C 
BRANCH  14  15
ATOM     15  C   UNL     1       1.760   6.455   7.767  1.00  0.00     0.038 C 
BRANCH  15  16
ATOM     16  C   UNL     1       1.245   7.161   9.041  1.00  0.00    -0.015 C 
ATOM     17  C   UNL     1       2.376   7.511  10.013  1.00  0.00     0.007 C 
ATOM     18  C   UNL     1       0.249   6.250   9.771  1.00  0.00     0.007 C 
ENDBRANCH  15  16
ENDBRANCH  14  15
BRANCH  14  19
ATOM     19  C   UNL     1       1.510   7.636   5.283  1.00  0.00     0.245 C 
ATOM     20  O   UNL     1       0.625   8.175   4.598  1.00  0.00    -0.272 OA
BRANCH  19  21
ATOM     21  N   UNL     1       2.836   7.816   4.933  1.00  0.00    -0.332 N 
ATOM     22  C   UNL     1       3.497   7.209   3.791  1.00  0.00     0.147 C 
BRANCH  21  23
ATOM     23  C   UNL     1       3.671   8.695   5.798  1.00  0.00     0.178 C 
BRANCH  23  24
ATOM     24  C   UNL     1       5.099   8.176   6.059  1.00  0.00     0.070 C 
BRANCH  24  25
ATOM     25  C   UNL     1       5.424   7.733   7.467  1.00  0.00    -0.045 A 
ATOM     26  C   UNL     1       5.639   8.672   8.483  1.00  0.00     0.004 A 
ATOM     27  C   UNL     1       5.521   6.367   7.774  1.00  0.00     0.004 A 
ATOM     28  C   UNL     1       5.955   8.255   9.778  1.00  0.00     0.000 A 
ATOM     29  C   UNL     1       5.836   5.952   9.069  1.00  0.00     0.000 A 
ATOM     30  C   UNL     1       6.056   6.896  10.069  1.00  0.00     0.000 A 
ENDBRANCH  24  25
ENDBRANCH  23  24
BRANCH  23  31
ATOM     31  C   UNL     1       3.582  10.189   5.405  1.00  0.00     0.243 C 
ATOM     32  O   UNL     1       2.769  10.641   4.603  1.00  0.00    -0.273 OA
ATOM     33  N   UNL     1       4.627  10.953   5.897  1.00  0.00    -0.341 N 
ATOM     34  H   UNL     1       5.277  10.519   6.557  1.00  0.00     0.164 HD
BRANCH  33  35
ATOM     35  C   UNL     1       4.813  12.366   5.555  1.00  0.00     0.194 C 
BRANCH  35  36
ATOM     36  C   UNL     1       3.545  13.241   5.758  1.00  0.00     0.017 C 
ATOM     37  C   UNL     1       3.815  14.712   5.395  1.00  0.00     0.010 C 
ATOM     38  C   UNL     1       3.017  13.214   7.198  1.00  0.00     0.010 C 
ENDBRANCH  35  36
BRANCH  35  39
ATOM     39  C   UNL     1       5.433  12.562   4.143  1.00  0.00     0.329 C 
ATOM     40  O   UNL     1       4.821  12.392   3.095  1.00  0.00    -0.250 OA
BRANCH  39  41
ATOM     41  O   UNL     1       6.716  13.033   4.199  1.00  0.00    -0.458 OA
BRANCH  41  42
ATOM     42  C   UNL     1       6.997  14.223   3.424  1.00  0.00     0.205 CG0
ATOM     43  C   UNL     1       8.022  13.839   2.358  1.00  0.00     0.056 C 
ATOM     44  G   UNL     1       7.518  15.318   4.376  1.00  0.00     0.000 G0
ENDBRANCH  41  42
ENDBRANCH  39  41
ENDBRANCH  35  39
ENDBRANCH  33  35
ENDBRANCH  23  31
ENDBRANCH  21  23
ENDBRANCH  19  21
ENDBRANCH  14  19
ENDBRANCH   7  14
ENDBRANCH   2   5
BRANCH   3  45
ATOM     45  C   UNL     1      -4.155   2.176   7.808  1.00  0.00     0.171 C 
BRANCH  45  46
ATOM     46  N   UNL     1      -4.573   0.861   7.338  1.00  0.00    -0.342 N 
ATOM     47  C   UNL     1      -4.176  -0.300   7.951  1.00  0.00     0.247 C 
ATOM     48  O   UNL     1      -3.501  -0.316   8.981  1.00  0.00    -0.273 OA
ATOM     49  H   UNL     1      -5.179   0.830   6.521  1.00  0.00     0.164 HD
BRANCH  47  50
ATOM     50  C   UNL     1      -4.612  -1.591   7.243  1.00  0.00     0.212 CG0
ATOM     51  G   UNL     1      -5.881  -2.106   7.950  1.00  0.00     0.000 G0
BRANCH  50  52
ATOM     52  N   UNL     1      -4.840  -1.213   5.851  1.00  0.00    -0.339 N 
ATOM     53  C   UNL     1      -5.751  -1.841   5.037  1.00  0.00     0.243 C 
ATOM     54  O   UNL     1      -6.410  -2.810   5.405  1.00  0.00    -0.273 OA
ATOM     55  H   UNL     1      -4.245  -0.489   5.454  1.00  0.00     0.164 HD
BRANCH  53  56
ATOM     56  C   UNL     1      -5.754  -1.326   3.583  1.00  0.00     0.182 C 
BRANCH  56  57
ATOM     57  N   UNL     1      -4.436  -0.806   3.207  1.00  0.00    -0.344 N 
ATOM     58  C   UNL     1      -3.644  -1.419   2.266  1.00  0.00     0.220 C 
ATOM     59  O   UNL     1      -3.949  -2.480   1.731  1.00  0.00    -0.275 OA
ATOM     60  H   UNL     1      -4.191   0.119   3.549  1.00  0.00     0.164 HD
BRANCH  58  61
ATOM     61  C   UNL     1      -2.350  -0.675   1.993  1.00  0.00     0.100 C 
BRANCH  61  62
ATOM     62  C   UNL     1      -2.408   0.812   2.343  1.00  0.00     0.010 C 
BRANCH  62  63
ATOM     63  C   UNL     1      -2.004   1.743   1.193  1.00  0.00     0.000 C 
BRANCH  63  64
ATOM     64  C   UNL     1      -0.501   1.790   0.923  1.00  0.00    -0.003 C 
ATOM     65  C   UNL     1      -0.062   3.173   0.463  1.00  0.00     0.004 C 
ENDBRANCH  63  64
ENDBRANCH  62  63
ENDBRANCH  61  62
ENDBRANCH  58  61
ENDBRANCH  56  57
BRANCH  56  66
ATOM     66  C   UNL     1      -6.865  -0.303   3.354  1.00  0.00     0.157 C 
BRANCH  66  67
ATOM     67  C   UNL     1      -6.353   1.100   3.510  1.00  0.00     0.305 C 
ATOM     68  O   UNL     1      -6.058   1.876   2.614  1.00  0.00    -0.252 OA
BRANCH  67  69
ATOM     69  O   UNL     1      -6.284   1.479   4.800  1.00  0.00    -0.481 OA
ATOM     70  H   UNL     1      -7.161   1.873   4.992  1.00  0.00     0.296 HD
ENDBRANCH  67  69
ENDBRANCH  66  67
ENDBRANCH  56  66
ENDBRANCH  53  56
ENDBRANCH  50  52
ENDBRANCH  47  50
ENDBRANCH  45  46
BRANCH  45  71
ATOM     71  C   UNL     1      -5.334   2.975   8.375  1.00  0.00     0.037 C 
BRANCH  71  72
ATOM     72  C   UNL     1      -5.500   2.765   9.882  1.00  0.00     0.026 C 
BRANCH  72  73
ATOM     73  C   UNL     1      -4.150   2.599  10.577  1.00  0.00     0.146 C 
BRANCH  73  74
ATOM     74  N   UNL     1      -4.370   2.717  12.015  1.00  0.00    -0.254 NA
ATOM     75  C   UNL     1      -3.891   3.745  12.612  1.00  0.00     0.185 C 
ATOM     76  N   UNL     1      -4.078   3.882  13.935  1.00  0.00    -0.370 N 
ATOM     77  N   UNL     1      -3.190   4.771  12.098  1.00  0.00    -0.370 N 
ATOM     78  H   UNL     1      -4.590   3.148  14.403  1.00  0.00     0.159 HD
ATOM     79  H   UNL     1      -3.613   4.578  14.491  1.00  0.00     0.159 HD
ATOM     80  H   UNL     1      -2.976   4.804  11.113  1.00  0.00     0.159 HD
ATOM     81  H   UNL     1      -2.964   5.584  12.647  1.00  0.00     0.159 HD
ENDBRANCH  73  74
ENDBRANCH  72  73
ENDBRANCH  71  72
ENDBRANCH  45  71
ENDBRANCH   3  45
TORSDOF 20
ENDMDL
MODEL 6
REMARK VINA RESULT:    -5.206      7.600     11.402
REMARK INTER + INTRA:         -23.422
REMARK INTER:                 -17.978
REMARK INTRA:                  -5.444
REMARK UNBOUND:                -8.478
REMARK SMILES CCCCCC(=O)N[C@H](CC(=O)O)C(=O)N[C@H]1C(=O)N[C@H](CCCN=C(N)N)C(=O)N[C@@H]2CC[C@H](O)N(C2=O)[C@@H](CC(C)C)C(=O)N(C)[C@@H](Cc2ccccc2)C(=O)N[C@H](C(C)C)C(=O)O[C@@H]1C
REMARK SMILES IDX 30 1 31 2 29 3 32 5 35 6 37 7 34 8 38 9 33 10 39 11 36 12
REMARK SMILES IDX 40 14 41 15 42 16 43 17 44 18 45 19 46 20 47 21 48 22 49 23
REMARK SMILES IDX 50 24 51 25 52 26 56 27 53 28 55 29 54 30 57 31 58 32 59 33
REMARK SMILES IDX 60 35 61 36 62 37 63 38 64 39 65 40 66 41 67 42 68 43 21 45
REMARK SMILES IDX 20 46 18 47 19 48 17 50 16 52 14 53 15 54 9 56 8 57 6 58
REMARK SMILES IDX 7 59 5 61 4 62 3 63 2 64 1 65 10 66 11 67 12 68 13 69 22 71
REMARK SMILES IDX 23 72 24 73 25 74 26 75 27 76 28 77
REMARK H PARENT 31 4 36 13 59 34 20 49 16 55 8 60 13 70 27 78 27 79 28 80
REMARK H PARENT 28 81
REMARK Flexibility Score:  259.900
ROOT
ATOM      1  O   UNL     1       3.061  -0.644  -5.799  1.00  0.00    -0.273 OA
ATOM      2  N   UNL     1       1.179   0.589  -5.389  1.00  0.00    -0.343 N 
ATOM      3  C   UNL     1       2.528   0.454  -5.634  1.00  0.00     0.243 C 
ATOM      4  H   UNL     1       0.773   1.510  -5.273  1.00  0.00     0.164 HD
ENDROOT
BRANCH   2   5
ATOM      5  C   UNL     1       0.338  -0.587  -5.194  1.00  0.00     0.171 C 
ATOM      6  C   UNL     1      -2.428  -0.913  -4.390  1.00  0.00     0.214 C 
ATOM      7  N   UNL     1      -1.392  -0.913  -3.385  1.00  0.00    -0.303 N 
ATOM      8  C   UNL     1      -1.962  -1.448  -5.735  1.00  0.00     0.057 C 
ATOM      9  C   UNL     1      -0.056  -0.711  -3.695  1.00  0.00     0.247 C 
ATOM     10  C   UNL     1      -0.785  -0.636  -6.229  1.00  0.00     0.040 C 
ATOM     11  O   UNL     1       0.815  -0.626  -2.819  1.00  0.00    -0.272 OA
BRANCH   6  12
ATOM     12  O   UNL     1      -2.900   0.408  -4.523  1.00  0.00    -0.373 OA
ATOM     13  H   UNL     1      -3.348   0.467  -5.393  1.00  0.00     0.213 HD
ENDBRANCH   6  12
BRANCH   7  14
ATOM     14  C   UNL     1      -1.826  -0.990  -1.974  1.00  0.00     0.177 C 
BRANCH  14  15
ATOM     15  C   UNL     1      -2.356   0.328  -1.377  1.00  0.00     0.038 C 
BRANCH  15  16
ATOM     16  C   UNL     1      -1.358   1.358  -0.803  1.00  0.00    -0.015 C 
ATOM     17  C   UNL     1      -0.122   0.695  -0.187  1.00  0.00     0.007 C 
ATOM     18  C   UNL     1      -2.045   2.196   0.284  1.00  0.00     0.007 C 
ENDBRANCH  15  16
ENDBRANCH  14  15
BRANCH  14  19
ATOM     19  C   UNL     1      -2.386  -2.420  -1.656  1.00  0.00     0.245 C 
ATOM     20  O   UNL     1      -1.859  -3.373  -2.253  1.00  0.00    -0.272 OA
BRANCH  19  21
ATOM     21  N   UNL     1      -3.485  -2.656  -0.849  1.00  0.00    -0.332 N 
ATOM     22  C   UNL     1      -4.851  -2.823  -1.313  1.00  0.00     0.147 C 
BRANCH  21  23
ATOM     23  C   UNL     1      -3.264  -2.736   0.622  1.00  0.00     0.178 C 
BRANCH  23  24
ATOM     24  C   UNL     1      -3.951  -1.623   1.439  1.00  0.00     0.070 C 
BRANCH  24  25
ATOM     25  C   UNL     1      -3.070  -0.782   2.333  1.00  0.00    -0.045 A 
ATOM     26  C   UNL     1      -1.685  -0.984   2.370  1.00  0.00     0.004 A 
ATOM     27  C   UNL     1      -3.632   0.214   3.146  1.00  0.00     0.004 A 
ATOM     28  C   UNL     1      -0.879  -0.214   3.212  1.00  0.00     0.000 A 
ATOM     29  C   UNL     1      -2.826   0.984   3.985  1.00  0.00     0.000 A 
ATOM     30  C   UNL     1      -1.450   0.767   4.020  1.00  0.00     0.000 A 
ENDBRANCH  24  25
ENDBRANCH  23  24
BRANCH  23  31
ATOM     31  C   UNL     1      -3.450  -4.166   1.183  1.00  0.00     0.243 C 
ATOM     32  O   UNL     1      -2.523  -4.895   1.525  1.00  0.00    -0.273 OA
ATOM     33  N   UNL     1      -4.752  -4.630   1.093  1.00  0.00    -0.341 N 
ATOM     34  H   UNL     1      -5.480  -3.977   0.795  1.00  0.00     0.164 HD
BRANCH  33  35
ATOM     35  C   UNL     1      -5.139  -5.997   1.454  1.00  0.00     0.194 C 
BRANCH  35  36
ATOM     36  C   UNL     1      -5.386  -6.929   0.235  1.00  0.00     0.017 C 
ATOM     37  C   UNL     1      -4.685  -6.398  -1.027  1.00  0.00     0.010 C 
ATOM     38  C   UNL     1      -6.872  -7.100  -0.104  1.00  0.00     0.010 C 
ENDBRANCH  35  36
BRANCH  35  39
ATOM     39  C   UNL     1      -6.319  -6.037   2.464  1.00  0.00     0.329 C 
ATOM     40  O   UNL     1      -6.493  -6.934   3.281  1.00  0.00    -0.250 OA
BRANCH  39  41
ATOM     41  O   UNL     1      -7.097  -4.914   2.401  1.00  0.00    -0.458 OA
BRANCH  41  42
ATOM     42  C   UNL     1      -8.323  -4.939   3.169  1.00  0.00     0.205 CG0
ATOM     43  C   UNL     1      -8.435  -3.598   3.891  1.00  0.00     0.056 C 
ATOM     44  G   UNL     1      -8.269  -6.132   4.144  1.00  0.00     0.000 G0
ENDBRANCH  41  42
ENDBRANCH  39  41
ENDBRANCH  35  39
ENDBRANCH  33  35
ENDBRANCH  23  31
ENDBRANCH  21  23
ENDBRANCH  19  21
ENDBRANCH  14  19
ENDBRANCH   7  14
ENDBRANCH   2   5
BRANCH   3  45
ATOM     45  C   UNL     1       3.317   1.768  -5.710  1.00  0.00     0.171 C 
BRANCH  45  46
ATOM     46  N   UNL     1       4.705   1.382  -5.931  1.00  0.00    -0.342 N 
ATOM     47  C   UNL     1       5.430   1.828  -7.007  1.00  0.00     0.247 C 
ATOM     48  O   UNL     1       4.989   2.641  -7.820  1.00  0.00    -0.273 OA
ATOM     49  H   UNL     1       5.128   0.754  -5.250  1.00  0.00     0.164 HD
BRANCH  47  50
ATOM     50  C   UNL     1       6.833   1.219  -7.143  1.00  0.00     0.212 CG0
ATOM     51  G   UNL     1       6.973   0.685  -8.583  1.00  0.00     0.000 G0
BRANCH  50  52
ATOM     52  N   UNL     1       7.761   2.304  -6.837  1.00  0.00    -0.339 N 
ATOM     53  C   UNL     1       8.059   2.705  -5.557  1.00  0.00     0.243 C 
ATOM     54  O   UNL     1       7.524   2.213  -4.568  1.00  0.00    -0.273 OA
ATOM     55  H   UNL     1       8.152   2.826  -7.619  1.00  0.00     0.164 HD
BRANCH  53  56
ATOM     56  C   UNL     1       8.998   3.926  -5.485  1.00  0.00     0.182 C 
BRANCH  56  57
ATOM     57  N   UNL     1       8.547   4.877  -4.463  1.00  0.00    -0.344 N 
ATOM     58  C   UNL     1       9.197   5.029  -3.263  1.00  0.00     0.220 C 
ATOM     59  O   UNL     1      10.152   4.334  -2.932  1.00  0.00    -0.275 OA
ATOM     60  H   UNL     1       7.827   5.540  -4.736  1.00  0.00     0.164 HD
BRANCH  58  61
ATOM     61  C   UNL     1       8.593   6.109  -2.384  1.00  0.00     0.100 C 
BRANCH  61  62
ATOM     62  C   UNL     1       8.119   5.601  -1.022  1.00  0.00     0.010 C 
BRANCH  62  63
ATOM     63  C   UNL     1       6.597   5.634  -0.835  1.00  0.00     0.000 C 
BRANCH  63  64
ATOM     64  C   UNL     1       5.942   6.949  -1.255  1.00  0.00    -0.003 C 
ATOM     65  C   UNL     1       4.703   6.706  -2.104  1.00  0.00     0.004 C 
ENDBRANCH  63  64
ENDBRANCH  62  63
ENDBRANCH  61  62
ENDBRANCH  58  61
ENDBRANCH  56  57
BRANCH  56  66
ATOM     66  C   UNL     1       9.164   4.587  -6.853  1.00  0.00     0.157 C 
BRANCH  66  67
ATOM     67  C   UNL     1       8.188   5.713  -7.035  1.00  0.00     0.305 C 
ATOM     68  O   UNL     1       6.980   5.618  -7.196  1.00  0.00    -0.252 OA
BRANCH  67  69
ATOM     69  O   UNL     1       8.779   6.920  -6.953  1.00  0.00    -0.481 OA
ATOM     70  H   UNL     1       9.740   6.728  -6.941  1.00  0.00     0.296 HD
ENDBRANCH  67  69
ENDBRANCH  66  67
ENDBRANCH  56  66
ENDBRANCH  53  56
ENDBRANCH  50  52
ENDBRANCH  47  50
ENDBRANCH  45  46
BRANCH  45  71
ATOM     71  C   UNL     1       3.152   2.565  -4.411  1.00  0.00     0.037 C 
BRANCH  71  72
ATOM     72  C   UNL     1       3.560   4.031  -4.579  1.00  0.00     0.026 C 
BRANCH  72  73
ATOM     73  C   UNL     1       2.548   4.801  -5.424  1.00  0.00     0.146 C 
BRANCH  73  74
ATOM     74  N   UNL     1       2.128   5.973  -4.661  1.00  0.00    -0.254 NA
ATOM     75  C   UNL     1       2.499   7.126  -5.082  1.00  0.00     0.185 C 
ATOM     76  N   UNL     1       2.127   8.222  -4.402  1.00  0.00    -0.370 N 
ATOM     77  N   UNL     1       3.243   7.433  -6.158  1.00  0.00    -0.370 N 
ATOM     78  H   UNL     1       1.570   8.079  -3.572  1.00  0.00     0.159 HD
ATOM     79  H   UNL     1       2.496   9.139  -4.585  1.00  0.00     0.159 HD
ATOM     80  H   UNL     1       3.590   6.707  -6.767  1.00  0.00     0.159 HD
ATOM     81  H   UNL     1       3.374   8.386  -6.455  1.00  0.00     0.159 HD
ENDBRANCH  73  74
ENDBRANCH  72  73
ENDBRANCH  71  72
ENDBRANCH  45  71
ENDBRANCH   3  45
TORSDOF 20
ENDMDL
MODEL 7
REMARK VINA RESULT:    -5.172      6.289     10.386
REMARK INTER + INTRA:         -23.326
REMARK INTER:                 -15.143
REMARK INTRA:                  -8.183
REMARK UNBOUND:                -8.478
REMARK SMILES CCCCCC(=O)N[C@H](CC(=O)O)C(=O)N[C@H]1C(=O)N[C@H](CCCN=C(N)N)C(=O)N[C@@H]2CC[C@H](O)N(C2=O)[C@@H](CC(C)C)C(=O)N(C)[C@@H](Cc2ccccc2)C(=O)N[C@H](C(C)C)C(=O)O[C@@H]1C
REMARK SMILES IDX 30 1 31 2 29 3 32 5 35 6 37 7 34 8 38 9 33 10 39 11 36 12
REMARK SMILES IDX 40 14 41 15 42 16 43 17 44 18 45 19 46 20 47 21 48 22 49 23
REMARK SMILES IDX 50 24 51 25 52 26 56 27 53 28 55 29 54 30 57 31 58 32 59 33
REMARK SMILES IDX 60 35 61 36 62 37 63 38 64 39 65 40 66 41 67 42 68 43 21 45
REMARK SMILES IDX 20 46 18 47 19 48 17 50 16 52 14 53 15 54 9 56 8 57 6 58
REMARK SMILES IDX 7 59 5 61 4 62 3 63 2 64 1 65 10 66 11 67 12 68 13 69 22 71
REMARK SMILES IDX 23 72 24 73 25 74 26 75 27 76 28 77
REMARK H PARENT 31 4 36 13 59 34 20 49 16 55 8 60 13 70 27 78 27 79 28 80
REMARK H PARENT 28 81
REMARK Flexibility Score:  259.900
ROOT
ATOM      1  O   UNL     1       4.897   0.012  -5.687  1.00  0.00    -0.273 OA
ATOM      2  N   UNL     1       2.736   0.608  -6.140  1.00  0.00    -0.343 N 
ATOM      3  C   UNL     1       4.101   0.730  -6.293  1.00  0.00     0.243 C 
ATOM      4  H   UNL     1       2.111   1.206  -6.666  1.00  0.00     0.164 HD
ENDROOT
BRANCH   2   5
ATOM      5  C   UNL     1       2.179  -0.310  -5.153  1.00  0.00     0.171 C 
ATOM      6  C   UNL     1      -0.528  -1.187  -4.596  1.00  0.00     0.214 C 
ATOM      7  N   UNL     1       0.000  -0.032  -3.908  1.00  0.00    -0.303 N 
ATOM      8  C   UNL     1       0.538  -2.207  -4.966  1.00  0.00     0.057 C 
ATOM      9  C   UNL     1       1.266   0.470  -4.164  1.00  0.00     0.247 C 
ATOM     10  C   UNL     1       1.596  -1.552  -5.827  1.00  0.00     0.040 C 
ATOM     11  O   UNL     1       1.679   1.510  -3.635  1.00  0.00    -0.272 OA
BRANCH   6  12
ATOM     12  O   UNL     1      -1.197  -0.733  -5.749  1.00  0.00    -0.373 OA
ATOM     13  H   UNL     1      -1.596   0.135  -5.527  1.00  0.00     0.213 HD
ENDBRANCH   6  12
BRANCH   7  14
ATOM     14  C   UNL     1      -0.924   0.695  -3.012  1.00  0.00     0.177 C 
BRANCH  14  15
ATOM     15  C   UNL     1      -1.789   1.771  -3.696  1.00  0.00     0.038 C 
BRANCH  15  16
ATOM     16  C   UNL     1      -1.297   3.235  -3.731  1.00  0.00    -0.015 C 
ATOM     17  C   UNL     1      -0.821   3.724  -2.360  1.00  0.00     0.007 C 
ATOM     18  C   UNL     1      -2.432   4.153  -4.201  1.00  0.00     0.007 C 
ENDBRANCH  15  16
ENDBRANCH  14  15
BRANCH  14  19
ATOM     19  C   UNL     1      -1.392  -0.236  -1.842  1.00  0.00     0.245 C 
ATOM     20  O   UNL     1      -0.500  -0.775  -1.164  1.00  0.00    -0.272 OA
BRANCH  19  21
ATOM     21  N   UNL     1      -2.713  -0.569  -1.603  1.00  0.00    -0.332 N 
ATOM     22  C   UNL     1      -3.520  -1.458  -2.421  1.00  0.00     0.147 C 
BRANCH  21  23
ATOM     23  C   UNL     1      -3.380   0.036  -0.417  1.00  0.00     0.178 C 
BRANCH  23  24
ATOM     24  C   UNL     1      -4.766   0.651  -0.699  1.00  0.00     0.070 C 
BRANCH  24  25
ATOM     25  C   UNL     1      -4.814   2.131  -1.000  1.00  0.00    -0.045 A 
ATOM     26  C   UNL     1      -5.734   2.647  -1.921  1.00  0.00     0.004 A 
ATOM     27  C   UNL     1      -3.929   3.012  -0.360  1.00  0.00     0.004 A 
ATOM     28  C   UNL     1      -5.760   4.013  -2.206  1.00  0.00     0.000 A 
ATOM     29  C   UNL     1      -3.957   4.378  -0.645  1.00  0.00     0.000 A 
ATOM     30  C   UNL     1      -4.871   4.877  -1.570  1.00  0.00     0.000 A 
ENDBRANCH  24  25
ENDBRANCH  23  24
BRANCH  23  31
ATOM     31  C   UNL     1      -3.311  -0.865   0.839  1.00  0.00     0.243 C 
ATOM     32  O   UNL     1      -2.516  -0.699   1.761  1.00  0.00    -0.273 OA
ATOM     33  N   UNL     1      -4.104  -1.997   0.753  1.00  0.00    -0.341 N 
ATOM     34  H   UNL     1      -4.742  -2.083  -0.042  1.00  0.00     0.164 HD
BRANCH  33  35
ATOM     35  C   UNL     1      -4.107  -3.050   1.772  1.00  0.00     0.194 C 
BRANCH  35  36
ATOM     36  C   UNL     1      -3.390  -4.359   1.334  1.00  0.00     0.017 C 
ATOM     37  C   UNL     1      -1.869  -4.153   1.223  1.00  0.00     0.010 C 
ATOM     38  C   UNL     1      -3.880  -4.894  -0.016  1.00  0.00     0.010 C 
ENDBRANCH  35  36
BRANCH  35  39
ATOM     39  C   UNL     1      -5.527  -3.329   2.340  1.00  0.00     0.329 C 
ATOM     40  O   UNL     1      -5.743  -3.753   3.469  1.00  0.00    -0.250 OA
BRANCH  39  41
ATOM     41  O   UNL     1      -6.516  -2.964   1.469  1.00  0.00    -0.458 OA
BRANCH  41  42
ATOM     42  C   UNL     1      -7.397  -4.022   1.021  1.00  0.00     0.205 CG0
ATOM     43  C   UNL     1      -7.556  -3.871  -0.490  1.00  0.00     0.056 C 
ATOM     44  G   UNL     1      -8.738  -3.894   1.771  1.00  0.00     0.000 G0
ENDBRANCH  41  42
ENDBRANCH  39  41
ENDBRANCH  35  39
ENDBRANCH  33  35
ENDBRANCH  23  31
ENDBRANCH  21  23
ENDBRANCH  19  21
ENDBRANCH  14  19
ENDBRANCH   7  14
ENDBRANCH   2   5
BRANCH   3  45
ATOM     45  C   UNL     1       4.558   1.808  -7.284  1.00  0.00     0.171 C 
BRANCH  45  46
ATOM     46  N   UNL     1       5.991   1.956  -7.072  1.00  0.00    -0.342 N 
ATOM     47  C   UNL     1       6.910   1.735  -8.068  1.00  0.00     0.247 C 
ATOM     48  O   UNL     1       6.589   1.469  -9.226  1.00  0.00    -0.273 OA
ATOM     49  H   UNL     1       6.298   2.231  -6.141  1.00  0.00     0.164 HD
BRANCH  47  50
ATOM     50  C   UNL     1       8.378   1.818  -7.627  1.00  0.00     0.212 CG0
ATOM     51  G   UNL     1       9.084   2.840  -8.541  1.00  0.00     0.000 G0
BRANCH  50  52
ATOM     52  N   UNL     1       8.342   2.225  -6.225  1.00  0.00    -0.339 N 
ATOM     53  C   UNL     1       8.958   3.358  -5.752  1.00  0.00     0.243 C 
ATOM     54  O   UNL     1       9.636   4.091  -6.466  1.00  0.00    -0.273 OA
ATOM     55  H   UNL     1       7.889   1.599  -5.562  1.00  0.00     0.164 HD
BRANCH  53  56
ATOM     56  C   UNL     1       8.856   3.535  -4.223  1.00  0.00     0.182 C 
BRANCH  56  57
ATOM     57  N   UNL     1       7.633   4.257  -3.857  1.00  0.00    -0.344 N 
ATOM     58  C   UNL     1       6.418   3.629  -3.731  1.00  0.00     0.220 C 
ATOM     59  O   UNL     1       6.256   2.440  -3.985  1.00  0.00    -0.275 OA
ATOM     60  H   UNL     1       7.742   5.217  -3.541  1.00  0.00     0.164 HD
BRANCH  58  61
ATOM     61  C   UNL     1       5.304   4.558  -3.288  1.00  0.00     0.100 C 
BRANCH  61  62
ATOM     62  C   UNL     1       4.871   5.557  -4.361  1.00  0.00     0.010 C 
BRANCH  62  63
ATOM     63  C   UNL     1       3.436   6.074  -4.196  1.00  0.00     0.000 C 
BRANCH  63  64
ATOM     64  C   UNL     1       2.608   5.306  -3.167  1.00  0.00    -0.003 C 
ATOM     65  C   UNL     1       1.996   6.242  -2.135  1.00  0.00     0.004 C 
ENDBRANCH  63  64
ENDBRANCH  62  63
ENDBRANCH  61  62
ENDBRANCH  58  61
ENDBRANCH  56  57
BRANCH  56  66
ATOM     66  C   UNL     1      10.109   4.197  -3.651  1.00  0.00     0.157 C 
BRANCH  66  67
ATOM     67  C   UNL     1       9.769   5.461  -2.916  1.00  0.00     0.305 C 
ATOM     68  O   UNL     1       9.663   5.600  -1.707  1.00  0.00    -0.252 OA
BRANCH  67  69
ATOM     69  O   UNL     1       9.627   6.513  -3.745  1.00  0.00    -0.481 OA
ATOM     70  H   UNL     1      10.003   6.211  -4.599  1.00  0.00     0.296 HD
ENDBRANCH  67  69
ENDBRANCH  66  67
ENDBRANCH  56  66
ENDBRANCH  53  56
ENDBRANCH  50  52
ENDBRANCH  47  50
ENDBRANCH  45  46
BRANCH  45  71
ATOM     71  C   UNL     1       3.809   3.120  -7.028  1.00  0.00     0.037 C 
BRANCH  71  72
ATOM     72  C   UNL     1       3.776   4.016  -8.269  1.00  0.00     0.026 C 
BRANCH  72  73
ATOM     73  C   UNL     1       4.646   5.258  -8.088  1.00  0.00     0.146 C 
BRANCH  73  74
ATOM     74  N   UNL     1       5.911   5.022  -8.779  1.00  0.00    -0.254 NA
ATOM     75  C   UNL     1       6.987   5.427  -8.213  1.00  0.00     0.185 C 
ATOM     76  N   UNL     1       8.166   5.224  -8.823  1.00  0.00    -0.370 N 
ATOM     77  N   UNL     1       7.136   6.061  -7.036  1.00  0.00    -0.370 N 
ATOM     78  H   UNL     1       8.143   4.759  -9.719  1.00  0.00     0.159 HD
ATOM     79  H   UNL     1       9.028   5.637  -8.514  1.00  0.00     0.159 HD
ATOM     80  H   UNL     1       6.334   6.277  -6.464  1.00  0.00     0.159 HD
ATOM     81  H   UNL     1       8.045   6.228  -6.638  1.00  0.00     0.159 HD
ENDBRANCH  73  74
ENDBRANCH  72  73
ENDBRANCH  71  72
ENDBRANCH  45  71
ENDBRANCH   3  45
TORSDOF 20
ENDMDL
MODEL 8
REMARK VINA RESULT:    -5.064      3.225     12.521
REMARK INTER + INTRA:         -23.015
REMARK INTER:                 -16.310
REMARK INTRA:                  -6.705
REMARK UNBOUND:                -8.478
REMARK SMILES CCCCCC(=O)N[C@H](CC(=O)O)C(=O)N[C@H]1C(=O)N[C@H](CCCN=C(N)N)C(=O)N[C@@H]2CC[C@H](O)N(C2=O)[C@@H](CC(C)C)C(=O)N(C)[C@@H](Cc2ccccc2)C(=O)N[C@H](C(C)C)C(=O)O[C@@H]1C
REMARK SMILES IDX 30 1 31 2 29 3 32 5 35 6 37 7 34 8 38 9 33 10 39 11 36 12
REMARK SMILES IDX 40 14 41 15 42 16 43 17 44 18 45 19 46 20 47 21 48 22 49 23
REMARK SMILES IDX 50 24 51 25 52 26 56 27 53 28 55 29 54 30 57 31 58 32 59 33
REMARK SMILES IDX 60 35 61 36 62 37 63 38 64 39 65 40 66 41 67 42 68 43 21 45
REMARK SMILES IDX 20 46 18 47 19 48 17 50 16 52 14 53 15 54 9 56 8 57 6 58
REMARK SMILES IDX 7 59 5 61 4 62 3 63 2 64 1 65 10 66 11 67 12 68 13 69 22 71
REMARK SMILES IDX 23 72 24 73 25 74 26 75 27 76 28 77
REMARK H PARENT 31 4 36 13 59 34 20 49 16 55 8 60 13 70 27 78 27 79 28 80
REMARK H PARENT 28 81
REMARK Flexibility Score:  259.900
ROOT
ATOM      1  O   UNL     1       5.176   9.183   1.865  1.00  0.00    -0.273 OA
ATOM      2  N   UNL     1       5.537   7.061   1.093  1.00  0.00    -0.343 N 
ATOM      3  C   UNL     1       5.883   8.175   1.827  1.00  0.00     0.243 C 
ATOM      4  H   UNL     1       6.136   6.244   1.097  1.00  0.00     0.164 HD
ENDROOT
BRANCH   2   5
ATOM      5  C   UNL     1       4.364   7.076   0.227  1.00  0.00     0.171 C 
ATOM      6  C   UNL     1       2.907   4.978  -1.144  1.00  0.00     0.214 C 
ATOM      7  N   UNL     1       3.991   5.649  -1.822  1.00  0.00    -0.303 N 
ATOM      8  C   UNL     1       2.192   5.860  -0.132  1.00  0.00     0.057 C 
ATOM      9  C   UNL     1       4.761   6.624  -1.207  1.00  0.00     0.247 C 
ATOM     10  C   UNL     1       3.182   6.371   0.892  1.00  0.00     0.040 C 
ATOM     11  O   UNL     1       5.743   7.132  -1.764  1.00  0.00    -0.272 OA
BRANCH   6  12
ATOM     12  O   UNL     1       3.434   3.834  -0.514  1.00  0.00    -0.373 OA
ATOM     13  H   UNL     1       3.145   3.057  -1.039  1.00  0.00     0.213 HD
ENDBRANCH   6  12
BRANCH   7  14
ATOM     14  C   UNL     1       4.353   5.150  -3.165  1.00  0.00     0.177 C 
BRANCH  14  15
ATOM     15  C   UNL     1       4.998   3.750  -3.194  1.00  0.00     0.038 C 
BRANCH  15  16
ATOM     16  C   UNL     1       6.537   3.622  -3.223  1.00  0.00    -0.015 C 
ATOM     17  C   UNL     1       7.193   4.665  -4.133  1.00  0.00     0.007 C 
ATOM     18  C   UNL     1       6.932   2.228  -3.727  1.00  0.00     0.007 C 
ENDBRANCH  15  16
ENDBRANCH  14  15
BRANCH  14  19
ATOM     19  C   UNL     1       3.360   5.713  -4.240  1.00  0.00     0.245 C 
ATOM     20  O   UNL     1       3.455   6.922  -4.509  1.00  0.00    -0.272 OA
BRANCH  19  21
ATOM     21  N   UNL     1       2.336   4.975  -4.805  1.00  0.00    -0.332 N 
ATOM     22  C   UNL     1       1.010   4.801  -4.239  1.00  0.00     0.147 C 
BRANCH  21  23
ATOM     23  C   UNL     1       2.605   4.287  -6.098  1.00  0.00     0.178 C 
BRANCH  23  24
ATOM     24  C   UNL     1       2.599   2.746  -6.023  1.00  0.00     0.070 C 
BRANCH  24  25
ATOM     25  C   UNL     1       3.885   2.035  -6.376  1.00  0.00    -0.045 A 
ATOM     26  C   UNL     1       4.873   2.674  -7.136  1.00  0.00     0.004 A 
ATOM     27  C   UNL     1       4.105   0.717  -5.948  1.00  0.00     0.004 A 
ATOM     28  C   UNL     1       6.051   2.004  -7.472  1.00  0.00     0.000 A 
ATOM     29  C   UNL     1       5.284   0.050  -6.284  1.00  0.00     0.000 A 
ATOM     30  C   UNL     1       6.255   0.693  -7.048  1.00  0.00     0.000 A 
ENDBRANCH  24  25
ENDBRANCH  23  24
BRANCH  23  31
ATOM     31  C   UNL     1       1.803   4.885  -7.279  1.00  0.00     0.243 C 
ATOM     32  O   UNL     1       1.886   6.055  -7.643  1.00  0.00    -0.273 OA
ATOM     33  N   UNL     1       0.836   4.029  -7.780  1.00  0.00    -0.341 N 
ATOM     34  H   UNL     1       0.812   3.068  -7.433  1.00  0.00     0.164 HD
BRANCH  33  35
ATOM     35  C   UNL     1      -0.119   4.425  -8.818  1.00  0.00     0.194 C 
BRANCH  35  36
ATOM     36  C   UNL     1      -1.609   4.246  -8.411  1.00  0.00     0.017 C 
ATOM     37  C   UNL     1      -1.939   5.039  -7.135  1.00  0.00     0.010 C 
ATOM     38  C   UNL     1      -1.995   2.784  -8.157  1.00  0.00     0.010 C 
ENDBRANCH  35  36
BRANCH  35  39
ATOM     39  C   UNL     1       0.189   3.771 -10.194  1.00  0.00     0.329 C 
ATOM     40  O   UNL     1       0.774   2.703 -10.331  1.00  0.00    -0.250 OA
BRANCH  39  41
ATOM     41  O   UNL     1      -0.343   4.478 -11.237  1.00  0.00    -0.458 OA
BRANCH  41  42
ATOM     42  C   UNL     1       0.300   4.307 -12.522  1.00  0.00     0.205 CG0
ATOM     43  C   UNL     1       1.388   5.373 -12.632  1.00  0.00     0.056 C 
ATOM     44  G   UNL     1      -0.767   4.437 -13.627  1.00  0.00     0.000 G0
ENDBRANCH  41  42
ENDBRANCH  39  41
ENDBRANCH  35  39
ENDBRANCH  33  35
ENDBRANCH  23  31
ENDBRANCH  21  23
ENDBRANCH  19  21
ENDBRANCH  14  19
ENDBRANCH   7  14
ENDBRANCH   2   5
BRANCH   3  45
ATOM     45  C   UNL     1       7.198   8.065   2.610  1.00  0.00     0.171 C 
BRANCH  45  46
ATOM     46  N   UNL     1       6.813   7.872   4.001  1.00  0.00    -0.342 N 
ATOM     47  C   UNL     1       6.508   6.637   4.516  1.00  0.00     0.247 C 
ATOM     48  O   UNL     1       6.608   5.598   3.864  1.00  0.00    -0.273 OA
ATOM     49  H   UNL     1       6.772   8.700   4.593  1.00  0.00     0.164 HD
BRANCH  47  50
ATOM     50  C   UNL     1       6.004   6.644   5.966  1.00  0.00     0.212 CG0
ATOM     51  G   UNL     1       6.314   8.031   6.563  1.00  0.00     0.000 G0
BRANCH  50  52
ATOM     52  N   UNL     1       4.574   6.359   5.883  1.00  0.00    -0.339 N 
ATOM     53  C   UNL     1       4.048   5.093   5.982  1.00  0.00     0.243 C 
ATOM     54  O   UNL     1       4.750   4.092   6.097  1.00  0.00    -0.273 OA
ATOM     55  H   UNL     1       3.948   7.135   5.677  1.00  0.00     0.164 HD
BRANCH  53  56
ATOM     56  C   UNL     1       2.521   5.030   5.777  1.00  0.00     0.182 C 
BRANCH  56  57
ATOM     57  N   UNL     1       1.811   5.249   7.041  1.00  0.00    -0.344 N 
ATOM     58  C   UNL     1       0.688   6.036   7.128  1.00  0.00     0.220 C 
ATOM     59  O   UNL     1       0.246   6.668   6.174  1.00  0.00    -0.275 OA
ATOM     60  H   UNL     1       2.082   4.666   7.829  1.00  0.00     0.164 HD
BRANCH  58  61
ATOM     61  C   UNL     1       0.085   6.073   8.520  1.00  0.00     0.100 C 
BRANCH  61  62
ATOM     62  C   UNL     1       0.991   6.720   9.567  1.00  0.00     0.010 C 
BRANCH  62  63
ATOM     63  C   UNL     1       1.365   8.176   9.260  1.00  0.00     0.000 C 
BRANCH  63  64
ATOM     64  C   UNL     1       2.869   8.434   9.183  1.00  0.00    -0.003 C 
ATOM     65  C   UNL     1       3.664   7.163   9.442  1.00  0.00     0.004 C 
ENDBRANCH  63  64
ENDBRANCH  62  63
ENDBRANCH  61  62
ENDBRANCH  58  61
ENDBRANCH  56  57
BRANCH  56  66
ATOM     66  C   UNL     1       2.101   3.728   5.097  1.00  0.00     0.157 C 
BRANCH  66  67
ATOM     67  C   UNL     1       0.953   3.952   4.156  1.00  0.00     0.305 C 
ATOM     68  O   UNL     1       1.018   4.114   2.947  1.00  0.00    -0.252 OA
BRANCH  67  69
ATOM     69  O   UNL     1      -0.238   3.908   4.782  1.00  0.00    -0.481 OA
ATOM     70  H   UNL     1      -0.082   4.343   5.647  1.00  0.00     0.296 HD
ENDBRANCH  67  69
ENDBRANCH  66  67
ENDBRANCH  56  66
ENDBRANCH  53  56
ENDBRANCH  50  52
ENDBRANCH  47  50
ENDBRANCH  45  46
BRANCH  45  71
ATOM     71  C   UNL     1       8.036   9.335   2.426  1.00  0.00     0.037 C 
BRANCH  71  72
ATOM     72  C   UNL     1       8.632   9.434   1.019  1.00  0.00     0.026 C 
BRANCH  72  73
ATOM     73  C   UNL     1       9.704   8.371   0.789  1.00  0.00     0.146 C 
BRANCH  73  74
ATOM     74  N   UNL     1       9.881   8.219  -0.652  1.00  0.00    -0.254 NA
ATOM     75  C   UNL     1       9.285   7.242  -1.229  1.00  0.00     0.185 C 
ATOM     76  N   UNL     1       9.427   7.077  -2.554  1.00  0.00    -0.370 N 
ATOM     77  N   UNL     1       8.491   6.300  -0.690  1.00  0.00    -0.370 N 
ATOM     78  H   UNL     1      10.016   7.741  -3.037  1.00  0.00     0.159 HD
ATOM     79  H   UNL     1       9.112   6.260  -3.047  1.00  0.00     0.159 HD
ATOM     80  H   UNL     1       8.291   6.301   0.298  1.00  0.00     0.159 HD
ATOM     81  H   UNL     1       7.983   5.647  -1.263  1.00  0.00     0.159 HD
ENDBRANCH  73  74
ENDBRANCH  72  73
ENDBRANCH  71  72
ENDBRANCH  45  71
ENDBRANCH   3  45
TORSDOF 20
ENDMDL
MODEL 9
REMARK VINA RESULT:    -5.052      3.428      7.416
REMARK INTER + INTRA:         -22.982
REMARK INTER:                 -17.087
REMARK INTRA:                  -5.895
REMARK UNBOUND:                -8.478
REMARK SMILES CCCCCC(=O)N[C@H](CC(=O)O)C(=O)N[C@H]1C(=O)N[C@H](CCCN=C(N)N)C(=O)N[C@@H]2CC[C@H](O)N(C2=O)[C@@H](CC(C)C)C(=O)N(C)[C@@H](Cc2ccccc2)C(=O)N[C@H](C(C)C)C(=O)O[C@@H]1C
REMARK SMILES IDX 30 1 31 2 29 3 32 5 35 6 37 7 34 8 38 9 33 10 39 11 36 12
REMARK SMILES IDX 40 14 41 15 42 16 43 17 44 18 45 19 46 20 47 21 48 22 49 23
REMARK SMILES IDX 50 24 51 25 52 26 56 27 53 28 55 29 54 30 57 31 58 32 59 33
REMARK SMILES IDX 60 35 61 36 62 37 63 38 64 39 65 40 66 41 67 42 68 43 21 45
REMARK SMILES IDX 20 46 18 47 19 48 17 50 16 52 14 53 15 54 9 56 8 57 6 58
REMARK SMILES IDX 7 59 5 61 4 62 3 63 2 64 1 65 10 66 11 67 12 68 13 69 22 71
REMARK SMILES IDX 23 72 24 73 25 74 26 75 27 76 28 77
REMARK H PARENT 31 4 36 13 59 34 20 49 16 55 8 60 13 70 27 78 27 79 28 80
REMARK H PARENT 28 81
REMARK Flexibility Score:  259.900
ROOT
ATOM      1  O   UNL     1       8.125   5.335   1.787  1.00  0.00    -0.273 OA
ATOM      2  N   UNL     1       6.596   7.011   2.078  1.00  0.00    -0.343 N 
ATOM      3  C   UNL     1       7.819   6.522   1.673  1.00  0.00     0.243 C 
ATOM      4  H   UNL     1       6.373   7.991   1.955  1.00  0.00     0.164 HD
ENDROOT
BRANCH   2   5
ATOM      5  C   UNL     1       5.647   6.150   2.777  1.00  0.00     0.171 C 
ATOM      6  C   UNL     1       3.113   6.674   4.083  1.00  0.00     0.214 C 
ATOM      7  N   UNL     1       4.334   6.738   4.851  1.00  0.00    -0.303 N 
ATOM      8  C   UNL     1       3.180   5.689   2.927  1.00  0.00     0.057 C 
ATOM      9  C   UNL     1       5.582   6.549   4.279  1.00  0.00     0.247 C 
ATOM     10  C   UNL     1       4.329   6.051   2.011  1.00  0.00     0.040 C 
ATOM     11  O   UNL     1       6.628   6.691   4.926  1.00  0.00    -0.272 OA
BRANCH   6  12
ATOM     12  O   UNL     1       2.834   7.972   3.609  1.00  0.00    -0.373 OA
ATOM     13  H   UNL     1       1.860   8.085   3.639  1.00  0.00     0.213 HD
ENDBRANCH   6  12
BRANCH   7  14
ATOM     14  C   UNL     1       4.217   7.163   6.262  1.00  0.00     0.177 C 
BRANCH  14  15
ATOM     15  C   UNL     1       3.447   8.479   6.490  1.00  0.00     0.038 C 
BRANCH  15  16
ATOM     16  C   UNL     1       4.230   9.781   6.768  1.00  0.00    -0.015 C 
ATOM     17  C   UNL     1       3.345  11.027   6.673  1.00  0.00     0.007 C 
ATOM     18  C   UNL     1       5.374   9.925   5.755  1.00  0.00     0.007 C 
ENDBRANCH  15  16
ENDBRANCH  14  15
BRANCH  14  19
ATOM     19  C   UNL     1       4.172   5.912   7.205  1.00  0.00     0.245 C 
ATOM     20  O   UNL     1       4.626   4.850   6.747  1.00  0.00    -0.272 OA
BRANCH  19  21
ATOM     21  N   UNL     1       3.565   5.904   8.448  1.00  0.00    -0.332 N 
ATOM     22  C   UNL     1       2.274   5.313   8.752  1.00  0.00     0.147 C 
BRANCH  21  23
ATOM     23  C   UNL     1       4.280   6.564   9.576  1.00  0.00     0.178 C 
BRANCH  23  24
ATOM     24  C   UNL     1       5.717   7.018   9.251  1.00  0.00     0.070 C 
BRANCH  24  25
ATOM     25  C   UNL     1       6.249   8.213  10.009  1.00  0.00    -0.045 A 
ATOM     26  C   UNL     1       6.115   9.508   9.491  1.00  0.00     0.004 A 
ATOM     27  C   UNL     1       6.891   8.040  11.244  1.00  0.00     0.004 A 
ATOM     28  C   UNL     1       6.625  10.605  10.189  1.00  0.00     0.000 A 
ATOM     29  C   UNL     1       7.398   9.137  11.941  1.00  0.00     0.000 A 
ATOM     30  C   UNL     1       7.267  10.419  11.411  1.00  0.00     0.000 A 
ENDBRANCH  24  25
ENDBRANCH  23  24
BRANCH  23  31
ATOM     31  C   UNL     1       3.413   7.617  10.306  1.00  0.00     0.243 C 
ATOM     32  O   UNL     1       2.822   8.533   9.740  1.00  0.00    -0.273 OA
ATOM     33  N   UNL     1       3.508   7.551  11.686  1.00  0.00    -0.341 N 
ATOM     34  H   UNL     1       4.019   6.767  12.100  1.00  0.00     0.164 HD
BRANCH  33  35
ATOM     35  C   UNL     1       2.868   8.522  12.578  1.00  0.00     0.194 C 
BRANCH  35  36
ATOM     36  C   UNL     1       3.790   9.702  12.998  1.00  0.00     0.017 C 
ATOM     37  C   UNL     1       3.564  10.092  14.469  1.00  0.00     0.010 C 
ATOM     38  C   UNL     1       3.580  10.962  12.151  1.00  0.00     0.010 C 
ENDBRANCH  35  36
BRANCH  35  39
ATOM     39  C   UNL     1       2.191   7.850  13.806  1.00  0.00     0.329 C 
ATOM     40  O   UNL     1       2.769   7.100  14.584  1.00  0.00    -0.250 OA
BRANCH  39  41
ATOM     41  O   UNL     1       0.896   8.258  13.973  1.00  0.00    -0.458 OA
BRANCH  41  42
ATOM     42  C   UNL     1       0.296   7.976  15.260  1.00  0.00     0.205 CG0
ATOM     43  C   UNL     1      -0.876   7.027  15.016  1.00  0.00     0.056 C 
ATOM     44  G   UNL     1      -0.146   9.308  15.898  1.00  0.00     0.000 G0
ENDBRANCH  41  42
ENDBRANCH  39  41
ENDBRANCH  35  39
ENDBRANCH  33  35
ENDBRANCH  23  31
ENDBRANCH  21  23
ENDBRANCH  19  21
ENDBRANCH  14  19
ENDBRANCH   7  14
ENDBRANCH   2   5
BRANCH   3  45
ATOM     45  C   UNL     1       8.765   7.556   1.049  1.00  0.00     0.171 C 
BRANCH  45  46
ATOM     46  N   UNL     1       9.307   6.924  -0.147  1.00  0.00    -0.342 N 
ATOM     47  C   UNL     1       9.155   7.464  -1.399  1.00  0.00     0.247 C 
ATOM     48  O   UNL     1       8.616   8.553  -1.596  1.00  0.00    -0.273 OA
ATOM     49  H   UNL     1       9.810   6.047  -0.022  1.00  0.00     0.164 HD
BRANCH  47  50
ATOM     50  C   UNL     1       9.683   6.595  -2.550  1.00  0.00     0.212 CG0
ATOM     51  G   UNL     1      10.672   5.576  -1.951  1.00  0.00     0.000 G0
BRANCH  50  52
ATOM     52  N   UNL     1       8.502   5.974  -3.143  1.00  0.00    -0.339 N 
ATOM     53  C   UNL     1       7.791   4.968  -2.534  1.00  0.00     0.243 C 
ATOM     54  O   UNL     1       8.128   4.475  -1.461  1.00  0.00    -0.273 OA
ATOM     55  H   UNL     1       8.237   6.263  -4.082  1.00  0.00     0.164 HD
BRANCH  53  56
ATOM     56  C   UNL     1       6.635   4.411  -3.389  1.00  0.00     0.182 C 
BRANCH  56  57
ATOM     57  N   UNL     1       5.533   3.940  -2.543  1.00  0.00    -0.344 N 
ATOM     58  C   UNL     1       4.244   4.389  -2.696  1.00  0.00     0.220 C 
ATOM     59  O   UNL     1       3.937   5.264  -3.497  1.00  0.00    -0.275 OA
ATOM     60  H   UNL     1       5.724   3.145  -1.938  1.00  0.00     0.164 HD
BRANCH  58  61
ATOM     61  C   UNL     1       3.260   3.723  -1.752  1.00  0.00     0.100 C 
BRANCH  61  62
ATOM     62  C   UNL     1       1.868   4.355  -1.767  1.00  0.00     0.010 C 
BRANCH  62  63
ATOM     63  C   UNL     1       1.691   5.507  -0.770  1.00  0.00     0.000 C 
BRANCH  63  64
ATOM     64  C   UNL     1       1.750   6.897  -1.401  1.00  0.00    -0.003 C 
ATOM     65  C   UNL     1       2.906   7.713  -0.841  1.00  0.00     0.004 C 
ENDBRANCH  63  64
ENDBRANCH  62  63
ENDBRANCH  61  62
ENDBRANCH  58  61
ENDBRANCH  56  57
BRANCH  56  66
ATOM     66  C   UNL     1       7.122   3.332  -4.354  1.00  0.00     0.157 C 
BRANCH  66  67
ATOM     67  C   UNL     1       6.965   1.961  -3.761  1.00  0.00     0.305 C 
ATOM     68  O   UNL     1       7.374   1.582  -2.674  1.00  0.00    -0.252 OA
BRANCH  67  69
ATOM     69  O   UNL     1       6.249   1.140  -4.552  1.00  0.00    -0.481 OA
ATOM     70  H   UNL     1       5.698   0.615  -3.934  1.00  0.00     0.296 HD
ENDBRANCH  67  69
ENDBRANCH  66  67
ENDBRANCH  56  66
ENDBRANCH  53  56
ENDBRANCH  50  52
ENDBRANCH  47  50
ENDBRANCH  45  46
BRANCH  45  71
ATOM     71  C   UNL     1       9.872   7.934   2.040  1.00  0.00     0.037 C 
BRANCH  71  72
ATOM     72  C   UNL     1       9.960   9.447   2.256  1.00  0.00     0.026 C 
BRANCH  72  73
ATOM     73  C   UNL     1       8.584  10.056   2.516  1.00  0.00     0.146 C 
BRANCH  73  74
ATOM     74  N   UNL     1       8.618  11.444   2.066  1.00  0.00    -0.254 NA
ATOM     75  C   UNL     1       8.123  11.713   0.914  1.00  0.00     0.185 C 
ATOM     76  N   UNL     1       8.138  12.981   0.473  1.00  0.00    -0.370 N 
ATOM     77  N   UNL     1       7.557  10.880   0.023  1.00  0.00    -0.370 N 
ATOM     78  H   UNL     1       8.554  13.672   1.081  1.00  0.00     0.159 HD
ATOM     79  H   UNL     1       7.904  13.242  -0.468  1.00  0.00     0.159 HD
ATOM     80  H   UNL     1       7.473   9.895   0.222  1.00  0.00     0.159 HD
ATOM     81  H   UNL     1       7.097  11.225  -0.804  1.00  0.00     0.159 HD
ENDBRANCH  73  74
ENDBRANCH  72  73
ENDBRANCH  71  72
ENDBRANCH  45  71
ENDBRANCH   3  45
TORSDOF 20
ENDMDL
MODEL 10
REMARK VINA RESULT:    -5.038      8.615     14.569
REMARK INTER + INTRA:         -22.941
REMARK INTER:                 -16.715
REMARK INTRA:                  -6.226
REMARK UNBOUND:                -8.478
REMARK SMILES CCCCCC(=O)N[C@H](CC(=O)O)C(=O)N[C@H]1C(=O)N[C@H](CCCN=C(N)N)C(=O)N[C@@H]2CC[C@H](O)N(C2=O)[C@@H](CC(C)C)C(=O)N(C)[C@@H](Cc2ccccc2)C(=O)N[C@H](C(C)C)C(=O)O[C@@H]1C
REMARK SMILES IDX 30 1 31 2 29 3 32 5 35 6 37 7 34 8 38 9 33 10 39 11 36 12
REMARK SMILES IDX 40 14 41 15 42 16 43 17 44 18 45 19 46 20 47 21 48 22 49 23
REMARK SMILES IDX 50 24 51 25 52 26 56 27 53 28 55 29 54 30 57 31 58 32 59 33
REMARK SMILES IDX 60 35 61 36 62 37 63 38 64 39 65 40 66 41 67 42 68 43 21 45
REMARK SMILES IDX 20 46 18 47 19 48 17 50 16 52 14 53 15 54 9 56 8 57 6 58
REMARK SMILES IDX 7 59 5 61 4 62 3 63 2 64 1 65 10 66 11 67 12 68 13 69 22 71
REMARK SMILES IDX 23 72 24 73 25 74 26 75 27 76 28 77
REMARK H PARENT 31 4 36 13 59 34 20 49 16 55 8 60 13 70 27 78 27 79 28 80
REMARK H PARENT 28 81
REMARK Flexibility Score:  259.900
ROOT
ATOM      1  O   UNL     1      -4.251   3.289   4.473  1.00  0.00    -0.273 OA
ATOM      2  N   UNL     1      -2.305   3.153   5.667  1.00  0.00    -0.343 N 
ATOM      3  C   UNL     1      -3.652   2.926   5.486  1.00  0.00     0.243 C 
ATOM      4  H   UNL     1      -1.842   2.827   6.507  1.00  0.00     0.164 HD
ENDROOT
BRANCH   2   5
ATOM      5  C   UNL     1      -1.550   3.947   4.704  1.00  0.00     0.171 C 
ATOM      6  C   UNL     1       1.291   4.323   4.264  1.00  0.00     0.214 C 
ATOM      7  N   UNL     1       0.585   5.218   5.151  1.00  0.00    -0.303 N 
ATOM      8  C   UNL     1       0.418   3.769   3.149  1.00  0.00     0.057 C 
ATOM      9  C   UNL     1      -0.760   5.064   5.445  1.00  0.00     0.247 C 
ATOM     10  C   UNL     1      -0.774   3.050   3.741  1.00  0.00     0.040 C 
ATOM     11  O   UNL     1      -1.337   5.782   6.272  1.00  0.00    -0.272 OA
BRANCH   6  12
ATOM     12  O   UNL     1       1.820   3.274   5.042  1.00  0.00    -0.373 OA
ATOM     13  H   UNL     1       1.228   3.163   5.816  1.00  0.00     0.213 HD
ENDBRANCH   6  12
BRANCH   7  14
ATOM     14  C   UNL     1       1.392   6.232   5.861  1.00  0.00     0.177 C 
BRANCH  14  15
ATOM     15  C   UNL     1       2.248   5.694   7.024  1.00  0.00     0.038 C 
BRANCH  15  16
ATOM     16  C   UNL     1       1.681   5.718   8.461  1.00  0.00    -0.015 C 
ATOM     17  C   UNL     1       0.907   7.004   8.762  1.00  0.00     0.007 C 
ATOM     18  C   UNL     1       2.828   5.600   9.473  1.00  0.00     0.007 C 
ENDBRANCH  15  16
ENDBRANCH  14  15
BRANCH  14  19
ATOM     19  C   UNL     1       1.817   7.376   4.876  1.00  0.00     0.245 C 
ATOM     20  O   UNL     1       0.999   8.294   4.699  1.00  0.00    -0.272 OA
BRANCH  19  21
ATOM     21  N   UNL     1       2.980   7.355   4.127  1.00  0.00    -0.332 N 
ATOM     22  C   UNL     1       3.140   6.708   2.837  1.00  0.00     0.147 C 
BRANCH  21  23
ATOM     23  C   UNL     1       4.179   8.041   4.683  1.00  0.00     0.178 C 
BRANCH  23  24
ATOM     24  C   UNL     1       5.270   7.096   5.226  1.00  0.00     0.070 C 
BRANCH  24  25
ATOM     25  C   UNL     1       5.511   7.107   6.717  1.00  0.00    -0.045 A 
ATOM     26  C   UNL     1       5.248   8.254   7.478  1.00  0.00     0.004 A 
ATOM     27  C   UNL     1       6.009   5.965   7.363  1.00  0.00     0.004 A 
ATOM     28  C   UNL     1       5.490   8.262   8.853  1.00  0.00     0.000 A 
ATOM     29  C   UNL     1       6.249   5.975   8.738  1.00  0.00     0.000 A 
ATOM     30  C   UNL     1       5.992   7.125   9.481  1.00  0.00     0.000 A 
ENDBRANCH  24  25
ENDBRANCH  23  24
BRANCH  23  31
ATOM     31  C   UNL     1       4.697   9.182   3.775  1.00  0.00     0.243 C 
ATOM     32  O   UNL     1       4.056  10.195   3.511  1.00  0.00    -0.273 OA
ATOM     33  N   UNL     1       5.884   8.878   3.129  1.00  0.00    -0.341 N 
ATOM     34  H   UNL     1       6.370   8.015   3.387  1.00  0.00     0.164 HD
BRANCH  33  35
ATOM     35  C   UNL     1       6.498   9.758   2.132  1.00  0.00     0.194 C 
BRANCH  35  36
ATOM     36  C   UNL     1       6.424   9.218   0.676  1.00  0.00     0.017 C 
ATOM     37  C   UNL     1       7.235  10.100  -0.290  1.00  0.00     0.010 C 
ATOM     38  C   UNL     1       4.992   9.139   0.133  1.00  0.00     0.010 C 
ENDBRANCH  35  36
BRANCH  35  39
ATOM     39  C   UNL     1       7.942  10.185   2.520  1.00  0.00     0.329 C 
ATOM     40  O   UNL     1       8.877   9.404   2.648  1.00  0.00    -0.250 OA
BRANCH  39  41
ATOM     41  O   UNL     1       8.074  11.542   2.618  1.00  0.00    -0.458 OA
BRANCH  41  42
ATOM     42  C   UNL     1       9.311  12.104   2.116  1.00  0.00     0.205 CG0
ATOM     43  C   UNL     1      10.042  12.725   3.304  1.00  0.00     0.056 C 
ATOM     44  G   UNL     1       8.973  13.139   1.025  1.00  0.00     0.000 G0
ENDBRANCH  41  42
ENDBRANCH  39  41
ENDBRANCH  35  39
ENDBRANCH  33  35
ENDBRANCH  23  31
ENDBRANCH  21  23
ENDBRANCH  19  21
ENDBRANCH  14  19
ENDBRANCH   7  14
ENDBRANCH   2   5
BRANCH   3  45
ATOM     45  C   UNL     1      -4.350   2.171   6.625  1.00  0.00     0.171 C 
BRANCH  45  46
ATOM     46  N   UNL     1      -5.729   1.990   6.192  1.00  0.00    -0.342 N 
ATOM     47  C   UNL     1      -6.225   0.771   5.803  1.00  0.00     0.247 C 
ATOM     48  O   UNL     1      -5.566  -0.268   5.862  1.00  0.00    -0.273 OA
ATOM     49  H   UNL     1      -6.326   2.815   6.182  1.00  0.00     0.164 HD
BRANCH  47  50
ATOM     50  C   UNL     1      -7.660   0.796   5.260  1.00  0.00     0.212 CG0
ATOM     51  G   UNL     1      -8.150  -0.662   5.165  1.00  0.00     0.000 G0
BRANCH  50  52
ATOM     52  N   UNL     1      -8.423   1.600   6.212  1.00  0.00    -0.339 N 
ATOM     53  C   UNL     1      -9.009   1.081   7.340  1.00  0.00     0.243 C 
ATOM     54  O   UNL     1      -8.981  -0.117   7.609  1.00  0.00    -0.273 OA
ATOM     55  H   UNL     1      -8.576   2.581   5.986  1.00  0.00     0.164 HD
BRANCH  53  56
ATOM     56  C   UNL     1      -9.834   2.104   8.147  1.00  0.00     0.182 C 
BRANCH  56  57
ATOM     57  N   UNL     1      -9.755   3.438   7.542  1.00  0.00    -0.344 N 
ATOM     58  C   UNL     1     -10.838   4.279   7.470  1.00  0.00     0.220 C 
ATOM     59  O   UNL     1     -11.960   3.949   7.839  1.00  0.00    -0.275 OA
ATOM     60  H   UNL     1      -8.827   3.787   7.318  1.00  0.00     0.164 HD
BRANCH  58  61
ATOM     61  C   UNL     1     -10.512   5.629   6.858  1.00  0.00     0.100 C 
BRANCH  61  62
ATOM     62  C   UNL     1     -11.677   6.255   6.091  1.00  0.00     0.010 C 
BRANCH  62  63
ATOM     63  C   UNL     1     -11.324   7.563   5.372  1.00  0.00     0.000 C 
BRANCH  63  64
ATOM     64  C   UNL     1     -11.376   7.475   3.848  1.00  0.00    -0.003 C 
ATOM     65  C   UNL     1     -10.972   6.092   3.358  1.00  0.00     0.004 C 
ENDBRANCH  63  64
ENDBRANCH  62  63
ENDBRANCH  61  62
ENDBRANCH  58  61
ENDBRANCH  56  57
BRANCH  56  66
ATOM     66  C   UNL     1      -9.429   2.114   9.620  1.00  0.00     0.157 C 
BRANCH  66  67
ATOM     67  C   UNL     1      -8.485   3.244   9.916  1.00  0.00     0.305 C 
ATOM     68  O   UNL     1      -7.298   3.301   9.634  1.00  0.00    -0.252 OA
BRANCH  67  69
ATOM     69  O   UNL     1      -9.101   4.282  10.514  1.00  0.00    -0.481 OA
ATOM     70  H   UNL     1      -9.195   4.010  11.452  1.00  0.00     0.296 HD
ENDBRANCH  67  69
ENDBRANCH  66  67
ENDBRANCH  56  66
ENDBRANCH  53  56
ENDBRANCH  50  52
ENDBRANCH  47  50
ENDBRANCH  45  46
BRANCH  45  71
ATOM     71  C   UNL     1      -4.267   2.975   7.928  1.00  0.00     0.037 C 
BRANCH  71  72
ATOM     72  C   UNL     1      -3.501   2.224   9.020  1.00  0.00     0.026 C 
BRANCH  72  73
ATOM     73  C   UNL     1      -3.885   0.747   9.060  1.00  0.00     0.146 C 
BRANCH  73  74
ATOM     74  N   UNL     1      -5.169   0.637   9.746  1.00  0.00    -0.254 NA
ATOM     75  C   UNL     1      -5.913  -0.369   9.468  1.00  0.00     0.185 C 
ATOM     76  N   UNL     1      -7.099  -0.498  10.084  1.00  0.00    -0.370 N 
ATOM     77  N   UNL     1      -5.684  -1.377   8.608  1.00  0.00    -0.370 N 
ATOM     78  H   UNL     1      -7.353   0.224  10.744  1.00  0.00     0.159 HD
ATOM     79  H   UNL     1      -7.792  -1.173   9.815  1.00  0.00     0.159 HD
ATOM     80  H   UNL     1      -4.828  -1.413   8.076  1.00  0.00     0.159 HD
ATOM     81  H   UNL     1      -6.293  -2.177   8.558  1.00  0.00     0.159 HD
ENDBRANCH  73  74
ENDBRANCH  72  73
ENDBRANCH  71  72
ENDBRANCH  45  71
ENDBRANCH   3  45
TORSDOF 20
ENDMDL
MODEL 11
REMARK VINA RESULT:    -5.005      5.496     10.718
REMARK INTER + INTRA:         -22.847
REMARK INTER:                 -15.289
REMARK INTRA:                  -7.558
REMARK UNBOUND:                -8.478
REMARK SMILES CCCCCC(=O)N[C@H](CC(=O)O)C(=O)N[C@H]1C(=O)N[C@H](CCCN=C(N)N)C(=O)N[C@@H]2CC[C@H](O)N(C2=O)[C@@H](CC(C)C)C(=O)N(C)[C@@H](Cc2ccccc2)C(=O)N[C@H](C(C)C)C(=O)O[C@@H]1C
REMARK SMILES IDX 30 1 31 2 29 3 32 5 35 6 37 7 34 8 38 9 33 10 39 11 36 12
REMARK SMILES IDX 40 14 41 15 42 16 43 17 44 18 45 19 46 20 47 21 48 22 49 23
REMARK SMILES IDX 50 24 51 25 52 26 56 27 53 28 55 29 54 30 57 31 58 32 59 33
REMARK SMILES IDX 60 35 61 36 62 37 63 38 64 39 65 40 66 41 67 42 68 43 21 45
REMARK SMILES IDX 20 46 18 47 19 48 17 50 16 52 14 53 15 54 9 56 8 57 6 58
REMARK SMILES IDX 7 59 5 61 4 62 3 63 2 64 1 65 10 66 11 67 12 68 13 69 22 71
REMARK SMILES IDX 23 72 24 73 25 74 26 75 27 76 28 77
REMARK H PARENT 31 4 36 13 59 34 20 49 16 55 8 60 13 70 27 78 27 79 28 80
REMARK H PARENT 28 81
REMARK Flexibility Score:  259.900
ROOT
ATOM      1  O   UNL     1       5.376   3.764  -6.574  1.00  0.00    -0.273 OA
ATOM      2  N   UNL     1       4.595   1.955  -7.734  1.00  0.00    -0.343 N 
ATOM      3  C   UNL     1       5.467   3.004  -7.538  1.00  0.00     0.243 C 
ATOM      4  H   UNL     1       4.709   1.341  -8.532  1.00  0.00     0.164 HD
ENDROOT
BRANCH   2   5
ATOM      5  C   UNL     1       3.444   1.772  -6.857  1.00  0.00     0.171 C 
ATOM      6  C   UNL     1       1.255  -0.129  -6.859  1.00  0.00     0.214 C 
ATOM      7  N   UNL     1       1.108   1.124  -7.562  1.00  0.00    -0.303 N 
ATOM      8  C   UNL     1       2.179  -0.039  -5.655  1.00  0.00     0.057 C 
ATOM      9  C   UNL     1       2.132   2.054  -7.644  1.00  0.00     0.247 C 
ATOM     10  C   UNL     1       3.542   0.454  -6.090  1.00  0.00     0.040 C 
ATOM     11  O   UNL     1       2.028   3.086  -8.320  1.00  0.00    -0.272 OA
BRANCH   6  12
ATOM     12  O   UNL     1       1.735  -1.084  -7.777  1.00  0.00    -0.373 OA
ATOM     13  H   UNL     1       2.381  -1.645  -7.297  1.00  0.00     0.213 HD
ENDBRANCH   6  12
BRANCH   7  14
ATOM     14  C   UNL     1      -0.141   1.321  -8.327  1.00  0.00     0.177 C 
BRANCH  14  15
ATOM     15  C   UNL     1      -0.191   0.614  -9.695  1.00  0.00     0.038 C 
BRANCH  15  16
ATOM     16  C   UNL     1      -0.235   1.459 -10.987  1.00  0.00    -0.015 C 
ATOM     17  C   UNL     1      -0.626   2.915 -10.720  1.00  0.00     0.007 C 
ATOM     18  C   UNL     1      -1.253   0.860 -11.965  1.00  0.00     0.007 C 
ENDBRANCH  15  16
ENDBRANCH  14  15
BRANCH  14  19
ATOM     19  C   UNL     1      -1.355   1.492  -7.350  1.00  0.00     0.245 C 
ATOM     20  O   UNL     1      -2.044   0.482  -7.131  1.00  0.00    -0.272 OA
BRANCH  19  21
ATOM     21  N   UNL     1      -1.755   2.708  -6.823  1.00  0.00    -0.332 N 
ATOM     22  C   UNL     1      -1.626   3.995  -7.481  1.00  0.00     0.147 C 
BRANCH  21  23
ATOM     23  C   UNL     1      -2.360   2.711  -5.462  1.00  0.00     0.178 C 
BRANCH  23  24
ATOM     24  C   UNL     1      -1.734   3.723  -4.480  1.00  0.00     0.070 C 
BRANCH  24  25
ATOM     25  C   UNL     1      -0.418   3.341  -3.843  1.00  0.00    -0.045 A 
ATOM     26  C   UNL     1       0.794   3.577  -4.504  1.00  0.00     0.004 A 
ATOM     27  C   UNL     1      -0.394   2.737  -2.577  1.00  0.00     0.004 A 
ATOM     28  C   UNL     1       2.005   3.205  -3.916  1.00  0.00     0.000 A 
ATOM     29  C   UNL     1       0.817   2.367  -1.990  1.00  0.00     0.000 A 
ATOM     30  C   UNL     1       2.016   2.599  -2.662  1.00  0.00     0.000 A 
ENDBRANCH  24  25
ENDBRANCH  23  24
BRANCH  23  31
ATOM     31  C   UNL     1      -3.907   2.699  -5.488  1.00  0.00     0.243 C 
ATOM     32  O   UNL     1      -4.575   2.596  -6.514  1.00  0.00    -0.273 OA
ATOM     33  N   UNL     1      -4.483   3.003  -4.267  1.00  0.00    -0.341 N 
ATOM     34  H   UNL     1      -3.874   3.082  -3.449  1.00  0.00     0.164 HD
BRANCH  33  35
ATOM     35  C   UNL     1      -5.928   3.165  -4.084  1.00  0.00     0.194 C 
BRANCH  35  36
ATOM     36  C   UNL     1      -6.334   4.491  -3.380  1.00  0.00     0.017 C 
ATOM     37  C   UNL     1      -6.631   5.600  -4.405  1.00  0.00     0.010 C 
ATOM     38  C   UNL     1      -5.257   5.023  -2.427  1.00  0.00     0.010 C 
ENDBRANCH  35  36
BRANCH  35  39
ATOM     39  C   UNL     1      -6.589   1.927  -3.415  1.00  0.00     0.329 C 
ATOM     40  O   UNL     1      -6.110   1.325  -2.461  1.00  0.00    -0.250 OA
BRANCH  39  41
ATOM     41  O   UNL     1      -7.811   1.636  -3.954  1.00  0.00    -0.458 OA
BRANCH  41  42
ATOM     42  C   UNL     1      -8.771   1.013  -3.067  1.00  0.00     0.205 CG0
ATOM     43  C   UNL     1      -9.100  -0.361  -3.647  1.00  0.00     0.056 C 
ATOM     44  G   UNL     1     -10.011   1.923  -2.967  1.00  0.00     0.000 G0
ENDBRANCH  41  42
ENDBRANCH  39  41
ENDBRANCH  35  39
ENDBRANCH  33  35
ENDBRANCH  23  31
ENDBRANCH  21  23
ENDBRANCH  19  21
ENDBRANCH  14  19
ENDBRANCH   7  14
ENDBRANCH   2   5
BRANCH   3  45
ATOM     45  C   UNL     1       6.571   3.148  -8.595  1.00  0.00     0.171 C 
BRANCH  45  46
ATOM     46  N   UNL     1       7.810   3.318  -7.848  1.00  0.00    -0.342 N 
ATOM     47  C   UNL     1       8.503   2.258  -7.320  1.00  0.00     0.247 C 
ATOM     48  O   UNL     1       8.170   1.086  -7.499  1.00  0.00    -0.273 OA
ATOM     49  H   UNL     1       8.152   4.269  -7.724  1.00  0.00     0.164 HD
BRANCH  47  50
ATOM     50  C   UNL     1       9.717   2.638  -6.460  1.00  0.00     0.212 CG0
ATOM     51  G   UNL     1      10.812   3.169  -7.407  1.00  0.00     0.000 G0
BRANCH  50  52
ATOM     52  N   UNL     1       9.229   3.644  -5.521  1.00  0.00    -0.339 N 
ATOM     53  C   UNL     1       8.619   3.333  -4.330  1.00  0.00     0.243 C 
ATOM     54  O   UNL     1       8.389   2.177  -3.986  1.00  0.00    -0.273 OA
ATOM     55  H   UNL     1       9.291   4.621  -5.800  1.00  0.00     0.164 HD
BRANCH  53  56
ATOM     56  C   UNL     1       8.111   4.560  -3.546  1.00  0.00     0.182 C 
BRANCH  56  57
ATOM     57  N   UNL     1       6.824   5.025  -4.073  1.00  0.00    -0.344 N 
ATOM     58  C   UNL     1       5.720   5.198  -3.274  1.00  0.00     0.220 C 
ATOM     59  O   UNL     1       5.712   4.906  -2.083  1.00  0.00    -0.275 OA
ATOM     60  H   UNL     1       6.816   5.373  -5.028  1.00  0.00     0.164 HD
BRANCH  58  61
ATOM     61  C   UNL     1       4.516   5.742  -4.020  1.00  0.00     0.100 C 
BRANCH  61  62
ATOM     62  C   UNL     1       3.820   6.900  -3.305  1.00  0.00     0.010 C 
BRANCH  62  63
ATOM     63  C   UNL     1       2.386   6.590  -2.858  1.00  0.00     0.000 C 
BRANCH  63  64
ATOM     64  C   UNL     1       2.142   6.777  -1.361  1.00  0.00    -0.003 C 
ATOM     65  C   UNL     1       2.415   5.494  -0.590  1.00  0.00     0.004 C 
ENDBRANCH  63  64
ENDBRANCH  62  63
ENDBRANCH  61  62
ENDBRANCH  58  61
ENDBRANCH  56  57
BRANCH  56  66
ATOM     66  C   UNL     1       9.156   5.674  -3.510  1.00  0.00     0.157 C 
BRANCH  66  67
ATOM     67  C   UNL     1       9.192   6.343  -2.166  1.00  0.00     0.305 C 
ATOM     68  O   UNL     1      10.128   6.358  -1.381  1.00  0.00    -0.252 OA
BRANCH  67  69
ATOM     69  O   UNL     1       8.054   7.010  -1.896  1.00  0.00    -0.481 OA
ATOM     70  H   UNL     1       8.216   7.438  -1.028  1.00  0.00     0.296 HD
ENDBRANCH  67  69
ENDBRANCH  66  67
ENDBRANCH  56  66
ENDBRANCH  53  56
ENDBRANCH  50  52
ENDBRANCH  47  50
ENDBRANCH  45  46
BRANCH  45  71
ATOM     71  C   UNL     1       6.288   4.349  -9.503  1.00  0.00     0.037 C 
BRANCH  71  72
ATOM     72  C   UNL     1       5.033   4.145 -10.355  1.00  0.00     0.026 C 
BRANCH  72  73
ATOM     73  C   UNL     1       4.087   5.340 -10.256  1.00  0.00     0.146 C 
BRANCH  73  74
ATOM     74  N   UNL     1       4.276   5.952  -8.944  1.00  0.00    -0.254 NA
ATOM     75  C   UNL     1       3.476   6.893  -8.601  1.00  0.00     0.185 C 
ATOM     76  N   UNL     1       3.624   7.475  -7.400  1.00  0.00    -0.370 N 
ATOM     77  N   UNL     1       2.450   7.423  -9.290  1.00  0.00    -0.370 N 
ATOM     78  H   UNL     1       4.380   7.139  -6.819  1.00  0.00     0.159 HD
ATOM     79  H   UNL     1       3.133   8.306  -7.123  1.00  0.00     0.159 HD
ATOM     80  H   UNL     1       2.218   7.080 -10.210  1.00  0.00     0.159 HD
ATOM     81  H   UNL     1       1.816   8.082  -8.869  1.00  0.00     0.159 HD
ENDBRANCH  73  74
ENDBRANCH  72  73
ENDBRANCH  71  72
ENDBRANCH  45  71
ENDBRANCH   3  45
TORSDOF 20
ENDMDL
MODEL 12
REMARK VINA RESULT:    -5.005      6.582     11.475
REMARK INTER + INTRA:         -22.845
REMARK INTER:                 -16.003
REMARK INTRA:                  -6.842
REMARK UNBOUND:                -8.478
REMARK SMILES CCCCCC(=O)N[C@H](CC(=O)O)C(=O)N[C@H]1C(=O)N[C@H](CCCN=C(N)N)C(=O)N[C@@H]2CC[C@H](O)N(C2=O)[C@@H](CC(C)C)C(=O)N(C)[C@@H](Cc2ccccc2)C(=O)N[C@H](C(C)C)C(=O)O[C@@H]1C
REMARK SMILES IDX 30 1 31 2 29 3 32 5 35 6 37 7 34 8 38 9 33 10 39 11 36 12
REMARK SMILES IDX 40 14 41 15 42 16 43 17 44 18 45 19 46 20 47 21 48 22 49 23
REMARK SMILES IDX 50 24 51 25 52 26 56 27 53 28 55 29 54 30 57 31 58 32 59 33
REMARK SMILES IDX 60 35 61 36 62 37 63 38 64 39 65 40 66 41 67 42 68 43 21 45
REMARK SMILES IDX 20 46 18 47 19 48 17 50 16 52 14 53 15 54 9 56 8 57 6 58
REMARK SMILES IDX 7 59 5 61 4 62 3 63 2 64 1 65 10 66 11 67 12 68 13 69 22 71
REMARK SMILES IDX 23 72 24 73 25 74 26 75 27 76 28 77
REMARK H PARENT 31 4 36 13 59 34 20 49 16 55 8 60 13 70 27 78 27 79 28 80
REMARK H PARENT 28 81
REMARK Flexibility Score:  259.900
ROOT
ATOM      1  O   UNL     1       4.556   4.488  -0.263  1.00  0.00    -0.273 OA
ATOM      2  N   UNL     1       2.439   5.353  -0.220  1.00  0.00    -0.343 N 
ATOM      3  C   UNL     1       3.801   5.431  -0.023  1.00  0.00     0.243 C 
ATOM      4  H   UNL     1       1.851   6.153  -0.026  1.00  0.00     0.164 HD
ENDROOT
BRANCH   2   5
ATOM      5  C   UNL     1       1.817   4.094  -0.615  1.00  0.00     0.171 C 
ATOM      6  C   UNL     1      -0.804   3.443  -1.668  1.00  0.00     0.214 C 
ATOM      7  N   UNL     1      -0.588   3.425  -0.240  1.00  0.00    -0.303 N 
ATOM      8  C   UNL     1       0.441   3.099  -2.470  1.00  0.00     0.057 C 
ATOM      9  C   UNL     1       0.625   3.775   0.332  1.00  0.00     0.247 C 
ATOM     10  C   UNL     1       1.557   4.059  -2.120  1.00  0.00     0.040 C 
ATOM     11  O   UNL     1       0.777   3.841   1.558  1.00  0.00    -0.272 OA
BRANCH   6  12
ATOM     12  O   UNL     1      -1.275   4.724  -2.016  1.00  0.00    -0.373 OA
ATOM     13  H   UNL     1      -1.829   5.039  -1.270  1.00  0.00     0.213 HD
ENDBRANCH   6  12
BRANCH   7  14
ATOM     14  C   UNL     1      -1.765   3.158   0.613  1.00  0.00     0.177 C 
BRANCH  14  15
ATOM     15  C   UNL     1      -2.958   4.111   0.403  1.00  0.00     0.038 C 
BRANCH  15  16
ATOM     16  C   UNL     1      -3.756   4.614   1.626  1.00  0.00    -0.015 C 
ATOM     17  C   UNL     1      -4.666   3.532   2.215  1.00  0.00     0.007 C 
ATOM     18  C   UNL     1      -4.629   5.808   1.221  1.00  0.00     0.007 C 
ENDBRANCH  15  16
ENDBRANCH  14  15
BRANCH  14  19
ATOM     19  C   UNL     1      -1.872   1.626   0.927  1.00  0.00     0.245 C 
ATOM     20  O   UNL     1      -1.286   1.221   1.945  1.00  0.00    -0.272 OA
BRANCH  19  21
ATOM     21  N   UNL     1      -2.477   0.707   0.087  1.00  0.00    -0.332 N 
ATOM     22  C   UNL     1      -1.805  -0.054  -0.951  1.00  0.00     0.147 C 
BRANCH  21  23
ATOM     23  C   UNL     1      -3.940   0.478   0.244  1.00  0.00     0.178 C 
BRANCH  23  24
ATOM     24  C   UNL     1      -4.751   0.572  -1.065  1.00  0.00     0.070 C 
BRANCH  24  25
ATOM     25  C   UNL     1      -5.070   1.957  -1.579  1.00  0.00    -0.045 A 
ATOM     26  C   UNL     1      -4.294   2.544  -2.587  1.00  0.00     0.004 A 
ATOM     27  C   UNL     1      -6.150   2.678  -1.048  1.00  0.00     0.004 A 
ATOM     28  C   UNL     1      -4.585   3.831  -3.045  1.00  0.00     0.000 A 
ATOM     29  C   UNL     1      -6.440   3.963  -1.507  1.00  0.00     0.000 A 
ATOM     30  C   UNL     1      -5.655   4.540  -2.504  1.00  0.00     0.000 A 
ENDBRANCH  24  25
ENDBRANCH  23  24
BRANCH  23  31
ATOM     31  C   UNL     1      -4.268  -0.749   1.127  1.00  0.00     0.243 C 
ATOM     32  O   UNL     1      -4.258  -0.733   2.355  1.00  0.00    -0.273 OA
ATOM     33  N   UNL     1      -4.395  -1.927   0.412  1.00  0.00    -0.341 N 
ATOM     34  H   UNL     1      -4.389  -1.878  -0.610  1.00  0.00     0.164 HD
BRANCH  33  35
ATOM     35  C   UNL     1      -4.588  -3.232   1.050  1.00  0.00     0.194 C 
BRANCH  35  36
ATOM     36  C   UNL     1      -3.396  -4.214   0.861  1.00  0.00     0.017 C 
ATOM     37  C   UNL     1      -3.363  -5.274   1.975  1.00  0.00     0.010 C 
ATOM     38  C   UNL     1      -2.032  -3.513   0.854  1.00  0.00     0.010 C 
ENDBRANCH  35  36
BRANCH  35  39
ATOM     39  C   UNL     1      -5.945  -3.888   0.671  1.00  0.00     0.329 C 
ATOM     40  O   UNL     1      -6.989  -3.709   1.287  1.00  0.00    -0.250 OA
BRANCH  39  41
ATOM     41  O   UNL     1      -5.865  -4.622  -0.480  1.00  0.00    -0.458 OA
BRANCH  41  42
ATOM     42  C   UNL     1      -6.770  -5.747  -0.587  1.00  0.00     0.205 CG0
ATOM     43  C   UNL     1      -6.093  -6.940   0.085  1.00  0.00     0.056 C 
ATOM     44  G   UNL     1      -7.065  -6.000  -2.079  1.00  0.00     0.000 G0
ENDBRANCH  41  42
ENDBRANCH  39  41
ENDBRANCH  35  39
ENDBRANCH  33  35
ENDBRANCH  23  31
ENDBRANCH  21  23
ENDBRANCH  19  21
ENDBRANCH  14  19
ENDBRANCH   7  14
ENDBRANCH   2   5
BRANCH   3  45
ATOM     45  C   UNL     1       4.313   6.781   0.497  1.00  0.00     0.171 C 
BRANCH  45  46
ATOM     46  N   UNL     1       5.714   6.848   0.103  1.00  0.00    -0.342 N 
ATOM     47  C   UNL     1       6.261   7.962  -0.483  1.00  0.00     0.247 C 
ATOM     48  O   UNL     1       5.631   9.007  -0.651  1.00  0.00    -0.273 OA
ATOM     49  H   UNL     1       6.287   6.024   0.276  1.00  0.00     0.164 HD
BRANCH  47  50
ATOM     50  C   UNL     1       7.718   7.806  -0.942  1.00  0.00     0.212 CG0
ATOM     51  G   UNL     1       8.523   7.237   0.242  1.00  0.00     0.000 G0
BRANCH  50  52
ATOM     52  N   UNL     1       7.669   6.906  -2.092  1.00  0.00    -0.339 N 
ATOM     53  C   UNL     1       7.884   5.553  -2.002  1.00  0.00     0.243 C 
ATOM     54  O   UNL     1       8.188   4.999  -0.949  1.00  0.00    -0.273 OA
ATOM     55  H   UNL     1       7.531   7.321  -3.011  1.00  0.00     0.164 HD
BRANCH  53  56
ATOM     56  C   UNL     1       7.867   4.823  -3.361  1.00  0.00     0.182 C 
BRANCH  56  57
ATOM     57  N   UNL     1       6.499   4.700  -3.875  1.00  0.00    -0.344 N 
ATOM     58  C   UNL     1       6.193   4.879  -5.202  1.00  0.00     0.220 C 
ATOM     59  O   UNL     1       7.025   5.225  -6.034  1.00  0.00    -0.275 OA
ATOM     60  H   UNL     1       5.802   4.317  -3.242  1.00  0.00     0.164 HD
BRANCH  58  61
ATOM     61  C   UNL     1       4.728   4.646  -5.518  1.00  0.00     0.100 C 
BRANCH  61  62
ATOM     62  C   UNL     1       3.771   5.439  -4.627  1.00  0.00     0.010 C 
BRANCH  62  63
ATOM     63  C   UNL     1       3.107   6.632  -5.326  1.00  0.00     0.000 C 
BRANCH  63  64
ATOM     64  C   UNL     1       2.222   7.479  -4.413  1.00  0.00    -0.003 C 
ATOM     65  C   UNL     1       2.735   7.473  -2.980  1.00  0.00     0.004 C 
ENDBRANCH  63  64
ENDBRANCH  62  63
ENDBRANCH  61  62
ENDBRANCH  58  61
ENDBRANCH  56  57
BRANCH  56  66
ATOM     66  C   UNL     1       8.576   3.472  -3.280  1.00  0.00     0.157 C 
BRANCH  66  67
ATOM     67  C   UNL     1       7.596   2.355  -3.066  1.00  0.00     0.305 C 
ATOM     68  O   UNL     1       7.167   1.585  -3.911  1.00  0.00    -0.252 OA
BRANCH  67  69
ATOM     69  O   UNL     1       7.239   2.228  -1.773  1.00  0.00    -0.481 OA
ATOM     70  H   UNL     1       7.423   1.290  -1.554  1.00  0.00     0.296 HD
ENDBRANCH  67  69
ENDBRANCH  66  67
ENDBRANCH  56  66
ENDBRANCH  53  56
ENDBRANCH  50  52
ENDBRANCH  47  50
ENDBRANCH  45  46
BRANCH  45  71
ATOM     71  C   UNL     1       4.149   6.864   2.018  1.00  0.00     0.037 C 
BRANCH  71  72
ATOM     72  C   UNL     1       5.493   6.790   2.748  1.00  0.00     0.026 C 
BRANCH  72  73
ATOM     73  C   UNL     1       5.714   5.416   3.376  1.00  0.00     0.146 C 
BRANCH  73  74
ATOM     74  N   UNL     1       4.422   4.927   3.848  1.00  0.00    -0.254 NA
ATOM     75  C   UNL     1       4.205   4.932   5.112  1.00  0.00     0.185 C 
ATOM     76  N   UNL     1       3.025   4.490   5.576  1.00  0.00    -0.370 N 
ATOM     77  N   UNL     1       5.015   5.334   6.107  1.00  0.00    -0.370 N 
ATOM     78  H   UNL     1       2.358   4.161   4.893  1.00  0.00     0.159 HD
ATOM     79  H   UNL     1       2.839   4.330   6.551  1.00  0.00     0.159 HD
ATOM     80  H   UNL     1       5.935   5.695   5.906  1.00  0.00     0.159 HD
ATOM     81  H   UNL     1       4.691   5.400   7.058  1.00  0.00     0.159 HD
ENDBRANCH  73  74
ENDBRANCH  72  73
ENDBRANCH  71  72
ENDBRANCH  45  71
ENDBRANCH   3  45
TORSDOF 20
ENDMDL
MODEL 13
REMARK VINA RESULT:    -4.942      5.459      9.321
REMARK INTER + INTRA:         -22.666
REMARK INTER:                 -16.415
REMARK INTRA:                  -6.251
REMARK UNBOUND:                -8.478
REMARK SMILES CCCCCC(=O)N[C@H](CC(=O)O)C(=O)N[C@H]1C(=O)N[C@H](CCCN=C(N)N)C(=O)N[C@@H]2CC[C@H](O)N(C2=O)[C@@H](CC(C)C)C(=O)N(C)[C@@H](Cc2ccccc2)C(=O)N[C@H](C(C)C)C(=O)O[C@@H]1C
REMARK SMILES IDX 30 1 31 2 29 3 32 5 35 6 37 7 34 8 38 9 33 10 39 11 36 12
REMARK SMILES IDX 40 14 41 15 42 16 43 17 44 18 45 19 46 20 47 21 48 22 49 23
REMARK SMILES IDX 50 24 51 25 52 26 56 27 53 28 55 29 54 30 57 31 58 32 59 33
REMARK SMILES IDX 60 35 61 36 62 37 63 38 64 39 65 40 66 41 67 42 68 43 21 45
REMARK SMILES IDX 20 46 18 47 19 48 17 50 16 52 14 53 15 54 9 56 8 57 6 58
REMARK SMILES IDX 7 59 5 61 4 62 3 63 2 64 1 65 10 66 11 67 12 68 13 69 22 71
REMARK SMILES IDX 23 72 24 73 25 74 26 75 27 76 28 77
REMARK H PARENT 31 4 36 13 59 34 20 49 16 55 8 60 13 70 27 78 27 79 28 80
REMARK H PARENT 28 81
REMARK Flexibility Score:  259.900
ROOT
ATOM      1  O   UNL     1       2.724   5.079   0.679  1.00  0.00    -0.273 OA
ATOM      2  N   UNL     1       1.708   6.109  -1.092  1.00  0.00    -0.343 N 
ATOM      3  C   UNL     1       1.696   5.352   0.060  1.00  0.00     0.243 C 
ATOM      4  H   UNL     1       0.841   6.326  -1.567  1.00  0.00     0.164 HD
ENDROOT
BRANCH   2   5
ATOM      5  C   UNL     1       2.971   6.521  -1.696  1.00  0.00     0.171 C 
ATOM      6  C   UNL     1       5.739   6.019  -0.996  1.00  0.00     0.214 C 
ATOM      7  N   UNL     1       5.074   7.188  -0.469  1.00  0.00    -0.303 N 
ATOM      8  C   UNL     1       5.211   5.588  -2.355  1.00  0.00     0.057 C 
ATOM      9  C   UNL     1       3.739   7.460  -0.722  1.00  0.00     0.247 C 
ATOM     10  C   UNL     1       3.724   5.321  -2.266  1.00  0.00     0.040 C 
ATOM     11  O   UNL     1       3.153   8.416  -0.196  1.00  0.00    -0.272 OA
BRANCH   6  12
ATOM     12  O   UNL     1       5.591   4.979  -0.058  1.00  0.00    -0.373 OA
ATOM     13  H   UNL     1       5.244   5.383   0.767  1.00  0.00     0.213 HD
ENDBRANCH   6  12
BRANCH   7  14
ATOM     14  C   UNL     1       5.837   8.020   0.485  1.00  0.00     0.177 C 
BRANCH  14  15
ATOM     15  C   UNL     1       6.326   9.373  -0.070  1.00  0.00     0.038 C 
BRANCH  15  16
ATOM     16  C   UNL     1       7.779   9.823   0.195  1.00  0.00    -0.015 C 
ATOM     17  C   UNL     1       7.908  11.345   0.306  1.00  0.00     0.007 C 
ATOM     18  C   UNL     1       8.686   9.346  -0.946  1.00  0.00     0.007 C 
ENDBRANCH  15  16
ENDBRANCH  14  15
BRANCH  14  19
ATOM     19  C   UNL     1       5.336   7.768   1.949  1.00  0.00     0.245 C 
ATOM     20  O   UNL     1       5.379   6.597   2.361  1.00  0.00    -0.272 OA
BRANCH  19  21
ATOM     21  N   UNL     1       4.757   8.741   2.744  1.00  0.00    -0.332 N 
ATOM     22  C   UNL     1       3.916   9.826   2.270  1.00  0.00     0.147 C 
BRANCH  21  23
ATOM     23  C   UNL     1       5.019   8.690   4.209  1.00  0.00     0.178 C 
BRANCH  23  24
ATOM     24  C   UNL     1       5.308  10.057   4.861  1.00  0.00     0.070 C 
BRANCH  24  25
ATOM     25  C   UNL     1       6.628  10.713   4.530  1.00  0.00    -0.045 A 
ATOM     26  C   UNL     1       6.826  12.081   4.755  1.00  0.00     0.004 A 
ATOM     27  C   UNL     1       7.676   9.957   3.985  1.00  0.00     0.004 A 
ATOM     28  C   UNL     1       8.044  12.683   4.430  1.00  0.00     0.000 A 
ATOM     29  C   UNL     1       8.893  10.559   3.661  1.00  0.00     0.000 A 
ATOM     30  C   UNL     1       9.075  11.923   3.882  1.00  0.00     0.000 A 
ENDBRANCH  24  25
ENDBRANCH  23  24
BRANCH  23  31
ATOM     31  C   UNL     1       4.005   7.804   4.973  1.00  0.00     0.243 C 
ATOM     32  O   UNL     1       2.913   8.199   5.372  1.00  0.00    -0.273 OA
ATOM     33  N   UNL     1       4.514   6.569   5.335  1.00  0.00    -0.341 N 
ATOM     34  H   UNL     1       5.433   6.298   4.977  1.00  0.00     0.164 HD
BRANCH  33  35
ATOM     35  C   UNL     1       3.775   5.613   6.165  1.00  0.00     0.194 C 
BRANCH  35  36
ATOM     36  C   UNL     1       4.376   5.408   7.585  1.00  0.00     0.017 C 
ATOM     37  C   UNL     1       3.525   6.108   8.658  1.00  0.00     0.010 C 
ATOM     38  C   UNL     1       5.808   5.938   7.717  1.00  0.00     0.010 C 
ENDBRANCH  35  36
BRANCH  35  39
ATOM     39  C   UNL     1       3.524   4.261   5.440  1.00  0.00     0.329 C 
ATOM     40  O   UNL     1       4.364   3.677   4.768  1.00  0.00    -0.250 OA
BRANCH  39  41
ATOM     41  O   UNL     1       2.283   3.751   5.708  1.00  0.00    -0.458 OA
BRANCH  41  42
ATOM     42  C   UNL     1       1.158   4.481   5.163  1.00  0.00     0.205 CG0
ATOM     43  C   UNL     1       0.251   4.856   6.333  1.00  0.00     0.056 C 
ATOM     44  G   UNL     1       0.447   3.587   4.128  1.00  0.00     0.000 G0
ENDBRANCH  41  42
ENDBRANCH  39  41
ENDBRANCH  35  39
ENDBRANCH  33  35
ENDBRANCH  23  31
ENDBRANCH  21  23
ENDBRANCH  19  21
ENDBRANCH  14  19
ENDBRANCH   7  14
ENDBRANCH   2   5
BRANCH   3  45
ATOM     45  C   UNL     1       0.309   4.892   0.529  1.00  0.00     0.171 C 
BRANCH  45  46
ATOM     46  N   UNL     1       0.541   4.106   1.733  1.00  0.00    -0.342 N 
ATOM     47  C   UNL     1      -0.024   4.427   2.942  1.00  0.00     0.247 C 
ATOM     48  O   UNL     1      -0.823   5.355   3.081  1.00  0.00    -0.273 OA
ATOM     49  H   UNL     1       1.152   3.296   1.650  1.00  0.00     0.164 HD
BRANCH  47  50
ATOM     50  C   UNL     1       0.433   3.561   4.124  1.00  0.00     0.212 CG0
ATOM     51  G   UNL     1       1.161   4.481   5.124  1.00  0.00     0.000 G0
BRANCH  50  52
ATOM     52  N   UNL     1      -0.787   2.968   4.667  1.00  0.00    -0.339 N 
ATOM     53  C   UNL     1      -1.294   1.763   4.245  1.00  0.00     0.243 C 
ATOM     54  O   UNL     1      -0.786   1.113   3.336  1.00  0.00    -0.273 OA
ATOM     55  H   UNL     1      -1.315   3.512   5.346  1.00  0.00     0.164 HD
BRANCH  53  56
ATOM     56  C   UNL     1      -2.637   1.384   4.901  1.00  0.00     0.182 C 
BRANCH  56  57
ATOM     57  N   UNL     1      -3.337   0.362   4.116  1.00  0.00    -0.344 N 
ATOM     58  C   UNL     1      -4.306  -0.447   4.657  1.00  0.00     0.220 C 
ATOM     59  O   UNL     1      -4.601  -0.424   5.847  1.00  0.00    -0.275 OA
ATOM     60  H   UNL     1      -3.196   0.379   3.109  1.00  0.00     0.164 HD
BRANCH  58  61
ATOM     61  C   UNL     1      -4.935  -1.389   3.648  1.00  0.00     0.100 C 
BRANCH  61  62
ATOM     62  C   UNL     1      -4.251  -1.375   2.281  1.00  0.00     0.010 C 
BRANCH  62  63
ATOM     63  C   UNL     1      -4.930  -2.262   1.230  1.00  0.00     0.000 C 
BRANCH  63  64
ATOM     64  C   UNL     1      -4.203  -3.579   0.957  1.00  0.00    -0.003 C 
ATOM     65  C   UNL     1      -2.697  -3.424   1.114  1.00  0.00     0.004 C 
ENDBRANCH  63  64
ENDBRANCH  62  63
ENDBRANCH  61  62
ENDBRANCH  58  61
ENDBRANCH  56  57
BRANCH  56  66
ATOM     66  C   UNL     1      -3.506   2.615   5.150  1.00  0.00     0.157 C 
BRANCH  66  67
ATOM     67  C   UNL     1      -4.064   3.156   3.866  1.00  0.00     0.305 C 
ATOM     68  O   UNL     1      -4.899   2.626   3.148  1.00  0.00    -0.252 OA
BRANCH  67  69
ATOM     69  O   UNL     1      -3.578   4.377   3.570  1.00  0.00    -0.481 OA
ATOM     70  H   UNL     1      -2.621   4.321   3.777  1.00  0.00     0.296 HD
ENDBRANCH  67  69
ENDBRANCH  66  67
ENDBRANCH  56  66
ENDBRANCH  53  56
ENDBRANCH  50  52
ENDBRANCH  47  50
ENDBRANCH  45  46
BRANCH  45  71
ATOM     71  C   UNL     1      -0.376   4.063  -0.564  1.00  0.00     0.037 C 
BRANCH  71  72
ATOM     72  C   UNL     1      -1.671   3.415  -0.068  1.00  0.00     0.026 C 
BRANCH  72  73
ATOM     73  C   UNL     1      -2.902   4.162  -0.577  1.00  0.00     0.146 C 
BRANCH  73  74
ATOM     74  N   UNL     1      -3.724   4.510   0.578  1.00  0.00    -0.254 NA
ATOM     75  C   UNL     1      -4.926   4.899   0.363  1.00  0.00     0.185 C 
ATOM     76  N   UNL     1      -5.707   5.225   1.406  1.00  0.00    -0.370 N 
ATOM     77  N   UNL     1      -5.571   5.042  -0.808  1.00  0.00    -0.370 N 
ATOM     78  H   UNL     1      -5.296   5.152   2.325  1.00  0.00     0.159 HD
ATOM     79  H   UNL     1      -6.601   5.672   1.309  1.00  0.00     0.159 HD
ATOM     80  H   UNL     1      -5.108   4.830  -1.679  1.00  0.00     0.159 HD
ATOM     81  H   UNL     1      -6.556   5.246  -0.847  1.00  0.00     0.159 HD
ENDBRANCH  73  74
ENDBRANCH  72  73
ENDBRANCH  71  72
ENDBRANCH  45  71
ENDBRANCH   3  45
TORSDOF 20
ENDMDL
MODEL 14
REMARK VINA RESULT:    -4.917      6.556     10.486
REMARK INTER + INTRA:         -22.595
REMARK INTER:                 -15.950
REMARK INTRA:                  -6.645
REMARK UNBOUND:                -8.478
REMARK SMILES CCCCCC(=O)N[C@H](CC(=O)O)C(=O)N[C@H]1C(=O)N[C@H](CCCN=C(N)N)C(=O)N[C@@H]2CC[C@H](O)N(C2=O)[C@@H](CC(C)C)C(=O)N(C)[C@@H](Cc2ccccc2)C(=O)N[C@H](C(C)C)C(=O)O[C@@H]1C
REMARK SMILES IDX 30 1 31 2 29 3 32 5 35 6 37 7 34 8 38 9 33 10 39 11 36 12
REMARK SMILES IDX 40 14 41 15 42 16 43 17 44 18 45 19 46 20 47 21 48 22 49 23
REMARK SMILES IDX 50 24 51 25 52 26 56 27 53 28 55 29 54 30 57 31 58 32 59 33
REMARK SMILES IDX 60 35 61 36 62 37 63 38 64 39 65 40 66 41 67 42 68 43 21 45
REMARK SMILES IDX 20 46 18 47 19 48 17 50 16 52 14 53 15 54 9 56 8 57 6 58
REMARK SMILES IDX 7 59 5 61 4 62 3 63 2 64 1 65 10 66 11 67 12 68 13 69 22 71
REMARK SMILES IDX 23 72 24 73 25 74 26 75 27 76 28 77
REMARK H PARENT 31 4 36 13 59 34 20 49 16 55 8 60 13 70 27 78 27 79 28 80
REMARK H PARENT 28 81
REMARK Flexibility Score:  259.900
ROOT
ATOM      1  O   UNL     1       2.676   2.690  -6.800  1.00  0.00    -0.273 OA
ATOM      2  N   UNL     1       2.249   1.254  -5.072  1.00  0.00    -0.343 N 
ATOM      3  C   UNL     1       2.769   1.564  -6.311  1.00  0.00     0.243 C 
ATOM      4  H   UNL     1       2.357   0.321  -4.695  1.00  0.00     0.164 HD
ENDROOT
BRANCH   2   5
ATOM      5  C   UNL     1       1.455   2.230  -4.335  1.00  0.00     0.171 C 
ATOM      6  C   UNL     1       0.330   2.232  -1.663  1.00  0.00     0.214 C 
ATOM      7  N   UNL     1      -0.458   1.731  -2.765  1.00  0.00    -0.303 N 
ATOM      8  C   UNL     1       1.315   3.316  -2.071  1.00  0.00     0.057 C 
ATOM      9  C   UNL     1       0.037   1.655  -4.057  1.00  0.00     0.247 C 
ATOM     10  C   UNL     1       2.238   2.791  -3.148  1.00  0.00     0.040 C 
ATOM     11  O   UNL     1      -0.613   1.145  -4.979  1.00  0.00    -0.272 OA
BRANCH   6  12
ATOM     12  O   UNL     1       1.010   1.140  -1.089  1.00  0.00    -0.373 OA
ATOM     13  H   UNL     1       0.451   0.807  -0.355  1.00  0.00     0.213 HD
ENDBRANCH   6  12
BRANCH   7  14
ATOM     14  C   UNL     1      -1.780   1.157  -2.437  1.00  0.00     0.177 C 
BRANCH  14  15
ATOM     15  C   UNL     1      -1.777  -0.344  -2.092  1.00  0.00     0.038 C 
BRANCH  15  16
ATOM     16  C   UNL     1      -2.900  -1.253  -2.638  1.00  0.00    -0.015 C 
ATOM     17  C   UNL     1      -2.440  -2.702  -2.826  1.00  0.00     0.007 C 
ATOM     18  C   UNL     1      -3.384  -0.723  -3.994  1.00  0.00     0.007 C 
ENDBRANCH  15  16
ENDBRANCH  14  15
BRANCH  14  19
ATOM     19  C   UNL     1      -2.691   2.241  -1.764  1.00  0.00     0.245 C 
ATOM     20  O   UNL     1      -2.939   3.258  -2.433  1.00  0.00    -0.272 OA
BRANCH  19  21
ATOM     21  N   UNL     1      -3.127   2.174  -0.452  1.00  0.00    -0.332 N 
ATOM     22  C   UNL     1      -2.560   2.912   0.663  1.00  0.00     0.147 C 
BRANCH  21  23
ATOM     23  C   UNL     1      -4.265   1.266  -0.143  1.00  0.00     0.178 C 
BRANCH  23  24
ATOM     24  C   UNL     1      -4.144   0.512   1.198  1.00  0.00     0.070 C 
BRANCH  24  25
ATOM     25  C   UNL     1      -3.297  -0.739   1.209  1.00  0.00    -0.045 A 
ATOM     26  C   UNL     1      -1.954  -0.693   1.606  1.00  0.00     0.004 A 
ATOM     27  C   UNL     1      -3.845  -1.969   0.815  1.00  0.00     0.004 A 
ATOM     28  C   UNL     1      -1.173  -1.850   1.598  1.00  0.00     0.000 A 
ATOM     29  C   UNL     1      -3.064  -3.125   0.809  1.00  0.00     0.000 A 
ATOM     30  C   UNL     1      -1.727  -3.064   1.197  1.00  0.00     0.000 A 
ENDBRANCH  24  25
ENDBRANCH  23  24
BRANCH  23  31
ATOM     31  C   UNL     1      -5.645   1.917  -0.401  1.00  0.00     0.243 C 
ATOM     32  O   UNL     1      -6.677   1.283  -0.603  1.00  0.00    -0.273 OA
ATOM     33  N   UNL     1      -5.585   3.290  -0.571  1.00  0.00    -0.341 N 
ATOM     34  H   UNL     1      -4.695   3.763  -0.394  1.00  0.00     0.164 HD
BRANCH  33  35
ATOM     35  C   UNL     1      -6.749   4.100  -0.942  1.00  0.00     0.194 C 
BRANCH  35  36
ATOM     36  C   UNL     1      -6.397   5.391  -1.734  1.00  0.00     0.017 C 
ATOM     37  C   UNL     1      -7.622   6.312  -1.876  1.00  0.00     0.010 C 
ATOM     38  C   UNL     1      -5.869   5.109  -3.146  1.00  0.00     0.010 C 
ENDBRANCH  35  36
BRANCH  35  39
ATOM     39  C   UNL     1      -7.681   4.397   0.267  1.00  0.00     0.329 C 
ATOM     40  O   UNL     1      -7.363   5.094   1.223  1.00  0.00    -0.250 OA
BRANCH  39  41
ATOM     41  O   UNL     1      -8.929   3.864   0.103  1.00  0.00    -0.458 OA
BRANCH  41  42
ATOM     42  C   UNL     1      -9.874   4.104   1.174  1.00  0.00     0.205 CG0
ATOM     43  C   UNL     1      -9.819   2.897   2.107  1.00  0.00     0.056 C 
ATOM     44  G   UNL     1     -11.272   4.311   0.559  1.00  0.00     0.000 G0
ENDBRANCH  41  42
ENDBRANCH  39  41
ENDBRANCH  35  39
ENDBRANCH  33  35
ENDBRANCH  23  31
ENDBRANCH  21  23
ENDBRANCH  19  21
ENDBRANCH  14  19
ENDBRANCH   7  14
ENDBRANCH   2   5
BRANCH   3  45
ATOM     45  C   UNL     1       3.490   0.414  -7.027  1.00  0.00     0.171 C 
BRANCH  45  46
ATOM     46  N   UNL     1       4.730   0.984  -7.536  1.00  0.00    -0.342 N 
ATOM     47  C   UNL     1       5.957   0.426  -7.277  1.00  0.00     0.247 C 
ATOM     48  O   UNL     1       6.093  -0.632  -6.661  1.00  0.00    -0.273 OA
ATOM     49  H   UNL     1       4.658   1.829  -8.099  1.00  0.00     0.164 HD
BRANCH  47  50
ATOM     50  C   UNL     1       7.159   1.232  -7.789  1.00  0.00     0.212 CG0
ATOM     51  G   UNL     1       7.030   1.340  -9.322  1.00  0.00     0.000 G0
BRANCH  50  52
ATOM     52  N   UNL     1       7.080   2.522  -7.111  1.00  0.00    -0.339 N 
ATOM     53  C   UNL     1       7.988   2.936  -6.166  1.00  0.00     0.243 C 
ATOM     54  O   UNL     1       8.911   2.225  -5.779  1.00  0.00    -0.273 OA
ATOM     55  H   UNL     1       6.274   3.112  -7.307  1.00  0.00     0.164 HD
BRANCH  53  56
ATOM     56  C   UNL     1       7.650   4.298  -5.525  1.00  0.00     0.182 C 
BRANCH  56  57
ATOM     57  N   UNL     1       6.229   4.619  -5.690  1.00  0.00    -0.344 N 
ATOM     58  C   UNL     1       5.490   5.220  -4.700  1.00  0.00     0.220 C 
ATOM     59  O   UNL     1       5.945   5.462  -3.588  1.00  0.00    -0.275 OA
ATOM     60  H   UNL     1       5.842   4.529  -6.626  1.00  0.00     0.164 HD
BRANCH  58  61
ATOM     61  C   UNL     1       4.059   5.512  -5.111  1.00  0.00     0.100 C 
BRANCH  61  62
ATOM     62  C   UNL     1       3.274   6.319  -4.076  1.00  0.00     0.010 C 
BRANCH  62  63
ATOM     63  C   UNL     1       2.026   7.014  -4.638  1.00  0.00     0.000 C 
BRANCH  63  64
ATOM     64  C   UNL     1       0.725   6.628  -3.937  1.00  0.00    -0.003 C 
ATOM     65  C   UNL     1      -0.136   7.850  -3.652  1.00  0.00     0.004 C 
ENDBRANCH  63  64
ENDBRANCH  62  63
ENDBRANCH  61  62
ENDBRANCH  58  61
ENDBRANCH  56  57
BRANCH  56  66
ATOM     66  C   UNL     1       8.557   5.407  -6.056  1.00  0.00     0.157 C 
BRANCH  66  67
ATOM     67  C   UNL     1       8.037   5.963  -7.350  1.00  0.00     0.305 C 
ATOM     68  O   UNL     1       7.538   5.333  -8.270  1.00  0.00    -0.252 OA
BRANCH  67  69
ATOM     69  O   UNL     1       8.123   7.305  -7.402  1.00  0.00    -0.481 OA
ATOM     70  H   UNL     1       7.383   7.582  -7.982  1.00  0.00     0.296 HD
ENDBRANCH  67  69
ENDBRANCH  66  67
ENDBRANCH  56  66
ENDBRANCH  53  56
ENDBRANCH  50  52
ENDBRANCH  47  50
ENDBRANCH  45  46
BRANCH  45  71
ATOM     71  C   UNL     1       2.616  -0.140  -8.158  1.00  0.00     0.037 C 
BRANCH  71  72
ATOM     72  C   UNL     1       1.155  -0.298  -7.733  1.00  0.00     0.026 C 
BRANCH  72  73
ATOM     73  C   UNL     1       0.859  -1.720  -7.260  1.00  0.00     0.146 C 
BRANCH  73  74
ATOM     74  N   UNL     1       1.182  -1.794  -5.838  1.00  0.00    -0.254 NA
ATOM     75  C   UNL     1       1.398  -2.952  -5.332  1.00  0.00     0.185 C 
ATOM     76  N   UNL     1       1.698  -3.053  -4.027  1.00  0.00    -0.370 N 
ATOM     77  N   UNL     1       1.372  -4.155  -5.933  1.00  0.00    -0.370 N 
ATOM     78  H   UNL     1       1.731  -2.193  -3.498  1.00  0.00     0.159 HD
ATOM     79  H   UNL     1       1.737  -3.927  -3.534  1.00  0.00     0.159 HD
ATOM     80  H   UNL     1       1.164  -4.233  -6.917  1.00  0.00     0.159 HD
ATOM     81  H   UNL     1       1.674  -4.989  -5.457  1.00  0.00     0.159 HD
ENDBRANCH  73  74
ENDBRANCH  72  73
ENDBRANCH  71  72
ENDBRANCH  45  71
ENDBRANCH   3  45
TORSDOF 20
ENDMDL
MODEL 15
REMARK VINA RESULT:    -4.866      3.378      7.145
REMARK INTER + INTRA:         -22.448
REMARK INTER:                 -16.523
REMARK INTRA:                  -5.925
REMARK UNBOUND:                -8.478
REMARK SMILES CCCCCC(=O)N[C@H](CC(=O)O)C(=O)N[C@H]1C(=O)N[C@H](CCCN=C(N)N)C(=O)N[C@@H]2CC[C@H](O)N(C2=O)[C@@H](CC(C)C)C(=O)N(C)[C@@H](Cc2ccccc2)C(=O)N[C@H](C(C)C)C(=O)O[C@@H]1C
REMARK SMILES IDX 30 1 31 2 29 3 32 5 35 6 37 7 34 8 38 9 33 10 39 11 36 12
REMARK SMILES IDX 40 14 41 15 42 16 43 17 44 18 45 19 46 20 47 21 48 22 49 23
REMARK SMILES IDX 50 24 51 25 52 26 56 27 53 28 55 29 54 30 57 31 58 32 59 33
REMARK SMILES IDX 60 35 61 36 62 37 63 38 64 39 65 40 66 41 67 42 68 43 21 45
REMARK SMILES IDX 20 46 18 47 19 48 17 50 16 52 14 53 15 54 9 56 8 57 6 58
REMARK SMILES IDX 7 59 5 61 4 62 3 63 2 64 1 65 10 66 11 67 12 68 13 69 22 71
REMARK SMILES IDX 23 72 24 73 25 74 26 75 27 76 28 77
REMARK H PARENT 31 4 36 13 59 34 20 49 16 55 8 60 13 70 27 78 27 79 28 80
REMARK H PARENT 28 81
REMARK Flexibility Score:  259.900
ROOT
ATOM      1  O   UNL     1       0.645   3.035   0.142  1.00  0.00    -0.273 OA
ATOM      2  N   UNL     1       0.457   5.048   1.211  1.00  0.00    -0.343 N 
ATOM      3  C   UNL     1       0.594   4.264   0.086  1.00  0.00     0.243 C 
ATOM      4  H   UNL     1       0.403   6.056   1.125  1.00  0.00     0.164 HD
ENDROOT
BRANCH   2   5
ATOM      5  C   UNL     1       0.488   4.450   2.541  1.00  0.00     0.171 C 
ATOM      6  C   UNL     1      -0.245   5.450   5.162  1.00  0.00     0.214 C 
ATOM      7  N   UNL     1       1.112   5.611   4.694  1.00  0.00    -0.303 N 
ATOM      8  C   UNL     1      -0.932   4.214   4.603  1.00  0.00     0.057 C 
ATOM      9  C   UNL     1       1.516   5.202   3.433  1.00  0.00     0.247 C 
ATOM     10  C   UNL     1      -0.926   4.264   3.091  1.00  0.00     0.040 C 
ATOM     11  O   UNL     1       2.658   5.420   3.008  1.00  0.00    -0.272 OA
BRANCH   6  12
ATOM     12  O   UNL     1      -0.961   6.612   4.811  1.00  0.00    -0.373 OA
ATOM     13  H   UNL     1      -1.777   6.319   4.353  1.00  0.00     0.213 HD
ENDBRANCH   6  12
BRANCH   7  14
ATOM     14  C   UNL     1       2.036   6.369   5.564  1.00  0.00     0.177 C 
BRANCH  14  15
ATOM     15  C   UNL     1       1.495   7.718   6.076  1.00  0.00     0.038 C 
BRANCH  15  16
ATOM     16  C   UNL     1       2.153   9.032   5.599  1.00  0.00    -0.015 C 
ATOM     17  C   UNL     1       3.535   8.803   4.979  1.00  0.00     0.007 C 
ATOM     18  C   UNL     1       2.312   9.993   6.784  1.00  0.00     0.007 C 
ENDBRANCH  15  16
ENDBRANCH  14  15
BRANCH  14  19
ATOM     19  C   UNL     1       2.943   5.386   6.381  1.00  0.00     0.245 C 
ATOM     20  O   UNL     1       2.364   4.591   7.140  1.00  0.00    -0.272 OA
BRANCH  19  21
ATOM     21  N   UNL     1       4.326   5.437   6.386  1.00  0.00    -0.332 N 
ATOM     22  C   UNL     1       5.177   5.337   5.214  1.00  0.00     0.147 C 
BRANCH  21  23
ATOM     23  C   UNL     1       5.012   5.594   7.698  1.00  0.00     0.178 C 
BRANCH  23  24
ATOM     24  C   UNL     1       6.552   5.627   7.621  1.00  0.00     0.070 C 
BRANCH  24  25
ATOM     25  C   UNL     1       7.310   4.871   8.688  1.00  0.00    -0.045 A 
ATOM     26  C   UNL     1       6.912   4.929  10.029  1.00  0.00     0.004 A 
ATOM     27  C   UNL     1       8.432   4.100   8.346  1.00  0.00     0.004 A 
ATOM     28  C   UNL     1       7.628   4.241  11.011  1.00  0.00     0.000 A 
ATOM     29  C   UNL     1       9.146   3.412   9.329  1.00  0.00     0.000 A 
ATOM     30  C   UNL     1       8.745   3.486  10.661  1.00  0.00     0.000 A 
ENDBRANCH  24  25
ENDBRANCH  23  24
BRANCH  23  31
ATOM     31  C   UNL     1       4.381   6.697   8.581  1.00  0.00     0.243 C 
ATOM     32  O   UNL     1       4.527   7.901   8.385  1.00  0.00    -0.273 OA
ATOM     33  N   UNL     1       3.782   6.210   9.731  1.00  0.00    -0.341 N 
ATOM     34  H   UNL     1       3.695   5.197   9.841  1.00  0.00     0.164 HD
BRANCH  33  35
ATOM     35  C   UNL     1       3.225   7.080  10.770  1.00  0.00     0.194 C 
BRANCH  35  36
ATOM     36  C   UNL     1       2.256   8.171  10.234  1.00  0.00     0.017 C 
ATOM     37  C   UNL     1       1.793   9.111  11.360  1.00  0.00     0.010 C 
ATOM     38  C   UNL     1       0.999   7.591   9.574  1.00  0.00     0.010 C 
ENDBRANCH  35  36
BRANCH  35  39
ATOM     39  C   UNL     1       4.318   7.680  11.698  1.00  0.00     0.329 C 
ATOM     40  O   UNL     1       5.042   8.619  11.387  1.00  0.00    -0.250 OA
BRANCH  39  41
ATOM     41  O   UNL     1       4.326   7.100  12.936  1.00  0.00    -0.458 OA
BRANCH  41  42
ATOM     42  C   UNL     1       4.641   7.970  14.050  1.00  0.00     0.205 CG0
ATOM     43  C   UNL     1       5.950   7.473  14.658  1.00  0.00     0.056 C 
ATOM     44  G   UNL     1       3.471   7.928  15.053  1.00  0.00     0.000 G0
ENDBRANCH  41  42
ENDBRANCH  39  41
ENDBRANCH  35  39
ENDBRANCH  33  35
ENDBRANCH  23  31
ENDBRANCH  21  23
ENDBRANCH  19  21
ENDBRANCH  14  19
ENDBRANCH   7  14
ENDBRANCH   2   5
BRANCH   3  45
ATOM     45  C   UNL     1       0.655   5.027  -1.244  1.00  0.00     0.171 C 
BRANCH  45  46
ATOM     46  N   UNL     1       1.396   4.168  -2.158  1.00  0.00    -0.342 N 
ATOM     47  C   UNL     1       1.180   4.174  -3.513  1.00  0.00     0.247 C 
ATOM     48  O   UNL     1       0.401   4.955  -4.062  1.00  0.00    -0.273 OA
ATOM     49  H   UNL     1       2.092   3.546  -1.751  1.00  0.00     0.164 HD
BRANCH  47  50
ATOM     50  C   UNL     1       1.963   3.115  -4.301  1.00  0.00     0.212 CG0
ATOM     51  G   UNL     1       2.094   3.614  -5.754  1.00  0.00     0.000 G0
BRANCH  50  52
ATOM     52  N   UNL     1       3.247   2.990  -3.616  1.00  0.00    -0.339 N 
ATOM     53  C   UNL     1       4.405   3.573  -4.069  1.00  0.00     0.243 C 
ATOM     54  O   UNL     1       4.461   4.204  -5.121  1.00  0.00    -0.273 OA
ATOM     55  H   UNL     1       3.290   2.386  -2.798  1.00  0.00     0.164 HD
BRANCH  53  56
ATOM     56  C   UNL     1       5.652   3.229  -3.228  1.00  0.00     0.182 C 
BRANCH  56  57
ATOM     57  N   UNL     1       5.997   4.331  -2.325  1.00  0.00    -0.344 N 
ATOM     58  C   UNL     1       5.878   4.229  -0.960  1.00  0.00     0.220 C 
ATOM     59  O   UNL     1       5.408   3.240  -0.408  1.00  0.00    -0.275 OA
ATOM     60  H   UNL     1       6.483   5.126  -2.732  1.00  0.00     0.164 HD
BRANCH  58  61
ATOM     61  C   UNL     1       6.347   5.468  -0.221  1.00  0.00     0.100 C 
BRANCH  61  62
ATOM     62  C   UNL     1       5.644   5.690   1.119  1.00  0.00     0.010 C 
BRANCH  62  63
ATOM     63  C   UNL     1       5.656   7.146   1.601  1.00  0.00     0.000 C 
BRANCH  63  64
ATOM     64  C   UNL     1       6.544   8.073   0.772  1.00  0.00    -0.003 C 
ATOM     65  C   UNL     1       5.727   9.164   0.094  1.00  0.00     0.004 C 
ENDBRANCH  63  64
ENDBRANCH  62  63
ENDBRANCH  61  62
ENDBRANCH  58  61
ENDBRANCH  56  57
BRANCH  56  66
ATOM     66  C   UNL     1       6.828   2.819  -4.112  1.00  0.00     0.157 C 
BRANCH  66  67
ATOM     67  C   UNL     1       8.005   2.389  -3.286  1.00  0.00     0.305 C 
ATOM     68  O   UNL     1       8.944   3.085  -2.929  1.00  0.00    -0.252 OA
BRANCH  67  69
ATOM     69  O   UNL     1       7.917   1.102  -2.900  1.00  0.00    -0.481 OA
ATOM     70  H   UNL     1       7.597   1.139  -1.974  1.00  0.00     0.296 HD
ENDBRANCH  67  69
ENDBRANCH  66  67
ENDBRANCH  56  66
ENDBRANCH  53  56
ENDBRANCH  50  52
ENDBRANCH  47  50
ENDBRANCH  45  46
BRANCH  45  71
ATOM     71  C   UNL     1       1.350   6.380  -1.051  1.00  0.00     0.037 C 
BRANCH  71  72
ATOM     72  C   UNL     1       2.863   6.286  -1.266  1.00  0.00     0.026 C 
BRANCH  72  73
ATOM     73  C   UNL     1       3.389   7.472  -2.070  1.00  0.00     0.146 C 
BRANCH  73  74
ATOM     74  N   UNL     1       3.629   7.016  -3.436  1.00  0.00    -0.254 NA
ATOM     75  C   UNL     1       2.827   7.418  -4.351  1.00  0.00     0.185 C 
ATOM     76  N   UNL     1       3.023   7.015  -5.618  1.00  0.00    -0.370 N 
ATOM     77  N   UNL     1       1.758   8.226  -4.243  1.00  0.00    -0.370 N 
ATOM     78  H   UNL     1       3.803   6.397  -5.786  1.00  0.00     0.159 HD
ATOM     79  H   UNL     1       2.359   7.169  -6.356  1.00  0.00     0.159 HD
ATOM     80  H   UNL     1       1.492   8.609  -3.349  1.00  0.00     0.159 HD
ATOM     81  H   UNL     1       1.269   8.566  -5.055  1.00  0.00     0.159 HD
ENDBRANCH  73  74
ENDBRANCH  72  73
ENDBRANCH  71  72
ENDBRANCH  45  71
ENDBRANCH   3  45
TORSDOF 20
ENDMDL
MODEL 16
REMARK VINA RESULT:    -4.838      6.046     11.267
REMARK INTER + INTRA:         -22.367
REMARK INTER:                 -17.107
REMARK INTRA:                  -5.260
REMARK UNBOUND:                -8.478
REMARK SMILES CCCCCC(=O)N[C@H](CC(=O)O)C(=O)N[C@H]1C(=O)N[C@H](CCCN=C(N)N)C(=O)N[C@@H]2CC[C@H](O)N(C2=O)[C@@H](CC(C)C)C(=O)N(C)[C@@H](Cc2ccccc2)C(=O)N[C@H](C(C)C)C(=O)O[C@@H]1C
REMARK SMILES IDX 30 1 31 2 29 3 32 5 35 6 37 7 34 8 38 9 33 10 39 11 36 12
REMARK SMILES IDX 40 14 41 15 42 16 43 17 44 18 45 19 46 20 47 21 48 22 49 23
REMARK SMILES IDX 50 24 51 25 52 26 56 27 53 28 55 29 54 30 57 31 58 32 59 33
REMARK SMILES IDX 60 35 61 36 62 37 63 38 64 39 65 40 66 41 67 42 68 43 21 45
REMARK SMILES IDX 20 46 18 47 19 48 17 50 16 52 14 53 15 54 9 56 8 57 6 58
REMARK SMILES IDX 7 59 5 61 4 62 3 63 2 64 1 65 10 66 11 67 12 68 13 69 22 71
REMARK SMILES IDX 23 72 24 73 25 74 26 75 27 76 28 77
REMARK H PARENT 31 4 36 13 59 34 20 49 16 55 8 60 13 70 27 78 27 79 28 80
REMARK H PARENT 28 81
REMARK Flexibility Score:  259.900
ROOT
ATOM      1  O   UNL     1       4.624   4.248  -4.893  1.00  0.00    -0.273 OA
ATOM      2  N   UNL     1       3.464   2.287  -4.698  1.00  0.00    -0.343 N 
ATOM      3  C   UNL     1       4.597   3.020  -4.978  1.00  0.00     0.243 C 
ATOM      4  H   UNL     1       3.482   1.277  -4.764  1.00  0.00     0.164 HD
ENDROOT
BRANCH   2   5
ATOM      5  C   UNL     1       2.202   2.955  -4.399  1.00  0.00     0.171 C 
ATOM      6  C   UNL     1      -0.085   2.204  -2.783  1.00  0.00     0.214 C 
ATOM      7  N   UNL     1      -0.063   1.860  -4.186  1.00  0.00    -0.303 N 
ATOM      8  C   UNL     1       0.684   3.476  -2.463  1.00  0.00     0.057 C 
ATOM      9  C   UNL     1       1.020   2.144  -5.003  1.00  0.00     0.247 C 
ATOM     10  C   UNL     1       2.119   3.337  -2.922  1.00  0.00     0.040 C 
ATOM     11  O   UNL     1       1.067   1.769  -6.182  1.00  0.00    -0.272 OA
BRANCH   6  12
ATOM     12  O   UNL     1       0.445   1.115  -2.064  1.00  0.00    -0.373 OA
ATOM     13  H   UNL     1       1.104   1.479  -1.436  1.00  0.00     0.213 HD
ENDBRANCH   6  12
BRANCH   7  14
ATOM     14  C   UNL     1      -1.191   1.053  -4.696  1.00  0.00     0.177 C 
BRANCH  14  15
ATOM     15  C   UNL     1      -0.817  -0.357  -5.193  1.00  0.00     0.038 C 
BRANCH  15  16
ATOM     16  C   UNL     1      -0.206  -1.375  -4.205  1.00  0.00    -0.015 C 
ATOM     17  C   UNL     1       1.308  -1.522  -4.378  1.00  0.00     0.007 C 
ATOM     18  C   UNL     1      -0.849  -2.752  -4.415  1.00  0.00     0.007 C 
ENDBRANCH  15  16
ENDBRANCH  14  15
BRANCH  14  19
ATOM     19  C   UNL     1      -2.513   1.427  -3.940  1.00  0.00     0.245 C 
ATOM     20  O   UNL     1      -2.861   0.673  -3.016  1.00  0.00    -0.272 OA
BRANCH  19  21
ATOM     21  N   UNL     1      -3.349   2.463  -4.317  1.00  0.00    -0.332 N 
ATOM     22  C   UNL     1      -3.436   3.034  -5.649  1.00  0.00     0.147 C 
BRANCH  21  23
ATOM     23  C   UNL     1      -4.231   3.058  -3.275  1.00  0.00     0.178 C 
BRANCH  23  24
ATOM     24  C   UNL     1      -4.746   4.476  -3.598  1.00  0.00     0.070 C 
BRANCH  24  25
ATOM     25  C   UNL     1      -5.457   5.219  -2.491  1.00  0.00    -0.045 A 
ATOM     26  C   UNL     1      -4.743   5.747  -1.408  1.00  0.00     0.004 A 
ATOM     27  C   UNL     1      -6.849   5.387  -2.532  1.00  0.00     0.004 A 
ATOM     28  C   UNL     1      -5.409   6.417  -0.380  1.00  0.00     0.000 A 
ATOM     29  C   UNL     1      -7.514   6.058  -1.505  1.00  0.00     0.000 A 
ATOM     30  C   UNL     1      -6.793   6.571  -0.428  1.00  0.00     0.000 A 
ENDBRANCH  24  25
ENDBRANCH  23  24
BRANCH  23  31
ATOM     31  C   UNL     1      -5.310   2.074  -2.763  1.00  0.00     0.243 C 
ATOM     32  O   UNL     1      -5.515   1.837  -1.575  1.00  0.00    -0.273 OA
ATOM     33  N   UNL     1      -5.908   1.337  -3.770  1.00  0.00    -0.341 N 
ATOM     34  H   UNL     1      -5.693   1.577  -4.741  1.00  0.00     0.164 HD
BRANCH  33  35
ATOM     35  C   UNL     1      -6.872   0.263  -3.510  1.00  0.00     0.194 C 
BRANCH  35  36
ATOM     36  C   UNL     1      -6.596  -1.044  -4.305  1.00  0.00     0.017 C 
ATOM     37  C   UNL     1      -6.345  -2.231  -3.359  1.00  0.00     0.010 C 
ATOM     38  C   UNL     1      -5.385  -0.939  -5.240  1.00  0.00     0.010 C 
ENDBRANCH  35  36
BRANCH  35  39
ATOM     39  C   UNL     1      -8.346   0.734  -3.660  1.00  0.00     0.329 C 
ATOM     40  O   UNL     1      -8.713   1.895  -3.523  1.00  0.00    -0.250 OA
BRANCH  39  41
ATOM     41  O   UNL     1      -9.178  -0.280  -4.047  1.00  0.00    -0.458 OA
BRANCH  41  42
ATOM     42  C   UNL     1      -9.903  -0.954  -2.991  1.00  0.00     0.205 CG0
ATOM     43  C   UNL     1     -10.301  -2.330  -3.520  1.00  0.00     0.056 C 
ATOM     44  G   UNL     1     -11.123  -0.094  -2.606  1.00  0.00     0.000 G0
ENDBRANCH  41  42
ENDBRANCH  39  41
ENDBRANCH  35  39
ENDBRANCH  33  35
ENDBRANCH  23  31
ENDBRANCH  21  23
ENDBRANCH  19  21
ENDBRANCH  14  19
ENDBRANCH   7  14
ENDBRANCH   2   5
BRANCH   3  45
ATOM     45  C   UNL     1       5.828   2.198  -5.382  1.00  0.00     0.171 C 
BRANCH  45  46
ATOM     46  N   UNL     1       6.977   2.933  -4.872  1.00  0.00    -0.342 N 
ATOM     47  C   UNL     1       7.717   2.492  -3.803  1.00  0.00     0.247 C 
ATOM     48  O   UNL     1       7.510   1.414  -3.246  1.00  0.00    -0.273 OA
ATOM     49  H   UNL     1       7.218   3.804  -5.340  1.00  0.00     0.164 HD
BRANCH  47  50
ATOM     50  C   UNL     1       8.811   3.458  -3.328  1.00  0.00     0.212 CG0
ATOM     51  G   UNL     1       9.718   3.767  -4.536  1.00  0.00     0.000 G0
BRANCH  50  52
ATOM     52  N   UNL     1       8.104   4.631  -2.823  1.00  0.00    -0.339 N 
ATOM     53  C   UNL     1       7.458   4.661  -1.610  1.00  0.00     0.243 C 
ATOM     54  O   UNL     1       7.382   3.679  -0.877  1.00  0.00    -0.273 OA
ATOM     55  H   UNL     1       8.036   5.443  -3.434  1.00  0.00     0.164 HD
BRANCH  53  56
ATOM     56  C   UNL     1       6.709   5.979  -1.330  1.00  0.00     0.182 C 
BRANCH  56  57
ATOM     57  N   UNL     1       5.558   6.131  -2.226  1.00  0.00    -0.344 N 
ATOM     58  C   UNL     1       4.454   6.876  -1.888  1.00  0.00     0.220 C 
ATOM     59  O   UNL     1       4.322   7.404  -0.789  1.00  0.00    -0.275 OA
ATOM     60  H   UNL     1       5.669   5.796  -3.180  1.00  0.00     0.164 HD
BRANCH  58  61
ATOM     61  C   UNL     1       3.412   6.942  -2.989  1.00  0.00     0.100 C 
BRANCH  61  62
ATOM     62  C   UNL     1       1.975   7.019  -2.473  1.00  0.00     0.010 C 
BRANCH  62  63
ATOM     63  C   UNL     1       1.036   7.852  -3.354  1.00  0.00     0.000 C 
BRANCH  63  64
ATOM     64  C   UNL     1      -0.315   7.193  -3.629  1.00  0.00    -0.003 C 
ATOM     65  C   UNL     1      -0.255   6.292  -4.854  1.00  0.00     0.004 C 
ENDBRANCH  63  64
ENDBRANCH  62  63
ENDBRANCH  61  62
ENDBRANCH  58  61
ENDBRANCH  56  57
BRANCH  56  66
ATOM     66  C   UNL     1       7.649   7.182  -1.391  1.00  0.00     0.157 C 
BRANCH  66  67
ATOM     67  C   UNL     1       8.881   6.951  -0.564  1.00  0.00     0.305 C 
ATOM     68  O   UNL     1       8.944   6.885   0.654  1.00  0.00    -0.252 OA
BRANCH  67  69
ATOM     69  O   UNL     1       9.977   6.761  -1.323  1.00  0.00    -0.481 OA
ATOM     70  H   UNL     1       9.879   5.854  -1.682  1.00  0.00     0.296 HD
ENDBRANCH  67  69
ENDBRANCH  66  67
ENDBRANCH  56  66
ENDBRANCH  53  56
ENDBRANCH  50  52
ENDBRANCH  47  50
ENDBRANCH  45  46
BRANCH  45  71
ATOM     71  C   UNL     1       5.888   2.042  -6.906  1.00  0.00     0.037 C 
BRANCH  71  72
ATOM     72  C   UNL     1       7.253   2.440  -7.472  1.00  0.00     0.026 C 
BRANCH  72  73
ATOM     73  C   UNL     1       7.168   3.730  -8.286  1.00  0.00     0.146 C 
BRANCH  73  74
ATOM     74  N   UNL     1       8.231   4.619  -7.828  1.00  0.00    -0.254 NA
ATOM     75  C   UNL     1       7.904   5.612  -7.086  1.00  0.00     0.185 C 
ATOM     76  N   UNL     1       8.861   6.446  -6.648  1.00  0.00    -0.370 N 
ATOM     77  N   UNL     1       6.686   5.975  -6.649  1.00  0.00    -0.370 N 
ATOM     78  H   UNL     1       9.808   6.249  -6.938  1.00  0.00     0.159 HD
ATOM     79  H   UNL     1       8.667   7.319  -6.189  1.00  0.00     0.159 HD
ATOM     80  H   UNL     1       5.870   5.436  -6.896  1.00  0.00     0.159 HD
ATOM     81  H   UNL     1       6.565   6.711  -5.973  1.00  0.00     0.159 HD
ENDBRANCH  73  74
ENDBRANCH  72  73
ENDBRANCH  71  72
ENDBRANCH  45  71
ENDBRANCH   3  45
TORSDOF 20
ENDMDL
MODEL 17
REMARK VINA RESULT:    -4.834      3.817     12.568
REMARK INTER + INTRA:         -22.355
REMARK INTER:                 -16.020
REMARK INTRA:                  -6.334
REMARK UNBOUND:                -8.478
REMARK SMILES CCCCCC(=O)N[C@H](CC(=O)O)C(=O)N[C@H]1C(=O)N[C@H](CCCN=C(N)N)C(=O)N[C@@H]2CC[C@H](O)N(C2=O)[C@@H](CC(C)C)C(=O)N(C)[C@@H](Cc2ccccc2)C(=O)N[C@H](C(C)C)C(=O)O[C@@H]1C
REMARK SMILES IDX 30 1 31 2 29 3 32 5 35 6 37 7 34 8 38 9 33 10 39 11 36 12
REMARK SMILES IDX 40 14 41 15 42 16 43 17 44 18 45 19 46 20 47 21 48 22 49 23
REMARK SMILES IDX 50 24 51 25 52 26 56 27 53 28 55 29 54 30 57 31 58 32 59 33
REMARK SMILES IDX 60 35 61 36 62 37 63 38 64 39 65 40 66 41 67 42 68 43 21 45
REMARK SMILES IDX 20 46 18 47 19 48 17 50 16 52 14 53 15 54 9 56 8 57 6 58
REMARK SMILES IDX 7 59 5 61 4 62 3 63 2 64 1 65 10 66 11 67 12 68 13 69 22 71
REMARK SMILES IDX 23 72 24 73 25 74 26 75 27 76 28 77
REMARK H PARENT 31 4 36 13 59 34 20 49 16 55 8 60 13 70 27 78 27 79 28 80
REMARK H PARENT 28 81
REMARK Flexibility Score:  259.900
ROOT
ATOM      1  O   UNL     1       3.747   8.281   2.181  1.00  0.00    -0.273 OA
ATOM      2  N   UNL     1       4.730   6.583   1.006  1.00  0.00    -0.343 N 
ATOM      3  C   UNL     1       4.691   7.505   2.030  1.00  0.00     0.243 C 
ATOM      4  H   UNL     1       5.516   5.950   0.922  1.00  0.00     0.164 HD
ENDROOT
BRANCH   2   5
ATOM      5  C   UNL     1       3.696   6.571  -0.023  1.00  0.00     0.171 C 
ATOM      6  C   UNL     1       2.553   4.451  -1.635  1.00  0.00     0.214 C 
ATOM      7  N   UNL     1       3.693   5.185  -2.132  1.00  0.00    -0.303 N 
ATOM      8  C   UNL     1       1.658   5.273  -0.721  1.00  0.00     0.057 C 
ATOM      9  C   UNL     1       4.318   6.175  -1.392  1.00  0.00     0.247 C 
ATOM     10  C   UNL     1       2.464   5.799   0.447  1.00  0.00     0.040 C 
ATOM     11  O   UNL     1       5.346   6.740  -1.788  1.00  0.00    -0.272 OA
BRANCH   6  12
ATOM     12  O   UNL     1       3.036   3.313  -0.958  1.00  0.00    -0.373 OA
ATOM     13  H   UNL     1       3.928   3.122  -1.318  1.00  0.00     0.213 HD
ENDBRANCH   6  12
BRANCH   7  14
ATOM     14  C   UNL     1       4.269   4.739  -3.418  1.00  0.00     0.177 C 
BRANCH  14  15
ATOM     15  C   UNL     1       5.006   3.386  -3.373  1.00  0.00     0.038 C 
BRANCH  15  16
ATOM     16  C   UNL     1       6.379   3.244  -4.067  1.00  0.00    -0.015 C 
ATOM     17  C   UNL     1       7.281   2.219  -3.372  1.00  0.00     0.007 C 
ATOM     18  C   UNL     1       7.102   4.597  -4.069  1.00  0.00     0.007 C 
ENDBRANCH  15  16
ENDBRANCH  14  15
BRANCH  14  19
ATOM     19  C   UNL     1       3.397   5.257  -4.614  1.00  0.00     0.245 C 
ATOM     20  O   UNL     1       3.407   6.481  -4.824  1.00  0.00    -0.272 OA
BRANCH  19  21
ATOM     21  N   UNL     1       2.550   4.453  -5.356  1.00  0.00    -0.332 N 
ATOM     22  C   UNL     1       1.350   3.806  -4.856  1.00  0.00     0.147 C 
BRANCH  21  23
ATOM     23  C   UNL     1       2.892   4.213  -6.785  1.00  0.00     0.178 C 
BRANCH  23  24
ATOM     24  C   UNL     1       3.328   2.770  -7.111  1.00  0.00     0.070 C 
BRANCH  24  25
ATOM     25  C   UNL     1       4.807   2.524  -7.299  1.00  0.00    -0.045 A 
ATOM     26  C   UNL     1       5.685   3.585  -7.554  1.00  0.00     0.004 A 
ATOM     27  C   UNL     1       5.323   1.221  -7.223  1.00  0.00     0.004 A 
ATOM     28  C   UNL     1       7.048   3.347  -7.744  1.00  0.00     0.000 A 
ATOM     29  C   UNL     1       6.685   0.985  -7.412  1.00  0.00     0.000 A 
ATOM     30  C   UNL     1       7.546   2.048  -7.674  1.00  0.00     0.000 A 
ENDBRANCH  24  25
ENDBRANCH  23  24
BRANCH  23  31
ATOM     31  C   UNL     1       1.857   4.818  -7.763  1.00  0.00     0.243 C 
ATOM     32  O   UNL     1       1.790   6.013  -8.039  1.00  0.00    -0.273 OA
ATOM     33  N   UNL     1       0.884   3.918  -8.164  1.00  0.00    -0.341 N 
ATOM     34  H   UNL     1       0.991   2.936  -7.898  1.00  0.00     0.164 HD
BRANCH  33  35
ATOM     35  C   UNL     1      -0.262   4.299  -8.994  1.00  0.00     0.194 C 
BRANCH  35  36
ATOM     36  C   UNL     1      -1.624   4.278  -8.244  1.00  0.00     0.017 C 
ATOM     37  C   UNL     1      -1.615   5.240  -7.043  1.00  0.00     0.010 C 
ATOM     38  C   UNL     1      -2.002   2.889  -7.716  1.00  0.00     0.010 C 
ENDBRANCH  35  36
BRANCH  35  39
ATOM     39  C   UNL     1      -0.324   3.506 -10.329  1.00  0.00     0.329 C 
ATOM     40  O   UNL     1       0.000   2.329 -10.444  1.00  0.00    -0.250 OA
BRANCH  39  41
ATOM     41  O   UNL     1      -0.863   4.242 -11.347  1.00  0.00    -0.458 OA
BRANCH  41  42
ATOM     42  C   UNL     1      -0.246   4.087 -12.648  1.00  0.00     0.205 CG0
ATOM     43  C   UNL     1       1.056   4.886 -12.630  1.00  0.00     0.056 C 
ATOM     44  G   UNL     1      -1.230   4.589 -13.722  1.00  0.00     0.000 G0
ENDBRANCH  41  42
ENDBRANCH  39  41
ENDBRANCH  35  39
ENDBRANCH  33  35
ENDBRANCH  23  31
ENDBRANCH  21  23
ENDBRANCH  19  21
ENDBRANCH  14  19
ENDBRANCH   7  14
ENDBRANCH   2   5
BRANCH   3  45
ATOM     45  C   UNL     1       5.895   7.482   2.981  1.00  0.00     0.171 C 
BRANCH  45  46
ATOM     46  N   UNL     1       5.393   6.944   4.239  1.00  0.00    -0.342 N 
ATOM     47  C   UNL     1       5.192   5.601   4.438  1.00  0.00     0.247 C 
ATOM     48  O   UNL     1       5.489   4.750   3.599  1.00  0.00    -0.273 OA
ATOM     49  H   UNL     1       5.187   7.610   4.981  1.00  0.00     0.164 HD
BRANCH  47  50
ATOM     50  C   UNL     1       4.541   5.232   5.778  1.00  0.00     0.212 CG0
ATOM     51  G   UNL     1       5.233   6.063   6.878  1.00  0.00     0.000 G0
BRANCH  50  52
ATOM     52  N   UNL     1       3.124   5.548   5.623  1.00  0.00    -0.339 N 
ATOM     53  C   UNL     1       2.179   4.621   5.255  1.00  0.00     0.243 C 
ATOM     54  O   UNL     1       2.465   3.460   4.974  1.00  0.00    -0.273 OA
ATOM     55  H   UNL     1       2.841   6.520   5.733  1.00  0.00     0.164 HD
BRANCH  53  56
ATOM     56  C   UNL     1       0.764   5.206   5.071  1.00  0.00     0.182 C 
BRANCH  56  57
ATOM     57  N   UNL     1      -0.257   4.283   5.577  1.00  0.00    -0.344 N 
ATOM     58  C   UNL     1      -1.238   4.680   6.453  1.00  0.00     0.220 C 
ATOM     59  O   UNL     1      -1.286   5.809   6.928  1.00  0.00    -0.275 OA
ATOM     60  H   UNL     1      -0.314   3.371   5.133  1.00  0.00     0.164 HD
BRANCH  58  61
ATOM     61  C   UNL     1      -2.220   3.575   6.797  1.00  0.00     0.100 C 
BRANCH  61  62
ATOM     62  C   UNL     1      -3.419   3.500   5.851  1.00  0.00     0.010 C 
BRANCH  62  63
ATOM     63  C   UNL     1      -4.560   2.608   6.354  1.00  0.00     0.000 C 
BRANCH  63  64
ATOM     64  C   UNL     1      -4.892   1.435   5.433  1.00  0.00    -0.003 C 
ATOM     65  C   UNL     1      -3.711   0.485   5.297  1.00  0.00     0.004 C 
ENDBRANCH  63  64
ENDBRANCH  62  63
ENDBRANCH  61  62
ENDBRANCH  58  61
ENDBRANCH  56  57
BRANCH  56  66
ATOM     66  C   UNL     1       0.509   5.608   3.619  1.00  0.00     0.157 C 
BRANCH  66  67
ATOM     67  C   UNL     1      -0.214   4.524   2.874  1.00  0.00     0.305 C 
ATOM     68  O   UNL     1      -1.405   4.488   2.604  1.00  0.00    -0.252 OA
BRANCH  67  69
ATOM     69  O   UNL     1       0.617   3.551   2.454  1.00  0.00    -0.481 OA
ATOM     70  H   UNL     1       0.115   2.719   2.584  1.00  0.00     0.296 HD
ENDBRANCH  67  69
ENDBRANCH  66  67
ENDBRANCH  56  66
ENDBRANCH  53  56
ENDBRANCH  50  52
ENDBRANCH  47  50
ENDBRANCH  45  46
BRANCH  45  71
ATOM     71  C   UNL     1       6.463   8.894   3.157  1.00  0.00     0.037 C 
BRANCH  71  72
ATOM     72  C   UNL     1       7.994   8.900   3.176  1.00  0.00     0.026 C 
BRANCH  72  73
ATOM     73  C   UNL     1       8.566   9.619   1.956  1.00  0.00     0.146 C 
BRANCH  73  74
ATOM     74  N   UNL     1       8.428   8.729   0.807  1.00  0.00    -0.254 NA
ATOM     75  C   UNL     1       7.933   9.215  -0.270  1.00  0.00     0.185 C 
ATOM     76  N   UNL     1       7.794   8.421  -1.345  1.00  0.00    -0.370 N 
ATOM     77  N   UNL     1       7.504  10.466  -0.515  1.00  0.00    -0.370 N 
ATOM     78  H   UNL     1       8.086   7.460  -1.244  1.00  0.00     0.159 HD
ATOM     79  H   UNL     1       7.286   8.689  -2.169  1.00  0.00     0.159 HD
ATOM     80  H   UNL     1       7.552  11.174   0.202  1.00  0.00     0.159 HD
ATOM     81  H   UNL     1       7.240  10.762  -1.440  1.00  0.00     0.159 HD
ENDBRANCH  73  74
ENDBRANCH  72  73
ENDBRANCH  71  72
ENDBRANCH  45  71
ENDBRANCH   3  45
TORSDOF 20
ENDMDL
MODEL 18
REMARK VINA RESULT:    -4.833      5.296      9.877
REMARK INTER + INTRA:         -22.352
REMARK INTER:                 -15.191
REMARK INTRA:                  -7.161
REMARK UNBOUND:                -8.478
REMARK SMILES CCCCCC(=O)N[C@H](CC(=O)O)C(=O)N[C@H]1C(=O)N[C@H](CCCN=C(N)N)C(=O)N[C@@H]2CC[C@H](O)N(C2=O)[C@@H](CC(C)C)C(=O)N(C)[C@@H](Cc2ccccc2)C(=O)N[C@H](C(C)C)C(=O)O[C@@H]1C
REMARK SMILES IDX 30 1 31 2 29 3 32 5 35 6 37 7 34 8 38 9 33 10 39 11 36 12
REMARK SMILES IDX 40 14 41 15 42 16 43 17 44 18 45 19 46 20 47 21 48 22 49 23
REMARK SMILES IDX 50 24 51 25 52 26 56 27 53 28 55 29 54 30 57 31 58 32 59 33
REMARK SMILES IDX 60 35 61 36 62 37 63 38 64 39 65 40 66 41 67 42 68 43 21 45
REMARK SMILES IDX 20 46 18 47 19 48 17 50 16 52 14 53 15 54 9 56 8 57 6 58
REMARK SMILES IDX 7 59 5 61 4 62 3 63 2 64 1 65 10 66 11 67 12 68 13 69 22 71
REMARK SMILES IDX 23 72 24 73 25 74 26 75 27 76 28 77
REMARK H PARENT 31 4 36 13 59 34 20 49 16 55 8 60 13 70 27 78 27 79 28 80
REMARK H PARENT 28 81
REMARK Flexibility Score:  259.900
ROOT
ATOM      1  O   UNL     1       5.732   6.120  -2.689  1.00  0.00    -0.273 OA
ATOM      2  N   UNL     1       4.717   4.513  -1.417  1.00  0.00    -0.343 N 
ATOM      3  C   UNL     1       5.756   4.998  -2.181  1.00  0.00     0.243 C 
ATOM      4  H   UNL     1       4.778   3.591  -1.003  1.00  0.00     0.164 HD
ENDROOT
BRANCH   2   5
ATOM      5  C   UNL     1       3.480   5.274  -1.276  1.00  0.00     0.171 C 
ATOM      6  C   UNL     1       0.800   4.533  -0.457  1.00  0.00     0.214 C 
ATOM      7  N   UNL     1       1.155   4.481  -1.856  1.00  0.00    -0.303 N 
ATOM      8  C   UNL     1       1.563   5.596   0.319  1.00  0.00     0.057 C 
ATOM      9  C   UNL     1       2.431   4.773  -2.309  1.00  0.00     0.247 C 
ATOM     10  C   UNL     1       3.051   5.356   0.188  1.00  0.00     0.040 C 
ATOM     11  O   UNL     1       2.751   4.643  -3.498  1.00  0.00    -0.272 OA
BRANCH   6  12
ATOM     12  O   UNL     1       1.035   3.258   0.094  1.00  0.00    -0.373 OA
ATOM     13  H   UNL     1       0.749   3.293   1.032  1.00  0.00     0.213 HD
ENDBRANCH   6  12
BRANCH   7  14
ATOM     14  C   UNL     1       0.134   3.957  -2.788  1.00  0.00     0.177 C 
BRANCH  14  15
ATOM     15  C   UNL     1       0.249   2.455  -3.109  1.00  0.00     0.038 C 
BRANCH  15  16
ATOM     16  C   UNL     1       0.055   1.971  -4.563  1.00  0.00    -0.015 C 
ATOM     17  C   UNL     1      -0.436   0.522  -4.636  1.00  0.00     0.007 C 
ATOM     18  C   UNL     1       1.384   2.066  -5.323  1.00  0.00     0.007 C 
ENDBRANCH  15  16
ENDBRANCH  14  15
BRANCH  14  19
ATOM     19  C   UNL     1      -1.208   4.750  -2.625  1.00  0.00     0.245 C 
ATOM     20  O   UNL     1      -1.176   5.965  -2.883  1.00  0.00    -0.272 OA
BRANCH  19  21
ATOM     21  N   UNL     1      -2.370   4.202  -2.111  1.00  0.00    -0.332 N 
ATOM     22  C   UNL     1      -2.472   3.453  -0.871  1.00  0.00     0.147 C 
BRANCH  21  23
ATOM     23  C   UNL     1      -3.627   4.378  -2.891  1.00  0.00     0.178 C 
BRANCH  23  24
ATOM     24  C   UNL     1      -4.071   3.134  -3.687  1.00  0.00     0.070 C 
BRANCH  24  25
ATOM     25  C   UNL     1      -3.488   2.958  -5.070  1.00  0.00    -0.045 A 
ATOM     26  C   UNL     1      -3.664   1.760  -5.776  1.00  0.00     0.004 A 
ATOM     27  C   UNL     1      -2.755   3.994  -5.666  1.00  0.00     0.004 A 
ATOM     28  C   UNL     1      -3.108   1.599  -7.046  1.00  0.00     0.000 A 
ATOM     29  C   UNL     1      -2.200   3.832  -6.937  1.00  0.00     0.000 A 
ATOM     30  C   UNL     1      -2.375   2.633  -7.625  1.00  0.00     0.000 A 
ENDBRANCH  24  25
ENDBRANCH  23  24
BRANCH  23  31
ATOM     31  C   UNL     1      -4.749   5.067  -2.080  1.00  0.00     0.243 C 
ATOM     32  O   UNL     1      -4.630   6.162  -1.535  1.00  0.00    -0.273 OA
ATOM     33  N   UNL     1      -5.851   4.257  -1.860  1.00  0.00    -0.341 N 
ATOM     34  H   UNL     1      -5.891   3.353  -2.336  1.00  0.00     0.164 HD
BRANCH  33  35
ATOM     35  C   UNL     1      -6.982   4.658  -1.019  1.00  0.00     0.194 C 
BRANCH  35  36
ATOM     36  C   UNL     1      -6.655   4.713   0.500  1.00  0.00     0.017 C 
ATOM     37  C   UNL     1      -7.126   3.437   1.220  1.00  0.00     0.010 C 
ATOM     38  C   UNL     1      -7.299   5.907   1.214  1.00  0.00     0.010 C 
ENDBRANCH  35  36
BRANCH  35  39
ATOM     39  C   UNL     1      -8.264   3.829  -1.307  1.00  0.00     0.329 C 
ATOM     40  O   UNL     1      -8.258   2.691  -1.762  1.00  0.00    -0.250 OA
BRANCH  39  41
ATOM     41  O   UNL     1      -9.402   4.477  -0.914  1.00  0.00    -0.458 OA
BRANCH  41  42
ATOM     42  C   UNL     1     -10.527   3.639  -0.555  1.00  0.00     0.205 CG0
ATOM     43  C   UNL     1     -10.895   3.967   0.890  1.00  0.00     0.056 C 
ATOM     44  G   UNL     1     -10.119   2.164  -0.739  1.00  0.00     0.000 G0
ENDBRANCH  41  42
ENDBRANCH  39  41
ENDBRANCH  35  39
ENDBRANCH  33  35
ENDBRANCH  23  31
ENDBRANCH  21  23
ENDBRANCH  19  21
ENDBRANCH  14  19
ENDBRANCH   7  14
ENDBRANCH   2   5
BRANCH   3  45
ATOM     45  C   UNL     1       6.954   4.052  -2.338  1.00  0.00     0.171 C 
BRANCH  45  46
ATOM     46  N   UNL     1       7.763   4.616  -3.410  1.00  0.00    -0.342 N 
ATOM     47  C   UNL     1       9.061   5.020  -3.219  1.00  0.00     0.247 C 
ATOM     48  O   UNL     1       9.657   4.869  -2.152  1.00  0.00    -0.273 OA
ATOM     49  H   UNL     1       7.326   4.706  -4.326  1.00  0.00     0.164 HD
BRANCH  47  50
ATOM     50  C   UNL     1       9.714   5.704  -4.429  1.00  0.00     0.212 CG0
ATOM     51  G   UNL     1      11.241   5.647  -4.229  1.00  0.00     0.000 G0
BRANCH  50  52
ATOM     52  N   UNL     1       9.256   4.953  -5.595  1.00  0.00    -0.339 N 
ATOM     53  C   UNL     1       9.053   5.522  -6.828  1.00  0.00     0.243 C 
ATOM     54  O   UNL     1       9.192   6.725  -7.033  1.00  0.00    -0.273 OA
ATOM     55  H   UNL     1       9.016   3.972  -5.461  1.00  0.00     0.164 HD
BRANCH  53  56
ATOM     56  C   UNL     1       8.486   4.550  -7.883  1.00  0.00     0.182 C 
BRANCH  56  57
ATOM     57  N   UNL     1       7.098   4.887  -8.216  1.00  0.00    -0.344 N 
ATOM     58  C   UNL     1       6.171   5.222  -7.259  1.00  0.00     0.220 C 
ATOM     59  O   UNL     1       6.418   5.192  -6.058  1.00  0.00    -0.275 OA
ATOM     60  H   UNL     1       6.881   5.022  -9.200  1.00  0.00     0.164 HD
BRANCH  58  61
ATOM     61  C   UNL     1       4.817   5.590  -7.836  1.00  0.00     0.100 C 
BRANCH  61  62
ATOM     62  C   UNL     1       3.638   4.966  -7.088  1.00  0.00     0.010 C 
BRANCH  62  63
ATOM     63  C   UNL     1       2.570   5.974  -6.648  1.00  0.00     0.000 C 
BRANCH  63  64
ATOM     64  C   UNL     1       1.139   5.561  -6.990  1.00  0.00    -0.003 C 
ATOM     65  C   UNL     1       1.098   4.680  -8.231  1.00  0.00     0.004 C 
ENDBRANCH  63  64
ENDBRANCH  62  63
ENDBRANCH  61  62
ENDBRANCH  58  61
ENDBRANCH  56  57
BRANCH  56  66
ATOM     66  C   UNL     1       8.635   3.095  -7.441  1.00  0.00     0.157 C 
BRANCH  66  67
ATOM     67  C   UNL     1       8.919   2.199  -8.612  1.00  0.00     0.305 C 
ATOM     68  O   UNL     1       9.984   1.667  -8.886  1.00  0.00    -0.252 OA
BRANCH  67  69
ATOM     69  O   UNL     1       7.823   1.970  -9.359  1.00  0.00    -0.481 OA
ATOM     70  H   UNL     1       7.134   1.696  -8.717  1.00  0.00     0.296 HD
ENDBRANCH  67  69
ENDBRANCH  66  67
ENDBRANCH  56  66
ENDBRANCH  53  56
ENDBRANCH  50  52
ENDBRANCH  47  50
ENDBRANCH  45  46
BRANCH  45  71
ATOM     71  C   UNL     1       6.475   2.636  -2.676  1.00  0.00     0.037 C 
BRANCH  71  72
ATOM     72  C   UNL     1       6.559   2.342  -4.176  1.00  0.00     0.026 C 
BRANCH  72  73
ATOM     73  C   UNL     1       5.176   2.102  -4.779  1.00  0.00     0.146 C 
BRANCH  73  74
ATOM     74  N   UNL     1       5.344   1.896  -6.214  1.00  0.00    -0.254 NA
ATOM     75  C   UNL     1       5.615   0.712  -6.621  1.00  0.00     0.185 C 
ATOM     76  N   UNL     1       5.773   0.490  -7.936  1.00  0.00    -0.370 N 
ATOM     77  N   UNL     1       5.775  -0.413  -5.902  1.00  0.00    -0.370 N 
ATOM     78  H   UNL     1       5.676   1.287  -8.549  1.00  0.00     0.159 HD
ATOM     79  H   UNL     1       6.126  -0.371  -8.314  1.00  0.00     0.159 HD
ATOM     80  H   UNL     1       5.681  -0.399  -4.898  1.00  0.00     0.159 HD
ATOM     81  H   UNL     1       5.873  -1.313  -6.344  1.00  0.00     0.159 HD
ENDBRANCH  73  74
ENDBRANCH  72  73
ENDBRANCH  71  72
ENDBRANCH  45  71
ENDBRANCH   3  45
TORSDOF 20
ENDMDL
MODEL 19
REMARK VINA RESULT:    -4.827      3.463      5.781
REMARK INTER + INTRA:         -22.334
REMARK INTER:                 -16.497
REMARK INTRA:                  -5.837
REMARK UNBOUND:                -8.478
REMARK SMILES CCCCCC(=O)N[C@H](CC(=O)O)C(=O)N[C@H]1C(=O)N[C@H](CCCN=C(N)N)C(=O)N[C@@H]2CC[C@H](O)N(C2=O)[C@@H](CC(C)C)C(=O)N(C)[C@@H](Cc2ccccc2)C(=O)N[C@H](C(C)C)C(=O)O[C@@H]1C
REMARK SMILES IDX 30 1 31 2 29 3 32 5 35 6 37 7 34 8 38 9 33 10 39 11 36 12
REMARK SMILES IDX 40 14 41 15 42 16 43 17 44 18 45 19 46 20 47 21 48 22 49 23
REMARK SMILES IDX 50 24 51 25 52 26 56 27 53 28 55 29 54 30 57 31 58 32 59 33
REMARK SMILES IDX 60 35 61 36 62 37 63 38 64 39 65 40 66 41 67 42 68 43 21 45
REMARK SMILES IDX 20 46 18 47 19 48 17 50 16 52 14 53 15 54 9 56 8 57 6 58
REMARK SMILES IDX 7 59 5 61 4 62 3 63 2 64 1 65 10 66 11 67 12 68 13 69 22 71
REMARK SMILES IDX 23 72 24 73 25 74 26 75 27 76 28 77
REMARK H PARENT 31 4 36 13 59 34 20 49 16 55 8 60 13 70 27 78 27 79 28 80
REMARK H PARENT 28 81
REMARK Flexibility Score:  259.900
ROOT
ATOM      1  O   UNL     1       4.142   5.549  -3.847  1.00  0.00    -0.273 OA
ATOM      2  N   UNL     1       3.623   3.707  -2.594  1.00  0.00    -0.343 N 
ATOM      3  C   UNL     1       4.170   4.327  -3.697  1.00  0.00     0.243 C 
ATOM      4  H   UNL     1       3.678   2.701  -2.497  1.00  0.00     0.164 HD
ENDROOT
BRANCH   2   5
ATOM      5  C   UNL     1       2.875   4.476  -1.605  1.00  0.00     0.171 C 
ATOM      6  C   UNL     1       2.645   7.320  -1.092  1.00  0.00     0.214 C 
ATOM      7  N   UNL     1       3.663   6.555  -0.410  1.00  0.00    -0.303 N 
ATOM      8  C   UNL     1       1.404   6.507  -1.425  1.00  0.00     0.057 C 
ATOM      9  C   UNL     1       3.860   5.204  -0.647  1.00  0.00     0.247 C 
ATOM     10  C   UNL     1       1.785   5.313  -2.273  1.00  0.00     0.040 C 
ATOM     11  O   UNL     1       4.789   4.575  -0.124  1.00  0.00    -0.272 OA
BRANCH   6  12
ATOM     12  O   UNL     1       3.217   7.848  -2.266  1.00  0.00    -0.373 OA
ATOM     13  H   UNL     1       3.667   7.107  -2.725  1.00  0.00     0.213 HD
ENDBRANCH   6  12
BRANCH   7  14
ATOM     14  C   UNL     1       4.598   7.305   0.455  1.00  0.00     0.177 C 
BRANCH  14  15
ATOM     15  C   UNL     1       5.615   8.190  -0.290  1.00  0.00     0.038 C 
BRANCH  15  16
ATOM     16  C   UNL     1       7.073   8.266   0.217  1.00  0.00    -0.015 C 
ATOM     17  C   UNL     1       7.231   9.231   1.395  1.00  0.00     0.007 C 
ATOM     18  C   UNL     1       7.992   8.737  -0.917  1.00  0.00     0.007 C 
ENDBRANCH  15  16
ENDBRANCH  14  15
BRANCH  14  19
ATOM     19  C   UNL     1       3.908   7.665   1.817  1.00  0.00     0.245 C 
ATOM     20  O   UNL     1       3.448   8.813   1.924  1.00  0.00    -0.272 OA
BRANCH  19  21
ATOM     21  N   UNL     1       3.889   6.826   2.917  1.00  0.00    -0.332 N 
ATOM     22  C   UNL     1       4.958   5.925   3.308  1.00  0.00     0.147 C 
BRANCH  21  23
ATOM     23  C   UNL     1       2.671   6.829   3.773  1.00  0.00     0.178 C 
BRANCH  23  24
ATOM     24  C   UNL     1       2.034   5.442   3.995  1.00  0.00     0.070 C 
BRANCH  24  25
ATOM     25  C   UNL     1       0.837   5.090   3.142  1.00  0.00    -0.045 A 
ATOM     26  C   UNL     1       0.996   4.721   1.800  1.00  0.00     0.004 A 
ATOM     27  C   UNL     1      -0.456   5.133   3.685  1.00  0.00     0.004 A 
ATOM     28  C   UNL     1      -0.116   4.413   1.014  1.00  0.00     0.000 A 
ATOM     29  C   UNL     1      -1.567   4.825   2.898  1.00  0.00     0.000 A 
ATOM     30  C   UNL     1      -1.396   4.468   1.562  1.00  0.00     0.000 A 
ENDBRANCH  24  25
ENDBRANCH  23  24
BRANCH  23  31
ATOM     31  C   UNL     1       2.835   7.683   5.053  1.00  0.00     0.243 C 
ATOM     32  O   UNL     1       2.908   8.909   5.056  1.00  0.00    -0.273 OA
ATOM     33  N   UNL     1       3.081   6.932   6.190  1.00  0.00    -0.341 N 
ATOM     34  H   UNL     1       3.012   5.914   6.124  1.00  0.00     0.164 HD
BRANCH  33  35
ATOM     35  C   UNL     1       3.386   7.532   7.493  1.00  0.00     0.194 C 
BRANCH  35  36
ATOM     36  C   UNL     1       4.409   6.725   8.340  1.00  0.00     0.017 C 
ATOM     37  C   UNL     1       5.489   6.084   7.451  1.00  0.00     0.010 C 
ATOM     38  C   UNL     1       3.763   5.600   9.158  1.00  0.00     0.010 C 
ENDBRANCH  35  36
BRANCH  35  39
ATOM     39  C   UNL     1       2.107   7.879   8.304  1.00  0.00     0.329 C 
ATOM     40  O   UNL     1       1.009   7.374   8.104  1.00  0.00    -0.250 OA
BRANCH  39  41
ATOM     41  O   UNL     1       2.361   8.751   9.327  1.00  0.00    -0.458 OA
BRANCH  41  42
ATOM     42  C   UNL     1       1.379   9.793   9.541  1.00  0.00     0.205 CG0
ATOM     43  C   UNL     1       1.773  10.976   8.659  1.00  0.00     0.056 C 
ATOM     44  G   UNL     1       1.363  10.154  11.040  1.00  0.00     0.000 G0
ENDBRANCH  41  42
ENDBRANCH  39  41
ENDBRANCH  35  39
ENDBRANCH  33  35
ENDBRANCH  23  31
ENDBRANCH  21  23
ENDBRANCH  19  21
ENDBRANCH  14  19
ENDBRANCH   7  14
ENDBRANCH   2   5
BRANCH   3  45
ATOM     45  C   UNL     1       4.836   3.390  -4.714  1.00  0.00     0.171 C 
BRANCH  45  46
ATOM     46  N   UNL     1       3.750   2.636  -5.325  1.00  0.00    -0.342 N 
ATOM     47  C   UNL     1       3.602   2.530  -6.685  1.00  0.00     0.247 C 
ATOM     48  O   UNL     1       4.412   2.999  -7.484  1.00  0.00    -0.273 OA
ATOM     49  H   UNL     1       3.087   2.184  -4.698  1.00  0.00     0.164 HD
BRANCH  47  50
ATOM     50  C   UNL     1       2.330   1.803  -7.145  1.00  0.00     0.212 CG0
ATOM     51  G   UNL     1       2.686   0.994  -8.408  1.00  0.00     0.000 G0
BRANCH  50  52
ATOM     52  N   UNL     1       1.930   0.966  -6.017  1.00  0.00    -0.339 N 
ATOM     53  C   UNL     1       1.865  -0.405  -6.079  1.00  0.00     0.243 C 
ATOM     54  O   UNL     1       2.089  -1.033  -7.111  1.00  0.00    -0.273 OA
ATOM     55  H   UNL     1       1.624   1.434  -5.166  1.00  0.00     0.164 HD
BRANCH  53  56
ATOM     56  C   UNL     1       1.334  -1.067  -4.792  1.00  0.00     0.182 C 
BRANCH  56  57
ATOM     57  N   UNL     1       1.307  -0.110  -3.681  1.00  0.00    -0.344 N 
ATOM     58  C   UNL     1       0.413  -0.213  -2.642  1.00  0.00     0.220 C 
ATOM     59  O   UNL     1      -0.468  -1.064  -2.608  1.00  0.00    -0.275 OA
ATOM     60  H   UNL     1       2.081   0.546  -3.619  1.00  0.00     0.164 HD
BRANCH  58  61
ATOM     61  C   UNL     1       0.606   0.850  -1.576  1.00  0.00     0.100 C 
BRANCH  61  62
ATOM     62  C   UNL     1      -0.618   1.056  -0.684  1.00  0.00     0.010 C 
BRANCH  62  63
ATOM     63  C   UNL     1      -0.663   0.136   0.543  1.00  0.00     0.000 C 
BRANCH  63  64
ATOM     64  C   UNL     1      -0.510   0.863   1.878  1.00  0.00    -0.003 C 
ATOM     65  C   UNL     1      -0.865  -0.043   3.048  1.00  0.00     0.004 C 
ENDBRANCH  63  64
ENDBRANCH  62  63
ENDBRANCH  61  62
ENDBRANCH  58  61
ENDBRANCH  56  57
BRANCH  56  66
ATOM     66  C   UNL     1       2.120  -2.330  -4.446  1.00  0.00     0.157 C 
BRANCH  66  67
ATOM     67  C   UNL     1       1.344  -3.567  -4.797  1.00  0.00     0.305 C 
ATOM     68  O   UNL     1       0.733  -4.292  -4.027  1.00  0.00    -0.252 OA
BRANCH  67  69
ATOM     69  O   UNL     1       1.332  -3.804  -6.123  1.00  0.00    -0.481 OA
ATOM     70  H   UNL     1       0.608  -4.451  -6.255  1.00  0.00     0.296 HD
ENDBRANCH  67  69
ENDBRANCH  66  67
ENDBRANCH  56  66
ENDBRANCH  53  56
ENDBRANCH  50  52
ENDBRANCH  47  50
ENDBRANCH  45  46
BRANCH  45  71
ATOM     71  C   UNL     1       5.840   2.468  -4.013  1.00  0.00     0.037 C 
BRANCH  71  72
ATOM     72  C   UNL     1       7.255   2.623  -4.576  1.00  0.00     0.026 C 
BRANCH  72  73
ATOM     73  C   UNL     1       8.270   2.907  -3.470  1.00  0.00     0.146 C 
BRANCH  73  74
ATOM     74  N   UNL     1       8.920   4.177  -3.775  1.00  0.00    -0.254 NA
ATOM     75  C   UNL     1       8.689   5.170  -2.999  1.00  0.00     0.185 C 
ATOM     76  N   UNL     1       9.274   6.352  -3.253  1.00  0.00    -0.370 N 
ATOM     77  N   UNL     1       7.909   5.224  -1.905  1.00  0.00    -0.370 N 
ATOM     78  H   UNL     1       9.873   6.401  -4.065  1.00  0.00     0.159 HD
ATOM     79  H   UNL     1       9.030   7.204  -2.779  1.00  0.00     0.159 HD
ATOM     80  H   UNL     1       7.409   4.406  -1.591  1.00  0.00     0.159 HD
ATOM     81  H   UNL     1       7.895   6.032  -1.305  1.00  0.00     0.159 HD
ENDBRANCH  73  74
ENDBRANCH  72  73
ENDBRANCH  71  72
ENDBRANCH  45  71
ENDBRANCH   3  45
TORSDOF 20
ENDMDL
MODEL 20
REMARK VINA RESULT:    -4.815      7.985     13.923
REMARK INTER + INTRA:         -22.301
REMARK INTER:                 -15.402
REMARK INTRA:                  -6.899
REMARK UNBOUND:                -8.478
REMARK SMILES CCCCCC(=O)N[C@H](CC(=O)O)C(=O)N[C@H]1C(=O)N[C@H](CCCN=C(N)N)C(=O)N[C@@H]2CC[C@H](O)N(C2=O)[C@@H](CC(C)C)C(=O)N(C)[C@@H](Cc2ccccc2)C(=O)N[C@H](C(C)C)C(=O)O[C@@H]1C
REMARK SMILES IDX 30 1 31 2 29 3 32 5 35 6 37 7 34 8 38 9 33 10 39 11 36 12
REMARK SMILES IDX 40 14 41 15 42 16 43 17 44 18 45 19 46 20 47 21 48 22 49 23
REMARK SMILES IDX 50 24 51 25 52 26 56 27 53 28 55 29 54 30 57 31 58 32 59 33
REMARK SMILES IDX 60 35 61 36 62 37 63 38 64 39 65 40 66 41 67 42 68 43 21 45
REMARK SMILES IDX 20 46 18 47 19 48 17 50 16 52 14 53 15 54 9 56 8 57 6 58
REMARK SMILES IDX 7 59 5 61 4 62 3 63 2 64 1 65 10 66 11 67 12 68 13 69 22 71
REMARK SMILES IDX 23 72 24 73 25 74 26 75 27 76 28 77
REMARK H PARENT 31 4 36 13 59 34 20 49 16 55 8 60 13 70 27 78 27 79 28 80
REMARK H PARENT 28 81
REMARK Flexibility Score:  259.900
ROOT
ATOM      1  O   UNL     1       0.484   5.374   2.007  1.00  0.00    -0.273 OA
ATOM      2  N   UNL     1       0.680   3.663   0.502  1.00  0.00    -0.343 N 
ATOM      3  C   UNL     1       1.044   4.885   1.025  1.00  0.00     0.243 C 
ATOM      4  H   UNL     1       1.173   3.285  -0.298  1.00  0.00     0.164 HD
ENDROOT
BRANCH   2   5
ATOM      5  C   UNL     1      -0.476   2.945   1.027  1.00  0.00     0.171 C 
ATOM      6  C   UNL     1      -1.041   0.124   1.384  1.00  0.00     0.214 C 
ATOM      7  N   UNL     1      -1.419   0.774   0.150  1.00  0.00    -0.303 N 
ATOM      8  C   UNL     1      -1.054   1.057   2.584  1.00  0.00     0.057 C 
ATOM      9  C   UNL     1      -1.134   2.105  -0.105  1.00  0.00     0.247 C 
ATOM     10  C   UNL     1      -0.131   2.229   2.332  1.00  0.00     0.040 C 
ATOM     11  O   UNL     1      -1.384   2.631  -1.198  1.00  0.00    -0.272 OA
BRANCH   6  12
ATOM     12  O   UNL     1       0.243  -0.428   1.203  1.00  0.00    -0.373 OA
ATOM     13  H   UNL     1       0.624  -0.566   2.096  1.00  0.00     0.213 HD
ENDBRANCH   6  12
BRANCH   7  14
ATOM     14  C   UNL     1      -2.001  -0.081  -0.906  1.00  0.00     0.177 C 
BRANCH  14  15
ATOM     15  C   UNL     1      -1.022  -0.512  -2.015  1.00  0.00     0.038 C 
BRANCH  15  16
ATOM     16  C   UNL     1      -1.328  -0.149  -3.485  1.00  0.00    -0.015 C 
ATOM     17  C   UNL     1      -0.298   0.820  -4.074  1.00  0.00     0.007 C 
ATOM     18  C   UNL     1      -2.712   0.505  -3.580  1.00  0.00     0.007 C 
ENDBRANCH  15  16
ENDBRANCH  14  15
BRANCH  14  19
ATOM     19  C   UNL     1      -3.151  -0.968  -0.316  1.00  0.00     0.245 C 
ATOM     20  O   UNL     1      -4.090  -0.372   0.237  1.00  0.00    -0.272 OA
BRANCH  19  21
ATOM     21  N   UNL     1      -3.118  -2.351  -0.282  1.00  0.00    -0.332 N 
ATOM     22  C   UNL     1      -2.412  -3.152   0.702  1.00  0.00     0.147 C 
BRANCH  21  23
ATOM     23  C   UNL     1      -3.853  -3.092  -1.344  1.00  0.00     0.178 C 
BRANCH  23  24
ATOM     24  C   UNL     1      -2.985  -4.056  -2.178  1.00  0.00     0.070 C 
BRANCH  24  25
ATOM     25  C   UNL     1      -2.599  -3.607  -3.568  1.00  0.00    -0.045 A 
ATOM     26  C   UNL     1      -3.536  -2.994  -4.410  1.00  0.00     0.004 A 
ATOM     27  C   UNL     1      -1.292  -3.805  -4.038  1.00  0.00     0.004 A 
ATOM     28  C   UNL     1      -3.176  -2.597  -5.699  1.00  0.00     0.000 A 
ATOM     29  C   UNL     1      -0.934  -3.407  -5.327  1.00  0.00     0.000 A 
ATOM     30  C   UNL     1      -1.877  -2.806  -6.158  1.00  0.00     0.000 A 
ENDBRANCH  24  25
ENDBRANCH  23  24
BRANCH  23  31
ATOM     31  C   UNL     1      -5.194  -3.685  -0.848  1.00  0.00     0.243 C 
ATOM     32  O   UNL     1      -6.157  -3.007  -0.499  1.00  0.00    -0.273 OA
ATOM     33  N   UNL     1      -5.153  -5.055  -0.653  1.00  0.00    -0.341 N 
ATOM     34  H   UNL     1      -4.320  -5.564  -0.958  1.00  0.00     0.164 HD
BRANCH  33  35
ATOM     35  C   UNL     1      -6.268  -5.813  -0.077  1.00  0.00     0.194 C 
BRANCH  35  36
ATOM     36  C   UNL     1      -6.037  -6.262   1.394  1.00  0.00     0.017 C 
ATOM     37  C   UNL     1      -6.980  -5.523   2.359  1.00  0.00     0.010 C 
ATOM     38  C   UNL     1      -4.602  -6.023   1.881  1.00  0.00     0.010 C 
ENDBRANCH  35  36
BRANCH  35  39
ATOM     39  C   UNL     1      -6.718  -6.994  -0.981  1.00  0.00     0.329 C 
ATOM     40  O   UNL     1      -7.128  -8.067  -0.554  1.00  0.00    -0.250 OA
BRANCH  39  41
ATOM     41  O   UNL     1      -6.689  -6.672  -2.309  1.00  0.00    -0.458 OA
BRANCH  41  42
ATOM     42  C   UNL     1      -7.805  -7.137  -3.106  1.00  0.00     0.205 CG0
ATOM     43  C   UNL     1      -8.043  -6.100  -4.202  1.00  0.00     0.056 C 
ATOM     44  G   UNL     1      -9.028  -7.313  -2.184  1.00  0.00     0.000 G0
ENDBRANCH  41  42
ENDBRANCH  39  41
ENDBRANCH  35  39
ENDBRANCH  33  35
ENDBRANCH  23  31
ENDBRANCH  21  23
ENDBRANCH  19  21
ENDBRANCH  14  19
ENDBRANCH   7  14
ENDBRANCH   2   5
BRANCH   3  45
ATOM     45  C   UNL     1       2.208   5.585   0.312  1.00  0.00     0.171 C 
BRANCH  45  46
ATOM     46  N   UNL     1       2.788   6.487   1.297  1.00  0.00    -0.342 N 
ATOM     47  C   UNL     1       4.004   6.250   1.889  1.00  0.00     0.247 C 
ATOM     48  O   UNL     1       4.723   5.300   1.578  1.00  0.00    -0.273 OA
ATOM     49  H   UNL     1       2.251   7.317   1.542  1.00  0.00     0.164 HD
BRANCH  47  50
ATOM     50  C   UNL     1       4.395   7.242   2.992  1.00  0.00     0.212 CG0
ATOM     51  G   UNL     1       3.739   8.597   2.657  1.00  0.00     0.000 G0
BRANCH  50  52
ATOM     52  N   UNL     1       3.904   6.655   4.236  1.00  0.00    -0.339 N 
ATOM     53  C   UNL     1       4.684   5.892   5.071  1.00  0.00     0.243 C 
ATOM     54  O   UNL     1       5.846   5.599   4.807  1.00  0.00    -0.273 OA
ATOM     55  H   UNL     1       2.917   6.770   4.455  1.00  0.00     0.164 HD
BRANCH  53  56
ATOM     56  C   UNL     1       3.924   5.309   6.280  1.00  0.00     0.182 C 
BRANCH  56  57
ATOM     57  N   UNL     1       2.478   5.293   6.035  1.00  0.00    -0.344 N 
ATOM     58  C   UNL     1       1.846   4.236   5.426  1.00  0.00     0.220 C 
ATOM     59  O   UNL     1       2.453   3.269   4.980  1.00  0.00    -0.275 OA
ATOM     60  H   UNL     1       1.928   6.025   6.478  1.00  0.00     0.164 HD
BRANCH  58  61
ATOM     61  C   UNL     1       0.342   4.410   5.329  1.00  0.00     0.100 C 
BRANCH  61  62
ATOM     62  C   UNL     1      -0.142   5.813   5.697  1.00  0.00     0.010 C 
BRANCH  62  63
ATOM     63  C   UNL     1      -1.659   6.005   5.579  1.00  0.00     0.000 C 
BRANCH  63  64
ATOM     64  C   UNL     1      -2.168   6.102   4.142  1.00  0.00    -0.003 C 
ATOM     65  C   UNL     1      -2.756   7.476   3.853  1.00  0.00     0.004 C 
ENDBRANCH  63  64
ENDBRANCH  62  63
ENDBRANCH  61  62
ENDBRANCH  58  61
ENDBRANCH  56  57
BRANCH  56  66
ATOM     66  C   UNL     1       4.282   6.040   7.572  1.00  0.00     0.157 C 
BRANCH  66  67
ATOM     67  C   UNL     1       3.066   6.652   8.206  1.00  0.00     0.305 C 
ATOM     68  O   UNL     1       2.387   6.173   9.101  1.00  0.00    -0.252 OA
BRANCH  67  69
ATOM     69  O   UNL     1       2.791   7.874   7.711  1.00  0.00    -0.481 OA
ATOM     70  H   UNL     1       1.830   7.854   7.514  1.00  0.00     0.296 HD
ENDBRANCH  67  69
ENDBRANCH  66  67
ENDBRANCH  56  66
ENDBRANCH  53  56
ENDBRANCH  50  52
ENDBRANCH  47  50
ENDBRANCH  45  46
BRANCH  45  71
ATOM     71  C   UNL     1       1.702   6.343  -0.920  1.00  0.00     0.037 C 
BRANCH  71  72
ATOM     72  C   UNL     1       2.647   7.476  -1.328  1.00  0.00     0.026 C 
BRANCH  72  73
ATOM     73  C   UNL     1       3.675   7.005  -2.355  1.00  0.00     0.146 C 
BRANCH  73  74
ATOM     74  N   UNL     1       4.991   7.051  -1.723  1.00  0.00    -0.254 NA
ATOM     75  C   UNL     1       5.550   5.937  -1.424  1.00  0.00     0.185 C 
ATOM     76  N   UNL     1       6.761   5.946  -0.843  1.00  0.00    -0.370 N 
ATOM     77  N   UNL     1       5.094   4.686  -1.608  1.00  0.00    -0.370 N 
ATOM     78  H   UNL     1       7.174   6.850  -0.661  1.00  0.00     0.159 HD
ATOM     79  H   UNL     1       7.193   5.128  -0.451  1.00  0.00     0.159 HD
ATOM     80  H   UNL     1       4.196   4.525  -2.039  1.00  0.00     0.159 HD
ATOM     81  H   UNL     1       5.674   3.881  -1.437  1.00  0.00     0.159 HD
ENDBRANCH  73  74
ENDBRANCH  72  73
ENDBRANCH  71  72
ENDBRANCH  45  71
ENDBRANCH   3  45
TORSDOF 20
ENDMDL
MODEL 21
REMARK VINA RESULT:    -4.796      4.700      7.726
REMARK INTER + INTRA:         -22.247
REMARK INTER:                 -15.625
REMARK INTRA:                  -6.622
REMARK UNBOUND:                -8.478
REMARK SMILES CCCCCC(=O)N[C@H](CC(=O)O)C(=O)N[C@H]1C(=O)N[C@H](CCCN=C(N)N)C(=O)N[C@@H]2CC[C@H](O)N(C2=O)[C@@H](CC(C)C)C(=O)N(C)[C@@H](Cc2ccccc2)C(=O)N[C@H](C(C)C)C(=O)O[C@@H]1C
REMARK SMILES IDX 30 1 31 2 29 3 32 5 35 6 37 7 34 8 38 9 33 10 39 11 36 12
REMARK SMILES IDX 40 14 41 15 42 16 43 17 44 18 45 19 46 20 47 21 48 22 49 23
REMARK SMILES IDX 50 24 51 25 52 26 56 27 53 28 55 29 54 30 57 31 58 32 59 33
REMARK SMILES IDX 60 35 61 36 62 37 63 38 64 39 65 40 66 41 67 42 68 43 21 45
REMARK SMILES IDX 20 46 18 47 19 48 17 50 16 52 14 53 15 54 9 56 8 57 6 58
REMARK SMILES IDX 7 59 5 61 4 62 3 63 2 64 1 65 10 66 11 67 12 68 13 69 22 71
REMARK SMILES IDX 23 72 24 73 25 74 26 75 27 76 28 77
REMARK H PARENT 31 4 36 13 59 34 20 49 16 55 8 60 13 70 27 78 27 79 28 80
REMARK H PARENT 28 81
REMARK Flexibility Score:  259.900
ROOT
ATOM      1  O   UNL     1       2.707   5.081   0.569  1.00  0.00    -0.273 OA
ATOM      2  N   UNL     1       3.253   7.053   1.590  1.00  0.00    -0.343 N 
ATOM      3  C   UNL     1       2.938   6.287   0.488  1.00  0.00     0.243 C 
ATOM      4  H   UNL     1       3.423   8.046   1.488  1.00  0.00     0.164 HD
ENDROOT
BRANCH   2   5
ATOM      5  C   UNL     1       3.442   6.432   2.897  1.00  0.00     0.171 C 
ATOM      6  C   UNL     1       3.100   7.408   5.605  1.00  0.00     0.214 C 
ATOM      7  N   UNL     1       4.386   7.535   4.961  1.00  0.00    -0.303 N 
ATOM      8  C   UNL     1       2.305   6.203   5.128  1.00  0.00     0.057 C 
ATOM      9  C   UNL     1       4.605   7.136   3.652  1.00  0.00     0.247 C 
ATOM     10  C   UNL     1       2.110   6.278   3.629  1.00  0.00     0.040 C 
ATOM     11  O   UNL     1       5.686   7.328   3.080  1.00  0.00    -0.272 OA
BRANCH   6  12
ATOM     12  O   UNL     1       2.381   8.597   5.369  1.00  0.00    -0.373 OA
ATOM     13  H   UNL     1       1.791   8.734   6.140  1.00  0.00     0.213 HD
ENDBRANCH   6  12
BRANCH   7  14
ATOM     14  C   UNL     1       5.442   8.251   5.709  1.00  0.00     0.177 C 
BRANCH  14  15
ATOM     15  C   UNL     1       5.932   9.560   5.060  1.00  0.00     0.038 C 
BRANCH  15  16
ATOM     16  C   UNL     1       4.909  10.657   4.691  1.00  0.00    -0.015 C 
ATOM     17  C   UNL     1       5.161  11.247   3.301  1.00  0.00     0.007 C 
ATOM     18  C   UNL     1       4.977  11.796   5.716  1.00  0.00     0.007 C 
ENDBRANCH  15  16
ENDBRANCH  14  15
BRANCH  14  19
ATOM     19  C   UNL     1       5.278   8.007   7.248  1.00  0.00     0.245 C 
ATOM     20  O   UNL     1       5.040   9.004   7.950  1.00  0.00    -0.272 OA
BRANCH  19  21
ATOM     21  N   UNL     1       5.493   6.786   7.863  1.00  0.00    -0.332 N 
ATOM     22  C   UNL     1       6.025   5.600   7.217  1.00  0.00     0.147 C 
BRANCH  21  23
ATOM     23  C   UNL     1       5.143   6.662   9.305  1.00  0.00     0.178 C 
BRANCH  23  24
ATOM     24  C   UNL     1       4.069   5.601   9.620  1.00  0.00     0.070 C 
BRANCH  24  25
ATOM     25  C   UNL     1       2.668   5.870   9.120  1.00  0.00    -0.045 A 
ATOM     26  C   UNL     1       2.125   7.160   9.166  1.00  0.00     0.004 A 
ATOM     27  C   UNL     1       1.888   4.824   8.604  1.00  0.00     0.004 A 
ATOM     28  C   UNL     1       0.824   7.397   8.717  1.00  0.00     0.000 A 
ATOM     29  C   UNL     1       0.588   5.062   8.155  1.00  0.00     0.000 A 
ATOM     30  C   UNL     1       0.056   6.349   8.215  1.00  0.00     0.000 A 
ENDBRANCH  24  25
ENDBRANCH  23  24
BRANCH  23  31
ATOM     31  C   UNL     1       6.385   6.625  10.227  1.00  0.00     0.243 C 
ATOM     32  O   UNL     1       7.000   7.624  10.592  1.00  0.00    -0.273 OA
ATOM     33  N   UNL     1       6.863   5.347  10.460  1.00  0.00    -0.341 N 
ATOM     34  H   UNL     1       6.309   4.554  10.126  1.00  0.00     0.164 HD
BRANCH  33  35
ATOM     35  C   UNL     1       8.095   5.078  11.206  1.00  0.00     0.194 C 
BRANCH  35  36
ATOM     36  C   UNL     1       8.975   3.951  10.594  1.00  0.00     0.017 C 
ATOM     37  C   UNL     1       9.004   4.036   9.058  1.00  0.00     0.010 C 
ATOM     38  C   UNL     1       8.496   2.542  10.966  1.00  0.00     0.010 C 
ENDBRANCH  35  36
BRANCH  35  39
ATOM     39  C   UNL     1       7.840   4.856  12.723  1.00  0.00     0.329 C 
ATOM     40  O   UNL     1       6.769   4.490  13.192  1.00  0.00    -0.250 OA
BRANCH  39  41
ATOM     41  O   UNL     1       8.971   5.032  13.471  1.00  0.00    -0.458 OA
BRANCH  41  42
ATOM     42  C   UNL     1       9.190   4.075  14.536  1.00  0.00     0.205 CG0
ATOM     43  C   UNL     1       9.208   4.854  15.849  1.00  0.00     0.056 C 
ATOM     44  G   UNL     1      10.517   3.338  14.269  1.00  0.00     0.000 G0
ENDBRANCH  41  42
ENDBRANCH  39  41
ENDBRANCH  35  39
ENDBRANCH  33  35
ENDBRANCH  23  31
ENDBRANCH  21  23
ENDBRANCH  19  21
ENDBRANCH  14  19
ENDBRANCH   7  14
ENDBRANCH   2   5
BRANCH   3  45
ATOM     45  C   UNL     1       2.876   7.047  -0.843  1.00  0.00     0.171 C 
BRANCH  45  46
ATOM     46  N   UNL     1       2.267   6.126  -1.794  1.00  0.00    -0.342 N 
ATOM     47  C   UNL     1       1.337   6.531  -2.719  1.00  0.00     0.247 C 
ATOM     48  O   UNL     1       1.006   7.708  -2.862  1.00  0.00    -0.273 OA
ATOM     49  H   UNL     1       2.555   5.151  -1.747  1.00  0.00     0.164 HD
BRANCH  47  50
ATOM     50  C   UNL     1       0.714   5.402  -3.552  1.00  0.00     0.212 CG0
ATOM     51  G   UNL     1       1.551   5.253  -4.838  1.00  0.00     0.000 G0
BRANCH  50  52
ATOM     52  N   UNL     1       0.756   4.218  -2.696  1.00  0.00    -0.339 N 
ATOM     53  C   UNL     1      -0.354   3.688  -2.085  1.00  0.00     0.243 C 
ATOM     54  O   UNL     1      -1.466   4.203  -2.170  1.00  0.00    -0.273 OA
ATOM     55  H   UNL     1       1.667   3.811  -2.497  1.00  0.00     0.164 HD
BRANCH  53  56
ATOM     56  C   UNL     1      -0.051   2.491  -1.162  1.00  0.00     0.182 C 
BRANCH  56  57
ATOM     57  N   UNL     1       0.330   2.944   0.180  1.00  0.00    -0.344 N 
ATOM     58  C   UNL     1      -0.387   2.608   1.301  1.00  0.00     0.220 C 
ATOM     59  O   UNL     1      -1.433   1.969   1.253  1.00  0.00    -0.275 OA
ATOM     60  H   UNL     1       1.241   3.387   0.275  1.00  0.00     0.164 HD
BRANCH  58  61
ATOM     61  C   UNL     1       0.222   3.137   2.586  1.00  0.00     0.100 C 
BRANCH  61  62
ATOM     62  C   UNL     1      -0.800   3.389   3.695  1.00  0.00     0.010 C 
BRANCH  62  63
ATOM     63  C   UNL     1      -1.015   4.871   4.026  1.00  0.00     0.000 C 
BRANCH  63  64
ATOM     64  C   UNL     1      -2.407   5.395   3.679  1.00  0.00    -0.003 C 
ATOM     65  C   UNL     1      -2.495   6.903   3.864  1.00  0.00     0.004 C 
ENDBRANCH  63  64
ENDBRANCH  62  63
ENDBRANCH  61  62
ENDBRANCH  58  61
ENDBRANCH  56  57
BRANCH  56  66
ATOM     66  C   UNL     1       0.995   1.562  -1.775  1.00  0.00     0.157 C 
BRANCH  66  67
ATOM     67  C   UNL     1       0.626   0.120  -1.576  1.00  0.00     0.305 C 
ATOM     68  O   UNL     1       0.549  -0.743  -2.437  1.00  0.00    -0.252 OA
BRANCH  67  69
ATOM     69  O   UNL     1       0.418  -0.181  -0.280  1.00  0.00    -0.481 OA
ATOM     70  H   UNL     1       1.306  -0.134   0.133  1.00  0.00     0.296 HD
ENDBRANCH  67  69
ENDBRANCH  66  67
ENDBRANCH  56  66
ENDBRANCH  53  56
ENDBRANCH  50  52
ENDBRANCH  47  50
ENDBRANCH  45  46
BRANCH  45  71
ATOM     71  C   UNL     1       4.282   7.467  -1.285  1.00  0.00     0.037 C 
BRANCH  71  72
ATOM     72  C   UNL     1       5.003   6.353  -2.047  1.00  0.00     0.026 C 
BRANCH  72  73
ATOM     73  C   UNL     1       6.401   6.103  -1.484  1.00  0.00     0.146 C 
BRANCH  73  74
ATOM     74  N   UNL     1       6.557   4.664  -1.299  1.00  0.00    -0.254 NA
ATOM     75  C   UNL     1       6.484   4.202  -0.105  1.00  0.00     0.185 C 
ATOM     76  N   UNL     1       6.623   2.881   0.097  1.00  0.00    -0.370 N 
ATOM     77  N   UNL     1       6.278   4.865   1.046  1.00  0.00    -0.370 N 
ATOM     78  H   UNL     1       6.789   2.309  -0.718  1.00  0.00     0.159 HD
ATOM     79  H   UNL     1       6.721   2.468   1.008  1.00  0.00     0.159 HD
ATOM     80  H   UNL     1       6.152   5.866   1.047  1.00  0.00     0.159 HD
ATOM     81  H   UNL     1       6.124   4.379   1.915  1.00  0.00     0.159 HD
ENDBRANCH  73  74
ENDBRANCH  72  73
ENDBRANCH  71  72
ENDBRANCH  45  71
ENDBRANCH   3  45
TORSDOF 20
ENDMDL
MODEL 22
REMARK VINA RESULT:    -4.796      5.913     11.307
REMARK INTER + INTRA:         -22.247
REMARK INTER:                 -16.003
REMARK INTRA:                  -6.244
REMARK UNBOUND:                -8.478
REMARK SMILES CCCCCC(=O)N[C@H](CC(=O)O)C(=O)N[C@H]1C(=O)N[C@H](CCCN=C(N)N)C(=O)N[C@@H]2CC[C@H](O)N(C2=O)[C@@H](CC(C)C)C(=O)N(C)[C@@H](Cc2ccccc2)C(=O)N[C@H](C(C)C)C(=O)O[C@@H]1C
REMARK SMILES IDX 30 1 31 2 29 3 32 5 35 6 37 7 34 8 38 9 33 10 39 11 36 12
REMARK SMILES IDX 40 14 41 15 42 16 43 17 44 18 45 19 46 20 47 21 48 22 49 23
REMARK SMILES IDX 50 24 51 25 52 26 56 27 53 28 55 29 54 30 57 31 58 32 59 33
REMARK SMILES IDX 60 35 61 36 62 37 63 38 64 39 65 40 66 41 67 42 68 43 21 45
REMARK SMILES IDX 20 46 18 47 19 48 17 50 16 52 14 53 15 54 9 56 8 57 6 58
REMARK SMILES IDX 7 59 5 61 4 62 3 63 2 64 1 65 10 66 11 67 12 68 13 69 22 71
REMARK SMILES IDX 23 72 24 73 25 74 26 75 27 76 28 77
REMARK H PARENT 31 4 36 13 59 34 20 49 16 55 8 60 13 70 27 78 27 79 28 80
REMARK H PARENT 28 81
REMARK Flexibility Score:  259.900
ROOT
ATOM      1  O   UNL     1       4.881   6.722  -1.911  1.00  0.00    -0.273 OA
ATOM      2  N   UNL     1       3.839   4.765  -2.471  1.00  0.00    -0.343 N 
ATOM      3  C   UNL     1       4.907   5.636  -2.490  1.00  0.00     0.243 C 
ATOM      4  H   UNL     1       3.902   3.873  -2.946  1.00  0.00     0.164 HD
ENDROOT
BRANCH   2   5
ATOM      5  C   UNL     1       2.575   5.153  -1.855  1.00  0.00     0.171 C 
ATOM      6  C   UNL     1       0.310   3.624  -0.886  1.00  0.00     0.214 C 
ATOM      7  N   UNL     1       0.321   4.088  -2.254  1.00  0.00    -0.303 N 
ATOM      8  C   UNL     1       1.073   4.534   0.064  1.00  0.00     0.057 C 
ATOM      9  C   UNL     1       1.393   4.779  -2.795  1.00  0.00     0.247 C 
ATOM     10  C   UNL     1       2.504   4.680  -0.404  1.00  0.00     0.040 C 
ATOM     11  O   UNL     1       1.432   5.098  -3.991  1.00  0.00    -0.272 OA
BRANCH   6  12
ATOM     12  O   UNL     1       0.856   2.326  -0.868  1.00  0.00    -0.373 OA
ATOM     13  H   UNL     1       1.826   2.423  -0.753  1.00  0.00     0.213 HD
ENDBRANCH   6  12
BRANCH   7  14
ATOM     14  C   UNL     1      -0.805   3.668  -3.113  1.00  0.00     0.177 C 
BRANCH  14  15
ATOM     15  C   UNL     1      -0.703   2.237  -3.677  1.00  0.00     0.038 C 
BRANCH  15  16
ATOM     16  C   UNL     1       0.607   1.779  -4.355  1.00  0.00    -0.015 C 
ATOM     17  C   UNL     1       0.639   2.113  -5.850  1.00  0.00     0.007 C 
ATOM     18  C   UNL     1       0.770   0.262  -4.198  1.00  0.00     0.007 C 
ENDBRANCH  15  16
ENDBRANCH  14  15
BRANCH  14  19
ATOM     19  C   UNL     1      -2.130   4.369  -2.654  1.00  0.00     0.245 C 
ATOM     20  O   UNL     1      -2.095   5.604  -2.529  1.00  0.00    -0.272 OA
BRANCH  19  21
ATOM     21  N   UNL     1      -3.275   3.686  -2.281  1.00  0.00    -0.332 N 
ATOM     22  C   UNL     1      -3.308   2.384  -1.639  1.00  0.00     0.147 C 
BRANCH  21  23
ATOM     23  C   UNL     1      -4.590   4.324  -2.566  1.00  0.00     0.178 C 
BRANCH  23  24
ATOM     24  C   UNL     1      -5.002   4.316  -4.053  1.00  0.00     0.070 C 
BRANCH  24  25
ATOM     25  C   UNL     1      -4.391   3.249  -4.931  1.00  0.00    -0.045 A 
ATOM     26  C   UNL     1      -3.411   3.573  -5.877  1.00  0.00     0.004 A 
ATOM     27  C   UNL     1      -4.805   1.914  -4.812  1.00  0.00     0.004 A 
ATOM     28  C   UNL     1      -2.864   2.583  -6.697  1.00  0.00     0.000 A 
ATOM     29  C   UNL     1      -4.256   0.925  -5.632  1.00  0.00     0.000 A 
ATOM     30  C   UNL     1      -3.288   1.262  -6.575  1.00  0.00     0.000 A 
ENDBRANCH  24  25
ENDBRANCH  23  24
BRANCH  23  31
ATOM     31  C   UNL     1      -5.699   3.887  -1.580  1.00  0.00     0.243 C 
ATOM     32  O   UNL     1      -5.575   3.898  -0.358  1.00  0.00    -0.273 OA
ATOM     33  N   UNL     1      -6.790   3.301  -2.200  1.00  0.00    -0.341 N 
ATOM     34  H   UNL     1      -6.834   3.317  -3.221  1.00  0.00     0.164 HD
BRANCH  33  35
ATOM     35  C   UNL     1      -7.905   2.707  -1.458  1.00  0.00     0.194 C 
BRANCH  35  36
ATOM     36  C   UNL     1      -8.503   1.434  -2.122  1.00  0.00     0.017 C 
ATOM     37  C   UNL     1      -7.823   0.158  -1.596  1.00  0.00     0.010 C 
ATOM     38  C   UNL     1      -8.368   1.430  -3.650  1.00  0.00     0.010 C 
ENDBRANCH  35  36
BRANCH  35  39
ATOM     39  C   UNL     1      -9.006   3.744  -1.099  1.00  0.00     0.329 C 
ATOM     40  O   UNL     1      -8.776   4.854  -0.633  1.00  0.00    -0.250 OA
BRANCH  39  41
ATOM     41  O   UNL     1     -10.258   3.315  -1.442  1.00  0.00    -0.458 OA
BRANCH  41  42
ATOM     42  C   UNL     1     -11.330   3.681  -0.541  1.00  0.00     0.205 CG0
ATOM     43  C   UNL     1     -11.360   2.640   0.576  1.00  0.00     0.056 C 
ATOM     44  G   UNL     1     -12.648   3.727  -1.340  1.00  0.00     0.000 G0
ENDBRANCH  41  42
ENDBRANCH  39  41
ENDBRANCH  35  39
ENDBRANCH  33  35
ENDBRANCH  23  31
ENDBRANCH  21  23
ENDBRANCH  19  21
ENDBRANCH  14  19
ENDBRANCH   7  14
ENDBRANCH   2   5
BRANCH   3  45
ATOM     45  C   UNL     1       6.139   5.148  -3.264  1.00  0.00     0.171 C 
BRANCH  45  46
ATOM     46  N   UNL     1       7.220   6.051  -2.893  1.00  0.00    -0.342 N 
ATOM     47  C   UNL     1       8.459   5.600  -2.513  1.00  0.00     0.247 C 
ATOM     48  O   UNL     1       8.770   4.408  -2.528  1.00  0.00    -0.273 OA
ATOM     49  H   UNL     1       7.023   7.050  -2.921  1.00  0.00     0.164 HD
BRANCH  47  50
ATOM     50  C   UNL     1       9.431   6.690  -2.038  1.00  0.00     0.212 CG0
ATOM     51  G   UNL     1       9.063   7.995  -2.771  1.00  0.00     0.000 G0
BRANCH  50  52
ATOM     52  N   UNL     1       9.249   6.770  -0.591  1.00  0.00    -0.339 N 
ATOM     53  C   UNL     1       8.312   7.575   0.010  1.00  0.00     0.243 C 
ATOM     54  O   UNL     1       7.586   8.334  -0.626  1.00  0.00    -0.273 OA
ATOM     55  H   UNL     1       9.896   6.247  -0.004  1.00  0.00     0.164 HD
BRANCH  53  56
ATOM     56  C   UNL     1       8.366   7.558   1.551  1.00  0.00     0.182 C 
BRANCH  56  57
ATOM     57  N   UNL     1       7.092   7.102   2.117  1.00  0.00    -0.344 N 
ATOM     58  C   UNL     1       6.929   5.844   2.643  1.00  0.00     0.220 C 
ATOM     59  O   UNL     1       7.811   4.992   2.612  1.00  0.00    -0.275 OA
ATOM     60  H   UNL     1       6.371   7.805   2.254  1.00  0.00     0.164 HD
BRANCH  58  61
ATOM     61  C   UNL     1       5.547   5.610   3.225  1.00  0.00     0.100 C 
BRANCH  61  62
ATOM     62  C   UNL     1       4.408   5.973   2.273  1.00  0.00     0.010 C 
BRANCH  62  63
ATOM     63  C   UNL     1       3.364   6.921   2.875  1.00  0.00     0.000 C 
BRANCH  63  64
ATOM     64  C   UNL     1       3.954   8.039   3.734  1.00  0.00    -0.003 C 
ATOM     65  C   UNL     1       3.765   9.400   3.080  1.00  0.00     0.004 C 
ENDBRANCH  63  64
ENDBRANCH  62  63
ENDBRANCH  61  62
ENDBRANCH  58  61
ENDBRANCH  56  57
BRANCH  56  66
ATOM     66  C   UNL     1       8.794   8.913   2.112  1.00  0.00     0.157 C 
BRANCH  66  67
ATOM     67  C   UNL     1       7.620   9.667   2.666  1.00  0.00     0.305 C 
ATOM     68  O   UNL     1       7.320   9.795   3.843  1.00  0.00    -0.252 OA
BRANCH  67  69
ATOM     69  O   UNL     1       6.901  10.275   1.703  1.00  0.00    -0.481 OA
ATOM     70  H   UNL     1       7.435  11.055   1.446  1.00  0.00     0.296 HD
ENDBRANCH  67  69
ENDBRANCH  66  67
ENDBRANCH  56  66
ENDBRANCH  53  56
ENDBRANCH  50  52
ENDBRANCH  47  50
ENDBRANCH  45  46
BRANCH  45  71
ATOM     71  C   UNL     1       5.869   5.179  -4.772  1.00  0.00     0.037 C 
BRANCH  71  72
ATOM     72  C   UNL     1       6.138   3.825  -5.433  1.00  0.00     0.026 C 
BRANCH  72  73
ATOM     73  C   UNL     1       5.891   2.670  -4.465  1.00  0.00     0.146 C 
BRANCH  73  74
ATOM     74  N   UNL     1       7.152   1.956  -4.291  1.00  0.00    -0.254 NA
ATOM     75  C   UNL     1       7.567   1.756  -3.095  1.00  0.00     0.185 C 
ATOM     76  N   UNL     1       8.723   1.101  -2.902  1.00  0.00    -0.370 N 
ATOM     77  N   UNL     1       6.998   2.118  -1.932  1.00  0.00    -0.370 N 
ATOM     78  H   UNL     1       9.221   0.799  -3.728  1.00  0.00     0.159 HD
ATOM     79  H   UNL     1       9.180   1.035  -2.010  1.00  0.00     0.159 HD
ATOM     80  H   UNL     1       6.120   2.616  -1.922  1.00  0.00     0.159 HD
ATOM     81  H   UNL     1       7.360   1.804  -1.046  1.00  0.00     0.159 HD
ENDBRANCH  73  74
ENDBRANCH  72  73
ENDBRANCH  71  72
ENDBRANCH  45  71
ENDBRANCH   3  45
TORSDOF 20
ENDMDL
MODEL 23
REMARK VINA RESULT:    -4.760      5.573     11.232
REMARK INTER + INTRA:         -22.142
REMARK INTER:                 -15.962
REMARK INTRA:                  -6.180
REMARK UNBOUND:                -8.478
REMARK SMILES CCCCCC(=O)N[C@H](CC(=O)O)C(=O)N[C@H]1C(=O)N[C@H](CCCN=C(N)N)C(=O)N[C@@H]2CC[C@H](O)N(C2=O)[C@@H](CC(C)C)C(=O)N(C)[C@@H](Cc2ccccc2)C(=O)N[C@H](C(C)C)C(=O)O[C@@H]1C
REMARK SMILES IDX 30 1 31 2 29 3 32 5 35 6 37 7 34 8 38 9 33 10 39 11 36 12
REMARK SMILES IDX 40 14 41 15 42 16 43 17 44 18 45 19 46 20 47 21 48 22 49 23
REMARK SMILES IDX 50 24 51 25 52 26 56 27 53 28 55 29 54 30 57 31 58 32 59 33
REMARK SMILES IDX 60 35 61 36 62 37 63 38 64 39 65 40 66 41 67 42 68 43 21 45
REMARK SMILES IDX 20 46 18 47 19 48 17 50 16 52 14 53 15 54 9 56 8 57 6 58
REMARK SMILES IDX 7 59 5 61 4 62 3 63 2 64 1 65 10 66 11 67 12 68 13 69 22 71
REMARK SMILES IDX 23 72 24 73 25 74 26 75 27 76 28 77
REMARK H PARENT 31 4 36 13 59 34 20 49 16 55 8 60 13 70 27 78 27 79 28 80
REMARK H PARENT 28 81
REMARK Flexibility Score:  259.900
ROOT
ATOM      1  O   UNL     1       3.599   6.782  -2.540  1.00  0.00    -0.273 OA
ATOM      2  N   UNL     1       3.102   4.623  -1.974  1.00  0.00    -0.343 N 
ATOM      3  C   UNL     1       3.923   5.595  -2.505  1.00  0.00     0.243 C 
ATOM      4  H   UNL     1       3.408   3.658  -1.949  1.00  0.00     0.164 HD
ENDROOT
BRANCH   2   5
ATOM      5  C   UNL     1       1.750   4.951  -1.536  1.00  0.00     0.171 C 
ATOM      6  C   UNL     1      -0.367   3.369  -0.344  1.00  0.00     0.214 C 
ATOM      7  N   UNL     1      -0.301   3.499  -1.781  1.00  0.00    -0.303 N 
ATOM      8  C   UNL     1       0.184   4.577   0.395  1.00  0.00     0.057 C 
ATOM      9  C   UNL     1       0.713   4.197  -2.418  1.00  0.00     0.247 C 
ATOM     10  C   UNL     1       1.618   4.822  -0.020  1.00  0.00     0.040 C 
ATOM     11  O   UNL     1       0.811   4.232  -3.651  1.00  0.00    -0.272 OA
BRANCH   6  12
ATOM     12  O   UNL     1       0.342   2.206   0.015  1.00  0.00    -0.373 OA
ATOM     13  H   UNL     1       0.883   1.947  -0.761  1.00  0.00     0.213 HD
ENDBRANCH   6  12
BRANCH   7  14
ATOM     14  C   UNL     1      -1.285   2.728  -2.570  1.00  0.00     0.177 C 
BRANCH  14  15
ATOM     15  C   UNL     1      -0.881   1.274  -2.882  1.00  0.00     0.038 C 
BRANCH  15  16
ATOM     16  C   UNL     1       0.301   1.001  -3.840  1.00  0.00    -0.015 C 
ATOM     17  C   UNL     1      -0.123   1.022  -5.311  1.00  0.00     0.007 C 
ATOM     18  C   UNL     1       0.909  -0.374  -3.534  1.00  0.00     0.007 C 
ENDBRANCH  15  16
ENDBRANCH  14  15
BRANCH  14  19
ATOM     19  C   UNL     1      -2.740   3.216  -2.252  1.00  0.00     0.245 C 
ATOM     20  O   UNL     1      -3.466   2.434  -1.617  1.00  0.00    -0.272 OA
BRANCH  19  21
ATOM     21  N   UNL     1      -3.278   4.398  -2.729  1.00  0.00    -0.332 N 
ATOM     22  C   UNL     1      -3.068   5.714  -2.151  1.00  0.00     0.147 C 
BRANCH  21  23
ATOM     23  C   UNL     1      -4.158   4.328  -3.928  1.00  0.00     0.178 C 
BRANCH  23  24
ATOM     24  C   UNL     1      -3.869   3.143  -4.873  1.00  0.00     0.070 C 
BRANCH  24  25
ATOM     25  C   UNL     1      -2.887   3.383  -5.997  1.00  0.00    -0.045 A 
ATOM     26  C   UNL     1      -1.936   4.408  -5.912  1.00  0.00     0.004 A 
ATOM     27  C   UNL     1      -2.920   2.581  -7.147  1.00  0.00     0.004 A 
ATOM     28  C   UNL     1      -1.044   4.633  -6.963  1.00  0.00     0.000 A 
ATOM     29  C   UNL     1      -2.027   2.807  -8.195  1.00  0.00     0.000 A 
ATOM     30  C   UNL     1      -1.091   3.835  -8.103  1.00  0.00     0.000 A 
ENDBRANCH  24  25
ENDBRANCH  23  24
BRANCH  23  31
ATOM     31  C   UNL     1      -5.653   4.545  -3.594  1.00  0.00     0.243 C 
ATOM     32  O   UNL     1      -6.419   5.221  -4.276  1.00  0.00    -0.273 OA
ATOM     33  N   UNL     1      -6.017   4.059  -2.349  1.00  0.00    -0.341 N 
ATOM     34  H   UNL     1      -5.334   3.508  -1.824  1.00  0.00     0.164 HD
BRANCH  33  35
ATOM     35  C   UNL     1      -7.350   4.257  -1.774  1.00  0.00     0.194 C 
BRANCH  35  36
ATOM     36  C   UNL     1      -7.339   4.814  -0.322  1.00  0.00     0.017 C 
ATOM     37  C   UNL     1      -7.252   6.350  -0.313  1.00  0.00     0.010 C 
ATOM     38  C   UNL     1      -6.173   4.283   0.520  1.00  0.00     0.010 C 
ENDBRANCH  35  36
BRANCH  35  39
ATOM     39  C   UNL     1      -8.251   2.997  -1.905  1.00  0.00     0.329 C 
ATOM     40  O   UNL     1      -8.209   2.219  -2.851  1.00  0.00    -0.250 OA
BRANCH  39  41
ATOM     41  O   UNL     1      -9.037   2.803  -0.803  1.00  0.00    -0.458 OA
BRANCH  41  42
ATOM     42  C   UNL     1     -10.468   2.832  -1.023  1.00  0.00     0.205 CG0
ATOM     43  C   UNL     1     -11.015   4.056  -0.291  1.00  0.00     0.056 C 
ATOM     44  G   UNL     1     -11.073   1.514  -0.501  1.00  0.00     0.000 G0
ENDBRANCH  41  42
ENDBRANCH  39  41
ENDBRANCH  35  39
ENDBRANCH  33  35
ENDBRANCH  23  31
ENDBRANCH  21  23
ENDBRANCH  19  21
ENDBRANCH  14  19
ENDBRANCH   7  14
ENDBRANCH   2   5
BRANCH   3  45
ATOM     45  C   UNL     1       5.277   5.097  -3.028  1.00  0.00     0.171 C 
BRANCH  45  46
ATOM     46  N   UNL     1       6.277   5.961  -2.414  1.00  0.00    -0.342 N 
ATOM     47  C   UNL     1       7.407   5.466  -1.812  1.00  0.00     0.247 C 
ATOM     48  O   UNL     1       7.693   4.268  -1.810  1.00  0.00    -0.273 OA
ATOM     49  H   UNL     1       6.107   6.964  -2.443  1.00  0.00     0.164 HD
BRANCH  47  50
ATOM     50  C   UNL     1       8.282   6.515  -1.111  1.00  0.00     0.212 CG0
ATOM     51  G   UNL     1       9.198   7.148  -2.178  1.00  0.00     0.000 G0
BRANCH  50  52
ATOM     52  N   UNL     1       7.348   7.466  -0.515  1.00  0.00    -0.339 N 
ATOM     53  C   UNL     1       7.430   8.825  -0.703  1.00  0.00     0.243 C 
ATOM     54  O   UNL     1       8.333   9.350  -1.348  1.00  0.00    -0.273 OA
ATOM     55  H   UNL     1       6.643   7.101   0.122  1.00  0.00     0.164 HD
BRANCH  53  56
ATOM     56  C   UNL     1       6.388   9.633   0.096  1.00  0.00     0.182 C 
BRANCH  56  57
ATOM     57  N   UNL     1       6.720   9.653   1.525  1.00  0.00    -0.344 N 
ATOM     58  C   UNL     1       7.253  10.759   2.141  1.00  0.00     0.220 C 
ATOM     59  O   UNL     1       7.557  11.777   1.529  1.00  0.00    -0.275 OA
ATOM     60  H   UNL     1       6.392   8.870   2.085  1.00  0.00     0.164 HD
BRANCH  58  61
ATOM     61  C   UNL     1       7.462  10.574   3.632  1.00  0.00     0.100 C 
BRANCH  61  62
ATOM     62  C   UNL     1       8.679  11.318   4.181  1.00  0.00     0.010 C 
BRANCH  62  63
ATOM     63  C   UNL     1       8.367  12.720   4.721  1.00  0.00     0.000 C 
BRANCH  63  64
ATOM     64  C   UNL     1       6.926  12.902   5.196  1.00  0.00    -0.003 C 
ATOM     65  C   UNL     1       6.812  12.726   6.703  1.00  0.00     0.004 C 
ENDBRANCH  63  64
ENDBRANCH  62  63
ENDBRANCH  61  62
ENDBRANCH  58  61
ENDBRANCH  56  57
BRANCH  56  66
ATOM     66  C   UNL     1       4.970   9.125  -0.159  1.00  0.00     0.157 C 
BRANCH  66  67
ATOM     67  C   UNL     1       4.564   8.106   0.867  1.00  0.00     0.305 C 
ATOM     68  O   UNL     1       4.136   8.327   1.990  1.00  0.00    -0.252 OA
BRANCH  67  69
ATOM     69  O   UNL     1       4.669   6.845   0.406  1.00  0.00    -0.481 OA
ATOM     70  H   UNL     1       5.598   6.766   0.103  1.00  0.00     0.296 HD
ENDBRANCH  67  69
ENDBRANCH  66  67
ENDBRANCH  56  66
ENDBRANCH  53  56
ENDBRANCH  50  52
ENDBRANCH  47  50
ENDBRANCH  45  46
BRANCH  45  71
ATOM     71  C   UNL     1       5.321   5.180  -4.558  1.00  0.00     0.037 C 
BRANCH  71  72
ATOM     72  C   UNL     1       5.859   3.893  -5.188  1.00  0.00     0.026 C 
BRANCH  72  73
ATOM     73  C   UNL     1       5.651   2.690  -4.270  1.00  0.00     0.146 C 
BRANCH  73  74
ATOM     74  N   UNL     1       6.209   1.517  -4.937  1.00  0.00    -0.254 NA
ATOM     75  C   UNL     1       5.391   0.691  -5.479  1.00  0.00     0.185 C 
ATOM     76  N   UNL     1       5.874  -0.397  -6.101  1.00  0.00    -0.370 N 
ATOM     77  N   UNL     1       4.049   0.740  -5.528  1.00  0.00    -0.370 N 
ATOM     78  H   UNL     1       6.877  -0.515  -6.104  1.00  0.00     0.159 HD
ATOM     79  H   UNL     1       5.296  -1.155  -6.419  1.00  0.00     0.159 HD
ATOM     80  H   UNL     1       3.547   1.506  -5.105  1.00  0.00     0.159 HD
ATOM     81  H   UNL     1       3.516   0.091  -6.084  1.00  0.00     0.159 HD
ENDBRANCH  73  74
ENDBRANCH  72  73
ENDBRANCH  71  72
ENDBRANCH  45  71
ENDBRANCH   3  45
TORSDOF 20
ENDMDL
MODEL 24
REMARK VINA RESULT:    -4.738      6.888     11.046
REMARK INTER + INTRA:         -22.079
REMARK INTER:                 -15.288
REMARK INTRA:                  -6.790
REMARK UNBOUND:                -8.478
REMARK SMILES CCCCCC(=O)N[C@H](CC(=O)O)C(=O)N[C@H]1C(=O)N[C@H](CCCN=C(N)N)C(=O)N[C@@H]2CC[C@H](O)N(C2=O)[C@@H](CC(C)C)C(=O)N(C)[C@@H](Cc2ccccc2)C(=O)N[C@H](C(C)C)C(=O)O[C@@H]1C
REMARK SMILES IDX 30 1 31 2 29 3 32 5 35 6 37 7 34 8 38 9 33 10 39 11 36 12
REMARK SMILES IDX 40 14 41 15 42 16 43 17 44 18 45 19 46 20 47 21 48 22 49 23
REMARK SMILES IDX 50 24 51 25 52 26 56 27 53 28 55 29 54 30 57 31 58 32 59 33
REMARK SMILES IDX 60 35 61 36 62 37 63 38 64 39 65 40 66 41 67 42 68 43 21 45
REMARK SMILES IDX 20 46 18 47 19 48 17 50 16 52 14 53 15 54 9 56 8 57 6 58
REMARK SMILES IDX 7 59 5 61 4 62 3 63 2 64 1 65 10 66 11 67 12 68 13 69 22 71
REMARK SMILES IDX 23 72 24 73 25 74 26 75 27 76 28 77
REMARK H PARENT 31 4 36 13 59 34 20 49 16 55 8 60 13 70 27 78 27 79 28 80
REMARK H PARENT 28 81
REMARK Flexibility Score:  259.900
ROOT
ATOM      1  O   UNL     1      -1.414   3.198   3.858  1.00  0.00    -0.273 OA
ATOM      2  N   UNL     1      -2.090   3.018   6.035  1.00  0.00    -0.343 N 
ATOM      3  C   UNL     1      -1.864   2.509   4.774  1.00  0.00     0.243 C 
ATOM      4  H   UNL     1      -2.446   2.418   6.769  1.00  0.00     0.164 HD
ENDROOT
BRANCH   2   5
ATOM      5  C   UNL     1      -1.914   4.441   6.304  1.00  0.00     0.171 C 
ATOM      6  C   UNL     1      -0.843   6.621   4.722  1.00  0.00     0.214 C 
ATOM      7  N   UNL     1       0.037   5.874   5.590  1.00  0.00    -0.303 N 
ATOM      8  C   UNL     1      -2.276   6.685   5.229  1.00  0.00     0.057 C 
ATOM      9  C   UNL     1      -0.398   4.789   6.333  1.00  0.00     0.247 C 
ATOM     10  C   UNL     1      -2.819   5.284   5.407  1.00  0.00     0.040 C 
ATOM     11  O   UNL     1       0.379   4.100   7.007  1.00  0.00    -0.272 OA
BRANCH   6  12
ATOM     12  O   UNL     1      -0.798   6.026   3.446  1.00  0.00    -0.373 OA
ATOM     13  H   UNL     1      -1.256   6.635   2.829  1.00  0.00     0.213 HD
ENDBRANCH   6  12
BRANCH   7  14
ATOM     14  C   UNL     1       1.474   6.219   5.545  1.00  0.00     0.177 C 
BRANCH  14  15
ATOM     15  C   UNL     1       2.209   5.806   4.256  1.00  0.00     0.038 C 
BRANCH  15  16
ATOM     16  C   UNL     1       3.588   5.117   4.353  1.00  0.00    -0.015 C 
ATOM     17  C   UNL     1       3.825   4.475   5.723  1.00  0.00     0.007 C 
ATOM     18  C   UNL     1       4.699   6.145   4.105  1.00  0.00     0.007 C 
ENDBRANCH  15  16
ENDBRANCH  14  15
BRANCH  14  19
ATOM     19  C   UNL     1       1.743   7.530   6.362  1.00  0.00     0.245 C 
ATOM     20  O   UNL     1       1.131   7.655   7.436  1.00  0.00    -0.272 OA
BRANCH  19  21
ATOM     21  N   UNL     1       2.521   8.578   5.904  1.00  0.00    -0.332 N 
ATOM     22  C   UNL     1       2.499   9.117   4.556  1.00  0.00     0.147 C 
BRANCH  21  23
ATOM     23  C   UNL     1       3.474   9.208   6.860  1.00  0.00     0.178 C 
BRANCH  23  24
ATOM     24  C   UNL     1       4.925   8.697   6.756  1.00  0.00     0.070 C 
BRANCH  24  25
ATOM     25  C   UNL     1       5.499   8.001   7.968  1.00  0.00    -0.045 A 
ATOM     26  C   UNL     1       5.661   6.610   7.988  1.00  0.00     0.004 A 
ATOM     27  C   UNL     1       5.874   8.744   9.098  1.00  0.00     0.004 A 
ATOM     28  C   UNL     1       6.176   5.973   9.119  1.00  0.00     0.000 A 
ATOM     29  C   UNL     1       6.390   8.106  10.227  1.00  0.00     0.000 A 
ATOM     30  C   UNL     1       6.538   6.721  10.238  1.00  0.00     0.000 A 
ENDBRANCH  24  25
ENDBRANCH  23  24
BRANCH  23  31
ATOM     31  C   UNL     1       3.328  10.746   6.932  1.00  0.00     0.243 C 
ATOM     32  O   UNL     1       2.256  11.339   6.847  1.00  0.00    -0.273 OA
ATOM     33  N   UNL     1       4.539  11.418   6.915  1.00  0.00    -0.341 N 
ATOM     34  H   UNL     1       5.399  10.869   6.981  1.00  0.00     0.164 HD
BRANCH  33  35
ATOM     35  C   UNL     1       4.641  12.879   6.856  1.00  0.00     0.194 C 
BRANCH  35  36
ATOM     36  C   UNL     1       5.770  13.399   5.923  1.00  0.00     0.017 C 
ATOM     37  C   UNL     1       5.214  13.810   4.548  1.00  0.00     0.010 C 
ATOM     38  C   UNL     1       6.878  12.366   5.680  1.00  0.00     0.010 C 
ENDBRANCH  35  36
BRANCH  35  39
ATOM     39  C   UNL     1       4.707  13.530   8.266  1.00  0.00     0.329 C 
ATOM     40  O   UNL     1       3.864  13.364   9.139  1.00  0.00    -0.250 OA
BRANCH  39  41
ATOM     41  O   UNL     1       5.859  14.242   8.456  1.00  0.00    -0.458 OA
BRANCH  41  42
ATOM     42  C   UNL     1       5.714  15.545   9.069  1.00  0.00     0.205 CG0
ATOM     43  C   UNL     1       5.123  16.479   8.016  1.00  0.00     0.056 C 
ATOM     44  G   UNL     1       7.097  16.013   9.563  1.00  0.00     0.000 G0
ENDBRANCH  41  42
ENDBRANCH  39  41
ENDBRANCH  35  39
ENDBRANCH  33  35
ENDBRANCH  23  31
ENDBRANCH  21  23
ENDBRANCH  19  21
ENDBRANCH  14  19
ENDBRANCH   7  14
ENDBRANCH   2   5
BRANCH   3  45
ATOM     45  C   UNL     1      -2.190   1.020   4.598  1.00  0.00     0.171 C 
BRANCH  45  46
ATOM     46  N   UNL     1      -2.177   0.781   3.161  1.00  0.00    -0.342 N 
ATOM     47  C   UNL     1      -1.294  -0.085   2.566  1.00  0.00     0.247 C 
ATOM     48  O   UNL     1      -0.501  -0.775   3.207  1.00  0.00    -0.273 OA
ATOM     49  H   UNL     1      -2.856   1.291   2.598  1.00  0.00     0.164 HD
BRANCH  47  50
ATOM     50  C   UNL     1      -1.345  -0.113   1.032  1.00  0.00     0.212 CG0
ATOM     51  G   UNL     1      -2.574  -0.948   0.621  1.00  0.00     0.000 G0
BRANCH  50  52
ATOM     52  N   UNL     1      -1.432   1.285   0.619  1.00  0.00    -0.339 N 
ATOM     53  C   UNL     1      -2.513   1.810  -0.047  1.00  0.00     0.243 C 
ATOM     54  O   UNL     1      -3.472   1.127  -0.395  1.00  0.00    -0.273 OA
ATOM     55  H   UNL     1      -0.620   1.877   0.781  1.00  0.00     0.164 HD
BRANCH  53  56
ATOM     56  C   UNL     1      -2.340   3.287  -0.455  1.00  0.00     0.182 C 
BRANCH  56  57
ATOM     57  N   UNL     1      -1.103   3.846   0.099  1.00  0.00    -0.344 N 
ATOM     58  C   UNL     1      -0.128   4.402  -0.693  1.00  0.00     0.220 C 
ATOM     59  O   UNL     1      -0.189   4.405  -1.917  1.00  0.00    -0.275 OA
ATOM     60  H   UNL     1      -1.058   3.955   1.109  1.00  0.00     0.164 HD
BRANCH  58  61
ATOM     61  C   UNL     1       1.037   4.970   0.098  1.00  0.00     0.100 C 
BRANCH  61  62
ATOM     62  C   UNL     1       1.749   6.129  -0.600  1.00  0.00     0.010 C 
BRANCH  62  63
ATOM     63  C   UNL     1       3.008   6.620   0.125  1.00  0.00     0.000 C 
BRANCH  63  64
ATOM     64  C   UNL     1       3.643   7.864  -0.494  1.00  0.00    -0.003 C 
ATOM     65  C   UNL     1       3.624   9.038   0.475  1.00  0.00     0.004 C 
ENDBRANCH  63  64
ENDBRANCH  62  63
ENDBRANCH  61  62
ENDBRANCH  58  61
ENDBRANCH  56  57
BRANCH  56  66
ATOM     66  C   UNL     1      -3.566   4.119  -0.081  1.00  0.00     0.157 C 
BRANCH  66  67
ATOM     67  C   UNL     1      -3.737   4.196   1.409  1.00  0.00     0.305 C 
ATOM     68  O   UNL     1      -4.477   3.511   2.099  1.00  0.00    -0.252 OA
BRANCH  67  69
ATOM     69  O   UNL     1      -2.919   5.107   1.971  1.00  0.00    -0.481 OA
ATOM     70  H   UNL     1      -3.521   5.771   2.369  1.00  0.00     0.296 HD
ENDBRANCH  67  69
ENDBRANCH  66  67
ENDBRANCH  56  66
ENDBRANCH  53  56
ENDBRANCH  50  52
ENDBRANCH  47  50
ENDBRANCH  45  46
BRANCH  45  71
ATOM     71  C   UNL     1      -3.557   0.697   5.212  1.00  0.00     0.037 C 
BRANCH  71  72
ATOM     72  C   UNL     1      -3.501  -0.526   6.131  1.00  0.00     0.026 C 
BRANCH  72  73
ATOM     73  C   UNL     1      -4.162  -0.246   7.478  1.00  0.00     0.146 C 
BRANCH  73  74
ATOM     74  N   UNL     1      -3.783   1.101   7.891  1.00  0.00    -0.254 NA
ATOM     75  C   UNL     1      -4.576   1.734   8.674  1.00  0.00     0.185 C 
ATOM     76  N   UNL     1      -4.254   2.975   9.073  1.00  0.00    -0.370 N 
ATOM     77  N   UNL     1      -5.750   1.332   9.192  1.00  0.00    -0.370 N 
ATOM     78  H   UNL     1      -3.387   3.357   8.722  1.00  0.00     0.159 HD
ATOM     79  H   UNL     1      -4.887   3.582   9.563  1.00  0.00     0.159 HD
ATOM     80  H   UNL     1      -6.118   0.417   8.982  1.00  0.00     0.159 HD
ATOM     81  H   UNL     1      -6.232   1.874   9.891  1.00  0.00     0.159 HD
ENDBRANCH  73  74
ENDBRANCH  72  73
ENDBRANCH  71  72
ENDBRANCH  45  71
ENDBRANCH   3  45
TORSDOF 20
ENDMDL
MODEL 25
REMARK VINA RESULT:    -4.726      3.413      8.473
REMARK INTER + INTRA:         -22.046
REMARK INTER:                 -16.956
REMARK INTRA:                  -5.090
REMARK UNBOUND:                -8.478
REMARK SMILES CCCCCC(=O)N[C@H](CC(=O)O)C(=O)N[C@H]1C(=O)N[C@H](CCCN=C(N)N)C(=O)N[C@@H]2CC[C@H](O)N(C2=O)[C@@H](CC(C)C)C(=O)N(C)[C@@H](Cc2ccccc2)C(=O)N[C@H](C(C)C)C(=O)O[C@@H]1C
REMARK SMILES IDX 30 1 31 2 29 3 32 5 35 6 37 7 34 8 38 9 33 10 39 11 36 12
REMARK SMILES IDX 40 14 41 15 42 16 43 17 44 18 45 19 46 20 47 21 48 22 49 23
REMARK SMILES IDX 50 24 51 25 52 26 56 27 53 28 55 29 54 30 57 31 58 32 59 33
REMARK SMILES IDX 60 35 61 36 62 37 63 38 64 39 65 40 66 41 67 42 68 43 21 45
REMARK SMILES IDX 20 46 18 47 19 48 17 50 16 52 14 53 15 54 9 56 8 57 6 58
REMARK SMILES IDX 7 59 5 61 4 62 3 63 2 64 1 65 10 66 11 67 12 68 13 69 22 71
REMARK SMILES IDX 23 72 24 73 25 74 26 75 27 76 28 77
REMARK H PARENT 31 4 36 13 59 34 20 49 16 55 8 60 13 70 27 78 27 79 28 80
REMARK H PARENT 28 81
REMARK Flexibility Score:  259.900
ROOT
ATOM      1  O   UNL     1       4.367   6.339   0.985  1.00  0.00    -0.273 OA
ATOM      2  N   UNL     1       3.696   8.138   2.229  1.00  0.00    -0.343 N 
ATOM      3  C   UNL     1       4.075   7.534   1.049  1.00  0.00     0.243 C 
ATOM      4  H   UNL     1       3.449   9.120   2.241  1.00  0.00     0.164 HD
ENDROOT
BRANCH   2   5
ATOM      5  C   UNL     1       3.741   7.402   3.487  1.00  0.00     0.171 C 
ATOM      6  C   UNL     1       2.956   8.086   6.193  1.00  0.00     0.214 C 
ATOM      7  N   UNL     1       4.309   8.346   5.759  1.00  0.00    -0.303 N 
ATOM      8  C   UNL     1       2.320   6.893   5.498  1.00  0.00     0.057 C 
ATOM      9  C   UNL     1       4.736   8.090   4.466  1.00  0.00     0.247 C 
ATOM     10  C   UNL     1       2.333   7.105   4.000  1.00  0.00     0.040 C 
ATOM     11  O   UNL     1       5.871   8.395   4.077  1.00  0.00    -0.272 OA
BRANCH   6  12
ATOM     12  O   UNL     1       2.199   9.252   5.962  1.00  0.00    -0.373 OA
ATOM     13  H   UNL     1       1.256   9.011   6.085  1.00  0.00     0.213 HD
ENDBRANCH   6  12
BRANCH   7  14
ATOM     14  C   UNL     1       5.198   9.040   6.714  1.00  0.00     0.177 C 
BRANCH  14  15
ATOM     15  C   UNL     1       5.500  10.513   6.378  1.00  0.00     0.038 C 
BRANCH  15  16
ATOM     16  C   UNL     1       4.338  11.529   6.298  1.00  0.00    -0.015 C 
ATOM     17  C   UNL     1       4.086  12.017   4.869  1.00  0.00     0.007 C 
ATOM     18  C   UNL     1       4.655  12.748   7.174  1.00  0.00     0.007 C 
ENDBRANCH  15  16
ENDBRANCH  14  15
BRANCH  14  19
ATOM     19  C   UNL     1       5.003   8.460   8.157  1.00  0.00     0.245 C 
ATOM     20  O   UNL     1       4.648   9.261   9.039  1.00  0.00    -0.272 OA
BRANCH  19  21
ATOM     21  N   UNL     1       5.309   7.159   8.514  1.00  0.00    -0.332 N 
ATOM     22  C   UNL     1       5.870   6.153   7.630  1.00  0.00     0.147 C 
BRANCH  21  23
ATOM     23  C   UNL     1       5.033   6.738   9.915  1.00  0.00     0.178 C 
BRANCH  23  24
ATOM     24  C   UNL     1       4.024   5.580  10.055  1.00  0.00     0.070 C 
BRANCH  24  25
ATOM     25  C   UNL     1       2.646   5.795   9.473  1.00  0.00    -0.045 A 
ATOM     26  C   UNL     1       1.903   6.939   9.791  1.00  0.00     0.004 A 
ATOM     27  C   UNL     1       2.088   4.843   8.606  1.00  0.00     0.004 A 
ATOM     28  C   UNL     1       0.623   7.121   9.263  1.00  0.00     0.000 A 
ATOM     29  C   UNL     1       0.809   5.028   8.078  1.00  0.00     0.000 A 
ATOM     30  C   UNL     1       0.077   6.166   8.409  1.00  0.00     0.000 A 
ENDBRANCH  24  25
ENDBRANCH  23  24
BRANCH  23  31
ATOM     31  C   UNL     1       6.318   6.588  10.764  1.00  0.00     0.243 C 
ATOM     32  O   UNL     1       7.337   6.023  10.374  1.00  0.00    -0.273 OA
ATOM     33  N   UNL     1       6.161   6.986  12.081  1.00  0.00    -0.341 N 
ATOM     34  H   UNL     1       5.287   7.445  12.348  1.00  0.00     0.164 HD
BRANCH  33  35
ATOM     35  C   UNL     1       7.207   6.823  13.095  1.00  0.00     0.194 C 
BRANCH  35  36
ATOM     36  C   UNL     1       8.559   7.495  12.725  1.00  0.00     0.017 C 
ATOM     37  C   UNL     1       9.605   7.296  13.836  1.00  0.00     0.010 C 
ATOM     38  C   UNL     1       8.437   9.003  12.475  1.00  0.00     0.010 C 
ENDBRANCH  35  36
BRANCH  35  39
ATOM     39  C   UNL     1       7.394   5.343  13.529  1.00  0.00     0.329 C 
ATOM     40  O   UNL     1       8.121   4.544  12.950  1.00  0.00    -0.250 OA
BRANCH  39  41
ATOM     41  O   UNL     1       6.722   5.051  14.684  1.00  0.00    -0.458 OA
BRANCH  41  42
ATOM     42  C   UNL     1       7.483   5.150  15.911  1.00  0.00     0.205 CG0
ATOM     43  C   UNL     1       7.749   3.727  16.397  1.00  0.00     0.056 C 
ATOM     44  G   UNL     1       6.672   5.978  16.927  1.00  0.00     0.000 G0
ENDBRANCH  41  42
ENDBRANCH  39  41
ENDBRANCH  35  39
ENDBRANCH  33  35
ENDBRANCH  23  31
ENDBRANCH  21  23
ENDBRANCH  19  21
ENDBRANCH  14  19
ENDBRANCH   7  14
ENDBRANCH   2   5
BRANCH   3  45
ATOM     45  C   UNL     1       4.087   8.449  -0.183  1.00  0.00     0.171 C 
BRANCH  45  46
ATOM     46  N   UNL     1       4.258   7.565  -1.328  1.00  0.00    -0.342 N 
ATOM     47  C   UNL     1       3.199   7.111  -2.074  1.00  0.00     0.247 C 
ATOM     48  O   UNL     1       2.038   7.474  -1.876  1.00  0.00    -0.273 OA
ATOM     49  H   UNL     1       5.209   7.284  -1.562  1.00  0.00     0.164 HD
BRANCH  47  50
ATOM     50  C   UNL     1       3.559   6.091  -3.162  1.00  0.00     0.212 CG0
ATOM     51  G   UNL     1       3.529   6.824  -4.518  1.00  0.00     0.000 G0
BRANCH  50  52
ATOM     52  N   UNL     1       4.885   5.592  -2.805  1.00  0.00    -0.339 N 
ATOM     53  C   UNL     1       5.165   4.261  -2.612  1.00  0.00     0.243 C 
ATOM     54  O   UNL     1       4.304   3.388  -2.674  1.00  0.00    -0.273 OA
ATOM     55  H   UNL     1       5.617   6.278  -2.631  1.00  0.00     0.164 HD
BRANCH  53  56
ATOM     56  C   UNL     1       6.612   3.984  -2.157  1.00  0.00     0.182 C 
BRANCH  56  57
ATOM     57  N   UNL     1       7.578   4.489  -3.138  1.00  0.00    -0.344 N 
ATOM     58  C   UNL     1       8.744   5.114  -2.768  1.00  0.00     0.220 C 
ATOM     59  O   UNL     1       9.024   5.358  -1.600  1.00  0.00    -0.275 OA
ATOM     60  H   UNL     1       7.434   4.219  -4.108  1.00  0.00     0.164 HD
BRANCH  58  61
ATOM     61  C   UNL     1       9.619   5.500  -3.946  1.00  0.00     0.100 C 
BRANCH  61  62
ATOM     62  C   UNL     1       9.175   4.883  -5.273  1.00  0.00     0.010 C 
BRANCH  62  63
ATOM     63  C   UNL     1      10.007   3.670  -5.709  1.00  0.00     0.000 C 
BRANCH  63  64
ATOM     64  C   UNL     1       9.226   2.629  -6.509  1.00  0.00    -0.003 C 
ATOM     65  C   UNL     1       7.821   3.117  -6.831  1.00  0.00     0.004 C 
ENDBRANCH  63  64
ENDBRANCH  62  63
ENDBRANCH  61  62
ENDBRANCH  58  61
ENDBRANCH  56  57
BRANCH  56  66
ATOM     66  C   UNL     1       6.827   2.504  -1.845  1.00  0.00     0.157 C 
BRANCH  66  67
ATOM     67  C   UNL     1       7.377   1.772  -3.036  1.00  0.00     0.305 C 
ATOM     68  O   UNL     1       6.774   1.475  -4.056  1.00  0.00    -0.252 OA
BRANCH  67  69
ATOM     69  O   UNL     1       8.687   1.491  -2.903  1.00  0.00    -0.481 OA
ATOM     70  H   UNL     1       8.925   1.013  -3.725  1.00  0.00     0.296 HD
ENDBRANCH  67  69
ENDBRANCH  66  67
ENDBRANCH  56  66
ENDBRANCH  53  56
ENDBRANCH  50  52
ENDBRANCH  47  50
ENDBRANCH  45  46
BRANCH  45  71
ATOM     71  C   UNL     1       5.226   9.468  -0.080  1.00  0.00     0.037 C 
BRANCH  71  72
ATOM     72  C   UNL     1       6.599   8.818  -0.269  1.00  0.00     0.026 C 
BRANCH  72  73
ATOM     73  C   UNL     1       7.460   8.953   0.985  1.00  0.00     0.146 C 
BRANCH  73  74
ATOM     74  N   UNL     1       8.143  10.242   0.922  1.00  0.00    -0.254 NA
ATOM     75  C   UNL     1       7.912  11.088   1.858  1.00  0.00     0.185 C 
ATOM     76  N   UNL     1       8.526  12.282   1.828  1.00  0.00    -0.370 N 
ATOM     77  N   UNL     1       7.108  10.966   2.928  1.00  0.00    -0.370 N 
ATOM     78  H   UNL     1       9.145  12.459   1.050  1.00  0.00     0.159 HD
ATOM     79  H   UNL     1       8.288  13.043   2.440  1.00  0.00     0.159 HD
ATOM     80  H   UNL     1       6.585  10.118   3.083  1.00  0.00     0.159 HD
ATOM     81  H   UNL     1       7.096  11.656   3.661  1.00  0.00     0.159 HD
ENDBRANCH  73  74
ENDBRANCH  72  73
ENDBRANCH  71  72
ENDBRANCH  45  71
ENDBRANCH   3  45
TORSDOF 20
ENDMDL
MODEL 26
REMARK VINA RESULT:    -4.721      6.509     10.190
REMARK INTER + INTRA:         -22.032
REMARK INTER:                 -13.695
REMARK INTRA:                  -8.337
REMARK UNBOUND:                -8.478
REMARK SMILES CCCCCC(=O)N[C@H](CC(=O)O)C(=O)N[C@H]1C(=O)N[C@H](CCCN=C(N)N)C(=O)N[C@@H]2CC[C@H](O)N(C2=O)[C@@H](CC(C)C)C(=O)N(C)[C@@H](Cc2ccccc2)C(=O)N[C@H](C(C)C)C(=O)O[C@@H]1C
REMARK SMILES IDX 30 1 31 2 29 3 32 5 35 6 37 7 34 8 38 9 33 10 39 11 36 12
REMARK SMILES IDX 40 14 41 15 42 16 43 17 44 18 45 19 46 20 47 21 48 22 49 23
REMARK SMILES IDX 50 24 51 25 52 26 56 27 53 28 55 29 54 30 57 31 58 32 59 33
REMARK SMILES IDX 60 35 61 36 62 37 63 38 64 39 65 40 66 41 67 42 68 43 21 45
REMARK SMILES IDX 20 46 18 47 19 48 17 50 16 52 14 53 15 54 9 56 8 57 6 58
REMARK SMILES IDX 7 59 5 61 4 62 3 63 2 64 1 65 10 66 11 67 12 68 13 69 22 71
REMARK SMILES IDX 23 72 24 73 25 74 26 75 27 76 28 77
REMARK H PARENT 31 4 36 13 59 34 20 49 16 55 8 60 13 70 27 78 27 79 28 80
REMARK H PARENT 28 81
REMARK Flexibility Score:  259.900
ROOT
ATOM      1  O   UNL     1       4.204   4.155  -4.071  1.00  0.00    -0.273 OA
ATOM      2  N   UNL     1       3.405   2.015  -4.197  1.00  0.00    -0.343 N 
ATOM      3  C   UNL     1       4.377   2.976  -4.382  1.00  0.00     0.243 C 
ATOM      4  H   UNL     1       3.588   1.053  -4.452  1.00  0.00     0.164 HD
ENDROOT
BRANCH   2   5
ATOM      5  C   UNL     1       2.074   2.386  -3.729  1.00  0.00     0.171 C 
ATOM      6  C   UNL     1       0.180   1.084  -1.962  1.00  0.00     0.214 C 
ATOM      7  N   UNL     1       0.118   0.829  -3.382  1.00  0.00    -0.303 N 
ATOM      8  C   UNL     1       0.704   2.471  -1.622  1.00  0.00     0.057 C 
ATOM      9  C   UNL     1       1.023   1.378  -4.276  1.00  0.00     0.247 C 
ATOM     10  C   UNL     1       2.078   2.662  -2.227  1.00  0.00     0.040 C 
ATOM     11  O   UNL     1       1.017   1.086  -5.479  1.00  0.00    -0.272 OA
BRANCH   6  12
ATOM     12  O   UNL     1       0.997   0.094  -1.382  1.00  0.00    -0.373 OA
ATOM     13  H   UNL     1       1.273  -0.511  -2.104  1.00  0.00     0.213 HD
ENDBRANCH   6  12
BRANCH   7  14
ATOM     14  C   UNL     1      -0.871  -0.170  -3.841  1.00  0.00     0.177 C 
BRANCH  14  15
ATOM     15  C   UNL     1      -0.324  -1.598  -4.025  1.00  0.00     0.038 C 
BRANCH  15  16
ATOM     16  C   UNL     1      -0.690  -2.395  -5.297  1.00  0.00    -0.015 C 
ATOM     17  C   UNL     1       0.477  -3.244  -5.810  1.00  0.00     0.007 C 
ATOM     18  C   UNL     1      -1.108  -1.429  -6.412  1.00  0.00     0.007 C 
ENDBRANCH  15  16
ENDBRANCH  14  15
BRANCH  14  19
ATOM     19  C   UNL     1      -2.299   0.193  -3.304  1.00  0.00     0.245 C 
ATOM     20  O   UNL     1      -2.644   1.383  -3.393  1.00  0.00    -0.272 OA
BRANCH  19  21
ATOM     21  N   UNL     1      -3.127  -0.702  -2.650  1.00  0.00    -0.332 N 
ATOM     22  C   UNL     1      -4.337  -1.287  -3.200  1.00  0.00     0.147 C 
BRANCH  21  23
ATOM     23  C   UNL     1      -2.764  -1.098  -1.261  1.00  0.00     0.178 C 
BRANCH  23  24
ATOM     24  C   UNL     1      -3.363  -0.202  -0.157  1.00  0.00     0.070 C 
BRANCH  24  25
ATOM     25  C   UNL     1      -2.403   0.672   0.615  1.00  0.00    -0.045 A 
ATOM     26  C   UNL     1      -2.491   2.069   0.546  1.00  0.00     0.004 A 
ATOM     27  C   UNL     1      -1.402   0.094   1.410  1.00  0.00     0.004 A 
ATOM     28  C   UNL     1      -1.589   2.870   1.249  1.00  0.00     0.000 A 
ATOM     29  C   UNL     1      -0.502   0.897   2.113  1.00  0.00     0.000 A 
ATOM     30  C   UNL     1      -0.594   2.284   2.030  1.00  0.00     0.000 A 
ENDBRANCH  24  25
ENDBRANCH  23  24
BRANCH  23  31
ATOM     31  C   UNL     1      -2.902  -2.619  -1.012  1.00  0.00     0.243 C 
ATOM     32  O   UNL     1      -2.175  -3.467  -1.522  1.00  0.00    -0.273 OA
ATOM     33  N   UNL     1      -4.041  -2.962  -0.303  1.00  0.00    -0.341 N 
ATOM     34  H   UNL     1      -4.611  -2.211   0.093  1.00  0.00     0.164 HD
BRANCH  33  35
ATOM     35  C   UNL     1      -4.438  -4.351  -0.053  1.00  0.00     0.194 C 
BRANCH  35  36
ATOM     36  C   UNL     1      -5.674  -4.816  -0.875  1.00  0.00     0.017 C 
ATOM     37  C   UNL     1      -5.355  -4.875  -2.379  1.00  0.00     0.010 C 
ATOM     38  C   UNL     1      -6.894  -3.903  -0.700  1.00  0.00     0.010 C 
ENDBRANCH  35  36
BRANCH  35  39
ATOM     39  C   UNL     1      -4.597  -4.663   1.461  1.00  0.00     0.329 C 
ATOM     40  O   UNL     1      -4.691  -3.807   2.332  1.00  0.00    -0.250 OA
BRANCH  39  41
ATOM     41  O   UNL     1      -4.708  -6.004   1.706  1.00  0.00    -0.458 OA
BRANCH  41  42
ATOM     42  C   UNL     1      -5.725  -6.400   2.657  1.00  0.00     0.205 CG0
ATOM     43  C   UNL     1      -6.991  -6.717   1.863  1.00  0.00     0.056 C 
ATOM     44  G   UNL     1      -5.933  -5.250   3.663  1.00  0.00     0.000 G0
ENDBRANCH  41  42
ENDBRANCH  39  41
ENDBRANCH  35  39
ENDBRANCH  33  35
ENDBRANCH  23  31
ENDBRANCH  21  23
ENDBRANCH  19  21
ENDBRANCH  14  19
ENDBRANCH   7  14
ENDBRANCH   2   5
BRANCH   3  45
ATOM     45  C   UNL     1       5.695   2.470  -4.982  1.00  0.00     0.171 C 
BRANCH  45  46
ATOM     46  N   UNL     1       6.065   3.446  -5.998  1.00  0.00    -0.342 N 
ATOM     47  C   UNL     1       7.133   4.294  -5.850  1.00  0.00     0.247 C 
ATOM     48  O   UNL     1       7.897   4.245  -4.886  1.00  0.00    -0.273 OA
ATOM     49  H   UNL     1       5.492   3.482  -6.840  1.00  0.00     0.164 HD
BRANCH  47  50
ATOM     50  C   UNL     1       7.295   5.337  -6.966  1.00  0.00     0.212 CG0
ATOM     51  G   UNL     1       7.731   4.591  -8.243  1.00  0.00     0.000 G0
BRANCH  50  52
ATOM     52  N   UNL     1       5.990   5.980  -7.090  1.00  0.00    -0.339 N 
ATOM     53  C   UNL     1       5.050   5.610  -8.022  1.00  0.00     0.243 C 
ATOM     54  O   UNL     1       5.259   4.739  -8.862  1.00  0.00    -0.273 OA
ATOM     55  H   UNL     1       5.800   6.783  -6.495  1.00  0.00     0.164 HD
BRANCH  53  56
ATOM     56  C   UNL     1       3.784   6.489  -8.020  1.00  0.00     0.182 C 
BRANCH  56  57
ATOM     57  N   UNL     1       2.711   5.866  -7.238  1.00  0.00    -0.344 N 
ATOM     58  C   UNL     1       2.396   6.275  -5.965  1.00  0.00     0.220 C 
ATOM     59  O   UNL     1       3.033   7.136  -5.367  1.00  0.00    -0.275 OA
ATOM     60  H   UNL     1       2.096   5.223  -7.729  1.00  0.00     0.164 HD
BRANCH  58  61
ATOM     61  C   UNL     1       1.216   5.530  -5.369  1.00  0.00     0.100 C 
BRANCH  61  62
ATOM     62  C   UNL     1      -0.020   6.405  -5.154  1.00  0.00     0.010 C 
BRANCH  62  63
ATOM     63  C   UNL     1      -0.107   7.035  -3.758  1.00  0.00     0.000 C 
BRANCH  63  64
ATOM     64  C   UNL     1       0.304   6.100  -2.621  1.00  0.00    -0.003 C 
ATOM     65  C   UNL     1       1.456   6.680  -1.814  1.00  0.00     0.004 C 
ENDBRANCH  63  64
ENDBRANCH  62  63
ENDBRANCH  61  62
ENDBRANCH  58  61
ENDBRANCH  56  57
BRANCH  56  66
ATOM     66  C   UNL     1       3.337   6.832  -9.440  1.00  0.00     0.157 C 
BRANCH  66  67
ATOM     67  C   UNL     1       2.005   6.216  -9.755  1.00  0.00     0.305 C 
ATOM     68  O   UNL     1       1.785   5.047 -10.033  1.00  0.00    -0.252 OA
BRANCH  67  69
ATOM     69  O   UNL     1       0.995   7.100  -9.651  1.00  0.00    -0.481 OA
ATOM     70  H   UNL     1       1.434   7.975  -9.585  1.00  0.00     0.296 HD
ENDBRANCH  67  69
ENDBRANCH  66  67
ENDBRANCH  56  66
ENDBRANCH  53  56
ENDBRANCH  50  52
ENDBRANCH  47  50
ENDBRANCH  45  46
BRANCH  45  71
ATOM     71  C   UNL     1       5.507   1.072  -5.581  1.00  0.00     0.037 C 
BRANCH  71  72
ATOM     72  C   UNL     1       6.009   0.992  -7.025  1.00  0.00     0.026 C 
BRANCH  72  73
ATOM     73  C   UNL     1       4.868   0.710  -8.000  1.00  0.00     0.146 C 
BRANCH  73  74
ATOM     74  N   UNL     1       3.663   1.341  -7.472  1.00  0.00    -0.254 NA
ATOM     75  C   UNL     1       3.042   2.173  -8.225  1.00  0.00     0.185 C 
ATOM     76  N   UNL     1       1.929   2.768  -7.767  1.00  0.00    -0.370 N 
ATOM     77  N   UNL     1       3.343   2.569  -9.474  1.00  0.00    -0.370 N 
ATOM     78  H   UNL     1       1.636   2.531  -6.830  1.00  0.00     0.159 HD
ATOM     79  H   UNL     1       1.476   3.531  -8.238  1.00  0.00     0.159 HD
ATOM     80  H   UNL     1       4.153   2.200  -9.949  1.00  0.00     0.159 HD
ATOM     81  H   UNL     1       2.715   3.142 -10.012  1.00  0.00     0.159 HD
ENDBRANCH  73  74
ENDBRANCH  72  73
ENDBRANCH  71  72
ENDBRANCH  45  71
ENDBRANCH   3  45
TORSDOF 20
ENDMDL
MODEL 27
REMARK VINA RESULT:    -4.687      5.688      9.104
REMARK INTER + INTRA:         -21.932
REMARK INTER:                 -15.048
REMARK INTRA:                  -6.884
REMARK UNBOUND:                -8.478
REMARK SMILES CCCCCC(=O)N[C@H](CC(=O)O)C(=O)N[C@H]1C(=O)N[C@H](CCCN=C(N)N)C(=O)N[C@@H]2CC[C@H](O)N(C2=O)[C@@H](CC(C)C)C(=O)N(C)[C@@H](Cc2ccccc2)C(=O)N[C@H](C(C)C)C(=O)O[C@@H]1C
REMARK SMILES IDX 30 1 31 2 29 3 32 5 35 6 37 7 34 8 38 9 33 10 39 11 36 12
REMARK SMILES IDX 40 14 41 15 42 16 43 17 44 18 45 19 46 20 47 21 48 22 49 23
REMARK SMILES IDX 50 24 51 25 52 26 56 27 53 28 55 29 54 30 57 31 58 32 59 33
REMARK SMILES IDX 60 35 61 36 62 37 63 38 64 39 65 40 66 41 67 42 68 43 21 45
REMARK SMILES IDX 20 46 18 47 19 48 17 50 16 52 14 53 15 54 9 56 8 57 6 58
REMARK SMILES IDX 7 59 5 61 4 62 3 63 2 64 1 65 10 66 11 67 12 68 13 69 22 71
REMARK SMILES IDX 23 72 24 73 25 74 26 75 27 76 28 77
REMARK H PARENT 31 4 36 13 59 34 20 49 16 55 8 60 13 70 27 78 27 79 28 80
REMARK H PARENT 28 81
REMARK Flexibility Score:  259.900
ROOT
ATOM      1  O   UNL     1       1.886   4.587   0.539  1.00  0.00    -0.273 OA
ATOM      2  N   UNL     1       1.013   5.720  -1.247  1.00  0.00    -0.343 N 
ATOM      3  C   UNL     1       0.903   5.023  -0.062  1.00  0.00     0.243 C 
ATOM      4  H   UNL     1       0.184   6.076  -1.706  1.00  0.00     0.164 HD
ENDROOT
BRANCH   2   5
ATOM      5  C   UNL     1       2.307   5.867  -1.904  1.00  0.00     0.171 C 
ATOM      6  C   UNL     1       4.978   4.981  -1.204  1.00  0.00     0.214 C 
ATOM      7  N   UNL     1       4.526   6.284  -0.773  1.00  0.00    -0.303 N 
ATOM      8  C   UNL     1       4.347   4.527  -2.511  1.00  0.00     0.057 C 
ATOM      9  C   UNL     1       3.246   6.748  -1.029  1.00  0.00     0.247 C 
ATOM     10  C   UNL     1       2.840   4.515  -2.376  1.00  0.00     0.040 C 
ATOM     11  O   UNL     1       2.838   7.828  -0.583  1.00  0.00    -0.272 OA
BRANCH   6  12
ATOM     12  O   UNL     1       4.691   4.064  -0.174  1.00  0.00    -0.373 OA
ATOM     13  H   UNL     1       4.933   3.173  -0.508  1.00  0.00     0.213 HD
ENDBRANCH   6  12
BRANCH   7  14
ATOM     14  C   UNL     1       5.441   7.059   0.090  1.00  0.00     0.177 C 
BRANCH  14  15
ATOM     15  C   UNL     1       6.273   8.136  -0.635  1.00  0.00     0.038 C 
BRANCH  15  16
ATOM     16  C   UNL     1       7.815   8.086  -0.558  1.00  0.00    -0.015 C 
ATOM     17  C   UNL     1       8.475   9.236  -1.323  1.00  0.00     0.007 C 
ATOM     18  C   UNL     1       8.321   6.763  -1.147  1.00  0.00     0.007 C 
ENDBRANCH  15  16
ENDBRANCH  14  15
BRANCH  14  19
ATOM     19  C   UNL     1       4.844   7.193   1.533  1.00  0.00     0.245 C 
ATOM     20  O   UNL     1       4.337   6.172   2.026  1.00  0.00    -0.272 OA
BRANCH  19  21
ATOM     21  N   UNL     1       4.754   8.390   2.222  1.00  0.00    -0.332 N 
ATOM     22  C   UNL     1       4.065   9.580   1.756  1.00  0.00     0.147 C 
BRANCH  21  23
ATOM     23  C   UNL     1       5.424   8.482   3.549  1.00  0.00     0.178 C 
BRANCH  23  24
ATOM     24  C   UNL     1       6.450   9.626   3.676  1.00  0.00     0.070 C 
BRANCH  24  25
ATOM     25  C   UNL     1       7.828   9.381   3.105  1.00  0.00    -0.045 A 
ATOM     26  C   UNL     1       8.561  10.425   2.526  1.00  0.00     0.004 A 
ATOM     27  C   UNL     1       8.392   8.097   3.144  1.00  0.00     0.004 A 
ATOM     28  C   UNL     1       9.826  10.187   1.986  1.00  0.00     0.000 A 
ATOM     29  C   UNL     1       9.657   7.861   2.605  1.00  0.00     0.000 A 
ATOM     30  C   UNL     1      10.372   8.906   2.024  1.00  0.00     0.000 A 
ENDBRANCH  24  25
ENDBRANCH  23  24
BRANCH  23  31
ATOM     31  C   UNL     1       4.436   8.358   4.734  1.00  0.00     0.243 C 
ATOM     32  O   UNL     1       4.400   9.138   5.682  1.00  0.00    -0.273 OA
ATOM     33  N   UNL     1       3.713   7.177   4.730  1.00  0.00    -0.341 N 
ATOM     34  H   UNL     1       3.790   6.564   3.914  1.00  0.00     0.164 HD
BRANCH  33  35
ATOM     35  C   UNL     1       2.806   6.792   5.815  1.00  0.00     0.194 C 
BRANCH  35  36
ATOM     36  C   UNL     1       3.261   5.533   6.605  1.00  0.00     0.017 C 
ATOM     37  C   UNL     1       3.794   5.910   7.999  1.00  0.00     0.010 C 
ATOM     38  C   UNL     1       4.362   4.737   5.893  1.00  0.00     0.010 C 
ENDBRANCH  35  36
BRANCH  35  39
ATOM     39  C   UNL     1       1.328   6.681   5.348  1.00  0.00     0.329 C 
ATOM     40  O   UNL     1       0.556   7.631   5.283  1.00  0.00    -0.250 OA
BRANCH  39  41
ATOM     41  O   UNL     1       1.007   5.418   4.933  1.00  0.00    -0.458 OA
BRANCH  41  42
ATOM     42  C   UNL     1      -0.337   4.968   5.230  1.00  0.00     0.205 CG0
ATOM     43  C   UNL     1      -0.329   4.429   6.659  1.00  0.00     0.056 C 
ATOM     44  G   UNL     1      -0.735   3.896   4.197  1.00  0.00     0.000 G0
ENDBRANCH  41  42
ENDBRANCH  39  41
ENDBRANCH  35  39
ENDBRANCH  33  35
ENDBRANCH  23  31
ENDBRANCH  21  23
ENDBRANCH  19  21
ENDBRANCH  14  19
ENDBRANCH   7  14
ENDBRANCH   2   5
BRANCH   3  45
ATOM     45  C   UNL     1      -0.527   4.847   0.466  1.00  0.00     0.171 C 
BRANCH  45  46
ATOM     46  N   UNL     1      -0.390   4.197   1.762  1.00  0.00    -0.342 N 
ATOM     47  C   UNL     1      -1.088   4.609   2.870  1.00  0.00     0.247 C 
ATOM     48  O   UNL     1      -1.931   5.506   2.833  1.00  0.00    -0.273 OA
ATOM     49  H   UNL     1       0.256   3.412   1.824  1.00  0.00     0.164 HD
BRANCH  47  50
ATOM     50  C   UNL     1      -0.723   3.886   4.174  1.00  0.00     0.212 CG0
ATOM     51  G   UNL     1      -0.365   4.961   5.219  1.00  0.00     0.000 G0
BRANCH  50  52
ATOM     52  N   UNL     1      -1.904   3.105   4.531  1.00  0.00    -0.339 N 
ATOM     53  C   UNL     1      -2.128   1.826   4.084  1.00  0.00     0.243 C 
ATOM     54  O   UNL     1      -1.371   1.256   3.302  1.00  0.00    -0.273 OA
ATOM     55  H   UNL     1      -2.624   3.563   5.087  1.00  0.00     0.164 HD
BRANCH  53  56
ATOM     56  C   UNL     1      -3.483   1.236   4.522  1.00  0.00     0.182 C 
BRANCH  56  57
ATOM     57  N   UNL     1      -3.797   0.019   3.766  1.00  0.00    -0.344 N 
ATOM     58  C   UNL     1      -4.730  -0.894   4.194  1.00  0.00     0.220 C 
ATOM     59  O   UNL     1      -5.310  -0.794   5.270  1.00  0.00    -0.275 OA
ATOM     60  H   UNL     1      -3.416  -0.050   2.826  1.00  0.00     0.164 HD
BRANCH  58  61
ATOM     61  C   UNL     1      -4.934  -2.044   3.226  1.00  0.00     0.100 C 
BRANCH  61  62
ATOM     62  C   UNL     1      -4.123  -1.916   1.936  1.00  0.00     0.010 C 
BRANCH  62  63
ATOM     63  C   UNL     1      -4.453  -2.977   0.879  1.00  0.00     0.000 C 
BRANCH  63  64
ATOM     64  C   UNL     1      -3.671  -4.280   1.033  1.00  0.00    -0.003 C 
ATOM     65  C   UNL     1      -2.190  -4.015   1.261  1.00  0.00     0.004 C 
ENDBRANCH  63  64
ENDBRANCH  62  63
ENDBRANCH  61  62
ENDBRANCH  58  61
ENDBRANCH  56  57
BRANCH  56  66
ATOM     66  C   UNL     1      -4.601   2.274   4.434  1.00  0.00     0.157 C 
BRANCH  66  67
ATOM     67  C   UNL     1      -4.896   2.636   3.007  1.00  0.00     0.305 C 
ATOM     68  O   UNL     1      -5.483   1.950   2.184  1.00  0.00    -0.252 OA
BRANCH  67  69
ATOM     69  O   UNL     1      -4.478   3.878   2.697  1.00  0.00    -0.481 OA
ATOM     70  H   UNL     1      -4.491   4.366   3.547  1.00  0.00     0.296 HD
ENDBRANCH  67  69
ENDBRANCH  66  67
ENDBRANCH  56  66
ENDBRANCH  53  56
ENDBRANCH  50  52
ENDBRANCH  47  50
ENDBRANCH  45  46
BRANCH  45  71
ATOM     71  C   UNL     1      -1.355   4.000  -0.507  1.00  0.00     0.037 C 
BRANCH  71  72
ATOM     72  C   UNL     1      -0.525   2.886  -1.150  1.00  0.00     0.026 C 
BRANCH  72  73
ATOM     73  C   UNL     1      -1.240   1.539  -1.071  1.00  0.00     0.146 C 
BRANCH  73  74
ATOM     74  N   UNL     1      -0.888   0.920   0.203  1.00  0.00    -0.254 NA
ATOM     75  C   UNL     1      -0.782  -0.357   0.241  1.00  0.00     0.185 C 
ATOM     76  N   UNL     1      -0.458  -0.955   1.399  1.00  0.00    -0.370 N 
ATOM     77  N   UNL     1      -0.954  -1.248  -0.751  1.00  0.00    -0.370 N 
ATOM     78  H   UNL     1      -0.318  -0.355   2.200  1.00  0.00     0.159 HD
ATOM     79  H   UNL     1      -0.499  -1.949   1.539  1.00  0.00     0.159 HD
ATOM     80  H   UNL     1      -1.197  -0.941  -1.681  1.00  0.00     0.159 HD
ATOM     81  H   UNL     1      -0.730  -2.222  -0.630  1.00  0.00     0.159 HD
ENDBRANCH  73  74
ENDBRANCH  72  73
ENDBRANCH  71  72
ENDBRANCH  45  71
ENDBRANCH   3  45
TORSDOF 20
ENDMDL
MODEL 28
REMARK VINA RESULT:    -4.662      4.735      9.071
REMARK INTER + INTRA:         -21.861
REMARK INTER:                 -15.436
REMARK INTRA:                  -6.425
REMARK UNBOUND:                -8.478
REMARK SMILES CCCCCC(=O)N[C@H](CC(=O)O)C(=O)N[C@H]1C(=O)N[C@H](CCCN=C(N)N)C(=O)N[C@@H]2CC[C@H](O)N(C2=O)[C@@H](CC(C)C)C(=O)N(C)[C@@H](Cc2ccccc2)C(=O)N[C@H](C(C)C)C(=O)O[C@@H]1C
REMARK SMILES IDX 30 1 31 2 29 3 32 5 35 6 37 7 34 8 38 9 33 10 39 11 36 12
REMARK SMILES IDX 40 14 41 15 42 16 43 17 44 18 45 19 46 20 47 21 48 22 49 23
REMARK SMILES IDX 50 24 51 25 52 26 56 27 53 28 55 29 54 30 57 31 58 32 59 33
REMARK SMILES IDX 60 35 61 36 62 37 63 38 64 39 65 40 66 41 67 42 68 43 21 45
REMARK SMILES IDX 20 46 18 47 19 48 17 50 16 52 14 53 15 54 9 56 8 57 6 58
REMARK SMILES IDX 7 59 5 61 4 62 3 63 2 64 1 65 10 66 11 67 12 68 13 69 22 71
REMARK SMILES IDX 23 72 24 73 25 74 26 75 27 76 28 77
REMARK H PARENT 31 4 36 13 59 34 20 49 16 55 8 60 13 70 27 78 27 79 28 80
REMARK H PARENT 28 81
REMARK Flexibility Score:  259.900
ROOT
ATOM      1  O   UNL     1      -0.303   5.273   2.380  1.00  0.00    -0.273 OA
ATOM      2  N   UNL     1      -1.077   3.200   2.957  1.00  0.00    -0.343 N 
ATOM      3  C   UNL     1      -0.548   4.108   2.065  1.00  0.00     0.243 C 
ATOM      4  H   UNL     1      -1.252   2.246   2.666  1.00  0.00     0.164 HD
ENDROOT
BRANCH   2   5
ATOM      5  C   UNL     1      -1.485   3.621   4.292  1.00  0.00     0.171 C 
ATOM      6  C   UNL     1      -1.429   6.185   5.646  1.00  0.00     0.214 C 
ATOM      7  N   UNL     1      -0.299   5.294   5.765  1.00  0.00    -0.303 N 
ATOM      8  C   UNL     1      -2.751   5.457   5.454  1.00  0.00     0.057 C 
ATOM      9  C   UNL     1      -0.239   4.078   5.104  1.00  0.00     0.247 C 
ATOM     10  C   UNL     1      -2.677   4.575   4.227  1.00  0.00     0.040 C 
ATOM     11  O   UNL     1       0.769   3.359   5.143  1.00  0.00    -0.272 OA
BRANCH   6  12
ATOM     12  O   UNL     1      -1.182   7.051   4.562  1.00  0.00    -0.373 OA
ATOM     13  H   UNL     1      -0.237   6.946   4.320  1.00  0.00     0.213 HD
ENDBRANCH   6  12
BRANCH   7  14
ATOM     14  C   UNL     1       0.874   5.795   6.512  1.00  0.00     0.177 C 
BRANCH  14  15
ATOM     15  C   UNL     1       1.070   5.184   7.913  1.00  0.00     0.038 C 
BRANCH  15  16
ATOM     16  C   UNL     1       1.690   6.042   9.038  1.00  0.00    -0.015 C 
ATOM     17  C   UNL     1       1.836   7.513   8.638  1.00  0.00     0.007 C 
ATOM     18  C   UNL     1       3.080   5.502   9.396  1.00  0.00     0.007 C 
ENDBRANCH  15  16
ENDBRANCH  14  15
BRANCH  14  19
ATOM     19  C   UNL     1       2.026   6.180   5.521  1.00  0.00     0.245 C 
ATOM     20  O   UNL     1       1.736   6.967   4.605  1.00  0.00    -0.272 OA
BRANCH  19  21
ATOM     21  N   UNL     1       3.288   5.613   5.548  1.00  0.00    -0.332 N 
ATOM     22  C   UNL     1       3.573   4.200   5.720  1.00  0.00     0.147 C 
BRANCH  21  23
ATOM     23  C   UNL     1       4.461   6.518   5.401  1.00  0.00     0.178 C 
BRANCH  23  24
ATOM     24  C   UNL     1       5.455   6.483   6.579  1.00  0.00     0.070 C 
BRANCH  24  25
ATOM     25  C   UNL     1       5.483   7.687   7.492  1.00  0.00    -0.045 A 
ATOM     26  C   UNL     1       5.124   8.956   7.019  1.00  0.00     0.004 A 
ATOM     27  C   UNL     1       5.876   7.550   8.832  1.00  0.00     0.004 A 
ATOM     28  C   UNL     1       5.169  10.066   7.864  1.00  0.00     0.000 A 
ATOM     29  C   UNL     1       5.919   8.661   9.677  1.00  0.00     0.000 A 
ATOM     30  C   UNL     1       5.568   9.918   9.191  1.00  0.00     0.000 A 
ENDBRANCH  24  25
ENDBRANCH  23  24
BRANCH  23  31
ATOM     31  C   UNL     1       5.110   6.442   3.998  1.00  0.00     0.243 C 
ATOM     32  O   UNL     1       6.188   5.901   3.769  1.00  0.00    -0.273 OA
ATOM     33  N   UNL     1       4.456   7.203   3.044  1.00  0.00    -0.341 N 
ATOM     34  H   UNL     1       3.564   7.636   3.297  1.00  0.00     0.164 HD
BRANCH  33  35
ATOM     35  C   UNL     1       4.958   7.376   1.678  1.00  0.00     0.194 C 
BRANCH  35  36
ATOM     36  C   UNL     1       4.686   8.782   1.075  1.00  0.00     0.017 C 
ATOM     37  C   UNL     1       5.971   9.626   1.019  1.00  0.00     0.010 C 
ATOM     38  C   UNL     1       3.643   9.586   1.861  1.00  0.00     0.010 C 
ENDBRANCH  35  36
BRANCH  35  39
ATOM     39  C   UNL     1       4.501   6.237   0.725  1.00  0.00     0.329 C 
ATOM     40  O   UNL     1       5.041   5.139   0.659  1.00  0.00    -0.250 OA
BRANCH  39  41
ATOM     41  O   UNL     1       3.371   6.565   0.028  1.00  0.00    -0.458 OA
BRANCH  41  42
ATOM     42  C   UNL     1       3.271   6.035  -1.316  1.00  0.00     0.205 CG0
ATOM     43  C   UNL     1       3.975   7.020  -2.246  1.00  0.00     0.056 C 
ATOM     44  G   UNL     1       1.780   5.858  -1.665  1.00  0.00     0.000 G0
ENDBRANCH  41  42
ENDBRANCH  39  41
ENDBRANCH  35  39
ENDBRANCH  33  35
ENDBRANCH  23  31
ENDBRANCH  21  23
ENDBRANCH  19  21
ENDBRANCH  14  19
ENDBRANCH   7  14
ENDBRANCH   2   5
BRANCH   3  45
ATOM     45  C   UNL     1      -0.264   3.561   0.660  1.00  0.00     0.171 C 
BRANCH  45  46
ATOM     46  N   UNL     1       0.252   4.689  -0.105  1.00  0.00    -0.342 N 
ATOM     47  C   UNL     1       1.261   4.555  -1.025  1.00  0.00     0.247 C 
ATOM     48  O   UNL     1       1.752   3.466  -1.324  1.00  0.00    -0.273 OA
ATOM     49  H   UNL     1      -0.166   5.601   0.071  1.00  0.00     0.164 HD
BRANCH  47  50
ATOM     50  C   UNL     1       1.758   5.870  -1.641  1.00  0.00     0.212 CG0
ATOM     51  G   UNL     1       3.257   6.004  -1.310  1.00  0.00     0.000 G0
BRANCH  50  52
ATOM     52  N   UNL     1       1.491   5.755  -3.073  1.00  0.00    -0.339 N 
ATOM     53  C   UNL     1       0.452   6.396  -3.702  1.00  0.00     0.243 C 
ATOM     54  O   UNL     1      -0.370   7.078  -3.095  1.00  0.00    -0.273 OA
ATOM     55  H   UNL     1       2.071   5.115  -3.612  1.00  0.00     0.164 HD
BRANCH  53  56
ATOM     56  C   UNL     1       0.319   6.055  -5.200  1.00  0.00     0.182 C 
BRANCH  56  57
ATOM     57  N   UNL     1      -0.634   4.959  -5.407  1.00  0.00    -0.344 N 
ATOM     58  C   UNL     1      -1.597   4.997  -6.386  1.00  0.00     0.220 C 
ATOM     59  O   UNL     1      -1.776   5.975  -7.104  1.00  0.00    -0.275 OA
ATOM     60  H   UNL     1      -0.457   4.094  -4.904  1.00  0.00     0.164 HD
BRANCH  58  61
ATOM     61  C   UNL     1      -2.433   3.732  -6.456  1.00  0.00     0.100 C 
BRANCH  61  62
ATOM     62  C   UNL     1      -3.564   3.683  -5.430  1.00  0.00     0.010 C 
BRANCH  62  63
ATOM     63  C   UNL     1      -4.609   2.592  -5.699  1.00  0.00     0.000 C 
BRANCH  63  64
ATOM     64  C   UNL     1      -4.704   1.530  -4.606  1.00  0.00    -0.003 C 
ATOM     65  C   UNL     1      -3.531   1.622  -3.640  1.00  0.00     0.004 C 
ENDBRANCH  63  64
ENDBRANCH  62  63
ENDBRANCH  61  62
ENDBRANCH  58  61
ENDBRANCH  56  57
BRANCH  56  66
ATOM     66  C   UNL     1       1.679   5.763  -5.831  1.00  0.00     0.157 C 
BRANCH  66  67
ATOM     67  C   UNL     1       1.887   4.287  -6.015  1.00  0.00     0.305 C 
ATOM     68  O   UNL     1       2.159   3.472  -5.148  1.00  0.00    -0.252 OA
BRANCH  67  69
ATOM     69  O   UNL     1       1.691   3.898  -7.289  1.00  0.00    -0.481 OA
ATOM     70  H   UNL     1       0.764   3.579  -7.313  1.00  0.00     0.296 HD
ENDBRANCH  67  69
ENDBRANCH  66  67
ENDBRANCH  56  66
ENDBRANCH  53  56
ENDBRANCH  50  52
ENDBRANCH  47  50
ENDBRANCH  45  46
BRANCH  45  71
ATOM     71  C   UNL     1      -1.546   2.995   0.039  1.00  0.00     0.037 C 
BRANCH  71  72
ATOM     72  C   UNL     1      -2.476   4.100  -0.468  1.00  0.00     0.026 C 
BRANCH  72  73
ATOM     73  C   UNL     1      -3.903   3.908   0.042  1.00  0.00     0.146 C 
BRANCH  73  74
ATOM     74  N   UNL     1      -4.195   4.995   0.971  1.00  0.00    -0.254 NA
ATOM     75  C   UNL     1      -5.227   5.720   0.740  1.00  0.00     0.185 C 
ATOM     76  N   UNL     1      -5.523   6.727   1.578  1.00  0.00    -0.370 N 
ATOM     77  N   UNL     1      -6.114   5.630  -0.266  1.00  0.00    -0.370 N 
ATOM     78  H   UNL     1      -4.900   6.869   2.360  1.00  0.00     0.159 HD
ATOM     79  H   UNL     1      -6.223   7.421   1.384  1.00  0.00     0.159 HD
ATOM     80  H   UNL     1      -6.020   4.915  -0.972  1.00  0.00     0.159 HD
ATOM     81  H   UNL     1      -6.954   6.185  -0.281  1.00  0.00     0.159 HD
ENDBRANCH  73  74
ENDBRANCH  72  73
ENDBRANCH  71  72
ENDBRANCH  45  71
ENDBRANCH   3  45
TORSDOF 20
ENDMDL
MODEL 29
REMARK VINA RESULT:    -4.646      7.483     12.715
REMARK INTER + INTRA:         -21.817
REMARK INTER:                 -15.732
REMARK INTRA:                  -6.085
REMARK UNBOUND:                -8.478
REMARK SMILES CCCCCC(=O)N[C@H](CC(=O)O)C(=O)N[C@H]1C(=O)N[C@H](CCCN=C(N)N)C(=O)N[C@@H]2CC[C@H](O)N(C2=O)[C@@H](CC(C)C)C(=O)N(C)[C@@H](Cc2ccccc2)C(=O)N[C@H](C(C)C)C(=O)O[C@@H]1C
REMARK SMILES IDX 30 1 31 2 29 3 32 5 35 6 37 7 34 8 38 9 33 10 39 11 36 12
REMARK SMILES IDX 40 14 41 15 42 16 43 17 44 18 45 19 46 20 47 21 48 22 49 23
REMARK SMILES IDX 50 24 51 25 52 26 56 27 53 28 55 29 54 30 57 31 58 32 59 33
REMARK SMILES IDX 60 35 61 36 62 37 63 38 64 39 65 40 66 41 67 42 68 43 21 45
REMARK SMILES IDX 20 46 18 47 19 48 17 50 16 52 14 53 15 54 9 56 8 57 6 58
REMARK SMILES IDX 7 59 5 61 4 62 3 63 2 64 1 65 10 66 11 67 12 68 13 69 22 71
REMARK SMILES IDX 23 72 24 73 25 74 26 75 27 76 28 77
REMARK H PARENT 31 4 36 13 59 34 20 49 16 55 8 60 13 70 27 78 27 79 28 80
REMARK H PARENT 28 81
REMARK Flexibility Score:  259.900
ROOT
ATOM      1  O   UNL     1      -4.537   2.971   4.714  1.00  0.00    -0.273 OA
ATOM      2  N   UNL     1      -2.457   2.323   5.411  1.00  0.00    -0.343 N 
ATOM      3  C   UNL     1      -3.834   2.251   5.424  1.00  0.00     0.243 C 
ATOM      4  H   UNL     1      -1.910   1.706   5.997  1.00  0.00     0.164 HD
ENDROOT
BRANCH   2   5
ATOM      5  C   UNL     1      -1.775   3.350   4.631  1.00  0.00     0.171 C 
ATOM      6  C   UNL     1       1.013   4.113   4.400  1.00  0.00     0.214 C 
ATOM      7  N   UNL     1       0.179   4.758   5.388  1.00  0.00    -0.303 N 
ATOM      8  C   UNL     1       0.245   3.663   3.167  1.00  0.00     0.057 C 
ATOM      9  C   UNL     1      -1.146   4.406   5.586  1.00  0.00     0.247 C 
ATOM     10  C   UNL     1      -0.870   2.724   3.571  1.00  0.00     0.040 C 
ATOM     11  O   UNL     1      -1.828   4.902   6.492  1.00  0.00    -0.272 OA
BRANCH   6  12
ATOM     12  O   UNL     1       1.640   3.013   5.018  1.00  0.00    -0.373 OA
ATOM     13  H   UNL     1       1.222   2.203   4.656  1.00  0.00     0.213 HD
ENDBRANCH   6  12
BRANCH   7  14
ATOM     14  C   UNL     1       0.839   5.721   6.296  1.00  0.00     0.177 C 
BRANCH  14  15
ATOM     15  C   UNL     1       1.878   5.111   7.256  1.00  0.00     0.038 C 
BRANCH  15  16
ATOM     16  C   UNL     1       1.679   5.250   8.781  1.00  0.00    -0.015 C 
ATOM     17  C   UNL     1       0.379   5.977   9.137  1.00  0.00     0.007 C 
ATOM     18  C   UNL     1       2.849   6.034   9.388  1.00  0.00     0.007 C 
ENDBRANCH  15  16
ENDBRANCH  14  15
BRANCH  14  19
ATOM     19  C   UNL     1       0.952   7.125   5.608  1.00  0.00     0.245 C 
ATOM     20  O   UNL     1       0.001   7.474   4.889  1.00  0.00    -0.272 OA
BRANCH  19  21
ATOM     21  N   UNL     1       2.079   7.925   5.671  1.00  0.00    -0.332 N 
ATOM     22  C   UNL     1       2.370   8.891   6.715  1.00  0.00     0.147 C 
BRANCH  21  23
ATOM     23  C   UNL     1       3.080   7.804   4.575  1.00  0.00     0.178 C 
BRANCH  23  24
ATOM     24  C   UNL     1       2.856   6.610   3.625  1.00  0.00     0.070 C 
BRANCH  24  25
ATOM     25  C   UNL     1       4.003   6.224   2.721  1.00  0.00    -0.045 A 
ATOM     26  C   UNL     1       3.896   6.353   1.330  1.00  0.00     0.004 A 
ATOM     27  C   UNL     1       5.196   5.725   3.265  1.00  0.00     0.004 A 
ATOM     28  C   UNL     1       4.955   5.979   0.500  1.00  0.00     0.000 A 
ATOM     29  C   UNL     1       6.254   5.352   2.434  1.00  0.00     0.000 A 
ATOM     30  C   UNL     1       6.131   5.477   1.052  1.00  0.00     0.000 A 
ENDBRANCH  24  25
ENDBRANCH  23  24
BRANCH  23  31
ATOM     31  C   UNL     1       3.371   9.151   3.871  1.00  0.00     0.243 C 
ATOM     32  O   UNL     1       2.503   9.881   3.399  1.00  0.00    -0.273 OA
ATOM     33  N   UNL     1       4.719   9.380   3.651  1.00  0.00    -0.341 N 
ATOM     34  H   UNL     1       5.395   8.733   4.065  1.00  0.00     0.164 HD
BRANCH  33  35
ATOM     35  C   UNL     1       5.221  10.532   2.897  1.00  0.00     0.194 C 
BRANCH  35  36
ATOM     36  C   UNL     1       6.044  10.155   1.633  1.00  0.00     0.017 C 
ATOM     37  C   UNL     1       5.125   9.728   0.475  1.00  0.00     0.010 C 
ATOM     38  C   UNL     1       7.036   9.011   1.878  1.00  0.00     0.010 C 
ENDBRANCH  35  36
BRANCH  35  39
ATOM     39  C   UNL     1       5.973  11.553   3.796  1.00  0.00     0.329 C 
ATOM     40  O   UNL     1       5.773  11.687   4.998  1.00  0.00    -0.250 OA
BRANCH  39  41
ATOM     41  O   UNL     1       6.949  12.226   3.114  1.00  0.00    -0.458 OA
BRANCH  41  42
ATOM     42  C   UNL     1       6.959  13.666   3.264  1.00  0.00     0.205 CG0
ATOM     43  C   UNL     1       7.751  14.239   2.091  1.00  0.00     0.056 C 
ATOM     44  G   UNL     1       7.589  14.014   4.628  1.00  0.00     0.000 G0
ENDBRANCH  41  42
ENDBRANCH  39  41
ENDBRANCH  35  39
ENDBRANCH  33  35
ENDBRANCH  23  31
ENDBRANCH  21  23
ENDBRANCH  19  21
ENDBRANCH  14  19
ENDBRANCH   7  14
ENDBRANCH   2   5
BRANCH   3  45
ATOM     45  C   UNL     1      -4.427   1.198   6.369  1.00  0.00     0.171 C 
BRANCH  45  46
ATOM     46  N   UNL     1      -4.912   0.127   5.509  1.00  0.00    -0.342 N 
ATOM     47  C   UNL     1      -5.512  -1.002   6.007  1.00  0.00     0.247 C 
ATOM     48  O   UNL     1      -5.750  -1.160   7.205  1.00  0.00    -0.273 OA
ATOM     49  H   UNL     1      -4.786   0.242   4.505  1.00  0.00     0.164 HD
BRANCH  47  50
ATOM     50  C   UNL     1      -5.845  -2.077   4.962  1.00  0.00     0.212 CG0
ATOM     51  G   UNL     1      -7.350  -1.972   4.646  1.00  0.00     0.000 G0
BRANCH  50  52
ATOM     52  N   UNL     1      -4.993  -1.780   3.814  1.00  0.00    -0.339 N 
ATOM     53  C   UNL     1      -5.232  -2.263   2.550  1.00  0.00     0.243 C 
ATOM     54  O   UNL     1      -6.158  -3.029   2.298  1.00  0.00    -0.273 OA
ATOM     55  H   UNL     1      -4.146  -1.240   3.980  1.00  0.00     0.164 HD
BRANCH  53  56
ATOM     56  C   UNL     1      -4.149  -1.887   1.519  1.00  0.00     0.182 C 
BRANCH  56  57
ATOM     57  N   UNL     1      -4.201  -0.457   1.197  1.00  0.00    -0.344 N 
ATOM     58  C   UNL     1      -3.532   0.488   1.935  1.00  0.00     0.220 C 
ATOM     59  O   UNL     1      -2.906   0.214   2.953  1.00  0.00    -0.275 OA
ATOM     60  H   UNL     1      -4.622  -0.200   0.308  1.00  0.00     0.164 HD
BRANCH  58  61
ATOM     61  C   UNL     1      -3.681   1.895   1.387  1.00  0.00     0.100 C 
BRANCH  61  62
ATOM     62  C   UNL     1      -2.881   2.146   0.108  1.00  0.00     0.010 C 
BRANCH  62  63
ATOM     63  C   UNL     1      -1.556   1.376   0.036  1.00  0.00     0.000 C 
BRANCH  63  64
ATOM     64  C   UNL     1      -0.322   2.263  -0.116  1.00  0.00    -0.003 C 
ATOM     65  C   UNL     1      -0.704   3.684  -0.507  1.00  0.00     0.004 C 
ENDBRANCH  63  64
ENDBRANCH  62  63
ENDBRANCH  61  62
ENDBRANCH  58  61
ENDBRANCH  56  57
BRANCH  56  66
ATOM     66  C   UNL     1      -4.237  -2.762   0.270  1.00  0.00     0.157 C 
BRANCH  66  67
ATOM     67  C   UNL     1      -3.187  -3.836   0.284  1.00  0.00     0.305 C 
ATOM     68  O   UNL     1      -3.336  -5.002   0.619  1.00  0.00    -0.252 OA
BRANCH  67  69
ATOM     69  O   UNL     1      -2.001  -3.399  -0.179  1.00  0.00    -0.481 OA
ATOM     70  H   UNL     1      -1.926  -2.480   0.153  1.00  0.00     0.296 HD
ENDBRANCH  67  69
ENDBRANCH  66  67
ENDBRANCH  56  66
ENDBRANCH  53  56
ENDBRANCH  50  52
ENDBRANCH  47  50
ENDBRANCH  45  46
BRANCH  45  71
ATOM     71  C   UNL     1      -5.558   1.808   7.205  1.00  0.00     0.037 C 
BRANCH  71  72
ATOM     72  C   UNL     1      -5.179   1.932   8.682  1.00  0.00     0.026 C 
BRANCH  72  73
ATOM     73  C   UNL     1      -3.774   1.395   8.947  1.00  0.00     0.146 C 
BRANCH  73  74
ATOM     74  N   UNL     1      -3.493   1.561  10.370  1.00  0.00    -0.254 NA
ATOM     75  C   UNL     1      -2.670   2.481  10.715  1.00  0.00     0.185 C 
ATOM     76  N   UNL     1      -2.392   2.659  12.017  1.00  0.00    -0.370 N 
ATOM     77  N   UNL     1      -2.000   3.350   9.938  1.00  0.00    -0.370 N 
ATOM     78  H   UNL     1      -2.850   2.041  12.671  1.00  0.00     0.159 HD
ATOM     79  H   UNL     1      -1.656   3.256  12.349  1.00  0.00     0.159 HD
ATOM     80  H   UNL     1      -2.113   3.336   8.935  1.00  0.00     0.159 HD
ATOM     81  H   UNL     1      -1.466   4.107  10.331  1.00  0.00     0.159 HD
ENDBRANCH  73  74
ENDBRANCH  72  73
ENDBRANCH  71  72
ENDBRANCH  45  71
ENDBRANCH   3  45
TORSDOF 20
ENDMDL
MODEL 30
REMARK VINA RESULT:    -4.642      8.195     11.505
REMARK INTER + INTRA:         -21.804
REMARK INTER:                 -16.091
REMARK INTRA:                  -5.713
REMARK UNBOUND:                -8.478
REMARK SMILES CCCCCC(=O)N[C@H](CC(=O)O)C(=O)N[C@H]1C(=O)N[C@H](CCCN=C(N)N)C(=O)N[C@@H]2CC[C@H](O)N(C2=O)[C@@H](CC(C)C)C(=O)N(C)[C@@H](Cc2ccccc2)C(=O)N[C@H](C(C)C)C(=O)O[C@@H]1C
REMARK SMILES IDX 30 1 31 2 29 3 32 5 35 6 37 7 34 8 38 9 33 10 39 11 36 12
REMARK SMILES IDX 40 14 41 15 42 16 43 17 44 18 45 19 46 20 47 21 48 22 49 23
REMARK SMILES IDX 50 24 51 25 52 26 56 27 53 28 55 29 54 30 57 31 58 32 59 33
REMARK SMILES IDX 60 35 61 36 62 37 63 38 64 39 65 40 66 41 67 42 68 43 21 45
REMARK SMILES IDX 20 46 18 47 19 48 17 50 16 52 14 53 15 54 9 56 8 57 6 58
REMARK SMILES IDX 7 59 5 61 4 62 3 63 2 64 1 65 10 66 11 67 12 68 13 69 22 71
REMARK SMILES IDX 23 72 24 73 25 74 26 75 27 76 28 77
REMARK H PARENT 31 4 36 13 59 34 20 49 16 55 8 60 13 70 27 78 27 79 28 80
REMARK H PARENT 28 81
REMARK Flexibility Score:  259.900
ROOT
ATOM      1  O   UNL     1       0.524   1.165  -4.522  1.00  0.00    -0.273 OA
ATOM      2  N   UNL     1       0.591  -0.358  -2.818  1.00  0.00    -0.343 N 
ATOM      3  C   UNL     1       0.943   0.100  -4.069  1.00  0.00     0.243 C 
ATOM      4  H   UNL     1       0.967  -1.232  -2.472  1.00  0.00     0.164 HD
ENDROOT
BRANCH   2   5
ATOM      5  C   UNL     1      -0.399   0.354  -2.018  1.00  0.00     0.171 C 
ATOM      6  C   UNL     1      -0.923   0.450   0.832  1.00  0.00     0.214 C 
ATOM      7  N   UNL     1      -1.603  -0.530   0.017  1.00  0.00    -0.303 N 
ATOM      8  C   UNL     1      -0.585   1.728   0.080  1.00  0.00     0.057 C 
ATOM      9  C   UNL     1      -1.361  -0.663  -1.340  1.00  0.00     0.247 C 
ATOM     10  C   UNL     1       0.266   1.403  -1.127  1.00  0.00     0.040 C 
ATOM     11  O   UNL     1      -1.883  -1.561  -2.015  1.00  0.00    -0.272 OA
BRANCH   6  12
ATOM     12  O   UNL     1       0.249  -0.148   1.337  1.00  0.00    -0.373 OA
ATOM     13  H   UNL     1       0.742  -0.507   0.568  1.00  0.00     0.213 HD
ENDBRANCH   6  12
BRANCH   7  14
ATOM     14  C   UNL     1      -2.472  -1.498   0.719  1.00  0.00     0.177 C 
BRANCH  14  15
ATOM     15  C   UNL     1      -1.801  -2.836   1.085  1.00  0.00     0.038 C 
BRANCH  15  16
ATOM     16  C   UNL     1      -2.349  -4.151   0.486  1.00  0.00    -0.015 C 
ATOM     17  C   UNL     1      -3.573  -3.921  -0.406  1.00  0.00     0.007 C 
ATOM     18  C   UNL     1      -2.751  -5.108   1.616  1.00  0.00     0.007 C 
ENDBRANCH  15  16
ENDBRANCH  14  15
BRANCH  14  19
ATOM     19  C   UNL     1      -3.529  -0.743   1.597  1.00  0.00     0.245 C 
ATOM     20  O   UNL     1      -3.158  -0.374   2.724  1.00  0.00    -0.272 OA
BRANCH  19  21
ATOM     21  N   UNL     1      -4.853  -0.573   1.233  1.00  0.00    -0.332 N 
ATOM     22  C   UNL     1      -5.320   0.156   0.068  1.00  0.00     0.147 C 
BRANCH  21  23
ATOM     23  C   UNL     1      -5.897  -1.173   2.108  1.00  0.00     0.178 C 
BRANCH  23  24
ATOM     24  C   UNL     1      -5.510  -2.525   2.741  1.00  0.00     0.070 C 
BRANCH  24  25
ATOM     25  C   UNL     1      -6.119  -3.769   2.135  1.00  0.00    -0.045 A 
ATOM     26  C   UNL     1      -6.911  -3.691   0.983  1.00  0.00     0.004 A 
ATOM     27  C   UNL     1      -5.900  -5.023   2.725  1.00  0.00     0.004 A 
ATOM     28  C   UNL     1      -7.484  -4.843   0.438  1.00  0.00     0.000 A 
ATOM     29  C   UNL     1      -6.473  -6.173   2.179  1.00  0.00     0.000 A 
ATOM     30  C   UNL     1      -7.266  -6.081   1.037  1.00  0.00     0.000 A 
ENDBRANCH  24  25
ENDBRANCH  23  24
BRANCH  23  31
ATOM     31  C   UNL     1      -6.526  -0.152   3.086  1.00  0.00     0.243 C 
ATOM     32  O   UNL     1      -7.482   0.567   2.808  1.00  0.00    -0.273 OA
ATOM     33  N   UNL     1      -5.798   0.017   4.252  1.00  0.00    -0.341 N 
ATOM     34  H   UNL     1      -5.007  -0.608   4.426  1.00  0.00     0.164 HD
BRANCH  33  35
ATOM     35  C   UNL     1      -6.138   1.017   5.268  1.00  0.00     0.194 C 
BRANCH  35  36
ATOM     36  C   UNL     1      -4.971   1.979   5.629  1.00  0.00     0.017 C 
ATOM     37  C   UNL     1      -4.300   2.542   4.364  1.00  0.00     0.010 C 
ATOM     38  C   UNL     1      -3.877   1.313   6.471  1.00  0.00     0.010 C 
ENDBRANCH  35  36
BRANCH  35  39
ATOM     39  C   UNL     1      -6.782   0.386   6.535  1.00  0.00     0.329 C 
ATOM     40  O   UNL     1      -6.601  -0.772   6.892  1.00  0.00    -0.250 OA
BRANCH  39  41
ATOM     41  O   UNL     1      -7.507   1.294   7.256  1.00  0.00    -0.458 OA
BRANCH  41  42
ATOM     42  C   UNL     1      -7.454   1.157   8.696  1.00  0.00     0.205 CG0
ATOM     43  C   UNL     1      -6.317   2.046   9.195  1.00  0.00     0.056 C 
ATOM     44  G   UNL     1      -7.235  -0.329   9.042  1.00  0.00     0.000 G0
ENDBRANCH  41  42
ENDBRANCH  39  41
ENDBRANCH  35  39
ENDBRANCH  33  35
ENDBRANCH  23  31
ENDBRANCH  21  23
ENDBRANCH  19  21
ENDBRANCH  14  19
ENDBRANCH   7  14
ENDBRANCH   2   5
BRANCH   3  45
ATOM     45  C   UNL     1       1.911  -0.800  -4.849  1.00  0.00     0.171 C 
BRANCH  45  46
ATOM     46  N   UNL     1       2.323  -0.022  -6.010  1.00  0.00    -0.342 N 
ATOM     47  C   UNL     1       3.642   0.169  -6.338  1.00  0.00     0.247 C 
ATOM     48  O   UNL     1       4.567  -0.360  -5.721  1.00  0.00    -0.273 OA
ATOM     49  H   UNL     1       1.586   0.388  -6.581  1.00  0.00     0.164 HD
BRANCH  47  50
ATOM     50  C   UNL     1       3.887   1.119  -7.519  1.00  0.00     0.212 CG0
ATOM     51  G   UNL     1       3.637   0.325  -8.817  1.00  0.00     0.000 G0
BRANCH  50  52
ATOM     52  N   UNL     1       2.952   2.225  -7.330  1.00  0.00    -0.339 N 
ATOM     53  C   UNL     1       1.704   2.266  -7.902  1.00  0.00     0.243 C 
ATOM     54  O   UNL     1       1.296   1.394  -8.663  1.00  0.00    -0.273 OA
ATOM     55  H   UNL     1       3.275   3.031  -6.798  1.00  0.00     0.164 HD
BRANCH  53  56
ATOM     56  C   UNL     1       0.932   3.573  -7.630  1.00  0.00     0.182 C 
BRANCH  56  57
ATOM     57  N   UNL     1       0.483   3.640  -6.235  1.00  0.00    -0.344 N 
ATOM     58  C   UNL     1       0.651   4.762  -5.461  1.00  0.00     0.220 C 
ATOM     59  O   UNL     1       1.250   5.756  -5.855  1.00  0.00    -0.275 OA
ATOM     60  H   UNL     1      -0.104   2.879  -5.904  1.00  0.00     0.164 HD
BRANCH  58  61
ATOM     61  C   UNL     1       0.059   4.627  -4.070  1.00  0.00     0.100 C 
BRANCH  61  62
ATOM     62  C   UNL     1       1.084   4.782  -2.947  1.00  0.00     0.010 C 
BRANCH  62  63
ATOM     63  C   UNL     1       2.272   3.816  -3.043  1.00  0.00     0.000 C 
BRANCH  63  64
ATOM     64  C   UNL     1       3.084   3.692  -1.755  1.00  0.00    -0.003 C 
ATOM     65  C   UNL     1       4.575   3.845  -2.022  1.00  0.00     0.004 C 
ENDBRANCH  63  64
ENDBRANCH  62  63
ENDBRANCH  61  62
ENDBRANCH  58  61
ENDBRANCH  56  57
BRANCH  56  66
ATOM     66  C   UNL     1      -0.221   3.758  -8.616  1.00  0.00     0.157 C 
BRANCH  66  67
ATOM     67  C   UNL     1      -0.543   5.212  -8.809  1.00  0.00     0.305 C 
ATOM     68  O   UNL     1       0.031   5.998  -9.546  1.00  0.00    -0.252 OA
BRANCH  67  69
ATOM     69  O   UNL     1      -1.618   5.596  -8.095  1.00  0.00    -0.481 OA
ATOM     70  H   UNL     1      -2.356   5.050  -8.439  1.00  0.00     0.296 HD
ENDBRANCH  67  69
ENDBRANCH  66  67
ENDBRANCH  56  66
ENDBRANCH  53  56
ENDBRANCH  50  52
ENDBRANCH  47  50
ENDBRANCH  45  46
BRANCH  45  71
ATOM     71  C   UNL     1       1.215  -2.103  -5.260  1.00  0.00     0.037 C 
BRANCH  71  72
ATOM     72  C   UNL     1       1.756  -3.311  -4.492  1.00  0.00     0.026 C 
BRANCH  72  73
ATOM     73  C   UNL     1       0.835  -4.521  -4.631  1.00  0.00     0.146 C 
BRANCH  73  74
ATOM     74  N   UNL     1       1.466  -5.460  -5.553  1.00  0.00    -0.254 NA
ATOM     75  C   UNL     1       2.335  -6.274  -5.079  1.00  0.00     0.185 C 
ATOM     76  N   UNL     1       2.933  -7.150  -5.902  1.00  0.00    -0.370 N 
ATOM     77  N   UNL     1       2.772  -6.400  -3.813  1.00  0.00    -0.370 N 
ATOM     78  H   UNL     1       2.666  -7.117  -6.876  1.00  0.00     0.159 HD
ATOM     79  H   UNL     1       3.720  -7.713  -5.635  1.00  0.00     0.159 HD
ATOM     80  H   UNL     1       2.407  -5.808  -3.082  1.00  0.00     0.159 HD
ATOM     81  H   UNL     1       3.376  -7.156  -3.536  1.00  0.00     0.159 HD
ENDBRANCH  73  74
ENDBRANCH  72  73
ENDBRANCH  71  72
ENDBRANCH  45  71
ENDBRANCH   3  45
TORSDOF 20
ENDMDL
MODEL 31
REMARK VINA RESULT:    -4.633      3.824      8.660
REMARK INTER + INTRA:         -21.779
REMARK INTER:                 -16.223
REMARK INTRA:                  -5.556
REMARK UNBOUND:                -8.478
REMARK SMILES CCCCCC(=O)N[C@H](CC(=O)O)C(=O)N[C@H]1C(=O)N[C@H](CCCN=C(N)N)C(=O)N[C@@H]2CC[C@H](O)N(C2=O)[C@@H](CC(C)C)C(=O)N(C)[C@@H](Cc2ccccc2)C(=O)N[C@H](C(C)C)C(=O)O[C@@H]1C
REMARK SMILES IDX 30 1 31 2 29 3 32 5 35 6 37 7 34 8 38 9 33 10 39 11 36 12
REMARK SMILES IDX 40 14 41 15 42 16 43 17 44 18 45 19 46 20 47 21 48 22 49 23
REMARK SMILES IDX 50 24 51 25 52 26 56 27 53 28 55 29 54 30 57 31 58 32 59 33
REMARK SMILES IDX 60 35 61 36 62 37 63 38 64 39 65 40 66 41 67 42 68 43 21 45
REMARK SMILES IDX 20 46 18 47 19 48 17 50 16 52 14 53 15 54 9 56 8 57 6 58
REMARK SMILES IDX 7 59 5 61 4 62 3 63 2 64 1 65 10 66 11 67 12 68 13 69 22 71
REMARK SMILES IDX 23 72 24 73 25 74 26 75 27 76 28 77
REMARK H PARENT 31 4 36 13 59 34 20 49 16 55 8 60 13 70 27 78 27 79 28 80
REMARK H PARENT 28 81
REMARK Flexibility Score:  259.900
ROOT
ATOM      1  O   UNL     1       4.517   6.498   1.652  1.00  0.00    -0.273 OA
ATOM      2  N   UNL     1       3.566   8.416   2.458  1.00  0.00    -0.343 N 
ATOM      3  C   UNL     1       4.178   7.669   1.474  1.00  0.00     0.243 C 
ATOM      4  H   UNL     1       3.288   9.371   2.271  1.00  0.00     0.164 HD
ENDROOT
BRANCH   2   5
ATOM      5  C   UNL     1       3.402   7.879   3.804  1.00  0.00     0.171 C 
ATOM      6  C   UNL     1       2.627   9.091   6.321  1.00  0.00     0.214 C 
ATOM      7  N   UNL     1       4.025   9.026   5.964  1.00  0.00    -0.303 N 
ATOM      8  C   UNL     1       1.806   7.947   5.746  1.00  0.00     0.057 C 
ATOM      9  C   UNL     1       4.460   8.507   4.756  1.00  0.00     0.247 C 
ATOM     10  C   UNL     1       1.938   7.929   4.239  1.00  0.00     0.040 C 
ATOM     11  O   UNL     1       5.651   8.534   4.421  1.00  0.00    -0.272 OA
BRANCH   6  12
ATOM     12  O   UNL     1       2.125  10.329   5.875  1.00  0.00    -0.373 OA
ATOM     13  H   UNL     1       1.746  10.784   6.658  1.00  0.00     0.213 HD
ENDBRANCH   6  12
BRANCH   7  14
ATOM     14  C   UNL     1       4.982   9.676   6.885  1.00  0.00     0.177 C 
BRANCH  14  15
ATOM     15  C   UNL     1       5.185  11.187   6.660  1.00  0.00     0.038 C 
BRANCH  15  16
ATOM     16  C   UNL     1       6.036  11.672   5.465  1.00  0.00    -0.015 C 
ATOM     17  C   UNL     1       7.072  12.723   5.874  1.00  0.00     0.007 C 
ATOM     18  C   UNL     1       5.125  12.286   4.395  1.00  0.00     0.007 C 
ENDBRANCH  15  16
ENDBRANCH  14  15
BRANCH  14  19
ATOM     19  C   UNL     1       4.967   8.960   8.279  1.00  0.00     0.245 C 
ATOM     20  O   UNL     1       4.857   9.688   9.280  1.00  0.00    -0.272 OA
BRANCH  19  21
ATOM     21  N   UNL     1       5.180   7.604   8.452  1.00  0.00    -0.332 N 
ATOM     22  C   UNL     1       5.871   6.733   7.518  1.00  0.00     0.147 C 
BRANCH  21  23
ATOM     23  C   UNL     1       4.651   6.969   9.691  1.00  0.00     0.178 C 
BRANCH  23  24
ATOM     24  C   UNL     1       3.951   5.612   9.473  1.00  0.00     0.070 C 
BRANCH  24  25
ATOM     25  C   UNL     1       2.525   5.645   8.975  1.00  0.00    -0.045 A 
ATOM     26  C   UNL     1       1.569   6.462   9.592  1.00  0.00     0.004 A 
ATOM     27  C   UNL     1       2.137   4.850   7.887  1.00  0.00     0.004 A 
ATOM     28  C   UNL     1       0.249   6.474   9.136  1.00  0.00     0.000 A 
ATOM     29  C   UNL     1       0.817   4.864   7.432  1.00  0.00     0.000 A 
ATOM     30  C   UNL     1      -0.127   5.674   8.059  1.00  0.00     0.000 A 
ENDBRANCH  24  25
ENDBRANCH  23  24
BRANCH  23  31
ATOM     31  C   UNL     1       5.660   7.001  10.863  1.00  0.00     0.243 C 
ATOM     32  O   UNL     1       6.558   6.177  11.020  1.00  0.00    -0.273 OA
ATOM     33  N   UNL     1       5.351   7.939  11.834  1.00  0.00    -0.341 N 
ATOM     34  H   UNL     1       4.588   8.595  11.649  1.00  0.00     0.164 HD
BRANCH  33  35
ATOM     35  C   UNL     1       6.098   8.066  13.089  1.00  0.00     0.194 C 
BRANCH  35  36
ATOM     36  C   UNL     1       7.642   8.108  12.907  1.00  0.00     0.017 C 
ATOM     37  C   UNL     1       8.364   8.125  14.265  1.00  0.00     0.010 C 
ATOM     38  C   UNL     1       8.124   9.330  12.115  1.00  0.00     0.010 C 
ENDBRANCH  35  36
BRANCH  35  39
ATOM     39  C   UNL     1       5.667   7.016  14.150  1.00  0.00     0.329 C 
ATOM     40  O   UNL     1       5.957   5.826  14.096  1.00  0.00    -0.250 OA
BRANCH  39  41
ATOM     41  O   UNL     1       4.999   7.582  15.201  1.00  0.00    -0.458 OA
BRANCH  41  42
ATOM     42  C   UNL     1       5.476   7.239  16.523  1.00  0.00     0.205 CG0
ATOM     43  C   UNL     1       4.278   6.727  17.320  1.00  0.00     0.056 C 
ATOM     44  G   UNL     1       6.113   8.491  17.157  1.00  0.00     0.000 G0
ENDBRANCH  41  42
ENDBRANCH  39  41
ENDBRANCH  35  39
ENDBRANCH  33  35
ENDBRANCH  23  31
ENDBRANCH  21  23
ENDBRANCH  19  21
ENDBRANCH  14  19
ENDBRANCH   7  14
ENDBRANCH   2   5
BRANCH   3  45
ATOM     45  C   UNL     1       4.388   8.389   0.136  1.00  0.00     0.171 C 
BRANCH  45  46
ATOM     46  N   UNL     1       4.167   7.382  -0.893  1.00  0.00    -0.342 N 
ATOM     47  C   UNL     1       2.936   7.168  -1.461  1.00  0.00     0.247 C 
ATOM     48  O   UNL     1       1.950   7.857  -1.199  1.00  0.00    -0.273 OA
ATOM     49  H   UNL     1       4.970   6.827  -1.181  1.00  0.00     0.164 HD
BRANCH  47  50
ATOM     50  C   UNL     1       2.868   5.983  -2.436  1.00  0.00     0.212 CG0
ATOM     51  G   UNL     1       2.716   6.557  -3.859  1.00  0.00     0.000 G0
BRANCH  50  52
ATOM     52  N   UNL     1       4.113   5.246  -2.240  1.00  0.00    -0.339 N 
ATOM     53  C   UNL     1       4.284   3.938  -2.624  1.00  0.00     0.243 C 
ATOM     54  O   UNL     1       3.380   3.268  -3.116  1.00  0.00    -0.273 OA
ATOM     55  H   UNL     1       4.864   5.712  -1.736  1.00  0.00     0.164 HD
BRANCH  53  56
ATOM     56  C   UNL     1       5.654   3.345  -2.236  1.00  0.00     0.182 C 
BRANCH  56  57
ATOM     57  N   UNL     1       6.351   4.211  -1.280  1.00  0.00    -0.344 N 
ATOM     58  C   UNL     1       6.624   3.817   0.007  1.00  0.00     0.220 C 
ATOM     59  O   UNL     1       6.241   2.747   0.468  1.00  0.00    -0.275 OA
ATOM     60  H   UNL     1       6.773   5.059  -1.650  1.00  0.00     0.164 HD
BRANCH  58  61
ATOM     61  C   UNL     1       7.405   4.849   0.799  1.00  0.00     0.100 C 
BRANCH  61  62
ATOM     62  C   UNL     1       8.043   5.936  -0.066  1.00  0.00     0.010 C 
BRANCH  62  63
ATOM     63  C   UNL     1       8.526   7.161   0.722  1.00  0.00     0.000 C 
BRANCH  63  64
ATOM     64  C   UNL     1       8.183   7.125   2.210  1.00  0.00    -0.003 C 
ATOM     65  C   UNL     1       9.080   8.059   3.009  1.00  0.00     0.004 C 
ENDBRANCH  63  64
ENDBRANCH  62  63
ENDBRANCH  61  62
ENDBRANCH  58  61
ENDBRANCH  56  57
BRANCH  56  66
ATOM     66  C   UNL     1       6.504   3.045  -3.470  1.00  0.00     0.157 C 
BRANCH  66  67
ATOM     67  C   UNL     1       7.827   2.447  -3.087  1.00  0.00     0.305 C 
ATOM     68  O   UNL     1       8.876   3.044  -2.902  1.00  0.00    -0.252 OA
BRANCH  67  69
ATOM     69  O   UNL     1       7.751   1.115  -2.902  1.00  0.00    -0.481 OA
ATOM     70  H   UNL     1       8.589   0.877  -2.452  1.00  0.00     0.296 HD
ENDBRANCH  67  69
ENDBRANCH  66  67
ENDBRANCH  56  66
ENDBRANCH  53  56
ENDBRANCH  50  52
ENDBRANCH  47  50
ENDBRANCH  45  46
BRANCH  45  71
ATOM     71  C   UNL     1       5.803   8.974   0.061  1.00  0.00     0.037 C 
BRANCH  71  72
ATOM     72  C   UNL     1       6.020  10.092   1.084  1.00  0.00     0.026 C 
BRANCH  72  73
ATOM     73  C   UNL     1       7.319  10.850   0.819  1.00  0.00     0.146 C 
BRANCH  73  74
ATOM     74  N   UNL     1       7.542  11.760   1.938  1.00  0.00    -0.254 NA
ATOM     75  C   UNL     1       7.907  12.959   1.671  1.00  0.00     0.185 C 
ATOM     76  N   UNL     1       8.119  13.820   2.680  1.00  0.00    -0.370 N 
ATOM     77  N   UNL     1       8.126  13.529   0.473  1.00  0.00    -0.370 N 
ATOM     78  H   UNL     1       7.984  13.469   3.617  1.00  0.00     0.159 HD
ATOM     79  H   UNL     1       8.543  14.723   2.557  1.00  0.00     0.159 HD
ATOM     80  H   UNL     1       8.002  13.001  -0.377  1.00  0.00     0.159 HD
ATOM     81  H   UNL     1       8.299  14.517   0.382  1.00  0.00     0.159 HD
ENDBRANCH  73  74
ENDBRANCH  72  73
ENDBRANCH  71  72
ENDBRANCH  45  71
ENDBRANCH   3  45
TORSDOF 20
ENDMDL
MODEL 32
REMARK VINA RESULT:    -4.590      6.718     13.990
REMARK INTER + INTRA:         -21.655
REMARK INTER:                 -14.790
REMARK INTRA:                  -6.865
REMARK UNBOUND:                -8.478
REMARK SMILES CCCCCC(=O)N[C@H](CC(=O)O)C(=O)N[C@H]1C(=O)N[C@H](CCCN=C(N)N)C(=O)N[C@@H]2CC[C@H](O)N(C2=O)[C@@H](CC(C)C)C(=O)N(C)[C@@H](Cc2ccccc2)C(=O)N[C@H](C(C)C)C(=O)O[C@@H]1C
REMARK SMILES IDX 30 1 31 2 29 3 32 5 35 6 37 7 34 8 38 9 33 10 39 11 36 12
REMARK SMILES IDX 40 14 41 15 42 16 43 17 44 18 45 19 46 20 47 21 48 22 49 23
REMARK SMILES IDX 50 24 51 25 52 26 56 27 53 28 55 29 54 30 57 31 58 32 59 33
REMARK SMILES IDX 60 35 61 36 62 37 63 38 64 39 65 40 66 41 67 42 68 43 21 45
REMARK SMILES IDX 20 46 18 47 19 48 17 50 16 52 14 53 15 54 9 56 8 57 6 58
REMARK SMILES IDX 7 59 5 61 4 62 3 63 2 64 1 65 10 66 11 67 12 68 13 69 22 71
REMARK SMILES IDX 23 72 24 73 25 74 26 75 27 76 28 77
REMARK H PARENT 31 4 36 13 59 34 20 49 16 55 8 60 13 70 27 78 27 79 28 80
REMARK H PARENT 28 81
REMARK Flexibility Score:  259.900
ROOT
ATOM      1  O   UNL     1      -3.830   1.701   2.514  1.00  0.00    -0.273 OA
ATOM      2  N   UNL     1      -2.015   2.729   1.576  1.00  0.00    -0.343 N 
ATOM      3  C   UNL     1      -2.982   2.593   2.549  1.00  0.00     0.243 C 
ATOM      4  H   UNL     1      -1.324   3.466   1.644  1.00  0.00     0.164 HD
ENDROOT
BRANCH   2   5
ATOM      5  C   UNL     1      -2.033   1.881   0.388  1.00  0.00     0.171 C 
ATOM      6  C   UNL     1      -0.075   1.365  -1.686  1.00  0.00     0.214 C 
ATOM      7  N   UNL     1      -1.032   2.431  -1.863  1.00  0.00    -0.303 N 
ATOM      8  C   UNL     1      -0.601   0.217  -0.838  1.00  0.00     0.057 C 
ATOM      9  C   UNL     1      -1.962   2.764  -0.891  1.00  0.00     0.247 C 
ATOM     10  C   UNL     1      -1.030   0.736   0.517  1.00  0.00     0.040 C 
ATOM     11  O   UNL     1      -2.721   3.733  -1.014  1.00  0.00    -0.272 OA
BRANCH   6  12
ATOM     12  O   UNL     1       1.082   1.918  -1.102  1.00  0.00    -0.373 OA
ATOM     13  H   UNL     1       1.701   2.127  -1.833  1.00  0.00     0.213 HD
ENDBRANCH   6  12
BRANCH   7  14
ATOM     14  C   UNL     1      -0.891   3.264  -3.076  1.00  0.00     0.177 C 
BRANCH  14  15
ATOM     15  C   UNL     1      -2.201   3.534  -3.842  1.00  0.00     0.038 C 
BRANCH  15  16
ATOM     16  C   UNL     1      -2.755   2.461  -4.805  1.00  0.00    -0.015 C 
ATOM     17  C   UNL     1      -3.705   1.483  -4.106  1.00  0.00     0.007 C 
ATOM     18  C   UNL     1      -1.596   1.656  -5.407  1.00  0.00     0.007 C 
ENDBRANCH  15  16
ENDBRANCH  14  15
BRANCH  14  19
ATOM     19  C   UNL     1       0.284   4.286  -2.900  1.00  0.00     0.245 C 
ATOM     20  O   UNL     1       0.306   4.936  -1.842  1.00  0.00    -0.272 OA
BRANCH  19  21
ATOM     21  N   UNL     1       1.210   4.575  -3.887  1.00  0.00    -0.332 N 
ATOM     22  C   UNL     1       2.230   3.665  -4.377  1.00  0.00     0.147 C 
BRANCH  21  23
ATOM     23  C   UNL     1       1.174   5.932  -4.499  1.00  0.00     0.178 C 
BRANCH  23  24
ATOM     24  C   UNL     1       2.533   6.662  -4.527  1.00  0.00     0.070 C 
BRANCH  24  25
ATOM     25  C   UNL     1       3.250   6.833  -3.208  1.00  0.00    -0.045 A 
ATOM     26  C   UNL     1       4.553   6.350  -3.033  1.00  0.00     0.004 A 
ATOM     27  C   UNL     1       2.615   7.476  -2.135  1.00  0.00     0.004 A 
ATOM     28  C   UNL     1       5.203   6.496  -1.806  1.00  0.00     0.000 A 
ATOM     29  C   UNL     1       3.267   7.622  -0.910  1.00  0.00     0.000 A 
ATOM     30  C   UNL     1       4.559   7.129  -0.745  1.00  0.00     0.000 A 
ENDBRANCH  24  25
ENDBRANCH  23  24
BRANCH  23  31
ATOM     31  C   UNL     1       0.384   5.975  -5.828  1.00  0.00     0.243 C 
ATOM     32  O   UNL     1      -0.837   6.090  -5.897  1.00  0.00    -0.273 OA
ATOM     33  N   UNL     1       1.155   5.684  -6.940  1.00  0.00    -0.341 N 
ATOM     34  H   UNL     1       2.167   5.593  -6.819  1.00  0.00     0.164 HD
BRANCH  33  35
ATOM     35  C   UNL     1       0.596   5.551  -8.288  1.00  0.00     0.194 C 
BRANCH  35  36
ATOM     36  C   UNL     1       0.247   4.091  -8.690  1.00  0.00     0.017 C 
ATOM     37  C   UNL     1      -1.254   3.805  -8.512  1.00  0.00     0.010 C 
ATOM     38  C   UNL     1       1.013   3.041  -7.876  1.00  0.00     0.010 C 
ENDBRANCH  35  36
BRANCH  35  39
ATOM     39  C   UNL     1       1.462   6.259  -9.368  1.00  0.00     0.329 C 
ATOM     40  O   UNL     1       1.086   7.221 -10.027  1.00  0.00    -0.250 OA
BRANCH  39  41
ATOM     41  O   UNL     1       2.726   5.742  -9.440  1.00  0.00    -0.458 OA
BRANCH  41  42
ATOM     42  C   UNL     1       3.703   6.536 -10.155  1.00  0.00     0.205 CG0
ATOM     43  C   UNL     1       4.669   7.109  -9.119  1.00  0.00     0.056 C 
ATOM     44  G   UNL     1       2.963   7.636 -10.942  1.00  0.00     0.000 G0
ENDBRANCH  41  42
ENDBRANCH  39  41
ENDBRANCH  35  39
ENDBRANCH  33  35
ENDBRANCH  23  31
ENDBRANCH  21  23
ENDBRANCH  19  21
ENDBRANCH  14  19
ENDBRANCH   7  14
ENDBRANCH   2   5
BRANCH   3  45
ATOM     45  C   UNL     1      -2.914   3.617   3.690  1.00  0.00     0.171 C 
BRANCH  45  46
ATOM     46  N   UNL     1      -3.976   3.247   4.615  1.00  0.00    -0.342 N 
ATOM     47  C   UNL     1      -3.765   3.117   5.965  1.00  0.00     0.247 C 
ATOM     48  O   UNL     1      -2.685   3.373   6.500  1.00  0.00    -0.273 OA
ATOM     49  H   UNL     1      -4.900   3.080   4.221  1.00  0.00     0.164 HD
BRANCH  47  50
ATOM     50  C   UNL     1      -4.968   2.599   6.765  1.00  0.00     0.212 CG0
ATOM     51  G   UNL     1      -5.767   3.824   7.253  1.00  0.00     0.000 G0
BRANCH  50  52
ATOM     52  N   UNL     1      -5.717   1.754   5.838  1.00  0.00    -0.339 N 
ATOM     53  C   UNL     1      -5.460   0.416   5.660  1.00  0.00     0.243 C 
ATOM     54  O   UNL     1      -4.541  -0.163   6.230  1.00  0.00    -0.273 OA
ATOM     55  H   UNL     1      -6.420   2.201   5.253  1.00  0.00     0.164 HD
BRANCH  53  56
ATOM     56  C   UNL     1      -6.322  -0.248   4.566  1.00  0.00     0.182 C 
BRANCH  56  57
ATOM     57  N   UNL     1      -5.525  -0.533   3.369  1.00  0.00    -0.344 N 
ATOM     58  C   UNL     1      -5.142  -1.806   3.026  1.00  0.00     0.220 C 
ATOM     59  O   UNL     1      -5.375  -2.782   3.731  1.00  0.00    -0.275 OA
ATOM     60  H   UNL     1      -5.399   0.229   2.708  1.00  0.00     0.164 HD
BRANCH  58  61
ATOM     61  C   UNL     1      -4.375  -1.872   1.718  1.00  0.00     0.100 C 
BRANCH  61  62
ATOM     62  C   UNL     1      -2.859  -1.947   1.896  1.00  0.00     0.010 C 
BRANCH  62  63
ATOM     63  C   UNL     1      -2.207  -3.161   1.222  1.00  0.00     0.000 C 
BRANCH  63  64
ATOM     64  C   UNL     1      -3.136  -4.365   1.066  1.00  0.00    -0.003 C 
ATOM     65  C   UNL     1      -3.502  -4.597  -0.393  1.00  0.00     0.004 C 
ENDBRANCH  63  64
ENDBRANCH  62  63
ENDBRANCH  61  62
ENDBRANCH  58  61
ENDBRANCH  56  57
BRANCH  56  66
ATOM     66  C   UNL     1      -7.563   0.585   4.249  1.00  0.00     0.157 C 
BRANCH  66  67
ATOM     67  C   UNL     1      -7.459   1.219   2.891  1.00  0.00     0.305 C 
ATOM     68  O   UNL     1      -8.085   0.910   1.889  1.00  0.00    -0.252 OA
BRANCH  67  69
ATOM     69  O   UNL     1      -6.601   2.256   2.875  1.00  0.00    -0.481 OA
ATOM     70  H   UNL     1      -5.766   1.885   2.520  1.00  0.00     0.296 HD
ENDBRANCH  67  69
ENDBRANCH  66  67
ENDBRANCH  56  66
ENDBRANCH  53  56
ENDBRANCH  50  52
ENDBRANCH  47  50
ENDBRANCH  45  46
BRANCH  45  71
ATOM     71  C   UNL     1      -3.108   5.037   3.145  1.00  0.00     0.037 C 
BRANCH  71  72
ATOM     72  C   UNL     1      -2.069   6.014   3.701  1.00  0.00     0.026 C 
BRANCH  72  73
ATOM     73  C   UNL     1      -0.646   5.507   3.475  1.00  0.00     0.146 C 
BRANCH  73  74
ATOM     74  N   UNL     1       0.036   5.499   4.766  1.00  0.00    -0.254 NA
ATOM     75  C   UNL     1       0.513   4.386   5.185  1.00  0.00     0.185 C 
ATOM     76  N   UNL     1       1.147   4.348   6.368  1.00  0.00    -0.370 N 
ATOM     77  N   UNL     1       0.481   3.178   4.596  1.00  0.00    -0.370 N 
ATOM     78  H   UNL     1       1.209   5.215   6.882  1.00  0.00     0.159 HD
ATOM     79  H   UNL     1       1.416   3.494   6.825  1.00  0.00     0.159 HD
ATOM     80  H   UNL     1       0.039   3.056   3.697  1.00  0.00     0.159 HD
ATOM     81  H   UNL     1       0.993   2.395   4.968  1.00  0.00     0.159 HD
ENDBRANCH  73  74
ENDBRANCH  72  73
ENDBRANCH  71  72
ENDBRANCH  45  71
ENDBRANCH   3  45
TORSDOF 20
ENDMDL
MODEL 33
REMARK VINA RESULT:    -4.560      6.143     11.759
REMARK INTER + INTRA:         -21.570
REMARK INTER:                 -15.508
REMARK INTRA:                  -6.062
REMARK UNBOUND:                -8.478
REMARK SMILES CCCCCC(=O)N[C@H](CC(=O)O)C(=O)N[C@H]1C(=O)N[C@H](CCCN=C(N)N)C(=O)N[C@@H]2CC[C@H](O)N(C2=O)[C@@H](CC(C)C)C(=O)N(C)[C@@H](Cc2ccccc2)C(=O)N[C@H](C(C)C)C(=O)O[C@@H]1C
REMARK SMILES IDX 30 1 31 2 29 3 32 5 35 6 37 7 34 8 38 9 33 10 39 11 36 12
REMARK SMILES IDX 40 14 41 15 42 16 43 17 44 18 45 19 46 20 47 21 48 22 49 23
REMARK SMILES IDX 50 24 51 25 52 26 56 27 53 28 55 29 54 30 57 31 58 32 59 33
REMARK SMILES IDX 60 35 61 36 62 37 63 38 64 39 65 40 66 41 67 42 68 43 21 45
REMARK SMILES IDX 20 46 18 47 19 48 17 50 16 52 14 53 15 54 9 56 8 57 6 58
REMARK SMILES IDX 7 59 5 61 4 62 3 63 2 64 1 65 10 66 11 67 12 68 13 69 22 71
REMARK SMILES IDX 23 72 24 73 25 74 26 75 27 76 28 77
REMARK H PARENT 31 4 36 13 59 34 20 49 16 55 8 60 13 70 27 78 27 79 28 80
REMARK H PARENT 28 81
REMARK Flexibility Score:  259.900
ROOT
ATOM      1  O   UNL     1       4.382   4.063  -4.107  1.00  0.00    -0.273 OA
ATOM      2  N   UNL     1       3.246   2.358  -5.123  1.00  0.00    -0.343 N 
ATOM      3  C   UNL     1       4.375   3.114  -4.892  1.00  0.00     0.243 C 
ATOM      4  H   UNL     1       3.282   1.575  -5.765  1.00  0.00     0.164 HD
ENDROOT
BRANCH   2   5
ATOM      5  C   UNL     1       1.968   2.731  -4.529  1.00  0.00     0.171 C 
ATOM      6  C   UNL     1      -0.309   1.177  -3.631  1.00  0.00     0.214 C 
ATOM      7  N   UNL     1      -0.272   1.662  -4.991  1.00  0.00    -0.303 N 
ATOM      8  C   UNL     1       0.428   2.077  -2.651  1.00  0.00     0.057 C 
ATOM      9  C   UNL     1       0.808   2.365  -5.499  1.00  0.00     0.247 C 
ATOM     10  C   UNL     1       1.868   2.236  -3.086  1.00  0.00     0.040 C 
ATOM     11  O   UNL     1       0.871   2.702  -6.689  1.00  0.00    -0.272 OA
BRANCH   6  12
ATOM     12  O   UNL     1       0.242  -0.119  -3.620  1.00  0.00    -0.373 OA
ATOM     13  H   UNL     1      -0.005  -0.529  -2.764  1.00  0.00     0.213 HD
ENDBRANCH   6  12
BRANCH   7  14
ATOM     14  C   UNL     1      -1.378   1.249  -5.880  1.00  0.00     0.177 C 
BRANCH  14  15
ATOM     15  C   UNL     1      -0.989   0.258  -6.995  1.00  0.00     0.038 C 
BRANCH  15  16
ATOM     16  C   UNL     1      -1.889   0.126  -8.244  1.00  0.00    -0.015 C 
ATOM     17  C   UNL     1      -2.101  -1.332  -8.660  1.00  0.00     0.007 C 
ATOM     18  C   UNL     1      -1.252   0.874  -9.422  1.00  0.00     0.007 C 
ENDBRANCH  15  16
ENDBRANCH  14  15
BRANCH  14  19
ATOM     19  C   UNL     1      -2.734   1.243  -5.094  1.00  0.00     0.245 C 
ATOM     20  O   UNL     1      -2.916   0.305  -4.300  1.00  0.00    -0.272 OA
BRANCH  19  21
ATOM     21  N   UNL     1      -3.760   2.144  -5.318  1.00  0.00    -0.332 N 
ATOM     22  C   UNL     1      -4.212   2.598  -6.621  1.00  0.00     0.147 C 
BRANCH  21  23
ATOM     23  C   UNL     1      -4.459   2.712  -4.133  1.00  0.00     0.178 C 
BRANCH  23  24
ATOM     24  C   UNL     1      -5.090   4.101  -4.359  1.00  0.00     0.070 C 
BRANCH  24  25
ATOM     25  C   UNL     1      -5.523   4.869  -3.132  1.00  0.00    -0.045 A 
ATOM     26  C   UNL     1      -6.861   5.241  -2.954  1.00  0.00     0.004 A 
ATOM     27  C   UNL     1      -4.584   5.224  -2.152  1.00  0.00     0.004 A 
ATOM     28  C   UNL     1      -7.250   5.966  -1.825  1.00  0.00     0.000 A 
ATOM     29  C   UNL     1      -4.974   5.947  -1.024  1.00  0.00     0.000 A 
ATOM     30  C   UNL     1      -6.307   6.320  -0.863  1.00  0.00     0.000 A 
ENDBRANCH  24  25
ENDBRANCH  23  24
BRANCH  23  31
ATOM     31  C   UNL     1      -5.378   1.687  -3.426  1.00  0.00     0.243 C 
ATOM     32  O   UNL     1      -5.403   1.510  -2.210  1.00  0.00    -0.273 OA
ATOM     33  N   UNL     1      -6.044   0.845  -4.301  1.00  0.00    -0.341 N 
ATOM     34  H   UNL     1      -5.981   1.039  -5.303  1.00  0.00     0.164 HD
BRANCH  33  35
ATOM     35  C   UNL     1      -6.875  -0.276  -3.854  1.00  0.00     0.194 C 
BRANCH  35  36
ATOM     36  C   UNL     1      -6.604  -1.608  -4.609  1.00  0.00     0.017 C 
ATOM     37  C   UNL     1      -6.018  -2.675  -3.668  1.00  0.00     0.010 C 
ATOM     38  C   UNL     1      -5.632  -1.449  -5.784  1.00  0.00     0.010 C 
ENDBRANCH  35  36
BRANCH  35  39
ATOM     39  C   UNL     1      -8.389   0.076  -3.823  1.00  0.00     0.329 C 
ATOM     40  O   UNL     1      -8.838   1.135  -3.402  1.00  0.00    -0.250 OA
BRANCH  39  41
ATOM     41  O   UNL     1      -9.160  -0.895  -4.400  1.00  0.00    -0.458 OA
BRANCH  41  42
ATOM     42  C   UNL     1     -10.247  -1.411  -3.596  1.00  0.00     0.205 CG0
ATOM     43  C   UNL     1      -9.687  -2.559  -2.758  1.00  0.00     0.056 C 
ATOM     44  G   UNL     1     -11.381  -1.867  -4.537  1.00  0.00     0.000 G0
ENDBRANCH  41  42
ENDBRANCH  39  41
ENDBRANCH  35  39
ENDBRANCH  33  35
ENDBRANCH  23  31
ENDBRANCH  21  23
ENDBRANCH  19  21
ENDBRANCH  14  19
ENDBRANCH   7  14
ENDBRANCH   2   5
BRANCH   3  45
ATOM     45  C   UNL     1       5.628   2.678  -5.663  1.00  0.00     0.171 C 
BRANCH  45  46
ATOM     46  N   UNL     1       6.752   3.296  -4.972  1.00  0.00    -0.342 N 
ATOM     47  C   UNL     1       7.461   2.647  -3.992  1.00  0.00     0.247 C 
ATOM     48  O   UNL     1       7.248   1.475  -3.678  1.00  0.00    -0.273 OA
ATOM     49  H   UNL     1       6.998   4.247  -5.241  1.00  0.00     0.164 HD
BRANCH  47  50
ATOM     50  C   UNL     1       8.528   3.498  -3.290  1.00  0.00     0.212 CG0
ATOM     51  G   UNL     1       9.580   3.892  -4.345  1.00  0.00     0.000 G0
BRANCH  50  52
ATOM     52  N   UNL     1       7.810   4.643  -2.735  1.00  0.00    -0.339 N 
ATOM     53  C   UNL     1       7.304   4.671  -1.459  1.00  0.00     0.243 C 
ATOM     54  O   UNL     1       7.371   3.709  -0.699  1.00  0.00    -0.273 OA
ATOM     55  H   UNL     1       7.625   5.430  -3.354  1.00  0.00     0.164 HD
BRANCH  53  56
ATOM     56  C   UNL     1       6.511   5.951  -1.126  1.00  0.00     0.182 C 
BRANCH  56  57
ATOM     57  N   UNL     1       5.451   6.185  -2.112  1.00  0.00    -0.344 N 
ATOM     58  C   UNL     1       4.330   6.925  -1.827  1.00  0.00     0.220 C 
ATOM     59  O   UNL     1       4.102   7.379  -0.711  1.00  0.00    -0.275 OA
ATOM     60  H   UNL     1       5.647   5.914  -3.072  1.00  0.00     0.164 HD
BRANCH  58  61
ATOM     61  C   UNL     1       3.396   7.085  -3.012  1.00  0.00     0.100 C 
BRANCH  61  62
ATOM     62  C   UNL     1       1.920   7.184  -2.626  1.00  0.00     0.010 C 
BRANCH  62  63
ATOM     63  C   UNL     1       1.211   5.830  -2.503  1.00  0.00     0.000 C 
BRANCH  63  64
ATOM     64  C   UNL     1       0.695   5.517  -1.100  1.00  0.00    -0.003 C 
ATOM     65  C   UNL     1       1.724   4.741  -0.290  1.00  0.00     0.004 C 
ENDBRANCH  63  64
ENDBRANCH  62  63
ENDBRANCH  61  62
ENDBRANCH  58  61
ENDBRANCH  56  57
BRANCH  56  66
ATOM     66  C   UNL     1       7.434   7.159  -0.976  1.00  0.00     0.157 C 
BRANCH  66  67
ATOM     67  C   UNL     1       8.477   6.919   0.078  1.00  0.00     0.305 C 
ATOM     68  O   UNL     1       9.639   7.295   0.059  1.00  0.00    -0.252 OA
BRANCH  67  69
ATOM     69  O   UNL     1       7.986   6.252   1.140  1.00  0.00    -0.481 OA
ATOM     70  H   UNL     1       7.035   6.124   0.938  1.00  0.00     0.296 HD
ENDBRANCH  67  69
ENDBRANCH  66  67
ENDBRANCH  56  66
ENDBRANCH  53  56
ENDBRANCH  50  52
ENDBRANCH  47  50
ENDBRANCH  45  46
BRANCH  45  71
ATOM     71  C   UNL     1       5.542   3.135  -7.123  1.00  0.00     0.037 C 
BRANCH  71  72
ATOM     72  C   UNL     1       5.623   4.658  -7.255  1.00  0.00     0.026 C 
BRANCH  72  73
ATOM     73  C   UNL     1       4.520   5.201  -8.162  1.00  0.00     0.146 C 
BRANCH  73  74
ATOM     74  N   UNL     1       3.244   5.001  -7.482  1.00  0.00    -0.254 NA
ATOM     75  C   UNL     1       2.751   5.988  -6.830  1.00  0.00     0.185 C 
ATOM     76  N   UNL     1       1.577   5.835  -6.196  1.00  0.00    -0.370 N 
ATOM     77  N   UNL     1       3.248   7.227  -6.669  1.00  0.00    -0.370 N 
ATOM     78  H   UNL     1       1.138   4.928  -6.260  1.00  0.00     0.159 HD
ATOM     79  H   UNL     1       1.204   6.510  -5.552  1.00  0.00     0.159 HD
ATOM     80  H   UNL     1       4.125   7.488  -7.095  1.00  0.00     0.159 HD
ATOM     81  H   UNL     1       2.713   7.958  -6.229  1.00  0.00     0.159 HD
ENDBRANCH  73  74
ENDBRANCH  72  73
ENDBRANCH  71  72
ENDBRANCH  45  71
ENDBRANCH   3  45
TORSDOF 20
ENDMDL
MODEL 34
REMARK VINA RESULT:    -4.552      3.492     14.013
REMARK INTER + INTRA:         -21.546
REMARK INTER:                 -14.420
REMARK INTRA:                  -7.125
REMARK UNBOUND:                -8.478
REMARK SMILES CCCCCC(=O)N[C@H](CC(=O)O)C(=O)N[C@H]1C(=O)N[C@H](CCCN=C(N)N)C(=O)N[C@@H]2CC[C@H](O)N(C2=O)[C@@H](CC(C)C)C(=O)N(C)[C@@H](Cc2ccccc2)C(=O)N[C@H](C(C)C)C(=O)O[C@@H]1C
REMARK SMILES IDX 30 1 31 2 29 3 32 5 35 6 37 7 34 8 38 9 33 10 39 11 36 12
REMARK SMILES IDX 40 14 41 15 42 16 43 17 44 18 45 19 46 20 47 21 48 22 49 23
REMARK SMILES IDX 50 24 51 25 52 26 56 27 53 28 55 29 54 30 57 31 58 32 59 33
REMARK SMILES IDX 60 35 61 36 62 37 63 38 64 39 65 40 66 41 67 42 68 43 21 45
REMARK SMILES IDX 20 46 18 47 19 48 17 50 16 52 14 53 15 54 9 56 8 57 6 58
REMARK SMILES IDX 7 59 5 61 4 62 3 63 2 64 1 65 10 66 11 67 12 68 13 69 22 71
REMARK SMILES IDX 23 72 24 73 25 74 26 75 27 76 28 77
REMARK H PARENT 31 4 36 13 59 34 20 49 16 55 8 60 13 70 27 78 27 79 28 80
REMARK H PARENT 28 81
REMARK Flexibility Score:  259.900
ROOT
ATOM      1  O   UNL     1       0.170   6.103   4.322  1.00  0.00    -0.273 OA
ATOM      2  N   UNL     1       0.979   4.322   3.137  1.00  0.00    -0.343 N 
ATOM      3  C   UNL     1       0.797   5.044   4.297  1.00  0.00     0.243 C 
ATOM      4  H   UNL     1       1.488   3.447   3.157  1.00  0.00     0.164 HD
ENDROOT
BRANCH   2   5
ATOM      5  C   UNL     1       0.530   4.853   1.854  1.00  0.00     0.171 C 
ATOM      6  C   UNL     1       0.732   3.859  -0.862  1.00  0.00     0.214 C 
ATOM      7  N   UNL     1       1.769   4.720  -0.341  1.00  0.00    -0.303 N 
ATOM      8  C   UNL     1      -0.635   4.129  -0.253  1.00  0.00     0.057 C 
ATOM      9  C   UNL     1       1.760   5.188   0.963  1.00  0.00     0.247 C 
ATOM     10  C   UNL     1      -0.566   3.976   1.250  1.00  0.00     0.040 C 
ATOM     11  O   UNL     1       2.696   5.853   1.427  1.00  0.00    -0.272 OA
BRANCH   6  12
ATOM     12  O   UNL     1       1.121   2.526  -0.628  1.00  0.00    -0.373 OA
ATOM     13  H   UNL     1       1.742   2.277  -1.345  1.00  0.00     0.213 HD
ENDBRANCH   6  12
BRANCH   7  14
ATOM     14  C   UNL     1       2.935   4.970  -1.216  1.00  0.00     0.177 C 
BRANCH  14  15
ATOM     15  C   UNL     1       4.117   4.000  -1.027  1.00  0.00     0.038 C 
BRANCH  15  16
ATOM     16  C   UNL     1       5.412   4.501  -0.351  1.00  0.00    -0.015 C 
ATOM     17  C   UNL     1       6.067   5.650  -1.124  1.00  0.00     0.007 C 
ATOM     18  C   UNL     1       6.423   3.352  -0.250  1.00  0.00     0.007 C 
ENDBRANCH  15  16
ENDBRANCH  14  15
BRANCH  14  19
ATOM     19  C   UNL     1       2.467   5.574  -2.585  1.00  0.00     0.245 C 
ATOM     20  O   UNL     1       1.878   6.667  -2.541  1.00  0.00    -0.272 OA
BRANCH  19  21
ATOM     21  N   UNL     1       2.575   4.914  -3.796  1.00  0.00    -0.332 N 
ATOM     22  C   UNL     1       1.581   4.017  -4.358  1.00  0.00     0.147 C 
BRANCH  21  23
ATOM     23  C   UNL     1       3.813   5.124  -4.595  1.00  0.00     0.178 C 
BRANCH  23  24
ATOM     24  C   UNL     1       4.586   3.834  -4.940  1.00  0.00     0.070 C 
BRANCH  24  25
ATOM     25  C   UNL     1       6.015   3.739  -4.459  1.00  0.00    -0.045 A 
ATOM     26  C   UNL     1       6.507   2.551  -3.903  1.00  0.00     0.004 A 
ATOM     27  C   UNL     1       6.871   4.846  -4.559  1.00  0.00     0.004 A 
ATOM     28  C   UNL     1       7.824   2.477  -3.445  1.00  0.00     0.000 A 
ATOM     29  C   UNL     1       8.187   4.770  -4.102  1.00  0.00     0.000 A 
ATOM     30  C   UNL     1       8.662   3.586  -3.542  1.00  0.00     0.000 A 
ENDBRANCH  24  25
ENDBRANCH  23  24
BRANCH  23  31
ATOM     31  C   UNL     1       3.608   6.097  -5.781  1.00  0.00     0.243 C 
ATOM     32  O   UNL     1       2.875   7.082  -5.743  1.00  0.00    -0.273 OA
ATOM     33  N   UNL     1       4.183   5.659  -6.962  1.00  0.00    -0.341 N 
ATOM     34  H   UNL     1       4.779   4.828  -6.932  1.00  0.00     0.164 HD
BRANCH  33  35
ATOM     35  C   UNL     1       4.017   6.358  -8.239  1.00  0.00     0.194 C 
BRANCH  35  36
ATOM     36  C   UNL     1       3.084   5.628  -9.246  1.00  0.00     0.017 C 
ATOM     37  C   UNL     1       1.735   6.354  -9.385  1.00  0.00     0.010 C 
ATOM     38  C   UNL     1       2.787   4.177  -8.852  1.00  0.00     0.010 C 
ENDBRANCH  35  36
BRANCH  35  39
ATOM     39  C   UNL     1       5.375   6.752  -8.886  1.00  0.00     0.329 C 
ATOM     40  O   UNL     1       6.465   6.363  -8.483  1.00  0.00    -0.250 OA
BRANCH  39  41
ATOM     41  O   UNL     1       5.214   7.512 -10.011  1.00  0.00    -0.458 OA
BRANCH  41  42
ATOM     42  C   UNL     1       6.156   7.277 -11.084  1.00  0.00     0.205 CG0
ATOM     43  C   UNL     1       5.378   7.357 -12.396  1.00  0.00     0.056 C 
ATOM     44  G   UNL     1       6.810   5.897 -10.870  1.00  0.00     0.000 G0
ENDBRANCH  41  42
ENDBRANCH  39  41
ENDBRANCH  35  39
ENDBRANCH  33  35
ENDBRANCH  23  31
ENDBRANCH  21  23
ENDBRANCH  19  21
ENDBRANCH  14  19
ENDBRANCH   7  14
ENDBRANCH   2   5
BRANCH   3  45
ATOM     45  C   UNL     1       1.412   4.424   5.559  1.00  0.00     0.171 C 
BRANCH  45  46
ATOM     46  N   UNL     1       1.281   5.437   6.598  1.00  0.00    -0.342 N 
ATOM     47  C   UNL     1       0.625   5.200   7.780  1.00  0.00     0.247 C 
ATOM     48  O   UNL     1       0.164   4.097   8.078  1.00  0.00    -0.273 OA
ATOM     49  H   UNL     1       1.698   6.348   6.416  1.00  0.00     0.164 HD
BRANCH  47  50
ATOM     50  C   UNL     1       0.480   6.420   8.700  1.00  0.00     0.212 CG0
ATOM     51  G   UNL     1      -0.810   6.234   9.523  1.00  0.00     0.000 G0
BRANCH  50  52
ATOM     52  N   UNL     1       1.689   6.437   9.519  1.00  0.00    -0.339 N 
ATOM     53  C   UNL     1       2.752   7.274   9.280  1.00  0.00     0.243 C 
ATOM     54  O   UNL     1       2.789   8.040   8.321  1.00  0.00    -0.273 OA
ATOM     55  H   UNL     1       1.766   5.746  10.263  1.00  0.00     0.164 HD
BRANCH  53  56
ATOM     56  C   UNL     1       3.951   7.050  10.223  1.00  0.00     0.182 C 
BRANCH  56  57
ATOM     57  N   UNL     1       5.050   7.967   9.905  1.00  0.00    -0.344 N 
ATOM     58  C   UNL     1       5.426   8.985  10.748  1.00  0.00     0.220 C 
ATOM     59  O   UNL     1       4.827   9.242  11.786  1.00  0.00    -0.275 OA
ATOM     60  H   UNL     1       5.634   7.727   9.109  1.00  0.00     0.164 HD
BRANCH  58  61
ATOM     61  C   UNL     1       6.623   9.771  10.245  1.00  0.00     0.100 C 
BRANCH  61  62
ATOM     62  C   UNL     1       6.285  11.196   9.809  1.00  0.00     0.010 C 
BRANCH  62  63
ATOM     63  C   UNL     1       6.491  12.252  10.902  1.00  0.00     0.000 C 
BRANCH  63  64
ATOM     64  C   UNL     1       7.392  13.415  10.489  1.00  0.00    -0.003 C 
ATOM     65  C   UNL     1       8.271  13.873  11.643  1.00  0.00     0.004 C 
ENDBRANCH  63  64
ENDBRANCH  62  63
ENDBRANCH  61  62
ENDBRANCH  58  61
ENDBRANCH  56  57
BRANCH  56  66
ATOM     66  C   UNL     1       4.401   5.590  10.221  1.00  0.00     0.157 C 
BRANCH  66  67
ATOM     67  C   UNL     1       5.831   5.462   9.783  1.00  0.00     0.305 C 
ATOM     68  O   UNL     1       6.235   5.269   8.647  1.00  0.00    -0.252 OA
BRANCH  67  69
ATOM     69  O   UNL     1       6.695   5.636  10.801  1.00  0.00    -0.481 OA
ATOM     70  H   UNL     1       6.661   6.596  10.997  1.00  0.00     0.296 HD
ENDBRANCH  67  69
ENDBRANCH  66  67
ENDBRANCH  56  66
ENDBRANCH  53  56
ENDBRANCH  50  52
ENDBRANCH  47  50
ENDBRANCH  45  46
BRANCH  45  71
ATOM     71  C   UNL     1       2.878   4.053   5.312  1.00  0.00     0.037 C 
BRANCH  71  72
ATOM     72  C   UNL     1       3.838   4.927   6.123  1.00  0.00     0.026 C 
BRANCH  72  73
ATOM     73  C   UNL     1       4.482   6.007   5.255  1.00  0.00     0.146 C 
BRANCH  73  74
ATOM     74  N   UNL     1       3.965   7.300   5.693  1.00  0.00    -0.254 NA
ATOM     75  C   UNL     1       3.241   7.965   4.871  1.00  0.00     0.185 C 
ATOM     76  N   UNL     1       2.750   9.158   5.245  1.00  0.00    -0.370 N 
ATOM     77  N   UNL     1       2.871   7.643   3.619  1.00  0.00    -0.370 N 
ATOM     78  H   UNL     1       2.987   9.479   6.172  1.00  0.00     0.159 HD
ATOM     79  H   UNL     1       2.301   9.795   4.611  1.00  0.00     0.159 HD
ATOM     80  H   UNL     1       3.164   6.771   3.205  1.00  0.00     0.159 HD
ATOM     81  H   UNL     1       2.202   8.195   3.107  1.00  0.00     0.159 HD
ENDBRANCH  73  74
ENDBRANCH  72  73
ENDBRANCH  71  72
ENDBRANCH  45  71
ENDBRANCH   3  45
TORSDOF 20
ENDMDL
MODEL 35
REMARK VINA RESULT:    -4.547      6.554     14.081
REMARK INTER + INTRA:         -21.530
REMARK INTER:                 -14.980
REMARK INTRA:                  -6.550
REMARK UNBOUND:                -8.478
REMARK SMILES CCCCCC(=O)N[C@H](CC(=O)O)C(=O)N[C@H]1C(=O)N[C@H](CCCN=C(N)N)C(=O)N[C@@H]2CC[C@H](O)N(C2=O)[C@@H](CC(C)C)C(=O)N(C)[C@@H](Cc2ccccc2)C(=O)N[C@H](C(C)C)C(=O)O[C@@H]1C
REMARK SMILES IDX 30 1 31 2 29 3 32 5 35 6 37 7 34 8 38 9 33 10 39 11 36 12
REMARK SMILES IDX 40 14 41 15 42 16 43 17 44 18 45 19 46 20 47 21 48 22 49 23
REMARK SMILES IDX 50 24 51 25 52 26 56 27 53 28 55 29 54 30 57 31 58 32 59 33
REMARK SMILES IDX 60 35 61 36 62 37 63 38 64 39 65 40 66 41 67 42 68 43 21 45
REMARK SMILES IDX 20 46 18 47 19 48 17 50 16 52 14 53 15 54 9 56 8 57 6 58
REMARK SMILES IDX 7 59 5 61 4 62 3 63 2 64 1 65 10 66 11 67 12 68 13 69 22 71
REMARK SMILES IDX 23 72 24 73 25 74 26 75 27 76 28 77
REMARK H PARENT 31 4 36 13 59 34 20 49 16 55 8 60 13 70 27 78 27 79 28 80
REMARK H PARENT 28 81
REMARK Flexibility Score:  259.900
ROOT
ATOM      1  O   UNL     1      -3.572   2.019   1.033  1.00  0.00    -0.273 OA
ATOM      2  N   UNL     1      -1.499   2.974   0.893  1.00  0.00    -0.343 N 
ATOM      3  C   UNL     1      -2.712   2.759   1.511  1.00  0.00     0.243 C 
ATOM      4  H   UNL     1      -0.809   3.577   1.323  1.00  0.00     0.164 HD
ENDROOT
BRANCH   2   5
ATOM      5  C   UNL     1      -1.230   2.418  -0.429  1.00  0.00     0.171 C 
ATOM      6  C   UNL     1       1.072   2.553  -2.186  1.00  0.00     0.214 C 
ATOM      7  N   UNL     1       0.029   3.546  -2.304  1.00  0.00    -0.303 N 
ATOM      8  C   UNL     1       0.565   1.203  -1.703  1.00  0.00     0.057 C 
ATOM      9  C   UNL     1      -1.072   3.569  -1.463  1.00  0.00     0.247 C 
ATOM     10  C   UNL     1      -0.126   1.363  -0.367  1.00  0.00     0.040 C 
ATOM     11  O   UNL     1      -1.916   4.473  -1.514  1.00  0.00    -0.272 OA
BRANCH   6  12
ATOM     12  O   UNL     1       2.049   3.056  -1.305  1.00  0.00    -0.373 OA
ATOM     13  H   UNL     1       2.103   4.024  -1.458  1.00  0.00     0.213 HD
ENDBRANCH   6  12
BRANCH   7  14
ATOM     14  C   UNL     1       0.252   4.640  -3.272  1.00  0.00     0.177 C 
BRANCH  14  15
ATOM     15  C   UNL     1       1.393   5.612  -2.913  1.00  0.00     0.038 C 
BRANCH  15  16
ATOM     16  C   UNL     1       1.140   7.135  -2.966  1.00  0.00    -0.015 C 
ATOM     17  C   UNL     1      -0.320   7.474  -3.280  1.00  0.00     0.007 C 
ATOM     18  C   UNL     1       2.024   7.770  -4.048  1.00  0.00     0.007 C 
ENDBRANCH  15  16
ENDBRANCH  14  15
BRANCH  14  19
ATOM     19  C   UNL     1      -0.113   4.167  -4.721  1.00  0.00     0.245 C 
ATOM     20  O   UNL     1      -1.322   4.048  -4.983  1.00  0.00    -0.272 OA
BRANCH  19  21
ATOM     21  N   UNL     1       0.822   3.774  -5.663  1.00  0.00    -0.332 N 
ATOM     22  C   UNL     1       1.022   2.417  -6.137  1.00  0.00     0.147 C 
BRANCH  21  23
ATOM     23  C   UNL     1       1.710   4.821  -6.239  1.00  0.00     0.178 C 
BRANCH  23  24
ATOM     24  C   UNL     1       3.188   4.406  -6.383  1.00  0.00     0.070 C 
BRANCH  24  25
ATOM     25  C   UNL     1       4.032   4.418  -5.129  1.00  0.00    -0.045 A 
ATOM     26  C   UNL     1       4.126   3.282  -4.316  1.00  0.00     0.004 A 
ATOM     27  C   UNL     1       4.732   5.577  -4.759  1.00  0.00     0.004 A 
ATOM     28  C   UNL     1       4.893   3.307  -3.150  1.00  0.00     0.000 A 
ATOM     29  C   UNL     1       5.499   5.600  -3.594  1.00  0.00     0.000 A 
ATOM     30  C   UNL     1       5.577   4.466  -2.788  1.00  0.00     0.000 A 
ENDBRANCH  24  25
ENDBRANCH  23  24
BRANCH  23  31
ATOM     31  C   UNL     1       1.103   5.509  -7.485  1.00  0.00     0.243 C 
ATOM     32  O   UNL     1      -0.103   5.649  -7.673  1.00  0.00    -0.273 OA
ATOM     33  N   UNL     1       2.035   5.794  -8.469  1.00  0.00    -0.341 N 
ATOM     34  H   UNL     1       3.025   5.651  -8.256  1.00  0.00     0.164 HD
BRANCH  33  35
ATOM     35  C   UNL     1       1.671   6.337  -9.781  1.00  0.00     0.194 C 
BRANCH  35  36
ATOM     36  C   UNL     1       1.977   5.383 -10.970  1.00  0.00     0.017 C 
ATOM     37  C   UNL     1       0.914   4.277 -11.088  1.00  0.00     0.010 C 
ATOM     38  C   UNL     1       3.343   4.696 -10.857  1.00  0.00     0.010 C 
ENDBRANCH  35  36
BRANCH  35  39
ATOM     39  C   UNL     1       2.243   7.762 -10.018  1.00  0.00     0.329 C 
ATOM     40  O   UNL     1       3.434   8.044  -9.944  1.00  0.00    -0.250 OA
BRANCH  39  41
ATOM     41  O   UNL     1       1.280   8.652 -10.404  1.00  0.00    -0.458 OA
BRANCH  41  42
ATOM     42  C   UNL     1       1.746   9.863 -11.047  1.00  0.00     0.205 CG0
ATOM     43  C   UNL     1       0.983  11.030 -10.423  1.00  0.00     0.056 C 
ATOM     44  G   UNL     1       1.499   9.741 -12.564  1.00  0.00     0.000 G0
ENDBRANCH  41  42
ENDBRANCH  39  41
ENDBRANCH  35  39
ENDBRANCH  33  35
ENDBRANCH  23  31
ENDBRANCH  21  23
ENDBRANCH  19  21
ENDBRANCH  14  19
ENDBRANCH   7  14
ENDBRANCH   2   5
BRANCH   3  45
ATOM     45  C   UNL     1      -2.907   3.489   2.846  1.00  0.00     0.171 C 
BRANCH  45  46
ATOM     46  N   UNL     1      -4.072   2.871   3.466  1.00  0.00    -0.342 N 
ATOM     47  C   UNL     1      -3.993   2.162   4.639  1.00  0.00     0.247 C 
ATOM     48  O   UNL     1      -2.952   2.059   5.288  1.00  0.00    -0.273 OA
ATOM     49  H   UNL     1      -4.965   2.980   2.990  1.00  0.00     0.164 HD
BRANCH  47  50
ATOM     50  C   UNL     1      -5.297   1.479   5.074  1.00  0.00     0.212 CG0
ATOM     51  G   UNL     1      -5.685   2.049   6.453  1.00  0.00     0.000 G0
BRANCH  50  52
ATOM     52  N   UNL     1      -6.267   1.789   4.028  1.00  0.00    -0.339 N 
ATOM     53  C   UNL     1      -6.441   1.017   2.905  1.00  0.00     0.243 C 
ATOM     54  O   UNL     1      -5.752   0.029   2.669  1.00  0.00    -0.273 OA
ATOM     55  H   UNL     1      -6.792   2.658   4.112  1.00  0.00     0.164 HD
BRANCH  53  56
ATOM     56  C   UNL     1      -7.462   1.590   1.901  1.00  0.00     0.182 C 
BRANCH  56  57
ATOM     57  N   UNL     1      -7.504   3.054   1.972  1.00  0.00    -0.344 N 
ATOM     58  C   UNL     1      -7.676   3.840   0.858  1.00  0.00     0.220 C 
ATOM     59  O   UNL     1      -7.733   3.379  -0.277  1.00  0.00    -0.275 OA
ATOM     60  H   UNL     1      -7.562   3.469   2.898  1.00  0.00     0.164 HD
BRANCH  58  61
ATOM     61  C   UNL     1      -7.748   5.323   1.174  1.00  0.00     0.100 C 
BRANCH  61  62
ATOM     62  C   UNL     1      -6.398   6.036   1.095  1.00  0.00     0.010 C 
BRANCH  62  63
ATOM     63  C   UNL     1      -6.129   6.723  -0.250  1.00  0.00     0.000 C 
BRANCH  63  64
ATOM     64  C   UNL     1      -5.009   6.083  -1.069  1.00  0.00    -0.003 C 
ATOM     65  C   UNL     1      -5.565   5.250  -2.215  1.00  0.00     0.004 C 
ENDBRANCH  63  64
ENDBRANCH  62  63
ENDBRANCH  61  62
ENDBRANCH  58  61
ENDBRANCH  56  57
BRANCH  56  66
ATOM     66  C   UNL     1      -8.843   0.964   2.087  1.00  0.00     0.157 C 
BRANCH  66  67
ATOM     67  C   UNL     1      -9.685   1.774   3.029  1.00  0.00     0.305 C 
ATOM     68  O   UNL     1      -9.560   1.852   4.242  1.00  0.00    -0.252 OA
BRANCH  67  69
ATOM     69  O   UNL     1     -10.622   2.497   2.385  1.00  0.00    -0.481 OA
ATOM     70  H   UNL     1     -10.709   2.068   1.508  1.00  0.00     0.296 HD
ENDBRANCH  67  69
ENDBRANCH  66  67
ENDBRANCH  56  66
ENDBRANCH  53  56
ENDBRANCH  50  52
ENDBRANCH  47  50
ENDBRANCH  45  46
BRANCH  45  71
ATOM     71  C   UNL     1      -3.120   4.988   2.609  1.00  0.00     0.037 C 
BRANCH  71  72
ATOM     72  C   UNL     1      -2.136   5.843   3.411  1.00  0.00     0.026 C 
BRANCH  72  73
ATOM     73  C   UNL     1      -2.346   5.679   4.915  1.00  0.00     0.146 C 
BRANCH  73  74
ATOM     74  N   UNL     1      -1.041   5.441   5.524  1.00  0.00    -0.254 NA
ATOM     75  C   UNL     1      -0.996   4.706   6.574  1.00  0.00     0.185 C 
ATOM     76  N   UNL     1       0.190   4.468   7.157  1.00  0.00    -0.370 N 
ATOM     77  N   UNL     1      -2.003   4.099   7.225  1.00  0.00    -0.370 N 
ATOM     78  H   UNL     1       1.002   4.895   6.734  1.00  0.00     0.159 HD
ATOM     79  H   UNL     1       0.287   4.027   8.055  1.00  0.00     0.159 HD
ATOM     80  H   UNL     1      -2.953   4.187   6.897  1.00  0.00     0.159 HD
ATOM     81  H   UNL     1      -1.833   3.450   7.975  1.00  0.00     0.159 HD
ENDBRANCH  73  74
ENDBRANCH  72  73
ENDBRANCH  71  72
ENDBRANCH  45  71
ENDBRANCH   3  45
TORSDOF 20
ENDMDL
MODEL 36
REMARK VINA RESULT:    -4.543      7.854     12.872
REMARK INTER + INTRA:         -21.521
REMARK INTER:                 -15.357
REMARK INTRA:                  -6.164
REMARK UNBOUND:                -8.478
REMARK SMILES CCCCCC(=O)N[C@H](CC(=O)O)C(=O)N[C@H]1C(=O)N[C@H](CCCN=C(N)N)C(=O)N[C@@H]2CC[C@H](O)N(C2=O)[C@@H](CC(C)C)C(=O)N(C)[C@@H](Cc2ccccc2)C(=O)N[C@H](C(C)C)C(=O)O[C@@H]1C
REMARK SMILES IDX 30 1 31 2 29 3 32 5 35 6 37 7 34 8 38 9 33 10 39 11 36 12
REMARK SMILES IDX 40 14 41 15 42 16 43 17 44 18 45 19 46 20 47 21 48 22 49 23
REMARK SMILES IDX 50 24 51 25 52 26 56 27 53 28 55 29 54 30 57 31 58 32 59 33
REMARK SMILES IDX 60 35 61 36 62 37 63 38 64 39 65 40 66 41 67 42 68 43 21 45
REMARK SMILES IDX 20 46 18 47 19 48 17 50 16 52 14 53 15 54 9 56 8 57 6 58
REMARK SMILES IDX 7 59 5 61 4 62 3 63 2 64 1 65 10 66 11 67 12 68 13 69 22 71
REMARK SMILES IDX 23 72 24 73 25 74 26 75 27 76 28 77
REMARK H PARENT 31 4 36 13 59 34 20 49 16 55 8 60 13 70 27 78 27 79 28 80
REMARK H PARENT 28 81
REMARK Flexibility Score:  259.900
ROOT
ATOM      1  O   UNL     1      -4.033   3.796   5.381  1.00  0.00    -0.273 OA
ATOM      2  N   UNL     1      -1.961   2.892   5.722  1.00  0.00    -0.343 N 
ATOM      3  C   UNL     1      -3.314   2.987   5.967  1.00  0.00     0.243 C 
ATOM      4  H   UNL     1      -1.403   2.203   6.211  1.00  0.00     0.164 HD
ENDROOT
BRANCH   2   5
ATOM      5  C   UNL     1      -1.299   3.840   4.833  1.00  0.00     0.171 C 
ATOM      6  C   UNL     1       1.492   4.449   4.337  1.00  0.00     0.214 C 
ATOM      7  N   UNL     1       0.773   5.186   5.350  1.00  0.00    -0.303 N 
ATOM      8  C   UNL     1       0.606   3.973   3.197  1.00  0.00     0.057 C 
ATOM      9  C   UNL     1      -0.546   4.912   5.672  1.00  0.00     0.247 C 
ATOM     10  C   UNL     1      -0.514   3.114   3.742  1.00  0.00     0.040 C 
ATOM     11  O   UNL     1      -1.128   5.489   6.600  1.00  0.00    -0.272 OA
BRANCH   6  12
ATOM     12  O   UNL     1       2.117   3.353   4.965  1.00  0.00    -0.373 OA
ATOM     13  H   UNL     1       3.081   3.442   4.804  1.00  0.00     0.213 HD
ENDBRANCH   6  12
BRANCH   7  14
ATOM     14  C   UNL     1       1.548   6.162   6.145  1.00  0.00     0.177 C 
BRANCH  14  15
ATOM     15  C   UNL     1       2.365   5.561   7.306  1.00  0.00     0.038 C 
BRANCH  15  16
ATOM     16  C   UNL     1       1.845   5.700   8.754  1.00  0.00    -0.015 C 
ATOM     17  C   UNL     1       0.799   4.637   9.103  1.00  0.00     0.007 C 
ATOM     18  C   UNL     1       1.207   7.082   8.946  1.00  0.00     0.007 C 
ENDBRANCH  15  16
ENDBRANCH  14  15
BRANCH  14  19
ATOM     19  C   UNL     1       2.001   7.361   5.243  1.00  0.00     0.245 C 
ATOM     20  O   UNL     1       1.130   8.195   4.942  1.00  0.00    -0.272 OA
BRANCH  19  21
ATOM     21  N   UNL     1       3.263   7.474   4.687  1.00  0.00    -0.332 N 
ATOM     22  C   UNL     1       3.788   6.648   3.615  1.00  0.00     0.147 C 
BRANCH  21  23
ATOM     23  C   UNL     1       4.172   8.520   5.231  1.00  0.00     0.178 C 
BRANCH  23  24
ATOM     24  C   UNL     1       5.498   7.985   5.811  1.00  0.00     0.070 C 
BRANCH  24  25
ATOM     25  C   UNL     1       5.462   7.436   7.218  1.00  0.00    -0.045 A 
ATOM     26  C   UNL     1       5.873   6.124   7.488  1.00  0.00     0.004 A 
ATOM     27  C   UNL     1       5.009   8.236   8.278  1.00  0.00     0.004 A 
ATOM     28  C   UNL     1       5.821   5.619   8.789  1.00  0.00     0.000 A 
ATOM     29  C   UNL     1       4.958   7.730   9.578  1.00  0.00     0.000 A 
ATOM     30  C   UNL     1       5.362   6.421   9.832  1.00  0.00     0.000 A 
ENDBRANCH  24  25
ENDBRANCH  23  24
BRANCH  23  31
ATOM     31  C   UNL     1       4.318   9.742   4.293  1.00  0.00     0.243 C 
ATOM     32  O   UNL     1       3.408  10.527   4.042  1.00  0.00    -0.273 OA
ATOM     33  N   UNL     1       5.520   9.772   3.607  1.00  0.00    -0.341 N 
ATOM     34  H   UNL     1       6.238   9.087   3.856  1.00  0.00     0.164 HD
BRANCH  33  35
ATOM     35  C   UNL     1       5.828  10.770   2.579  1.00  0.00     0.194 C 
BRANCH  35  36
ATOM     36  C   UNL     1       5.976  10.182   1.147  1.00  0.00     0.017 C 
ATOM     37  C   UNL     1       4.649   9.582   0.649  1.00  0.00     0.010 C 
ATOM     38  C   UNL     1       7.040   9.082   1.053  1.00  0.00     0.010 C 
ENDBRANCH  35  36
BRANCH  35  39
ATOM     39  C   UNL     1       7.035  11.671   2.963  1.00  0.00     0.329 C 
ATOM     40  O   UNL     1       7.672  11.558   4.003  1.00  0.00    -0.250 OA
BRANCH  39  41
ATOM     41  O   UNL     1       7.362  12.552   1.969  1.00  0.00    -0.458 OA
BRANCH  41  42
ATOM     42  C   UNL     1       7.871  13.839   2.396  1.00  0.00     0.205 CG0
ATOM     43  C   UNL     1       6.667  14.702   2.768  1.00  0.00     0.056 C 
ATOM     44  G   UNL     1       8.698  14.446   1.245  1.00  0.00     0.000 G0
ENDBRANCH  41  42
ENDBRANCH  39  41
ENDBRANCH  35  39
ENDBRANCH  33  35
ENDBRANCH  23  31
ENDBRANCH  21  23
ENDBRANCH  19  21
ENDBRANCH  14  19
ENDBRANCH   7  14
ENDBRANCH   2   5
BRANCH   3  45
ATOM     45  C   UNL     1      -3.865   1.999   7.004  1.00  0.00     0.171 C 
BRANCH  45  46
ATOM     46  N   UNL     1      -4.601   0.998   6.242  1.00  0.00    -0.342 N 
ATOM     47  C   UNL     1      -3.975  -0.007   5.549  1.00  0.00     0.247 C 
ATOM     48  O   UNL     1      -2.756  -0.180   5.578  1.00  0.00    -0.273 OA
ATOM     49  H   UNL     1      -5.617   1.072   6.237  1.00  0.00     0.164 HD
BRANCH  47  50
ATOM     50  C   UNL     1      -4.904  -0.891   4.705  1.00  0.00     0.212 CG0
ATOM     51  G   UNL     1      -6.278  -0.925   5.403  1.00  0.00     0.000 G0
BRANCH  50  52
ATOM     52  N   UNL     1      -4.943  -0.266   3.385  1.00  0.00    -0.339 N 
ATOM     53  C   UNL     1      -5.843   0.712   3.038  1.00  0.00     0.243 C 
ATOM     54  O   UNL     1      -6.724   1.102   3.800  1.00  0.00    -0.273 OA
ATOM     55  H   UNL     1      -4.310  -0.625   2.673  1.00  0.00     0.164 HD
BRANCH  53  56
ATOM     56  C   UNL     1      -5.749   1.157   1.565  1.00  0.00     0.182 C 
BRANCH  56  57
ATOM     57  N   UNL     1      -4.351   1.276   1.139  1.00  0.00    -0.344 N 
ATOM     58  C   UNL     1      -3.889   0.726  -0.032  1.00  0.00     0.220 C 
ATOM     59  O   UNL     1      -4.592   0.038  -0.764  1.00  0.00    -0.275 OA
ATOM     60  H   UNL     1      -3.763   1.919   1.662  1.00  0.00     0.164 HD
BRANCH  58  61
ATOM     61  C   UNL     1      -2.425   1.023  -0.300  1.00  0.00     0.100 C 
BRANCH  61  62
ATOM     62  C   UNL     1      -1.593  -0.220  -0.619  1.00  0.00     0.010 C 
BRANCH  62  63
ATOM     63  C   UNL     1      -0.362  -0.398   0.279  1.00  0.00     0.000 C 
BRANCH  63  64
ATOM     64  C   UNL     1      -0.493   0.246   1.658  1.00  0.00    -0.003 C 
ATOM     65  C   UNL     1      -0.876  -0.779   2.716  1.00  0.00     0.004 C 
ENDBRANCH  63  64
ENDBRANCH  62  63
ENDBRANCH  61  62
ENDBRANCH  58  61
ENDBRANCH  56  57
BRANCH  56  66
ATOM     66  C   UNL     1      -6.538   2.441   1.316  1.00  0.00     0.157 C 
BRANCH  66  67
ATOM     67  C   UNL     1      -7.341   2.350   0.051  1.00  0.00     0.305 C 
ATOM     68  O   UNL     1      -8.559   2.311  -0.043  1.00  0.00    -0.252 OA
BRANCH  67  69
ATOM     69  O   UNL     1      -6.566   2.364  -1.050  1.00  0.00    -0.481 OA
ATOM     70  H   UNL     1      -5.655   2.500  -0.713  1.00  0.00     0.296 HD
ENDBRANCH  67  69
ENDBRANCH  66  67
ENDBRANCH  56  66
ENDBRANCH  53  56
ENDBRANCH  50  52
ENDBRANCH  47  50
ENDBRANCH  45  46
BRANCH  45  71
ATOM     71  C   UNL     1      -4.769   2.726   8.005  1.00  0.00     0.037 C 
BRANCH  71  72
ATOM     72  C   UNL     1      -5.403   1.763   9.012  1.00  0.00     0.026 C 
BRANCH  72  73
ATOM     73  C   UNL     1      -5.536   2.403  10.392  1.00  0.00     0.146 C 
BRANCH  73  74
ATOM     74  N   UNL     1      -4.193   2.703  10.877  1.00  0.00    -0.254 NA
ATOM     75  C   UNL     1      -4.059   3.668  11.711  1.00  0.00     0.185 C 
ATOM     76  N   UNL     1      -2.835   3.967  12.176  1.00  0.00    -0.370 N 
ATOM     77  N   UNL     1      -5.001   4.477  12.227  1.00  0.00    -0.370 N 
ATOM     78  H   UNL     1      -2.066   3.411  11.832  1.00  0.00     0.159 HD
ATOM     79  H   UNL     1      -2.633   4.793  12.713  1.00  0.00     0.159 HD
ATOM     80  H   UNL     1      -5.970   4.365  11.969  1.00  0.00     0.159 HD
ATOM     81  H   UNL     1      -4.792   5.128  12.965  1.00  0.00     0.159 HD
ENDBRANCH  73  74
ENDBRANCH  72  73
ENDBRANCH  71  72
ENDBRANCH  45  71
ENDBRANCH   3  45
TORSDOF 20
ENDMDL
MODEL 37
REMARK VINA RESULT:    -4.533      6.321      9.393
REMARK INTER + INTRA:         -21.492
REMARK INTER:                 -15.135
REMARK INTRA:                  -6.357
REMARK UNBOUND:                -8.478
REMARK SMILES CCCCCC(=O)N[C@H](CC(=O)O)C(=O)N[C@H]1C(=O)N[C@H](CCCN=C(N)N)C(=O)N[C@@H]2CC[C@H](O)N(C2=O)[C@@H](CC(C)C)C(=O)N(C)[C@@H](Cc2ccccc2)C(=O)N[C@H](C(C)C)C(=O)O[C@@H]1C
REMARK SMILES IDX 30 1 31 2 29 3 32 5 35 6 37 7 34 8 38 9 33 10 39 11 36 12
REMARK SMILES IDX 40 14 41 15 42 16 43 17 44 18 45 19 46 20 47 21 48 22 49 23
REMARK SMILES IDX 50 24 51 25 52 26 56 27 53 28 55 29 54 30 57 31 58 32 59 33
REMARK SMILES IDX 60 35 61 36 62 37 63 38 64 39 65 40 66 41 67 42 68 43 21 45
REMARK SMILES IDX 20 46 18 47 19 48 17 50 16 52 14 53 15 54 9 56 8 57 6 58
REMARK SMILES IDX 7 59 5 61 4 62 3 63 2 64 1 65 10 66 11 67 12 68 13 69 22 71
REMARK SMILES IDX 23 72 24 73 25 74 26 75 27 76 28 77
REMARK H PARENT 31 4 36 13 59 34 20 49 16 55 8 60 13 70 27 78 27 79 28 80
REMARK H PARENT 28 81
REMARK Flexibility Score:  259.900
ROOT
ATOM      1  O   UNL     1      -1.127   3.429   3.076  1.00  0.00    -0.273 OA
ATOM      2  N   UNL     1       0.419   5.089   2.786  1.00  0.00    -0.343 N 
ATOM      3  C   UNL     1      -0.463   4.139   2.319  1.00  0.00     0.243 C 
ATOM      4  H   UNL     1       0.938   5.665   2.134  1.00  0.00     0.164 HD
ENDROOT
BRANCH   2   5
ATOM      5  C   UNL     1       0.693   5.212   4.213  1.00  0.00     0.171 C 
ATOM      6  C   UNL     1       1.819   7.344   5.822  1.00  0.00     0.214 C 
ATOM      7  N   UNL     1       2.692   6.336   5.268  1.00  0.00    -0.303 N 
ATOM      8  C   UNL     1       0.418   6.832   6.117  1.00  0.00     0.057 C 
ATOM      9  C   UNL     1       2.226   5.319   4.450  1.00  0.00     0.247 C 
ATOM     10  C   UNL     1      -0.200   6.274   4.853  1.00  0.00     0.040 C 
ATOM     11  O   UNL     1       2.992   4.511   3.909  1.00  0.00    -0.272 OA
BRANCH   6  12
ATOM     12  O   UNL     1       1.768   8.418   4.911  1.00  0.00    -0.373 OA
ATOM     13  H   UNL     1       1.155   9.085   5.286  1.00  0.00     0.213 HD
ENDBRANCH   6  12
BRANCH   7  14
ATOM     14  C   UNL     1       4.143   6.512   5.488  1.00  0.00     0.177 C 
BRANCH  14  15
ATOM     15  C   UNL     1       4.713   7.874   5.048  1.00  0.00     0.038 C 
BRANCH  15  16
ATOM     16  C   UNL     1       5.470   7.986   3.707  1.00  0.00    -0.015 C 
ATOM     17  C   UNL     1       5.916   6.622   3.172  1.00  0.00     0.007 C 
ATOM     18  C   UNL     1       6.716   8.862   3.885  1.00  0.00     0.007 C 
ENDBRANCH  15  16
ENDBRANCH  14  15
BRANCH  14  19
ATOM     19  C   UNL     1       4.605   5.698   6.746  1.00  0.00     0.245 C 
ATOM     20  O   UNL     1       5.114   4.585   6.536  1.00  0.00    -0.272 OA
BRANCH  19  21
ATOM     21  N   UNL     1       4.375   6.099   8.050  1.00  0.00    -0.332 N 
ATOM     22  C   UNL     1       3.251   5.689   8.872  1.00  0.00     0.147 C 
BRANCH  21  23
ATOM     23  C   UNL     1       5.349   7.039   8.670  1.00  0.00     0.178 C 
BRANCH  23  24
ATOM     24  C   UNL     1       4.722   8.308   9.282  1.00  0.00     0.070 C 
BRANCH  24  25
ATOM     25  C   UNL     1       5.350   9.632   8.915  1.00  0.00    -0.045 A 
ATOM     26  C   UNL     1       5.281  10.119   7.603  1.00  0.00     0.004 A 
ATOM     27  C   UNL     1       6.017  10.393   9.886  1.00  0.00     0.004 A 
ATOM     28  C   UNL     1       5.879  11.336   7.267  1.00  0.00     0.000 A 
ATOM     29  C   UNL     1       6.613  11.609   9.549  1.00  0.00     0.000 A 
ATOM     30  C   UNL     1       6.546  12.078   8.239  1.00  0.00     0.000 A 
ENDBRANCH  24  25
ENDBRANCH  23  24
BRANCH  23  31
ATOM     31  C   UNL     1       6.386   6.326   9.571  1.00  0.00     0.243 C 
ATOM     32  O   UNL     1       6.803   5.188   9.370  1.00  0.00    -0.273 OA
ATOM     33  N   UNL     1       6.671   7.014  10.738  1.00  0.00    -0.341 N 
ATOM     34  H   UNL     1       6.290   7.957  10.851  1.00  0.00     0.164 HD
BRANCH  33  35
ATOM     35  C   UNL     1       7.534   6.475  11.793  1.00  0.00     0.194 C 
BRANCH  35  36
ATOM     36  C   UNL     1       6.762   5.785  12.953  1.00  0.00     0.017 C 
ATOM     37  C   UNL     1       6.626   4.272  12.713  1.00  0.00     0.010 C 
ATOM     38  C   UNL     1       5.349   6.346  13.156  1.00  0.00     0.010 C 
ENDBRANCH  35  36
BRANCH  35  39
ATOM     39  C   UNL     1       8.560   7.517  12.318  1.00  0.00     0.329 C 
ATOM     40  O   UNL     1       9.646   7.226  12.804  1.00  0.00    -0.250 OA
BRANCH  39  41
ATOM     41  O   UNL     1       8.153   8.804  12.097  1.00  0.00    -0.458 OA
BRANCH  41  42
ATOM     42  C   UNL     1       8.373   9.741  13.178  1.00  0.00     0.205 CG0
ATOM     43  C   UNL     1       7.018  10.006  13.832  1.00  0.00     0.056 C 
ATOM     44  G   UNL     1       9.009  11.020  12.599  1.00  0.00     0.000 G0
ENDBRANCH  41  42
ENDBRANCH  39  41
ENDBRANCH  35  39
ENDBRANCH  33  35
ENDBRANCH  23  31
ENDBRANCH  21  23
ENDBRANCH  19  21
ENDBRANCH  14  19
ENDBRANCH   7  14
ENDBRANCH   2   5
BRANCH   3  45
ATOM     45  C   UNL     1      -0.577   4.041   0.792  1.00  0.00     0.171 C 
BRANCH  45  46
ATOM     46  N   UNL     1      -1.677   3.120   0.538  1.00  0.00    -0.342 N 
ATOM     47  C   UNL     1      -2.623   3.352  -0.429  1.00  0.00     0.247 C 
ATOM     48  O   UNL     1      -2.570   4.313  -1.198  1.00  0.00    -0.273 OA
ATOM     49  H   UNL     1      -1.726   2.282   1.114  1.00  0.00     0.164 HD
BRANCH  47  50
ATOM     50  C   UNL     1      -3.774   2.338  -0.469  1.00  0.00     0.212 CG0
ATOM     51  G   UNL     1      -3.660   1.553  -1.791  1.00  0.00     0.000 G0
BRANCH  50  52
ATOM     52  N   UNL     1      -3.599   1.502   0.716  1.00  0.00    -0.339 N 
ATOM     53  C   UNL     1      -3.200   0.189   0.662  1.00  0.00     0.243 C 
ATOM     54  O   UNL     1      -3.010  -0.402  -0.398  1.00  0.00    -0.273 OA
ATOM     55  H   UNL     1      -3.848   1.903   1.618  1.00  0.00     0.164 HD
BRANCH  53  56
ATOM     56  C   UNL     1      -3.168  -0.514   2.034  1.00  0.00     0.182 C 
BRANCH  56  57
ATOM     57  N   UNL     1      -3.663   0.373   3.092  1.00  0.00    -0.344 N 
ATOM     58  C   UNL     1      -4.655  -0.002   3.964  1.00  0.00     0.220 C 
ATOM     59  O   UNL     1      -5.246  -1.073   3.875  1.00  0.00    -0.275 OA
ATOM     60  H   UNL     1      -3.133   1.224   3.263  1.00  0.00     0.164 HD
BRANCH  58  61
ATOM     61  C   UNL     1      -4.965   1.051   5.011  1.00  0.00     0.100 C 
BRANCH  61  62
ATOM     62  C   UNL     1      -4.004   2.239   4.994  1.00  0.00     0.010 C 
BRANCH  62  63
ATOM     63  C   UNL     1      -3.093   2.328   6.226  1.00  0.00     0.000 C 
BRANCH  63  64
ATOM     64  C   UNL     1      -2.503   3.715   6.470  1.00  0.00    -0.003 C 
ATOM     65  C   UNL     1      -3.120   4.753   5.543  1.00  0.00     0.004 C 
ENDBRANCH  63  64
ENDBRANCH  62  63
ENDBRANCH  61  62
ENDBRANCH  58  61
ENDBRANCH  56  57
BRANCH  56  66
ATOM     66  C   UNL     1      -1.780  -1.068   2.348  1.00  0.00     0.157 C 
BRANCH  66  67
ATOM     67  C   UNL     1      -0.782   0.039   2.532  1.00  0.00     0.305 C 
ATOM     68  O   UNL     1      -0.127   0.588   1.659  1.00  0.00    -0.252 OA
BRANCH  67  69
ATOM     69  O   UNL     1      -0.693   0.441   3.814  1.00  0.00    -0.481 OA
ATOM     70  H   UNL     1      -0.968   1.382   3.801  1.00  0.00     0.296 HD
ENDBRANCH  67  69
ENDBRANCH  66  67
ENDBRANCH  56  66
ENDBRANCH  53  56
ENDBRANCH  50  52
ENDBRANCH  47  50
ENDBRANCH  45  46
BRANCH  45  71
ATOM     71  C   UNL     1       0.737   3.532   0.190  1.00  0.00     0.037 C 
BRANCH  71  72
ATOM     72  C   UNL     1       1.021   4.152  -1.180  1.00  0.00     0.026 C 
BRANCH  72  73
ATOM     73  C   UNL     1       0.623   5.625  -1.221  1.00  0.00     0.146 C 
BRANCH  73  74
ATOM     74  N   UNL     1       1.754   6.408  -0.731  1.00  0.00    -0.254 NA
ATOM     75  C   UNL     1       2.147   7.401  -1.439  1.00  0.00     0.185 C 
ATOM     76  N   UNL     1       3.184   8.141  -1.014  1.00  0.00    -0.370 N 
ATOM     77  N   UNL     1       1.660   7.850  -2.609  1.00  0.00    -0.370 N 
ATOM     78  H   UNL     1       3.615   7.866  -0.143  1.00  0.00     0.159 HD
ATOM     79  H   UNL     1       3.636   8.837  -1.579  1.00  0.00     0.159 HD
ATOM     80  H   UNL     1       0.875   7.393  -3.048  1.00  0.00     0.159 HD
ATOM     81  H   UNL     1       1.978   8.714  -3.017  1.00  0.00     0.159 HD
ENDBRANCH  73  74
ENDBRANCH  72  73
ENDBRANCH  71  72
ENDBRANCH  45  71
ENDBRANCH   3  45
TORSDOF 20
ENDMDL
MODEL 38
REMARK VINA RESULT:    -4.532      6.683     10.482
REMARK INTER + INTRA:         -21.487
REMARK INTER:                 -16.089
REMARK INTRA:                  -5.398
REMARK UNBOUND:                -8.478
REMARK SMILES CCCCCC(=O)N[C@H](CC(=O)O)C(=O)N[C@H]1C(=O)N[C@H](CCCN=C(N)N)C(=O)N[C@@H]2CC[C@H](O)N(C2=O)[C@@H](CC(C)C)C(=O)N(C)[C@@H](Cc2ccccc2)C(=O)N[C@H](C(C)C)C(=O)O[C@@H]1C
REMARK SMILES IDX 30 1 31 2 29 3 32 5 35 6 37 7 34 8 38 9 33 10 39 11 36 12
REMARK SMILES IDX 40 14 41 15 42 16 43 17 44 18 45 19 46 20 47 21 48 22 49 23
REMARK SMILES IDX 50 24 51 25 52 26 56 27 53 28 55 29 54 30 57 31 58 32 59 33
REMARK SMILES IDX 60 35 61 36 62 37 63 38 64 39 65 40 66 41 67 42 68 43 21 45
REMARK SMILES IDX 20 46 18 47 19 48 17 50 16 52 14 53 15 54 9 56 8 57 6 58
REMARK SMILES IDX 7 59 5 61 4 62 3 63 2 64 1 65 10 66 11 67 12 68 13 69 22 71
REMARK SMILES IDX 23 72 24 73 25 74 26 75 27 76 28 77
REMARK H PARENT 31 4 36 13 59 34 20 49 16 55 8 60 13 70 27 78 27 79 28 80
REMARK H PARENT 28 81
REMARK Flexibility Score:  259.900
ROOT
ATOM      1  O   UNL     1       2.165   2.848  -7.283  1.00  0.00    -0.273 OA
ATOM      2  N   UNL     1       1.990   1.456  -5.477  1.00  0.00    -0.343 N 
ATOM      3  C   UNL     1       2.403   1.761  -6.757  1.00  0.00     0.243 C 
ATOM      4  H   UNL     1       2.217   0.557  -5.071  1.00  0.00     0.164 HD
ENDROOT
BRANCH   2   5
ATOM      5  C   UNL     1       1.141   2.378  -4.732  1.00  0.00     0.171 C 
ATOM      6  C   UNL     1       0.449   2.577  -1.924  1.00  0.00     0.214 C 
ATOM      7  N   UNL     1      -0.382   1.792  -2.806  1.00  0.00    -0.303 N 
ATOM      8  C   UNL     1       1.132   3.743  -2.620  1.00  0.00     0.057 C 
ATOM      9  C   UNL     1      -0.081   1.613  -4.146  1.00  0.00     0.247 C 
ATOM     10  C   UNL     1       1.968   3.233  -3.773  1.00  0.00     0.040 C 
ATOM     11  O   UNL     1      -0.749   0.869  -4.876  1.00  0.00    -0.272 OA
BRANCH   6  12
ATOM     12  O   UNL     1       1.406   1.715  -1.353  1.00  0.00    -0.373 OA
ATOM     13  H   UNL     1       0.930   0.906  -1.067  1.00  0.00     0.213 HD
ENDBRANCH   6  12
BRANCH   7  14
ATOM     14  C   UNL     1      -1.504   1.052  -2.189  1.00  0.00     0.177 C 
BRANCH  14  15
ATOM     15  C   UNL     1      -2.889   1.323  -2.809  1.00  0.00     0.038 C 
BRANCH  15  16
ATOM     16  C   UNL     1      -3.783   2.435  -2.217  1.00  0.00    -0.015 C 
ATOM     17  C   UNL     1      -5.264   2.235  -2.555  1.00  0.00     0.007 C 
ATOM     18  C   UNL     1      -3.345   3.799  -2.764  1.00  0.00     0.007 C 
ENDBRANCH  15  16
ENDBRANCH  14  15
BRANCH  14  19
ATOM     19  C   UNL     1      -1.009  -0.332  -1.645  1.00  0.00     0.245 C 
ATOM     20  O   UNL     1      -0.604  -1.151  -2.487  1.00  0.00    -0.272 OA
BRANCH  19  21
ATOM     21  N   UNL     1      -1.105  -0.719  -0.320  1.00  0.00    -0.332 N 
ATOM     22  C   UNL     1      -0.140  -0.409   0.720  1.00  0.00     0.147 C 
BRANCH  21  23
ATOM     23  C   UNL     1      -2.285  -1.532   0.084  1.00  0.00     0.178 C 
BRANCH  23  24
ATOM     24  C   UNL     1      -1.947  -2.936   0.625  1.00  0.00     0.070 C 
BRANCH  24  25
ATOM     25  C   UNL     1      -3.007  -4.003   0.480  1.00  0.00    -0.045 A 
ATOM     26  C   UNL     1      -3.511  -4.671   1.604  1.00  0.00     0.004 A 
ATOM     27  C   UNL     1      -3.500  -4.344  -0.789  1.00  0.00     0.004 A 
ATOM     28  C   UNL     1      -4.478  -5.668   1.460  1.00  0.00     0.000 A 
ATOM     29  C   UNL     1      -4.468  -5.339  -0.931  1.00  0.00     0.000 A 
ATOM     30  C   UNL     1      -4.954  -6.003   0.194  1.00  0.00     0.000 A 
ENDBRANCH  24  25
ENDBRANCH  23  24
BRANCH  23  31
ATOM     31  C   UNL     1      -3.305  -0.736   0.931  1.00  0.00     0.243 C 
ATOM     32  O   UNL     1      -4.042   0.137   0.479  1.00  0.00    -0.273 OA
ATOM     33  N   UNL     1      -3.189  -0.961   2.292  1.00  0.00    -0.341 N 
ATOM     34  H   UNL     1      -2.554  -1.697   2.610  1.00  0.00     0.164 HD
BRANCH  33  35
ATOM     35  C   UNL     1      -3.970  -0.228   3.293  1.00  0.00     0.194 C 
BRANCH  35  36
ATOM     36  C   UNL     1      -3.135   0.283   4.501  1.00  0.00     0.017 C 
ATOM     37  C   UNL     1      -3.556   1.705   4.910  1.00  0.00     0.010 C 
ATOM     38  C   UNL     1      -1.627   0.314   4.223  1.00  0.00     0.010 C 
ENDBRANCH  35  36
BRANCH  35  39
ATOM     39  C   UNL     1      -5.235  -1.006   3.750  1.00  0.00     0.329 C 
ATOM     40  O   UNL     1      -5.355  -2.223   3.680  1.00  0.00    -0.250 OA
BRANCH  39  41
ATOM     41  O   UNL     1      -6.170  -0.188   4.323  1.00  0.00    -0.458 OA
BRANCH  41  42
ATOM     42  C   UNL     1      -6.862  -0.717   5.480  1.00  0.00     0.205 CG0
ATOM     43  C   UNL     1      -8.347  -0.407   5.301  1.00  0.00     0.056 C 
ATOM     44  G   UNL     1      -6.271  -0.065   6.746  1.00  0.00     0.000 G0
ENDBRANCH  41  42
ENDBRANCH  39  41
ENDBRANCH  35  39
ENDBRANCH  33  35
ENDBRANCH  23  31
ENDBRANCH  21  23
ENDBRANCH  19  21
ENDBRANCH  14  19
ENDBRANCH   7  14
ENDBRANCH   2   5
BRANCH   3  45
ATOM     45  C   UNL     1       3.199   0.661  -7.470  1.00  0.00     0.171 C 
BRANCH  45  46
ATOM     46  N   UNL     1       4.341   1.331  -8.078  1.00  0.00    -0.342 N 
ATOM     47  C   UNL     1       5.583   0.752  -8.148  1.00  0.00     0.247 C 
ATOM     48  O   UNL     1       5.807  -0.399  -7.771  1.00  0.00    -0.273 OA
ATOM     49  H   UNL     1       4.187   2.265  -8.454  1.00  0.00     0.164 HD
BRANCH  47  50
ATOM     50  C   UNL     1       6.691   1.656  -8.708  1.00  0.00     0.212 CG0
ATOM     51  G   UNL     1       6.012   2.803  -9.482  1.00  0.00     0.000 G0
BRANCH  50  52
ATOM     52  N   UNL     1       7.447   2.112  -7.545  1.00  0.00    -0.339 N 
ATOM     53  C   UNL     1       7.057   3.169  -6.758  1.00  0.00     0.243 C 
ATOM     54  O   UNL     1       6.065   3.848  -7.005  1.00  0.00    -0.273 OA
ATOM     55  H   UNL     1       8.338   1.660  -7.353  1.00  0.00     0.164 HD
BRANCH  53  56
ATOM     56  C   UNL     1       8.059   3.521  -5.640  1.00  0.00     0.182 C 
BRANCH  56  57
ATOM     57  N   UNL     1       7.395   3.567  -4.333  1.00  0.00    -0.344 N 
ATOM     58  C   UNL     1       7.729   2.717  -3.307  1.00  0.00     0.220 C 
ATOM     59  O   UNL     1       8.551   1.816  -3.433  1.00  0.00    -0.275 OA
ATOM     60  H   UNL     1       6.784   4.360  -4.155  1.00  0.00     0.164 HD
BRANCH  58  61
ATOM     61  C   UNL     1       6.954   2.983  -2.029  1.00  0.00     0.100 C 
BRANCH  61  62
ATOM     62  C   UNL     1       5.491   3.358  -2.263  1.00  0.00     0.010 C 
BRANCH  62  63
ATOM     63  C   UNL     1       4.783   3.924  -1.025  1.00  0.00     0.000 C 
BRANCH  63  64
ATOM     64  C   UNL     1       4.231   5.336  -1.209  1.00  0.00    -0.003 C 
ATOM     65  C   UNL     1       3.309   5.726  -0.063  1.00  0.00     0.004 C 
ENDBRANCH  63  64
ENDBRANCH  62  63
ENDBRANCH  61  62
ENDBRANCH  58  61
ENDBRANCH  56  57
BRANCH  56  66
ATOM     66  C   UNL     1       8.813   4.813  -5.949  1.00  0.00     0.157 C 
BRANCH  66  67
ATOM     67  C   UNL     1       9.617   4.684  -7.211  1.00  0.00     0.305 C 
ATOM     68  O   UNL     1      10.287   3.724  -7.558  1.00  0.00    -0.252 OA
BRANCH  67  69
ATOM     69  O   UNL     1       9.497   5.764  -8.006  1.00  0.00    -0.481 OA
ATOM     70  H   UNL     1      10.155   6.404  -7.661  1.00  0.00     0.296 HD
ENDBRANCH  67  69
ENDBRANCH  66  67
ENDBRANCH  56  66
ENDBRANCH  53  56
ENDBRANCH  50  52
ENDBRANCH  47  50
ENDBRANCH  45  46
BRANCH  45  71
ATOM     71  C   UNL     1       2.326  -0.034  -8.521  1.00  0.00     0.037 C 
BRANCH  71  72
ATOM     72  C   UNL     1       0.939  -0.385  -7.977  1.00  0.00     0.026 C 
BRANCH  72  73
ATOM     73  C   UNL     1       0.901  -1.804  -7.413  1.00  0.00     0.146 C 
BRANCH  73  74
ATOM     74  N   UNL     1       1.169  -1.723  -5.981  1.00  0.00    -0.254 NA
ATOM     75  C   UNL     1       1.370  -2.818  -5.346  1.00  0.00     0.185 C 
ATOM     76  N   UNL     1       1.620  -2.776  -4.027  1.00  0.00    -0.370 N 
ATOM     77  N   UNL     1       1.373  -4.078  -5.815  1.00  0.00    -0.370 N 
ATOM     78  H   UNL     1       1.629  -1.865  -3.592  1.00  0.00     0.159 HD
ATOM     79  H   UNL     1       1.643  -3.593  -3.442  1.00  0.00     0.159 HD
ATOM     80  H   UNL     1       1.203  -4.263  -6.792  1.00  0.00     0.159 HD
ATOM     81  H   UNL     1       1.659  -4.855  -5.242  1.00  0.00     0.159 HD
ENDBRANCH  73  74
ENDBRANCH  72  73
ENDBRANCH  71  72
ENDBRANCH  45  71
ENDBRANCH   3  45
TORSDOF 20
ENDMDL
MODEL 39
REMARK VINA RESULT:    -4.510      5.965     13.906
REMARK INTER + INTRA:         -21.425
REMARK INTER:                 -15.636
REMARK INTRA:                  -5.789
REMARK UNBOUND:                -8.478
REMARK SMILES CCCCCC(=O)N[C@H](CC(=O)O)C(=O)N[C@H]1C(=O)N[C@H](CCCN=C(N)N)C(=O)N[C@@H]2CC[C@H](O)N(C2=O)[C@@H](CC(C)C)C(=O)N(C)[C@@H](Cc2ccccc2)C(=O)N[C@H](C(C)C)C(=O)O[C@@H]1C
REMARK SMILES IDX 30 1 31 2 29 3 32 5 35 6 37 7 34 8 38 9 33 10 39 11 36 12
REMARK SMILES IDX 40 14 41 15 42 16 43 17 44 18 45 19 46 20 47 21 48 22 49 23
REMARK SMILES IDX 50 24 51 25 52 26 56 27 53 28 55 29 54 30 57 31 58 32 59 33
REMARK SMILES IDX 60 35 61 36 62 37 63 38 64 39 65 40 66 41 67 42 68 43 21 45
REMARK SMILES IDX 20 46 18 47 19 48 17 50 16 52 14 53 15 54 9 56 8 57 6 58
REMARK SMILES IDX 7 59 5 61 4 62 3 63 2 64 1 65 10 66 11 67 12 68 13 69 22 71
REMARK SMILES IDX 23 72 24 73 25 74 26 75 27 76 28 77
REMARK H PARENT 31 4 36 13 59 34 20 49 16 55 8 60 13 70 27 78 27 79 28 80
REMARK H PARENT 28 81
REMARK Flexibility Score:  259.900
ROOT
ATOM      1  O   UNL     1      -2.195   4.378  -0.862  1.00  0.00    -0.273 OA
ATOM      2  N   UNL     1      -1.870   5.188  -2.976  1.00  0.00    -0.343 N 
ATOM      3  C   UNL     1      -2.665   4.793  -1.921  1.00  0.00     0.243 C 
ATOM      4  H   UNL     1      -2.292   5.538  -3.827  1.00  0.00     0.164 HD
ENDROOT
BRANCH   2   5
ATOM      5  C   UNL     1      -0.423   5.016  -2.920  1.00  0.00     0.171 C 
ATOM      6  C   UNL     1       1.753   6.163  -4.454  1.00  0.00     0.214 C 
ATOM      7  N   UNL     1       1.155   4.922  -4.888  1.00  0.00    -0.303 N 
ATOM      8  C   UNL     1       1.701   6.361  -2.948  1.00  0.00     0.057 C 
ATOM      9  C   UNL     1       0.080   4.346  -4.231  1.00  0.00     0.247 C 
ATOM     10  C   UNL     1       0.266   6.304  -2.472  1.00  0.00     0.040 C 
ATOM     11  O   UNL     1      -0.482   3.329  -4.658  1.00  0.00    -0.272 OA
BRANCH   6  12
ATOM     12  O   UNL     1       1.087   7.215  -5.113  1.00  0.00    -0.373 OA
ATOM     13  H   UNL     1       0.575   7.702  -4.431  1.00  0.00     0.213 HD
ENDBRANCH   6  12
BRANCH   7  14
ATOM     14  C   UNL     1       1.642   4.352  -6.162  1.00  0.00     0.177 C 
BRANCH  14  15
ATOM     15  C   UNL     1       1.186   5.098  -7.431  1.00  0.00     0.038 C 
BRANCH  15  16
ATOM     16  C   UNL     1      -0.047   4.590  -8.212  1.00  0.00    -0.015 C 
ATOM     17  C   UNL     1      -1.364   5.099  -7.620  1.00  0.00     0.007 C 
ATOM     18  C   UNL     1      -0.074   3.056  -8.196  1.00  0.00     0.007 C 
ENDBRANCH  15  16
ENDBRANCH  14  15
BRANCH  14  19
ATOM     19  C   UNL     1       3.045   3.684  -5.958  1.00  0.00     0.245 C 
ATOM     20  O   UNL     1       3.078   2.650  -5.270  1.00  0.00    -0.272 OA
BRANCH  19  21
ATOM     21  N   UNL     1       4.234   4.237  -6.399  1.00  0.00    -0.332 N 
ATOM     22  C   UNL     1       4.890   5.397  -5.821  1.00  0.00     0.147 C 
BRANCH  21  23
ATOM     23  C   UNL     1       4.902   3.607  -7.572  1.00  0.00     0.178 C 
BRANCH  23  24
ATOM     24  C   UNL     1       5.073   4.534  -8.792  1.00  0.00     0.070 C 
BRANCH  24  25
ATOM     25  C   UNL     1       3.902   4.646  -9.741  1.00  0.00    -0.045 A 
ATOM     26  C   UNL     1       3.257   3.500 -10.223  1.00  0.00     0.004 A 
ATOM     27  C   UNL     1       3.448   5.907 -10.158  1.00  0.00     0.004 A 
ATOM     28  C   UNL     1       2.186   3.612 -11.113  1.00  0.00     0.000 A 
ATOM     29  C   UNL     1       2.377   6.017 -11.046  1.00  0.00     0.000 A 
ATOM     30  C   UNL     1       1.749   4.869 -11.525  1.00  0.00     0.000 A 
ENDBRANCH  24  25
ENDBRANCH  23  24
BRANCH  23  31
ATOM     31  C   UNL     1       6.163   2.799  -7.185  1.00  0.00     0.243 C 
ATOM     32  O   UNL     1       6.136   1.729  -6.583  1.00  0.00    -0.273 OA
ATOM     33  N   UNL     1       7.348   3.479  -7.415  1.00  0.00    -0.341 N 
ATOM     34  H   UNL     1       7.307   4.369  -7.916  1.00  0.00     0.164 HD
BRANCH  33  35
ATOM     35  C   UNL     1       8.658   2.957  -7.017  1.00  0.00     0.194 C 
BRANCH  35  36
ATOM     36  C   UNL     1       9.566   3.998  -6.303  1.00  0.00     0.017 C 
ATOM     37  C   UNL     1      10.333   3.361  -5.132  1.00  0.00     0.010 C 
ATOM     38  C   UNL     1       8.788   5.196  -5.745  1.00  0.00     0.010 C 
ENDBRANCH  35  36
BRANCH  35  39
ATOM     39  C   UNL     1       9.398   2.246  -8.185  1.00  0.00     0.329 C 
ATOM     40  O   UNL     1       9.160   1.101  -8.551  1.00  0.00    -0.250 OA
BRANCH  39  41
ATOM     41  O   UNL     1      10.286   3.072  -8.817  1.00  0.00    -0.458 OA
BRANCH  41  42
ATOM     42  C   UNL     1       9.751   3.897  -9.879  1.00  0.00     0.205 CG0
ATOM     43  C   UNL     1       9.629   3.016 -11.120  1.00  0.00     0.056 C 
ATOM     44  G   UNL     1      10.698   5.094 -10.096  1.00  0.00     0.000 G0
ENDBRANCH  41  42
ENDBRANCH  39  41
ENDBRANCH  35  39
ENDBRANCH  33  35
ENDBRANCH  23  31
ENDBRANCH  21  23
ENDBRANCH  19  21
ENDBRANCH  14  19
ENDBRANCH   7  14
ENDBRANCH   2   5
BRANCH   3  45
ATOM     45  C   UNL     1      -4.176   4.927  -2.151  1.00  0.00     0.171 C 
BRANCH  45  46
ATOM     46  N   UNL     1      -4.795   4.687  -0.854  1.00  0.00    -0.342 N 
ATOM     47  C   UNL     1      -5.807   5.473  -0.364  1.00  0.00     0.247 C 
ATOM     48  O   UNL     1      -6.314   6.390  -1.011  1.00  0.00    -0.273 OA
ATOM     49  H   UNL     1      -4.444   3.902  -0.309  1.00  0.00     0.164 HD
BRANCH  47  50
ATOM     50  C   UNL     1      -6.248   5.146   1.069  1.00  0.00     0.212 CG0
ATOM     51  G   UNL     1      -7.012   3.808   1.029  1.00  0.00     0.000 G0
BRANCH  50  52
ATOM     52  N   UNL     1      -5.017   5.084   1.852  1.00  0.00    -0.339 N 
ATOM     53  C   UNL     1      -4.317   3.922   2.069  1.00  0.00     0.243 C 
ATOM     54  O   UNL     1      -4.706   2.830   1.664  1.00  0.00    -0.273 OA
ATOM     55  H   UNL     1      -4.703   5.939   2.308  1.00  0.00     0.164 HD
BRANCH  53  56
ATOM     56  C   UNL     1      -3.097   4.089   2.997  1.00  0.00     0.182 C 
BRANCH  56  57
ATOM     57  N   UNL     1      -3.503   4.098   4.406  1.00  0.00    -0.344 N 
ATOM     58  C   UNL     1      -3.082   3.144   5.300  1.00  0.00     0.220 C 
ATOM     59  O   UNL     1      -2.399   2.180   4.969  1.00  0.00    -0.275 OA
ATOM     60  H   UNL     1      -3.982   4.930   4.742  1.00  0.00     0.164 HD
BRANCH  58  61
ATOM     61  C   UNL     1      -3.578   3.384   6.714  1.00  0.00     0.100 C 
BRANCH  61  62
ATOM     62  C   UNL     1      -4.714   2.451   7.135  1.00  0.00     0.010 C 
BRANCH  62  63
ATOM     63  C   UNL     1      -4.831   2.250   8.651  1.00  0.00     0.000 C 
BRANCH  63  64
ATOM     64  C   UNL     1      -4.986   0.791   9.079  1.00  0.00    -0.003 C 
ATOM     65  C   UNL     1      -4.571   0.592  10.530  1.00  0.00     0.004 C 
ENDBRANCH  63  64
ENDBRANCH  62  63
ENDBRANCH  61  62
ENDBRANCH  58  61
ENDBRANCH  56  57
BRANCH  56  66
ATOM     66  C   UNL     1      -2.275   5.322   2.626  1.00  0.00     0.157 C 
BRANCH  66  67
ATOM     67  C   UNL     1      -2.385   6.386   3.680  1.00  0.00     0.305 C 
ATOM     68  O   UNL     1      -1.572   6.636   4.557  1.00  0.00    -0.252 OA
BRANCH  67  69
ATOM     69  O   UNL     1      -3.502   7.126   3.547  1.00  0.00    -0.481 OA
ATOM     70  H   UNL     1      -3.597   7.593   4.404  1.00  0.00     0.296 HD
ENDBRANCH  67  69
ENDBRANCH  66  67
ENDBRANCH  56  66
ENDBRANCH  53  56
ENDBRANCH  50  52
ENDBRANCH  47  50
ENDBRANCH  45  46
BRANCH  45  71
ATOM     71  C   UNL     1      -4.648   3.914  -3.200  1.00  0.00     0.037 C 
BRANCH  71  72
ATOM     72  C   UNL     1      -5.676   4.516  -4.161  1.00  0.00     0.026 C 
BRANCH  72  73
ATOM     73  C   UNL     1      -6.754   3.502  -4.537  1.00  0.00     0.146 C 
BRANCH  73  74
ATOM     74  N   UNL     1      -7.539   3.220  -3.339  1.00  0.00    -0.254 NA
ATOM     75  C   UNL     1      -8.021   2.040  -3.203  1.00  0.00     0.185 C 
ATOM     76  N   UNL     1      -8.747   1.750  -2.111  1.00  0.00    -0.370 N 
ATOM     77  N   UNL     1      -7.911   0.982  -4.025  1.00  0.00    -0.370 N 
ATOM     78  H   UNL     1      -8.885   2.495  -1.442  1.00  0.00     0.159 HD
ATOM     79  H   UNL     1      -9.273   0.901  -2.005  1.00  0.00     0.159 HD
ATOM     80  H   UNL     1      -7.389   1.053  -4.885  1.00  0.00     0.159 HD
ATOM     81  H   UNL     1      -8.237   0.069  -3.757  1.00  0.00     0.159 HD
ENDBRANCH  73  74
ENDBRANCH  72  73
ENDBRANCH  71  72
ENDBRANCH  45  71
ENDBRANCH   3  45
TORSDOF 20
ENDMDL
MODEL 40
REMARK VINA RESULT:    -4.462      7.132     10.938
REMARK INTER + INTRA:         -21.287
REMARK INTER:                 -16.061
REMARK INTRA:                  -5.226
REMARK UNBOUND:                -8.478
REMARK SMILES CCCCCC(=O)N[C@H](CC(=O)O)C(=O)N[C@H]1C(=O)N[C@H](CCCN=C(N)N)C(=O)N[C@@H]2CC[C@H](O)N(C2=O)[C@@H](CC(C)C)C(=O)N(C)[C@@H](Cc2ccccc2)C(=O)N[C@H](C(C)C)C(=O)O[C@@H]1C
REMARK SMILES IDX 30 1 31 2 29 3 32 5 35 6 37 7 34 8 38 9 33 10 39 11 36 12
REMARK SMILES IDX 40 14 41 15 42 16 43 17 44 18 45 19 46 20 47 21 48 22 49 23
REMARK SMILES IDX 50 24 51 25 52 26 56 27 53 28 55 29 54 30 57 31 58 32 59 33
REMARK SMILES IDX 60 35 61 36 62 37 63 38 64 39 65 40 66 41 67 42 68 43 21 45
REMARK SMILES IDX 20 46 18 47 19 48 17 50 16 52 14 53 15 54 9 56 8 57 6 58
REMARK SMILES IDX 7 59 5 61 4 62 3 63 2 64 1 65 10 66 11 67 12 68 13 69 22 71
REMARK SMILES IDX 23 72 24 73 25 74 26 75 27 76 28 77
REMARK H PARENT 31 4 36 13 59 34 20 49 16 55 8 60 13 70 27 78 27 79 28 80
REMARK H PARENT 28 81
REMARK Flexibility Score:  259.900
ROOT
ATOM      1  O   UNL     1      -3.708   4.792  -2.092  1.00  0.00    -0.273 OA
ATOM      2  N   UNL     1      -2.972   2.631  -1.944  1.00  0.00    -0.343 N 
ATOM      3  C   UNL     1      -3.540   3.691  -2.618  1.00  0.00     0.243 C 
ATOM      4  H   UNL     1      -2.836   1.744  -2.413  1.00  0.00     0.164 HD
ENDROOT
BRANCH   2   5
ATOM      5  C   UNL     1      -2.653   2.740  -0.525  1.00  0.00     0.171 C 
ATOM      6  C   UNL     1      -0.968   1.169   1.235  1.00  0.00     0.214 C 
ATOM      7  N   UNL     1      -2.365   0.828   1.099  1.00  0.00    -0.303 N 
ATOM      8  C   UNL     1      -0.688   2.651   1.042  1.00  0.00     0.057 C 
ATOM      9  C   UNL     1      -3.213   1.505   0.238  1.00  0.00     0.247 C 
ATOM     10  C   UNL     1      -1.181   3.092  -0.319  1.00  0.00     0.040 C 
ATOM     11  O   UNL     1      -4.387   1.153   0.063  1.00  0.00    -0.272 OA
BRANCH   6  12
ATOM     12  O   UNL     1      -0.245   0.405   0.298  1.00  0.00    -0.373 OA
ATOM     13  H   UNL     1       0.087   1.026  -0.385  1.00  0.00     0.213 HD
ENDBRANCH   6  12
BRANCH   7  14
ATOM     14  C   UNL     1      -2.833  -0.379   1.812  1.00  0.00     0.177 C 
BRANCH  14  15
ATOM     15  C   UNL     1      -2.094  -1.682   1.452  1.00  0.00     0.038 C 
BRANCH  15  16
ATOM     16  C   UNL     1      -2.772  -2.708   0.518  1.00  0.00    -0.015 C 
ATOM     17  C   UNL     1      -2.377  -4.150   0.849  1.00  0.00     0.007 C 
ATOM     18  C   UNL     1      -2.378  -2.424  -0.937  1.00  0.00     0.007 C 
ENDBRANCH  15  16
ENDBRANCH  14  15
BRANCH  14  19
ATOM     19  C   UNL     1      -3.356   0.002   3.240  1.00  0.00     0.245 C 
ATOM     20  O   UNL     1      -4.589   0.015   3.399  1.00  0.00    -0.272 OA
BRANCH  19  21
ATOM     21  N   UNL     1      -2.539   0.424   4.274  1.00  0.00    -0.332 N 
ATOM     22  C   UNL     1      -1.182  -0.032   4.515  1.00  0.00     0.147 C 
BRANCH  21  23
ATOM     23  C   UNL     1      -3.089   1.422   5.233  1.00  0.00     0.178 C 
BRANCH  23  24
ATOM     24  C   UNL     1      -4.067   2.442   4.614  1.00  0.00     0.070 C 
BRANCH  24  25
ATOM     25  C   UNL     1      -3.500   3.786   4.219  1.00  0.00    -0.045 A 
ATOM     26  C   UNL     1      -2.975   4.655   5.185  1.00  0.00     0.004 A 
ATOM     27  C   UNL     1      -3.497   4.185   2.874  1.00  0.00     0.004 A 
ATOM     28  C   UNL     1      -2.469   5.902   4.814  1.00  0.00     0.000 A 
ATOM     29  C   UNL     1      -2.989   5.432   2.505  1.00  0.00     0.000 A 
ATOM     30  C   UNL     1      -2.479   6.291   3.476  1.00  0.00     0.000 A 
ENDBRANCH  24  25
ENDBRANCH  23  24
BRANCH  23  31
ATOM     31  C   UNL     1      -3.567   0.784   6.559  1.00  0.00     0.243 C 
ATOM     32  O   UNL     1      -3.945  -0.380   6.665  1.00  0.00    -0.273 OA
ATOM     33  N   UNL     1      -3.709   1.696   7.592  1.00  0.00    -0.341 N 
ATOM     34  H   UNL     1      -3.381   2.653   7.442  1.00  0.00     0.164 HD
BRANCH  33  35
ATOM     35  C   UNL     1      -4.259   1.339   8.902  1.00  0.00     0.194 C 
BRANCH  35  36
ATOM     36  C   UNL     1      -5.798   1.529   9.018  1.00  0.00     0.017 C 
ATOM     37  C   UNL     1      -6.525   0.175   9.094  1.00  0.00     0.010 C 
ATOM     38  C   UNL     1      -6.400   2.307   7.841  1.00  0.00     0.010 C 
ENDBRANCH  35  36
BRANCH  35  39
ATOM     39  C   UNL     1      -3.501   2.021  10.075  1.00  0.00     0.329 C 
ATOM     40  O   UNL     1      -2.428   2.600   9.954  1.00  0.00    -0.250 OA
BRANCH  39  41
ATOM     41  O   UNL     1      -4.208   1.980  11.245  1.00  0.00    -0.458 OA
BRANCH  41  42
ATOM     42  C   UNL     1      -3.680   1.119  12.283  1.00  0.00     0.205 CG0
ATOM     43  C   UNL     1      -4.675  -0.024  12.473  1.00  0.00     0.056 C 
ATOM     44  G   UNL     1      -3.489   1.954  13.565  1.00  0.00     0.000 G0
ENDBRANCH  41  42
ENDBRANCH  39  41
ENDBRANCH  35  39
ENDBRANCH  33  35
ENDBRANCH  23  31
ENDBRANCH  21  23
ENDBRANCH  19  21
ENDBRANCH  14  19
ENDBRANCH   7  14
ENDBRANCH   2   5
BRANCH   3  45
ATOM     45  C   UNL     1      -3.928   3.410  -4.076  1.00  0.00     0.171 C 
BRANCH  45  46
ATOM     46  N   UNL     1      -2.679   3.429  -4.827  1.00  0.00    -0.342 N 
ATOM     47  C   UNL     1      -2.546   2.821  -6.049  1.00  0.00     0.247 C 
ATOM     48  O   UNL     1      -3.486   2.280  -6.633  1.00  0.00    -0.273 OA
ATOM     49  H   UNL     1      -1.890   3.916  -4.405  1.00  0.00     0.164 HD
BRANCH  47  50
ATOM     50  C   UNL     1      -1.125   2.838  -6.632  1.00  0.00     0.212 CG0
ATOM     51  G   UNL     1      -1.248   3.028  -8.157  1.00  0.00     0.000 G0
BRANCH  50  52
ATOM     52  N   UNL     1      -0.444   3.944  -5.965  1.00  0.00    -0.339 N 
ATOM     53  C   UNL     1       0.897   3.936  -5.668  1.00  0.00     0.243 C 
ATOM     54  O   UNL     1       1.620   2.969  -5.893  1.00  0.00    -0.273 OA
ATOM     55  H   UNL     1      -1.011   4.729  -5.653  1.00  0.00     0.164 HD
BRANCH  53  56
ATOM     56  C   UNL     1       1.374   5.177  -4.886  1.00  0.00     0.182 C 
BRANCH  56  57
ATOM     57  N   UNL     1       2.367   4.810  -3.871  1.00  0.00    -0.344 N 
ATOM     58  C   UNL     1       3.662   5.264  -3.911  1.00  0.00     0.220 C 
ATOM     59  O   UNL     1       4.099   5.944  -4.833  1.00  0.00    -0.275 OA
ATOM     60  H   UNL     1       2.023   4.335  -3.041  1.00  0.00     0.164 HD
BRANCH  58  61
ATOM     61  C   UNL     1       4.497   4.806  -2.729  1.00  0.00     0.100 C 
BRANCH  61  62
ATOM     62  C   UNL     1       4.454   5.763  -1.537  1.00  0.00     0.010 C 
BRANCH  62  63
ATOM     63  C   UNL     1       3.761   7.100  -1.830  1.00  0.00     0.000 C 
BRANCH  63  64
ATOM     64  C   UNL     1       2.481   7.331  -1.028  1.00  0.00    -0.003 C 
ATOM     65  C   UNL     1       1.872   6.016  -0.563  1.00  0.00     0.004 C 
ENDBRANCH  63  64
ENDBRANCH  62  63
ENDBRANCH  61  62
ENDBRANCH  58  61
ENDBRANCH  56  57
BRANCH  56  66
ATOM     66  C   UNL     1       0.198   5.949  -4.289  1.00  0.00     0.157 C 
BRANCH  66  67
ATOM     67  C   UNL     1       0.499   7.417  -4.203  1.00  0.00     0.305 C 
ATOM     68  O   UNL     1      -0.176   8.273  -3.652  1.00  0.00    -0.252 OA
BRANCH  67  69
ATOM     69  O   UNL     1       1.675   7.733  -4.778  1.00  0.00    -0.481 OA
ATOM     70  H   UNL     1       1.434   8.122  -5.645  1.00  0.00     0.296 HD
ENDBRANCH  67  69
ENDBRANCH  66  67
ENDBRANCH  56  66
ENDBRANCH  53  56
ENDBRANCH  50  52
ENDBRANCH  47  50
ENDBRANCH  45  46
BRANCH  45  71
ATOM     71  C   UNL     1      -4.908   4.474  -4.582  1.00  0.00     0.037 C 
BRANCH  71  72
ATOM     72  C   UNL     1      -6.330   3.924  -4.727  1.00  0.00     0.026 C 
BRANCH  72  73
ATOM     73  C   UNL     1      -7.070   3.926  -3.391  1.00  0.00     0.146 C 
BRANCH  73  74
ATOM     74  N   UNL     1      -6.949   5.262  -2.815  1.00  0.00    -0.254 NA
ATOM     75  C   UNL     1      -7.584   5.505  -1.728  1.00  0.00     0.185 C 
ATOM     76  N   UNL     1      -7.491   6.724  -1.173  1.00  0.00    -0.370 N 
ATOM     77  N   UNL     1      -8.375   4.688  -1.011  1.00  0.00    -0.370 N 
ATOM     78  H   UNL     1      -6.919   7.404  -1.654  1.00  0.00     0.159 HD
ATOM     79  H   UNL     1      -8.069   7.031  -0.410  1.00  0.00     0.159 HD
ATOM     80  H   UNL     1      -8.535   3.737  -1.307  1.00  0.00     0.159 HD
ATOM     81  H   UNL     1      -8.731   4.956  -0.108  1.00  0.00     0.159 HD
ENDBRANCH  73  74
ENDBRANCH  72  73
ENDBRANCH  71  72
ENDBRANCH  45  71
ENDBRANCH   3  45
TORSDOF 20
ENDMDL
MODEL 41
REMARK VINA RESULT:    -4.450      7.432     11.460
REMARK INTER + INTRA:         -21.253
REMARK INTER:                 -16.177
REMARK INTRA:                  -5.076
REMARK UNBOUND:                -8.478
REMARK SMILES CCCCCC(=O)N[C@H](CC(=O)O)C(=O)N[C@H]1C(=O)N[C@H](CCCN=C(N)N)C(=O)N[C@@H]2CC[C@H](O)N(C2=O)[C@@H](CC(C)C)C(=O)N(C)[C@@H](Cc2ccccc2)C(=O)N[C@H](C(C)C)C(=O)O[C@@H]1C
REMARK SMILES IDX 30 1 31 2 29 3 32 5 35 6 37 7 34 8 38 9 33 10 39 11 36 12
REMARK SMILES IDX 40 14 41 15 42 16 43 17 44 18 45 19 46 20 47 21 48 22 49 23
REMARK SMILES IDX 50 24 51 25 52 26 56 27 53 28 55 29 54 30 57 31 58 32 59 33
REMARK SMILES IDX 60 35 61 36 62 37 63 38 64 39 65 40 66 41 67 42 68 43 21 45
REMARK SMILES IDX 20 46 18 47 19 48 17 50 16 52 14 53 15 54 9 56 8 57 6 58
REMARK SMILES IDX 7 59 5 61 4 62 3 63 2 64 1 65 10 66 11 67 12 68 13 69 22 71
REMARK SMILES IDX 23 72 24 73 25 74 26 75 27 76 28 77
REMARK H PARENT 31 4 36 13 59 34 20 49 16 55 8 60 13 70 27 78 27 79 28 80
REMARK H PARENT 28 81
REMARK Flexibility Score:  259.900
ROOT
ATOM      1  O   UNL     1      -3.812   5.131  -1.904  1.00  0.00    -0.273 OA
ATOM      2  N   UNL     1      -3.873   2.854  -1.700  1.00  0.00    -0.343 N 
ATOM      3  C   UNL     1      -4.149   4.035  -2.354  1.00  0.00     0.243 C 
ATOM      4  H   UNL     1      -4.152   1.970  -2.107  1.00  0.00     0.164 HD
ENDROOT
BRANCH   2   5
ATOM      5  C   UNL     1      -3.266   2.864  -0.373  1.00  0.00     0.171 C 
ATOM      6  C   UNL     1      -1.433   1.058   0.962  1.00  0.00     0.214 C 
ATOM      7  N   UNL     1      -2.857   0.859   1.105  1.00  0.00    -0.303 N 
ATOM      8  C   UNL     1      -1.047   2.514   0.756  1.00  0.00     0.057 C 
ATOM      9  C   UNL     1      -3.786   1.653   0.454  1.00  0.00     0.247 C 
ATOM     10  C   UNL     1      -1.754   3.065  -0.463  1.00  0.00     0.040 C 
ATOM     11  O   UNL     1      -5.001   1.423   0.512  1.00  0.00    -0.272 OA
BRANCH   6  12
ATOM     12  O   UNL     1      -0.995   0.274  -0.124  1.00  0.00    -0.373 OA
ATOM     13  H   UNL     1      -0.230  -0.252   0.192  1.00  0.00     0.213 HD
ENDBRANCH   6  12
BRANCH   7  14
ATOM     14  C   UNL     1      -3.294  -0.331   1.865  1.00  0.00     0.177 C 
BRANCH  14  15
ATOM     15  C   UNL     1      -2.597  -1.649   1.479  1.00  0.00     0.038 C 
BRANCH  15  16
ATOM     16  C   UNL     1      -3.448  -2.855   1.022  1.00  0.00    -0.015 C 
ATOM     17  C   UNL     1      -4.626  -3.128   1.962  1.00  0.00     0.007 C 
ATOM     18  C   UNL     1      -2.575  -4.115   0.966  1.00  0.00     0.007 C 
ENDBRANCH  15  16
ENDBRANCH  14  15
BRANCH  14  19
ATOM     19  C   UNL     1      -3.719   0.079   3.318  1.00  0.00     0.245 C 
ATOM     20  O   UNL     1      -4.938   0.194   3.532  1.00  0.00    -0.272 OA
BRANCH  19  21
ATOM     21  N   UNL     1      -2.824   0.420   4.316  1.00  0.00    -0.332 N 
ATOM     22  C   UNL     1      -1.445  -0.026   4.400  1.00  0.00     0.147 C 
BRANCH  21  23
ATOM     23  C   UNL     1      -3.306   1.311   5.408  1.00  0.00     0.178 C 
BRANCH  23  24
ATOM     24  C   UNL     1      -4.199   2.479   4.942  1.00  0.00     0.070 C 
BRANCH  24  25
ATOM     25  C   UNL     1      -3.503   3.751   4.517  1.00  0.00    -0.045 A 
ATOM     26  C   UNL     1      -3.406   4.098   3.164  1.00  0.00     0.004 A 
ATOM     27  C   UNL     1      -2.936   4.602   5.478  1.00  0.00     0.004 A 
ATOM     28  C   UNL     1      -2.746   5.267   2.778  1.00  0.00     0.000 A 
ATOM     29  C   UNL     1      -2.278   5.770   5.091  1.00  0.00     0.000 A 
ATOM     30  C   UNL     1      -2.180   6.100   3.741  1.00  0.00     0.000 A 
ENDBRANCH  24  25
ENDBRANCH  23  24
BRANCH  23  31
ATOM     31  C   UNL     1      -3.841   0.530   6.632  1.00  0.00     0.243 C 
ATOM     32  O   UNL     1      -4.146  -0.660   6.608  1.00  0.00    -0.273 OA
ATOM     33  N   UNL     1      -4.127   1.336   7.721  1.00  0.00    -0.341 N 
ATOM     34  H   UNL     1      -3.855   2.321   7.680  1.00  0.00     0.164 HD
BRANCH  33  35
ATOM     35  C   UNL     1      -4.753   0.831   8.946  1.00  0.00     0.194 C 
BRANCH  35  36
ATOM     36  C   UNL     1      -6.256   1.202   9.090  1.00  0.00     0.017 C 
ATOM     37  C   UNL     1      -7.153   0.203   8.338  1.00  0.00     0.010 C 
ATOM     38  C   UNL     1      -6.586   2.603   8.562  1.00  0.00     0.010 C 
ENDBRANCH  35  36
BRANCH  35  39
ATOM     39  C   UNL     1      -3.942   1.189  10.223  1.00  0.00     0.329 C 
ATOM     40  O   UNL     1      -2.751   1.477  10.221  1.00  0.00    -0.250 OA
BRANCH  39  41
ATOM     41  O   UNL     1      -4.726   1.230  11.342  1.00  0.00    -0.458 OA
BRANCH  41  42
ATOM     42  C   UNL     1      -4.192   0.587  12.524  1.00  0.00     0.205 CG0
ATOM     43  C   UNL     1      -5.112  -0.586  12.857  1.00  0.00     0.056 C 
ATOM     44  G   UNL     1      -4.125   1.625  13.661  1.00  0.00     0.000 G0
ENDBRANCH  41  42
ENDBRANCH  39  41
ENDBRANCH  35  39
ENDBRANCH  33  35
ENDBRANCH  23  31
ENDBRANCH  21  23
ENDBRANCH  19  21
ENDBRANCH  14  19
ENDBRANCH   7  14
ENDBRANCH   2   5
BRANCH   3  45
ATOM     45  C   UNL     1      -4.887   3.889  -3.692  1.00  0.00     0.171 C 
BRANCH  45  46
ATOM     46  N   UNL     1      -3.905   4.209  -4.720  1.00  0.00    -0.342 N 
ATOM     47  C   UNL     1      -2.949   3.314  -5.129  1.00  0.00     0.247 C 
ATOM     48  O   UNL     1      -2.896   2.156  -4.713  1.00  0.00    -0.273 OA
ATOM     49  H   UNL     1      -3.949   5.139  -5.132  1.00  0.00     0.164 HD
BRANCH  47  50
ATOM     50  C   UNL     1      -1.925   3.869  -6.129  1.00  0.00     0.212 CG0
ATOM     51  G   UNL     1      -2.700   4.667  -7.197  1.00  0.00     0.000 G0
BRANCH  50  52
ATOM     52  N   UNL     1      -1.016   4.694  -5.339  1.00  0.00    -0.339 N 
ATOM     53  C   UNL     1       0.234   4.279  -4.947  1.00  0.00     0.243 C 
ATOM     54  O   UNL     1       0.664   3.155  -5.189  1.00  0.00    -0.273 OA
ATOM     55  H   UNL     1      -1.358   5.595  -5.012  1.00  0.00     0.164 HD
BRANCH  53  56
ATOM     56  C   UNL     1       0.977   5.287  -4.047  1.00  0.00     0.182 C 
BRANCH  56  57
ATOM     57  N   UNL     1       2.425   5.065  -4.091  1.00  0.00    -0.344 N 
ATOM     58  C   UNL     1       3.305   6.026  -4.526  1.00  0.00     0.220 C 
ATOM     59  O   UNL     1       2.938   7.107  -4.975  1.00  0.00    -0.275 OA
ATOM     60  H   UNL     1       2.777   4.227  -3.635  1.00  0.00     0.164 HD
BRANCH  58  61
ATOM     61  C   UNL     1       4.758   5.600  -4.430  1.00  0.00     0.100 C 
BRANCH  61  62
ATOM     62  C   UNL     1       5.358   5.151  -5.762  1.00  0.00     0.010 C 
BRANCH  62  63
ATOM     63  C   UNL     1       5.536   3.633  -5.891  1.00  0.00     0.000 C 
BRANCH  63  64
ATOM     64  C   UNL     1       4.286   2.893  -6.367  1.00  0.00    -0.003 C 
ATOM     65  C   UNL     1       3.952   1.723  -5.453  1.00  0.00     0.004 C 
ENDBRANCH  63  64
ENDBRANCH  62  63
ENDBRANCH  61  62
ENDBRANCH  58  61
ENDBRANCH  56  57
BRANCH  56  66
ATOM     66  C   UNL     1       0.433   5.268  -2.619  1.00  0.00     0.157 C 
BRANCH  66  67
ATOM     67  C   UNL     1       0.996   6.400  -1.808  1.00  0.00     0.305 C 
ATOM     68  O   UNL     1       1.385   6.351  -0.652  1.00  0.00    -0.252 OA
BRANCH  67  69
ATOM     69  O   UNL     1       1.089   7.541  -2.518  1.00  0.00    -0.481 OA
ATOM     70  H   UNL     1       0.173   7.726  -2.816  1.00  0.00     0.296 HD
ENDBRANCH  67  69
ENDBRANCH  66  67
ENDBRANCH  56  66
ENDBRANCH  53  56
ENDBRANCH  50  52
ENDBRANCH  47  50
ENDBRANCH  45  46
BRANCH  45  71
ATOM     71  C   UNL     1      -6.090   4.836  -3.744  1.00  0.00     0.037 C 
BRANCH  71  72
ATOM     72  C   UNL     1      -6.933   4.768  -2.468  1.00  0.00     0.026 C 
BRANCH  72  73
ATOM     73  C   UNL     1      -7.263   6.163  -1.940  1.00  0.00     0.146 C 
BRANCH  73  74
ATOM     74  N   UNL     1      -7.457   6.060  -0.497  1.00  0.00    -0.254 NA
ATOM     75  C   UNL     1      -6.533   6.517   0.266  1.00  0.00     0.185 C 
ATOM     76  N   UNL     1      -6.683   6.438   1.598  1.00  0.00    -0.370 N 
ATOM     77  N   UNL     1      -5.369   7.099  -0.073  1.00  0.00    -0.370 N 
ATOM     78  H   UNL     1      -7.530   6.006   1.938  1.00  0.00     0.159 HD
ATOM     79  H   UNL     1      -5.947   6.640   2.251  1.00  0.00     0.159 HD
ATOM     80  H   UNL     1      -5.123   7.229  -1.042  1.00  0.00     0.159 HD
ATOM     81  H   UNL     1      -4.772   7.525   0.617  1.00  0.00     0.159 HD
ENDBRANCH  73  74
ENDBRANCH  72  73
ENDBRANCH  71  72
ENDBRANCH  45  71
ENDBRANCH   3  45
TORSDOF 20
ENDMDL
MODEL 42
REMARK VINA RESULT:    -4.445      2.994      7.745
REMARK INTER + INTRA:         -21.240
REMARK INTER:                 -15.952
REMARK INTRA:                  -5.288
REMARK UNBOUND:                -8.478
REMARK SMILES CCCCCC(=O)N[C@H](CC(=O)O)C(=O)N[C@H]1C(=O)N[C@H](CCCN=C(N)N)C(=O)N[C@@H]2CC[C@H](O)N(C2=O)[C@@H](CC(C)C)C(=O)N(C)[C@@H](Cc2ccccc2)C(=O)N[C@H](C(C)C)C(=O)O[C@@H]1C
REMARK SMILES IDX 30 1 31 2 29 3 32 5 35 6 37 7 34 8 38 9 33 10 39 11 36 12
REMARK SMILES IDX 40 14 41 15 42 16 43 17 44 18 45 19 46 20 47 21 48 22 49 23
REMARK SMILES IDX 50 24 51 25 52 26 56 27 53 28 55 29 54 30 57 31 58 32 59 33
REMARK SMILES IDX 60 35 61 36 62 37 63 38 64 39 65 40 66 41 67 42 68 43 21 45
REMARK SMILES IDX 20 46 18 47 19 48 17 50 16 52 14 53 15 54 9 56 8 57 6 58
REMARK SMILES IDX 7 59 5 61 4 62 3 63 2 64 1 65 10 66 11 67 12 68 13 69 22 71
REMARK SMILES IDX 23 72 24 73 25 74 26 75 27 76 28 77
REMARK H PARENT 31 4 36 13 59 34 20 49 16 55 8 60 13 70 27 78 27 79 28 80
REMARK H PARENT 28 81
REMARK Flexibility Score:  259.900
ROOT
ATOM      1  O   UNL     1       1.205   3.854   0.380  1.00  0.00    -0.273 OA
ATOM      2  N   UNL     1       1.503   5.839   1.477  1.00  0.00    -0.343 N 
ATOM      3  C   UNL     1       1.459   5.059   0.342  1.00  0.00     0.243 C 
ATOM      4  H   UNL     1       1.700   6.829   1.406  1.00  0.00     0.164 HD
ENDROOT
BRANCH   2   5
ATOM      5  C   UNL     1       1.365   5.235   2.798  1.00  0.00     0.171 C 
ATOM      6  C   UNL     1       0.975   6.362   5.441  1.00  0.00     0.214 C 
ATOM      7  N   UNL     1       2.317   6.124   4.961  1.00  0.00    -0.303 N 
ATOM      8  C   UNL     1      -0.048   5.391   4.873  1.00  0.00     0.057 C 
ATOM      9  C   UNL     1       2.575   5.636   3.690  1.00  0.00     0.247 C 
ATOM     10  C   UNL     1      -0.037   5.463   3.361  1.00  0.00     0.040 C 
ATOM     11  O   UNL     1       3.727   5.517   3.255  1.00  0.00    -0.272 OA
BRANCH   6  12
ATOM     12  O   UNL     1       0.630   7.688   5.116  1.00  0.00    -0.373 OA
ATOM     13  H   UNL     1       0.759   7.790   4.148  1.00  0.00     0.213 HD
ENDBRANCH   6  12
BRANCH   7  14
ATOM     14  C   UNL     1       3.428   6.563   5.831  1.00  0.00     0.177 C 
BRANCH  14  15
ATOM     15  C   UNL     1       3.674   8.084   5.865  1.00  0.00     0.038 C 
BRANCH  15  16
ATOM     16  C   UNL     1       5.121   8.622   5.823  1.00  0.00    -0.015 C 
ATOM     17  C   UNL     1       5.224  10.062   6.334  1.00  0.00     0.007 C 
ATOM     18  C   UNL     1       5.647   8.585   4.383  1.00  0.00     0.007 C 
ENDBRANCH  15  16
ENDBRANCH  14  15
BRANCH  14  19
ATOM     19  C   UNL     1       3.577   5.593   7.054  1.00  0.00     0.245 C 
ATOM     20  O   UNL     1       2.669   4.761   7.221  1.00  0.00    -0.272 OA
BRANCH  19  21
ATOM     21  N   UNL     1       4.585   5.689   7.996  1.00  0.00    -0.332 N 
ATOM     22  C   UNL     1       6.008   5.600   7.721  1.00  0.00     0.147 C 
BRANCH  21  23
ATOM     23  C   UNL     1       4.191   5.890   9.418  1.00  0.00     0.178 C 
BRANCH  23  24
ATOM     24  C   UNL     1       5.129   5.226  10.448  1.00  0.00     0.070 C 
BRANCH  24  25
ATOM     25  C   UNL     1       5.789   6.131  11.461  1.00  0.00    -0.045 A 
ATOM     26  C   UNL     1       5.172   6.404  12.689  1.00  0.00     0.004 A 
ATOM     27  C   UNL     1       7.033   6.717  11.182  1.00  0.00     0.004 A 
ATOM     28  C   UNL     1       5.781   7.255  13.613  1.00  0.00     0.000 A 
ATOM     29  C   UNL     1       7.641   7.567  12.108  1.00  0.00     0.000 A 
ATOM     30  C   UNL     1       7.013   7.837  13.322  1.00  0.00     0.000 A 
ENDBRANCH  24  25
ENDBRANCH  23  24
BRANCH  23  31
ATOM     31  C   UNL     1       3.806   7.354   9.737  1.00  0.00     0.243 C 
ATOM     32  O   UNL     1       4.571   8.308   9.614  1.00  0.00    -0.273 OA
ATOM     33  N   UNL     1       2.574   7.480  10.355  1.00  0.00    -0.341 N 
ATOM     34  H   UNL     1       1.983   6.648  10.434  1.00  0.00     0.164 HD
BRANCH  33  35
ATOM     35  C   UNL     1       2.057   8.757  10.854  1.00  0.00     0.194 C 
BRANCH  35  36
ATOM     36  C   UNL     1       2.185   9.932   9.843  1.00  0.00     0.017 C 
ATOM     37  C   UNL     1       1.399  11.167  10.318  1.00  0.00     0.010 C 
ATOM     38  C   UNL     1       1.681   9.579   8.439  1.00  0.00     0.010 C 
ENDBRANCH  35  36
BRANCH  35  39
ATOM     39  C   UNL     1       2.627   9.129  12.251  1.00  0.00     0.329 C 
ATOM     40  O   UNL     1       3.701   9.693  12.426  1.00  0.00    -0.250 OA
BRANCH  39  41
ATOM     41  O   UNL     1       1.757   8.833  13.263  1.00  0.00    -0.458 OA
BRANCH  41  42
ATOM     42  C   UNL     1       2.309   8.822  14.601  1.00  0.00     0.205 CG0
ATOM     43  C   UNL     1       2.315   7.371  15.078  1.00  0.00     0.056 C 
ATOM     44  G   UNL     1       1.448   9.734  15.497  1.00  0.00     0.000 G0
ENDBRANCH  41  42
ENDBRANCH  39  41
ENDBRANCH  35  39
ENDBRANCH  33  35
ENDBRANCH  23  31
ENDBRANCH  21  23
ENDBRANCH  19  21
ENDBRANCH  14  19
ENDBRANCH   7  14
ENDBRANCH   2   5
BRANCH   3  45
ATOM     45  C   UNL     1       1.727   5.799  -0.975  1.00  0.00     0.171 C 
BRANCH  45  46
ATOM     46  N   UNL     1       2.483   4.870  -1.803  1.00  0.00    -0.342 N 
ATOM     47  C   UNL     1       2.499   4.949  -3.173  1.00  0.00     0.247 C 
ATOM     48  O   UNL     1       1.938   5.850  -3.797  1.00  0.00    -0.273 OA
ATOM     49  H   UNL     1       3.009   4.141  -1.324  1.00  0.00     0.164 HD
BRANCH  47  50
ATOM     50  C   UNL     1       3.248   3.811  -3.881  1.00  0.00     0.212 CG0
ATOM     51  G   UNL     1       3.427   4.217  -5.357  1.00  0.00     0.000 G0
BRANCH  50  52
ATOM     52  N   UNL     1       4.512   3.670  -3.163  1.00  0.00    -0.339 N 
ATOM     53  C   UNL     1       5.647   4.372  -3.488  1.00  0.00     0.243 C 
ATOM     54  O   UNL     1       5.701   5.137  -4.447  1.00  0.00    -0.273 OA
ATOM     55  H   UNL     1       4.562   2.968  -2.428  1.00  0.00     0.164 HD
BRANCH  53  56
ATOM     56  C   UNL     1       6.882   3.993  -2.645  1.00  0.00     0.182 C 
BRANCH  56  57
ATOM     57  N   UNL     1       8.062   3.805  -3.495  1.00  0.00    -0.344 N 
ATOM     58  C   UNL     1       9.261   4.424  -3.236  1.00  0.00     0.220 C 
ATOM     59  O   UNL     1       9.408   5.230  -2.325  1.00  0.00    -0.275 OA
ATOM     60  H   UNL     1       8.012   3.071  -4.196  1.00  0.00     0.164 HD
BRANCH  58  61
ATOM     61  C   UNL     1      10.358   4.039  -4.211  1.00  0.00     0.100 C 
BRANCH  61  62
ATOM     62  C   UNL     1       9.958   2.930  -5.184  1.00  0.00     0.010 C 
BRANCH  62  63
ATOM     63  C   UNL     1       9.896   3.374  -6.651  1.00  0.00     0.000 C 
BRANCH  63  64
ATOM     64  C   UNL     1       8.657   4.193  -7.006  1.00  0.00    -0.003 C 
ATOM     65  C   UNL     1       9.018   5.638  -7.320  1.00  0.00     0.004 C 
ENDBRANCH  63  64
ENDBRANCH  62  63
ENDBRANCH  61  62
ENDBRANCH  58  61
ENDBRANCH  56  57
BRANCH  56  66
ATOM     66  C   UNL     1       6.606   2.775  -1.764  1.00  0.00     0.157 C 
BRANCH  66  67
ATOM     67  C   UNL     1       6.257   3.186  -0.362  1.00  0.00     0.305 C 
ATOM     68  O   UNL     1       7.013   3.236   0.596  1.00  0.00    -0.252 OA
BRANCH  67  69
ATOM     69  O   UNL     1       4.971   3.567  -0.246  1.00  0.00    -0.481 OA
ATOM     70  H   UNL     1       4.644   3.630  -1.168  1.00  0.00     0.296 HD
ENDBRANCH  67  69
ENDBRANCH  66  67
ENDBRANCH  56  66
ENDBRANCH  53  56
ENDBRANCH  50  52
ENDBRANCH  47  50
ENDBRANCH  45  46
BRANCH  45  71
ATOM     71  C   UNL     1       2.512   7.089  -0.712  1.00  0.00     0.037 C 
BRANCH  71  72
ATOM     72  C   UNL     1       4.022   6.843  -0.654  1.00  0.00     0.026 C 
BRANCH  72  73
ATOM     73  C   UNL     1       4.671   7.609   0.497  1.00  0.00     0.146 C 
BRANCH  73  74
ATOM     74  N   UNL     1       6.116   7.573   0.299  1.00  0.00    -0.254 NA
ATOM     75  C   UNL     1       6.800   6.766   1.022  1.00  0.00     0.185 C 
ATOM     76  N   UNL     1       8.132   6.709   0.862  1.00  0.00    -0.370 N 
ATOM     77  N   UNL     1       6.375   5.915   1.972  1.00  0.00    -0.370 N 
ATOM     78  H   UNL     1       8.537   7.324   0.170  1.00  0.00     0.159 HD
ATOM     79  H   UNL     1       8.744   6.213   1.486  1.00  0.00     0.159 HD
ATOM     80  H   UNL     1       5.394   5.846   2.198  1.00  0.00     0.159 HD
ATOM     81  H   UNL     1       6.994   5.243   2.395  1.00  0.00     0.159 HD
ENDBRANCH  73  74
ENDBRANCH  72  73
ENDBRANCH  71  72
ENDBRANCH  45  71
ENDBRANCH   3  45
TORSDOF 20
ENDMDL
MODEL 43
REMARK VINA RESULT:    -4.410      6.929      9.844
REMARK INTER + INTRA:         -21.139
REMARK INTER:                 -16.877
REMARK INTRA:                  -4.262
REMARK UNBOUND:                -8.478
REMARK SMILES CCCCCC(=O)N[C@H](CC(=O)O)C(=O)N[C@H]1C(=O)N[C@H](CCCN=C(N)N)C(=O)N[C@@H]2CC[C@H](O)N(C2=O)[C@@H](CC(C)C)C(=O)N(C)[C@@H](Cc2ccccc2)C(=O)N[C@H](C(C)C)C(=O)O[C@@H]1C
REMARK SMILES IDX 30 1 31 2 29 3 32 5 35 6 37 7 34 8 38 9 33 10 39 11 36 12
REMARK SMILES IDX 40 14 41 15 42 16 43 17 44 18 45 19 46 20 47 21 48 22 49 23
REMARK SMILES IDX 50 24 51 25 52 26 56 27 53 28 55 29 54 30 57 31 58 32 59 33
REMARK SMILES IDX 60 35 61 36 62 37 63 38 64 39 65 40 66 41 67 42 68 43 21 45
REMARK SMILES IDX 20 46 18 47 19 48 17 50 16 52 14 53 15 54 9 56 8 57 6 58
REMARK SMILES IDX 7 59 5 61 4 62 3 63 2 64 1 65 10 66 11 67 12 68 13 69 22 71
REMARK SMILES IDX 23 72 24 73 25 74 26 75 27 76 28 77
REMARK H PARENT 31 4 36 13 59 34 20 49 16 55 8 60 13 70 27 78 27 79 28 80
REMARK H PARENT 28 81
REMARK Flexibility Score:  259.900
ROOT
ATOM      1  O   UNL     1       0.808   1.692  -4.420  1.00  0.00    -0.273 OA
ATOM      2  N   UNL     1       0.437   0.050  -2.872  1.00  0.00    -0.343 N 
ATOM      3  C   UNL     1       0.937   0.519  -4.067  1.00  0.00     0.243 C 
ATOM      4  H   UNL     1       0.575  -0.918  -2.608  1.00  0.00     0.164 HD
ENDROOT
BRANCH   2   5
ATOM      5  C   UNL     1      -0.380   0.908  -2.020  1.00  0.00     0.171 C 
ATOM      6  C   UNL     1      -0.802   1.002   0.846  1.00  0.00     0.214 C 
ATOM      7  N   UNL     1      -1.676   0.196   0.026  1.00  0.00    -0.303 N 
ATOM      8  C   UNL     1      -0.249   2.219   0.121  1.00  0.00     0.057 C 
ATOM      9  C   UNL     1      -1.499   0.067  -1.342  1.00  0.00     0.247 C 
ATOM     10  C   UNL     1       0.494   1.781  -1.122  1.00  0.00     0.040 C 
ATOM     11  O   UNL     1      -2.199  -0.693  -2.025  1.00  0.00    -0.272 OA
BRANCH   6  12
ATOM     12  O   UNL     1       0.248   0.177   1.296  1.00  0.00    -0.373 OA
ATOM     13  H   UNL     1       0.080  -0.721   0.939  1.00  0.00     0.213 HD
ENDBRANCH   6  12
BRANCH   7  14
ATOM     14  C   UNL     1      -2.694  -0.615   0.727  1.00  0.00     0.177 C 
BRANCH  14  15
ATOM     15  C   UNL     1      -2.198  -1.974   1.257  1.00  0.00     0.038 C 
BRANCH  15  16
ATOM     16  C   UNL     1      -3.133  -3.202   1.193  1.00  0.00    -0.015 C 
ATOM     17  C   UNL     1      -2.363  -4.526   1.226  1.00  0.00     0.007 C 
ATOM     18  C   UNL     1      -3.959  -3.159  -0.100  1.00  0.00     0.007 C 
ENDBRANCH  15  16
ENDBRANCH  14  15
BRANCH  14  19
ATOM     19  C   UNL     1      -3.730   0.316   1.446  1.00  0.00     0.245 C 
ATOM     20  O   UNL     1      -4.232   1.226   0.765  1.00  0.00    -0.272 OA
BRANCH  19  21
ATOM     21  N   UNL     1      -4.020   0.248   2.797  1.00  0.00    -0.332 N 
ATOM     22  C   UNL     1      -5.119  -0.497   3.386  1.00  0.00     0.147 C 
BRANCH  21  23
ATOM     23  C   UNL     1      -3.147   1.006   3.735  1.00  0.00     0.178 C 
BRANCH  23  24
ATOM     24  C   UNL     1      -3.169   2.536   3.545  1.00  0.00     0.070 C 
BRANCH  24  25
ATOM     25  C   UNL     1      -1.835   3.234   3.425  1.00  0.00    -0.045 A 
ATOM     26  C   UNL     1      -0.699   2.727   4.069  1.00  0.00     0.004 A 
ATOM     27  C   UNL     1      -1.716   4.409   2.666  1.00  0.00     0.004 A 
ATOM     28  C   UNL     1       0.527   3.388   3.967  1.00  0.00     0.000 A 
ATOM     29  C   UNL     1      -0.490   5.067   2.564  1.00  0.00     0.000 A 
ATOM     30  C   UNL     1       0.630   4.557   3.218  1.00  0.00     0.000 A 
ENDBRANCH  24  25
ENDBRANCH  23  24
BRANCH  23  31
ATOM     31  C   UNL     1      -3.281   0.530   5.202  1.00  0.00     0.243 C 
ATOM     32  O   UNL     1      -2.758  -0.490   5.643  1.00  0.00    -0.273 OA
ATOM     33  N   UNL     1      -4.200   1.258   5.938  1.00  0.00    -0.341 N 
ATOM     34  H   UNL     1      -4.607   2.095   5.514  1.00  0.00     0.164 HD
BRANCH  33  35
ATOM     35  C   UNL     1      -4.577   0.913   7.311  1.00  0.00     0.194 C 
BRANCH  35  36
ATOM     36  C   UNL     1      -6.111   0.829   7.547  1.00  0.00     0.017 C 
ATOM     37  C   UNL     1      -6.726   2.227   7.735  1.00  0.00     0.010 C 
ATOM     38  C   UNL     1      -6.489  -0.007   8.776  1.00  0.00     0.010 C 
ENDBRANCH  35  36
BRANCH  35  39
ATOM     39  C   UNL     1      -3.876   1.813   8.367  1.00  0.00     0.329 C 
ATOM     40  O   UNL     1      -3.542   2.975   8.166  1.00  0.00    -0.250 OA
BRANCH  39  41
ATOM     41  O   UNL     1      -3.750   1.192   9.579  1.00  0.00    -0.458 OA
BRANCH  41  42
ATOM     42  C   UNL     1      -3.957   2.020  10.749  1.00  0.00     0.205 CG0
ATOM     43  C   UNL     1      -3.365   1.274  11.943  1.00  0.00     0.056 C 
ATOM     44  G   UNL     1      -5.468   2.280  10.906  1.00  0.00     0.000 G0
ENDBRANCH  41  42
ENDBRANCH  39  41
ENDBRANCH  35  39
ENDBRANCH  33  35
ENDBRANCH  23  31
ENDBRANCH  21  23
ENDBRANCH  19  21
ENDBRANCH  14  19
ENDBRANCH   7  14
ENDBRANCH   2   5
BRANCH   3  45
ATOM     45  C   UNL     1       1.685  -0.516  -4.918  1.00  0.00     0.171 C 
BRANCH  45  46
ATOM     46  N   UNL     1       1.217  -0.316  -6.283  1.00  0.00    -0.342 N 
ATOM     47  C   UNL     1       2.074  -0.085  -7.329  1.00  0.00     0.247 C 
ATOM     48  O   UNL     1       3.299  -0.101  -7.205  1.00  0.00    -0.273 OA
ATOM     49  H   UNL     1       0.211  -0.351  -6.440  1.00  0.00     0.164 HD
BRANCH  47  50
ATOM     50  C   UNL     1       1.394   0.226  -8.670  1.00  0.00     0.212 CG0
ATOM     51  G   UNL     1       0.205  -0.744  -8.827  1.00  0.00     0.000 G0
BRANCH  50  52
ATOM     52  N   UNL     1       0.989   1.626  -8.586  1.00  0.00    -0.339 N 
ATOM     53  C   UNL     1       1.417   2.590  -9.467  1.00  0.00     0.243 C 
ATOM     54  O   UNL     1       2.220   2.356 -10.366  1.00  0.00    -0.273 OA
ATOM     55  H   UNL     1       0.412   1.905  -7.796  1.00  0.00     0.164 HD
BRANCH  53  56
ATOM     56  C   UNL     1       0.926   4.012  -9.127  1.00  0.00     0.182 C 
BRANCH  56  57
ATOM     57  N   UNL     1       2.056   4.925  -8.927  1.00  0.00    -0.344 N 
ATOM     58  C   UNL     1       1.984   6.263  -9.229  1.00  0.00     0.220 C 
ATOM     59  O   UNL     1       0.999   6.773  -9.753  1.00  0.00    -0.275 OA
ATOM     60  H   UNL     1       2.851   4.567  -8.404  1.00  0.00     0.164 HD
BRANCH  58  61
ATOM     61  C   UNL     1       3.250   7.027  -8.887  1.00  0.00     0.100 C 
BRANCH  61  62
ATOM     62  C   UNL     1       4.375   6.841  -9.905  1.00  0.00     0.010 C 
BRANCH  62  63
ATOM     63  C   UNL     1       5.697   7.511  -9.508  1.00  0.00     0.000 C 
BRANCH  63  64
ATOM     64  C   UNL     1       5.820   8.967  -9.953  1.00  0.00    -0.003 C 
ATOM     65  C   UNL     1       5.512   9.123 -11.435  1.00  0.00     0.004 C 
ENDBRANCH  63  64
ENDBRANCH  62  63
ENDBRANCH  61  62
ENDBRANCH  58  61
ENDBRANCH  56  57
BRANCH  56  66
ATOM     66  C   UNL     1      -0.028   4.006  -7.934  1.00  0.00     0.157 C 
BRANCH  66  67
ATOM     67  C   UNL     1      -1.432   4.327  -8.358  1.00  0.00     0.305 C 
ATOM     68  O   UNL     1      -2.376   3.554  -8.410  1.00  0.00    -0.252 OA
BRANCH  67  69
ATOM     69  O   UNL     1      -1.592   5.632  -8.650  1.00  0.00    -0.481 OA
ATOM     70  H   UNL     1      -1.878   5.645  -9.588  1.00  0.00     0.296 HD
ENDBRANCH  67  69
ENDBRANCH  66  67
ENDBRANCH  56  66
ENDBRANCH  53  56
ENDBRANCH  50  52
ENDBRANCH  47  50
ENDBRANCH  45  46
BRANCH  45  71
ATOM     71  C   UNL     1       1.386  -1.934  -4.419  1.00  0.00     0.037 C 
BRANCH  71  72
ATOM     72  C   UNL     1       0.681  -2.781  -5.480  1.00  0.00     0.026 C 
BRANCH  72  73
ATOM     73  C   UNL     1       0.161  -4.093  -4.896  1.00  0.00     0.146 C 
BRANCH  73  74
ATOM     74  N   UNL     1       1.202  -4.640  -4.031  1.00  0.00    -0.254 NA
ATOM     75  C   UNL     1       1.816  -5.694  -4.426  1.00  0.00     0.185 C 
ATOM     76  N   UNL     1       2.780  -6.220  -3.653  1.00  0.00    -0.370 N 
ATOM     77  N   UNL     1       1.642  -6.399  -5.558  1.00  0.00    -0.370 N 
ATOM     78  H   UNL     1       2.970  -5.754  -2.778  1.00  0.00     0.159 HD
ATOM     79  H   UNL     1       3.200  -7.117  -3.825  1.00  0.00     0.159 HD
ATOM     80  H   UNL     1       0.952  -6.118  -6.238  1.00  0.00     0.159 HD
ATOM     81  H   UNL     1       2.265  -7.147  -5.815  1.00  0.00     0.159 HD
ENDBRANCH  73  74
ENDBRANCH  72  73
ENDBRANCH  71  72
ENDBRANCH  45  71
ENDBRANCH   3  45
TORSDOF 20
ENDMDL
MODEL 44
REMARK VINA RESULT:    -4.403      6.041     13.630
REMARK INTER + INTRA:         -21.119
REMARK INTER:                 -14.698
REMARK INTRA:                  -6.421
REMARK UNBOUND:                -8.478
REMARK SMILES CCCCCC(=O)N[C@H](CC(=O)O)C(=O)N[C@H]1C(=O)N[C@H](CCCN=C(N)N)C(=O)N[C@@H]2CC[C@H](O)N(C2=O)[C@@H](CC(C)C)C(=O)N(C)[C@@H](Cc2ccccc2)C(=O)N[C@H](C(C)C)C(=O)O[C@@H]1C
REMARK SMILES IDX 30 1 31 2 29 3 32 5 35 6 37 7 34 8 38 9 33 10 39 11 36 12
REMARK SMILES IDX 40 14 41 15 42 16 43 17 44 18 45 19 46 20 47 21 48 22 49 23
REMARK SMILES IDX 50 24 51 25 52 26 56 27 53 28 55 29 54 30 57 31 58 32 59 33
REMARK SMILES IDX 60 35 61 36 62 37 63 38 64 39 65 40 66 41 67 42 68 43 21 45
REMARK SMILES IDX 20 46 18 47 19 48 17 50 16 52 14 53 15 54 9 56 8 57 6 58
REMARK SMILES IDX 7 59 5 61 4 62 3 63 2 64 1 65 10 66 11 67 12 68 13 69 22 71
REMARK SMILES IDX 23 72 24 73 25 74 26 75 27 76 28 77
REMARK H PARENT 31 4 36 13 59 34 20 49 16 55 8 60 13 70 27 78 27 79 28 80
REMARK H PARENT 28 81
REMARK Flexibility Score:  259.900
ROOT
ATOM      1  O   UNL     1      -2.251   4.303  -0.919  1.00  0.00    -0.273 OA
ATOM      2  N   UNL     1      -1.690   5.615  -2.707  1.00  0.00    -0.343 N 
ATOM      3  C   UNL     1      -2.599   5.014  -1.863  1.00  0.00     0.243 C 
ATOM      4  H   UNL     1      -2.012   6.205  -3.464  1.00  0.00     0.164 HD
ENDROOT
BRANCH   2   5
ATOM      5  C   UNL     1      -0.264   5.334  -2.583  1.00  0.00     0.171 C 
ATOM      6  C   UNL     1       2.053   6.235  -4.076  1.00  0.00     0.214 C 
ATOM      7  N   UNL     1       1.375   5.026  -4.479  1.00  0.00    -0.303 N 
ATOM      8  C   UNL     1       1.960   6.508  -2.583  1.00  0.00     0.057 C 
ATOM      9  C   UNL     1       0.233   4.566  -3.842  1.00  0.00     0.247 C 
ATOM     10  C   UNL     1       0.508   6.584  -2.165  1.00  0.00     0.040 C 
ATOM     11  O   UNL     1      -0.391   3.577  -4.247  1.00  0.00    -0.272 OA
BRANCH   6  12
ATOM     12  O   UNL     1       1.497   7.304  -4.806  1.00  0.00    -0.373 OA
ATOM     13  H   UNL     1       2.130   8.052  -4.748  1.00  0.00     0.213 HD
ENDBRANCH   6  12
BRANCH   7  14
ATOM     14  C   UNL     1       1.863   4.361  -5.706  1.00  0.00     0.177 C 
BRANCH  14  15
ATOM     15  C   UNL     1       1.512   5.078  -7.024  1.00  0.00     0.038 C 
BRANCH  15  16
ATOM     16  C   UNL     1       0.173   4.765  -7.728  1.00  0.00    -0.015 C 
ATOM     17  C   UNL     1      -0.162   3.271  -7.709  1.00  0.00     0.007 C 
ATOM     18  C   UNL     1       0.235   5.226  -9.190  1.00  0.00     0.007 C 
ENDBRANCH  15  16
ENDBRANCH  14  15
BRANCH  14  19
ATOM     19  C   UNL     1       3.202   3.599  -5.416  1.00  0.00     0.245 C 
ATOM     20  O   UNL     1       3.148   2.663  -4.601  1.00  0.00    -0.272 OA
BRANCH  19  21
ATOM     21  N   UNL     1       4.431   3.981  -5.923  1.00  0.00    -0.332 N 
ATOM     22  C   UNL     1       5.294   5.004  -5.360  1.00  0.00     0.147 C 
BRANCH  21  23
ATOM     23  C   UNL     1       4.917   3.301  -7.155  1.00  0.00     0.178 C 
BRANCH  23  24
ATOM     24  C   UNL     1       4.796   4.138  -8.445  1.00  0.00     0.070 C 
BRANCH  24  25
ATOM     25  C   UNL     1       3.813   3.658  -9.487  1.00  0.00    -0.045 A 
ATOM     26  C   UNL     1       3.096   2.468  -9.303  1.00  0.00     0.004 A 
ATOM     27  C   UNL     1       3.608   4.398 -10.661  1.00  0.00     0.004 A 
ATOM     28  C   UNL     1       2.202   2.022 -10.279  1.00  0.00     0.000 A 
ATOM     29  C   UNL     1       2.713   3.952 -11.635  1.00  0.00     0.000 A 
ATOM     30  C   UNL     1       2.013   2.762 -11.444  1.00  0.00     0.000 A 
ENDBRANCH  24  25
ENDBRANCH  23  24
BRANCH  23  31
ATOM     31  C   UNL     1       6.283   2.600  -6.959  1.00  0.00     0.243 C 
ATOM     32  O   UNL     1       6.501   1.747  -6.102  1.00  0.00    -0.273 OA
ATOM     33  N   UNL     1       7.302   3.153  -7.717  1.00  0.00    -0.341 N 
ATOM     34  H   UNL     1       7.059   3.864  -8.411  1.00  0.00     0.164 HD
BRANCH  33  35
ATOM     35  C   UNL     1       8.700   2.728  -7.606  1.00  0.00     0.194 C 
BRANCH  35  36
ATOM     36  C   UNL     1       9.571   3.644  -6.701  1.00  0.00     0.017 C 
ATOM     37  C   UNL     1       9.861   2.978  -5.345  1.00  0.00     0.010 C 
ATOM     38  C   UNL     1       8.923   5.005  -6.415  1.00  0.00     0.010 C 
ENDBRANCH  35  36
BRANCH  35  39
ATOM     39  C   UNL     1       9.362   2.482  -8.991  1.00  0.00     0.329 C 
ATOM     40  O   UNL     1       9.999   1.475  -9.277  1.00  0.00    -0.250 OA
BRANCH  39  41
ATOM     41  O   UNL     1       9.081   3.477  -9.886  1.00  0.00    -0.458 OA
BRANCH  41  42
ATOM     42  C   UNL     1       9.942   3.557 -11.046  1.00  0.00     0.205 CG0
ATOM     43  C   UNL     1      10.332   5.023 -11.221  1.00  0.00     0.056 C 
ATOM     44  G   UNL     1       9.180   3.000 -12.265  1.00  0.00     0.000 G0
ENDBRANCH  41  42
ENDBRANCH  39  41
ENDBRANCH  35  39
ENDBRANCH  33  35
ENDBRANCH  23  31
ENDBRANCH  21  23
ENDBRANCH  19  21
ENDBRANCH  14  19
ENDBRANCH   7  14
ENDBRANCH   2   5
BRANCH   3  45
ATOM     45  C   UNL     1      -4.073   5.308  -2.169  1.00  0.00     0.171 C 
BRANCH  45  46
ATOM     46  N   UNL     1      -4.778   5.148  -0.904  1.00  0.00    -0.342 N 
ATOM     47  C   UNL     1      -5.159   6.217  -0.133  1.00  0.00     0.247 C 
ATOM     48  O   UNL     1      -5.001   7.386  -0.486  1.00  0.00    -0.273 OA
ATOM     49  H   UNL     1      -4.980   4.197  -0.601  1.00  0.00     0.164 HD
BRANCH  47  50
ATOM     50  C   UNL     1      -5.778   5.852   1.224  1.00  0.00     0.212 CG0
ATOM     51  G   UNL     1      -7.282   5.602   1.000  1.00  0.00     0.000 G0
BRANCH  50  52
ATOM     52  N   UNL     1      -5.056   4.664   1.674  1.00  0.00    -0.339 N 
ATOM     53  C   UNL     1      -3.848   4.716   2.325  1.00  0.00     0.243 C 
ATOM     54  O   UNL     1      -3.252   5.769   2.533  1.00  0.00    -0.273 OA
ATOM     55  H   UNL     1      -5.445   3.755   1.433  1.00  0.00     0.164 HD
BRANCH  53  56
ATOM     56  C   UNL     1      -3.237   3.332   2.625  1.00  0.00     0.182 C 
BRANCH  56  57
ATOM     57  N   UNL     1      -3.232   2.488   1.426  1.00  0.00    -0.344 N 
ATOM     58  C   UNL     1      -2.155   1.708   1.079  1.00  0.00     0.220 C 
ATOM     59  O   UNL     1      -1.100   1.719   1.704  1.00  0.00    -0.275 OA
ATOM     60  H   UNL     1      -4.117   2.373   0.940  1.00  0.00     0.164 HD
BRANCH  58  61
ATOM     61  C   UNL     1      -2.393   0.874  -0.166  1.00  0.00     0.100 C 
BRANCH  61  62
ATOM     62  C   UNL     1      -1.408  -0.284  -0.329  1.00  0.00     0.010 C 
BRANCH  62  63
ATOM     63  C   UNL     1      -2.031  -1.671  -0.124  1.00  0.00     0.000 C 
BRANCH  63  64
ATOM     64  C   UNL     1      -1.719  -2.304   1.231  1.00  0.00    -0.003 C 
ATOM     65  C   UNL     1      -2.001  -3.800   1.223  1.00  0.00     0.004 C 
ENDBRANCH  63  64
ENDBRANCH  62  63
ENDBRANCH  61  62
ENDBRANCH  58  61
ENDBRANCH  56  57
BRANCH  56  66
ATOM     66  C   UNL     1      -3.935   2.655   3.804  1.00  0.00     0.157 C 
BRANCH  66  67
ATOM     67  C   UNL     1      -2.946   2.234   4.852  1.00  0.00     0.305 C 
ATOM     68  O   UNL     1      -3.199   1.782   5.959  1.00  0.00    -0.252 OA
BRANCH  67  69
ATOM     69  O   UNL     1      -1.672   2.355   4.432  1.00  0.00    -0.481 OA
ATOM     70  H   UNL     1      -1.413   3.268   4.678  1.00  0.00     0.296 HD
ENDBRANCH  67  69
ENDBRANCH  66  67
ENDBRANCH  56  66
ENDBRANCH  53  56
ENDBRANCH  50  52
ENDBRANCH  47  50
ENDBRANCH  45  46
BRANCH  45  71
ATOM     71  C   UNL     1      -4.600   4.343  -3.236  1.00  0.00     0.037 C 
BRANCH  71  72
ATOM     72  C   UNL     1      -4.940   2.969  -2.652  1.00  0.00     0.026 C 
BRANCH  72  73
ATOM     73  C   UNL     1      -6.446   2.713  -2.662  1.00  0.00     0.146 C 
BRANCH  73  74
ATOM     74  N   UNL     1      -6.660   1.319  -3.040  1.00  0.00    -0.254 NA
ATOM     75  C   UNL     1      -7.743   1.026  -3.659  1.00  0.00     0.185 C 
ATOM     76  N   UNL     1      -7.968  -0.247  -4.021  1.00  0.00    -0.370 N 
ATOM     77  N   UNL     1      -8.752   1.836  -4.027  1.00  0.00    -0.370 N 
ATOM     78  H   UNL     1      -7.261  -0.925  -3.774  1.00  0.00     0.159 HD
ATOM     79  H   UNL     1      -8.850  -0.575  -4.375  1.00  0.00     0.159 HD
ATOM     80  H   UNL     1      -8.718   2.824  -3.824  1.00  0.00     0.159 HD
ATOM     81  H   UNL     1      -9.503   1.511  -4.613  1.00  0.00     0.159 HD
ENDBRANCH  73  74
ENDBRANCH  72  73
ENDBRANCH  71  72
ENDBRANCH  45  71
ENDBRANCH   3  45
TORSDOF 20
ENDMDL
MODEL 45
REMARK VINA RESULT:    -4.378      3.107     10.240
REMARK INTER + INTRA:         -21.046
REMARK INTER:                 -16.078
REMARK INTRA:                  -4.968
REMARK UNBOUND:                -8.478
REMARK SMILES CCCCCC(=O)N[C@H](CC(=O)O)C(=O)N[C@H]1C(=O)N[C@H](CCCN=C(N)N)C(=O)N[C@@H]2CC[C@H](O)N(C2=O)[C@@H](CC(C)C)C(=O)N(C)[C@@H](Cc2ccccc2)C(=O)N[C@H](C(C)C)C(=O)O[C@@H]1C
REMARK SMILES IDX 30 1 31 2 29 3 32 5 35 6 37 7 34 8 38 9 33 10 39 11 36 12
REMARK SMILES IDX 40 14 41 15 42 16 43 17 44 18 45 19 46 20 47 21 48 22 49 23
REMARK SMILES IDX 50 24 51 25 52 26 56 27 53 28 55 29 54 30 57 31 58 32 59 33
REMARK SMILES IDX 60 35 61 36 62 37 63 38 64 39 65 40 66 41 67 42 68 43 21 45
REMARK SMILES IDX 20 46 18 47 19 48 17 50 16 52 14 53 15 54 9 56 8 57 6 58
REMARK SMILES IDX 7 59 5 61 4 62 3 63 2 64 1 65 10 66 11 67 12 68 13 69 22 71
REMARK SMILES IDX 23 72 24 73 25 74 26 75 27 76 28 77
REMARK H PARENT 31 4 36 13 59 34 20 49 16 55 8 60 13 70 27 78 27 79 28 80
REMARK H PARENT 28 81
REMARK Flexibility Score:  259.900
ROOT
ATOM      1  O   UNL     1       8.128   3.572  -2.393  1.00  0.00    -0.273 OA
ATOM      2  N   UNL     1       8.294   5.417  -3.735  1.00  0.00    -0.343 N 
ATOM      3  C   UNL     1       8.211   4.795  -2.507  1.00  0.00     0.243 C 
ATOM      4  H   UNL     1       8.376   6.424  -3.790  1.00  0.00     0.164 HD
ENDROOT
BRANCH   2   5
ATOM      5  C   UNL     1       8.166   4.646  -4.967  1.00  0.00     0.171 C 
ATOM      6  C   UNL     1       7.527   5.395  -7.694  1.00  0.00     0.214 C 
ATOM      7  N   UNL     1       6.464   5.011  -6.795  1.00  0.00    -0.303 N 
ATOM      8  C   UNL     1       8.851   4.714  -7.386  1.00  0.00     0.057 C 
ATOM      9  C   UNL     1       6.694   4.691  -5.466  1.00  0.00     0.247 C 
ATOM     10  C   UNL     1       9.264   5.018  -5.962  1.00  0.00     0.040 C 
ATOM     11  O   UNL     1       5.768   4.448  -4.680  1.00  0.00    -0.272 OA
BRANCH   6  12
ATOM     12  O   UNL     1       7.665   6.795  -7.623  1.00  0.00    -0.373 OA
ATOM     13  H   UNL     1       6.760   7.173  -7.597  1.00  0.00     0.213 HD
ENDBRANCH   6  12
BRANCH   7  14
ATOM     14  C   UNL     1       5.081   5.113  -7.308  1.00  0.00     0.177 C 
BRANCH  14  15
ATOM     15  C   UNL     1       4.783   6.374  -8.143  1.00  0.00     0.038 C 
BRANCH  15  16
ATOM     16  C   UNL     1       4.095   6.231  -9.519  1.00  0.00    -0.015 C 
ATOM     17  C   UNL     1       5.039   6.555 -10.681  1.00  0.00     0.007 C 
ATOM     18  C   UNL     1       2.892   7.180  -9.598  1.00  0.00     0.007 C 
ENDBRANCH  15  16
ENDBRANCH  14  15
BRANCH  14  19
ATOM     19  C   UNL     1       4.496   3.685  -7.582  1.00  0.00     0.245 C 
ATOM     20  O   UNL     1       5.308   2.799  -7.895  1.00  0.00    -0.272 OA
BRANCH  19  21
ATOM     21  N   UNL     1       3.143   3.397  -7.603  1.00  0.00    -0.332 N 
ATOM     22  C   UNL     1       2.325   3.277  -8.797  1.00  0.00     0.147 C 
BRANCH  21  23
ATOM     23  C   UNL     1       2.453   3.202  -6.298  1.00  0.00     0.178 C 
BRANCH  23  24
ATOM     24  C   UNL     1       3.187   2.270  -5.313  1.00  0.00     0.070 C 
BRANCH  24  25
ATOM     25  C   UNL     1       2.521   0.955  -4.983  1.00  0.00    -0.045 A 
ATOM     26  C   UNL     1       3.028  -0.252  -5.482  1.00  0.00     0.004 A 
ATOM     27  C   UNL     1       1.376   0.925  -4.172  1.00  0.00     0.004 A 
ATOM     28  C   UNL     1       2.396  -1.462  -5.187  1.00  0.00     0.000 A 
ATOM     29  C   UNL     1       0.746  -0.285  -3.877  1.00  0.00     0.000 A 
ATOM     30  C   UNL     1       1.255  -1.478  -4.387  1.00  0.00     0.000 A 
ENDBRANCH  24  25
ENDBRANCH  23  24
BRANCH  23  31
ATOM     31  C   UNL     1       1.939   4.525  -5.683  1.00  0.00     0.243 C 
ATOM     32  O   UNL     1       1.961   5.607  -6.265  1.00  0.00    -0.273 OA
ATOM     33  N   UNL     1       1.618   4.423  -4.340  1.00  0.00    -0.341 N 
ATOM     34  H   UNL     1       1.623   3.496  -3.909  1.00  0.00     0.164 HD
BRANCH  33  35
ATOM     35  C   UNL     1       1.223   5.574  -3.523  1.00  0.00     0.194 C 
BRANCH  35  36
ATOM     36  C   UNL     1       0.106   6.450  -4.158  1.00  0.00     0.017 C 
ATOM     37  C   UNL     1      -0.129   7.734  -3.344  1.00  0.00     0.010 C 
ATOM     38  C   UNL     1      -1.241   5.724  -4.268  1.00  0.00     0.010 C 
ENDBRANCH  35  36
BRANCH  35  39
ATOM     39  C   UNL     1       2.439   6.428  -3.066  1.00  0.00     0.329 C 
ATOM     40  O   UNL     1       3.040   7.211  -3.792  1.00  0.00    -0.250 OA
BRANCH  39  41
ATOM     41  O   UNL     1       2.712   6.273  -1.735  1.00  0.00    -0.458 OA
BRANCH  41  42
ATOM     42  C   UNL     1       3.837   5.424  -1.406  1.00  0.00     0.205 CG0
ATOM     43  C   UNL     1       3.283   4.035  -1.093  1.00  0.00     0.056 C 
ATOM     44  G   UNL     1       4.586   6.043  -0.209  1.00  0.00     0.000 G0
ENDBRANCH  41  42
ENDBRANCH  39  41
ENDBRANCH  35  39
ENDBRANCH  33  35
ENDBRANCH  23  31
ENDBRANCH  21  23
ENDBRANCH  19  21
ENDBRANCH  14  19
ENDBRANCH   7  14
ENDBRANCH   2   5
BRANCH   3  45
ATOM     45  C   UNL     1       8.251   5.732  -1.292  1.00  0.00     0.171 C 
BRANCH  45  46
ATOM     46  N   UNL     1       6.875   6.162  -1.082  1.00  0.00    -0.342 N 
ATOM     47  C   UNL     1       6.032   5.530  -0.203  1.00  0.00     0.247 C 
ATOM     48  O   UNL     1       6.396   4.603   0.523  1.00  0.00    -0.273 OA
ATOM     49  H   UNL     1       6.549   6.962  -1.621  1.00  0.00     0.164 HD
BRANCH  47  50
ATOM     50  C   UNL     1       4.585   6.043  -0.206  1.00  0.00     0.212 CG0
ATOM     51  G   UNL     1       3.865   5.404  -1.410  1.00  0.00     0.000 G0
BRANCH  50  52
ATOM     52  N   UNL     1       4.026   5.639   1.082  1.00  0.00    -0.339 N 
ATOM     53  C   UNL     1       3.965   6.471   2.173  1.00  0.00     0.243 C 
ATOM     54  O   UNL     1       4.428   7.609   2.166  1.00  0.00    -0.273 OA
ATOM     55  H   UNL     1       3.727   4.672   1.185  1.00  0.00     0.164 HD
BRANCH  53  56
ATOM     56  C   UNL     1       3.413   5.797   3.446  1.00  0.00     0.182 C 
BRANCH  56  57
ATOM     57  N   UNL     1       2.183   6.455   3.899  1.00  0.00    -0.344 N 
ATOM     58  C   UNL     1       0.965   5.821   3.893  1.00  0.00     0.220 C 
ATOM     59  O   UNL     1       0.807   4.691   3.443  1.00  0.00    -0.275 OA
ATOM     60  H   UNL     1       2.286   7.349   4.371  1.00  0.00     0.164 HD
BRANCH  58  61
ATOM     61  C   UNL     1      -0.158   6.670   4.459  1.00  0.00     0.100 C 
BRANCH  61  62
ATOM     62  C   UNL     1      -1.534   6.010   4.372  1.00  0.00     0.010 C 
BRANCH  62  63
ATOM     63  C   UNL     1      -2.248   5.867   5.723  1.00  0.00     0.000 C 
BRANCH  63  64
ATOM     64  C   UNL     1      -2.670   4.438   6.061  1.00  0.00    -0.003 C 
ATOM     65  C   UNL     1      -1.647   3.425   5.566  1.00  0.00     0.004 C 
ENDBRANCH  63  64
ENDBRANCH  62  63
ENDBRANCH  61  62
ENDBRANCH  58  61
ENDBRANCH  56  57
BRANCH  56  66
ATOM     66  C   UNL     1       4.470   5.730   4.547  1.00  0.00     0.157 C 
BRANCH  66  67
ATOM     67  C   UNL     1       4.354   4.457   5.335  1.00  0.00     0.305 C 
ATOM     68  O   UNL     1       3.734   3.453   5.019  1.00  0.00    -0.252 OA
BRANCH  67  69
ATOM     69  O   UNL     1       5.075   4.491   6.472  1.00  0.00    -0.481 OA
ATOM     70  H   UNL     1       5.935   4.084   6.235  1.00  0.00     0.296 HD
ENDBRANCH  67  69
ENDBRANCH  66  67
ENDBRANCH  56  66
ENDBRANCH  53  56
ENDBRANCH  50  52
ENDBRANCH  47  50
ENDBRANCH  45  46
BRANCH  45  71
ATOM     71  C   UNL     1       9.179   6.921  -1.565  1.00  0.00     0.037 C 
BRANCH  71  72
ATOM     72  C   UNL     1       9.401   7.777  -0.315  1.00  0.00     0.026 C 
BRANCH  72  73
ATOM     73  C   UNL     1       8.867   9.195  -0.506  1.00  0.00     0.146 C 
BRANCH  73  74
ATOM     74  N   UNL     1       7.419   9.108  -0.675  1.00  0.00    -0.254 NA
ATOM     75  C   UNL     1       6.678   9.620   0.237  1.00  0.00     0.185 C 
ATOM     76  N   UNL     1       5.343   9.557   0.109  1.00  0.00    -0.370 N 
ATOM     77  N   UNL     1       7.043  10.247   1.369  1.00  0.00    -0.370 N 
ATOM     78  H   UNL     1       4.983   9.093  -0.713  1.00  0.00     0.159 HD
ATOM     79  H   UNL     1       4.704   9.803   0.845  1.00  0.00     0.159 HD
ATOM     80  H   UNL     1       8.018  10.372   1.596  1.00  0.00     0.159 HD
ATOM     81  H   UNL     1       6.369  10.711   1.956  1.00  0.00     0.159 HD
ENDBRANCH  73  74
ENDBRANCH  72  73
ENDBRANCH  71  72
ENDBRANCH  45  71
ENDBRANCH   3  45
TORSDOF 20
ENDMDL
MODEL 46
REMARK VINA RESULT:    -4.333      5.447     14.055
REMARK INTER + INTRA:         -20.918
REMARK INTER:                 -14.781
REMARK INTRA:                  -6.137
REMARK UNBOUND:                -8.478
REMARK SMILES CCCCCC(=O)N[C@H](CC(=O)O)C(=O)N[C@H]1C(=O)N[C@H](CCCN=C(N)N)C(=O)N[C@@H]2CC[C@H](O)N(C2=O)[C@@H](CC(C)C)C(=O)N(C)[C@@H](Cc2ccccc2)C(=O)N[C@H](C(C)C)C(=O)O[C@@H]1C
REMARK SMILES IDX 30 1 31 2 29 3 32 5 35 6 37 7 34 8 38 9 33 10 39 11 36 12
REMARK SMILES IDX 40 14 41 15 42 16 43 17 44 18 45 19 46 20 47 21 48 22 49 23
REMARK SMILES IDX 50 24 51 25 52 26 56 27 53 28 55 29 54 30 57 31 58 32 59 33
REMARK SMILES IDX 60 35 61 36 62 37 63 38 64 39 65 40 66 41 67 42 68 43 21 45
REMARK SMILES IDX 20 46 18 47 19 48 17 50 16 52 14 53 15 54 9 56 8 57 6 58
REMARK SMILES IDX 7 59 5 61 4 62 3 63 2 64 1 65 10 66 11 67 12 68 13 69 22 71
REMARK SMILES IDX 23 72 24 73 25 74 26 75 27 76 28 77
REMARK H PARENT 31 4 36 13 59 34 20 49 16 55 8 60 13 70 27 78 27 79 28 80
REMARK H PARENT 28 81
REMARK Flexibility Score:  259.900
ROOT
ATOM      1  O   UNL     1      -1.910   4.450  -1.055  1.00  0.00    -0.273 OA
ATOM      2  N   UNL     1      -1.596   5.713  -2.935  1.00  0.00    -0.343 N 
ATOM      3  C   UNL     1      -2.385   5.102  -1.985  1.00  0.00     0.243 C 
ATOM      4  H   UNL     1      -2.021   6.253  -3.678  1.00  0.00     0.164 HD
ENDROOT
BRANCH   2   5
ATOM      5  C   UNL     1      -0.151   5.508  -2.944  1.00  0.00     0.171 C 
ATOM      6  C   UNL     1       1.882   5.944  -4.964  1.00  0.00     0.214 C 
ATOM      7  N   UNL     1       1.232   4.658  -4.876  1.00  0.00    -0.303 N 
ATOM      8  C   UNL     1       1.975   6.663  -3.627  1.00  0.00     0.057 C 
ATOM      9  C   UNL     1       0.218   4.398  -3.969  1.00  0.00     0.247 C 
ATOM     10  C   UNL     1       0.590   6.840  -3.043  1.00  0.00     0.040 C 
ATOM     11  O   UNL     1      -0.393   3.321  -3.959  1.00  0.00    -0.272 OA
BRANCH   6  12
ATOM     12  O   UNL     1       1.168   6.725  -5.894  1.00  0.00    -0.373 OA
ATOM     13  H   UNL     1       1.732   6.808  -6.693  1.00  0.00     0.213 HD
ENDBRANCH   6  12
BRANCH   7  14
ATOM     14  C   UNL     1       1.591   3.655  -5.902  1.00  0.00     0.177 C 
BRANCH  14  15
ATOM     15  C   UNL     1       1.072   3.954  -7.322  1.00  0.00     0.038 C 
BRANCH  15  16
ATOM     16  C   UNL     1      -0.237   3.293  -7.808  1.00  0.00    -0.015 C 
ATOM     17  C   UNL     1      -1.478   4.107  -7.428  1.00  0.00     0.007 C 
ATOM     18  C   UNL     1      -0.373   1.895  -7.192  1.00  0.00     0.007 C 
ENDBRANCH  15  16
ENDBRANCH  14  15
BRANCH  14  19
ATOM     19  C   UNL     1       2.973   2.999  -5.561  1.00  0.00     0.245 C 
ATOM     20  O   UNL     1       3.005   2.238  -4.580  1.00  0.00    -0.272 OA
BRANCH  19  21
ATOM     21  N   UNL     1       4.154   3.307  -6.213  1.00  0.00    -0.332 N 
ATOM     22  C   UNL     1       4.935   4.515  -6.016  1.00  0.00     0.147 C 
BRANCH  21  23
ATOM     23  C   UNL     1       4.674   2.331  -7.210  1.00  0.00     0.178 C 
BRANCH  23  24
ATOM     24  C   UNL     1       4.153   2.538  -8.647  1.00  0.00     0.070 C 
BRANCH  24  25
ATOM     25  C   UNL     1       3.077   1.595  -9.132  1.00  0.00    -0.045 A 
ATOM     26  C   UNL     1       2.820   0.393  -8.460  1.00  0.00     0.004 A 
ATOM     27  C   UNL     1       2.320   1.910 -10.270  1.00  0.00     0.004 A 
ATOM     28  C   UNL     1       1.835  -0.481  -8.924  1.00  0.00     0.000 A 
ATOM     29  C   UNL     1       1.335   1.036 -10.733  1.00  0.00     0.000 A 
ATOM     30  C   UNL     1       1.095  -0.161 -10.061  1.00  0.00     0.000 A 
ENDBRANCH  24  25
ENDBRANCH  23  24
BRANCH  23  31
ATOM     31  C   UNL     1       6.200   2.105  -7.096  1.00  0.00     0.243 C 
ATOM     32  O   UNL     1       6.735   1.474  -6.187  1.00  0.00    -0.273 OA
ATOM     33  N   UNL     1       6.937   2.836  -8.012  1.00  0.00    -0.341 N 
ATOM     34  H   UNL     1       6.435   3.347  -8.742  1.00  0.00     0.164 HD
BRANCH  33  35
ATOM     35  C   UNL     1       8.402   2.870  -8.012  1.00  0.00     0.194 C 
BRANCH  35  36
ATOM     36  C   UNL     1       9.005   4.279  -7.744  1.00  0.00     0.017 C 
ATOM     37  C   UNL     1       8.048   5.393  -8.204  1.00  0.00     0.010 C 
ATOM     38  C   UNL     1      10.347   4.506  -8.450  1.00  0.00     0.010 C 
ENDBRANCH  35  36
BRANCH  35  39
ATOM     39  C   UNL     1       9.015   2.209  -9.278  1.00  0.00     0.329 C 
ATOM     40  O   UNL     1       9.997   1.475  -9.262  1.00  0.00    -0.250 OA
BRANCH  39  41
ATOM     41  O   UNL     1       8.284   2.466 -10.405  1.00  0.00    -0.458 OA
BRANCH  41  42
ATOM     42  C   UNL     1       9.024   2.949 -11.552  1.00  0.00     0.205 CG0
ATOM     43  C   UNL     1       8.589   4.392 -11.798  1.00  0.00     0.056 C 
ATOM     44  G   UNL     1       8.723   2.030 -12.753  1.00  0.00     0.000 G0
ENDBRANCH  41  42
ENDBRANCH  39  41
ENDBRANCH  35  39
ENDBRANCH  33  35
ENDBRANCH  23  31
ENDBRANCH  21  23
ENDBRANCH  19  21
ENDBRANCH  14  19
ENDBRANCH   7  14
ENDBRANCH   2   5
BRANCH   3  45
ATOM     45  C   UNL     1      -3.896   5.310  -2.153  1.00  0.00     0.171 C 
BRANCH  45  46
ATOM     46  N   UNL     1      -4.476   5.067  -0.839  1.00  0.00    -0.342 N 
ATOM     47  C   UNL     1      -5.004   6.074  -0.070  1.00  0.00     0.247 C 
ATOM     48  O   UNL     1      -5.092   7.238  -0.462  1.00  0.00    -0.273 OA
ATOM     49  H   UNL     1      -4.475   4.108  -0.499  1.00  0.00     0.164 HD
BRANCH  47  50
ATOM     50  C   UNL     1      -5.455   5.651   1.335  1.00  0.00     0.212 CG0
ATOM     51  G   UNL     1      -6.699   4.755   1.176  1.00  0.00     0.000 G0
BRANCH  50  52
ATOM     52  N   UNL     1      -4.312   4.953   1.917  1.00  0.00    -0.339 N 
ATOM     53  C   UNL     1      -3.337   5.582   2.653  1.00  0.00     0.243 C 
ATOM     54  O   UNL     1      -3.323   6.796   2.833  1.00  0.00    -0.273 OA
ATOM     55  H   UNL     1      -4.207   3.962   1.709  1.00  0.00     0.164 HD
BRANCH  53  56
ATOM     56  C   UNL     1      -2.185   4.655   3.091  1.00  0.00     0.182 C 
BRANCH  56  57
ATOM     57  N   UNL     1      -1.886   4.823   4.516  1.00  0.00    -0.344 N 
ATOM     58  C   UNL     1      -2.040   3.805   5.426  1.00  0.00     0.220 C 
ATOM     59  O   UNL     1      -2.506   2.711   5.125  1.00  0.00    -0.275 OA
ATOM     60  H   UNL     1      -1.405   5.676   4.788  1.00  0.00     0.164 HD
BRANCH  58  61
ATOM     61  C   UNL     1      -1.617   4.186   6.832  1.00  0.00     0.100 C 
BRANCH  61  62
ATOM     62  C   UNL     1      -0.879   5.523   6.913  1.00  0.00     0.010 C 
BRANCH  62  63
ATOM     63  C   UNL     1       0.635   5.393   7.126  1.00  0.00     0.000 C 
BRANCH  63  64
ATOM     64  C   UNL     1       1.045   5.148   8.577  1.00  0.00    -0.003 C 
ATOM     65  C   UNL     1       0.248   6.023   9.534  1.00  0.00     0.004 C 
ENDBRANCH  63  64
ENDBRANCH  62  63
ENDBRANCH  61  62
ENDBRANCH  58  61
ENDBRANCH  56  57
BRANCH  56  66
ATOM     66  C   UNL     1      -0.947   4.847   2.216  1.00  0.00     0.157 C 
BRANCH  66  67
ATOM     67  C   UNL     1      -0.111   3.601   2.175  1.00  0.00     0.305 C 
ATOM     68  O   UNL     1       0.329   2.982   3.132  1.00  0.00    -0.252 OA
BRANCH  67  69
ATOM     69  O   UNL     1       0.090   3.160   0.918  1.00  0.00    -0.481 OA
ATOM     70  H   UNL     1       0.834   2.526   0.991  1.00  0.00     0.296 HD
ENDBRANCH  67  69
ENDBRANCH  66  67
ENDBRANCH  56  66
ENDBRANCH  53  56
ENDBRANCH  50  52
ENDBRANCH  47  50
ENDBRANCH  45  46
BRANCH  45  71
ATOM     71  C   UNL     1      -4.454   4.343  -3.204  1.00  0.00     0.037 C 
BRANCH  71  72
ATOM     72  C   UNL     1      -5.820   4.790  -3.730  1.00  0.00     0.026 C 
BRANCH  72  73
ATOM     73  C   UNL     1      -6.943   3.901  -3.200  1.00  0.00     0.146 C 
BRANCH  73  74
ATOM     74  N   UNL     1      -7.455   4.510  -1.976  1.00  0.00    -0.254 NA
ATOM     75  C   UNL     1      -8.446   3.942  -1.394  1.00  0.00     0.185 C 
ATOM     76  N   UNL     1      -8.938   4.478  -0.265  1.00  0.00    -0.370 N 
ATOM     77  N   UNL     1      -9.112   2.831  -1.751  1.00  0.00    -0.370 N 
ATOM     78  H   UNL     1      -8.498   5.323   0.070  1.00  0.00     0.159 HD
ATOM     79  H   UNL     1      -9.795   4.176   0.163  1.00  0.00     0.159 HD
ATOM     80  H   UNL     1      -8.849   2.318  -2.579  1.00  0.00     0.159 HD
ATOM     81  H   UNL     1      -9.803   2.413  -1.151  1.00  0.00     0.159 HD
ENDBRANCH  73  74
ENDBRANCH  72  73
ENDBRANCH  71  72
ENDBRANCH  45  71
ENDBRANCH   3  45
TORSDOF 20
ENDMDL
MODEL 47
REMARK VINA RESULT:    -4.332      7.788     11.197
REMARK INTER + INTRA:         -20.913
REMARK INTER:                 -14.486
REMARK INTRA:                  -6.428
REMARK UNBOUND:                -8.478
REMARK SMILES CCCCCC(=O)N[C@H](CC(=O)O)C(=O)N[C@H]1C(=O)N[C@H](CCCN=C(N)N)C(=O)N[C@@H]2CC[C@H](O)N(C2=O)[C@@H](CC(C)C)C(=O)N(C)[C@@H](Cc2ccccc2)C(=O)N[C@H](C(C)C)C(=O)O[C@@H]1C
REMARK SMILES IDX 30 1 31 2 29 3 32 5 35 6 37 7 34 8 38 9 33 10 39 11 36 12
REMARK SMILES IDX 40 14 41 15 42 16 43 17 44 18 45 19 46 20 47 21 48 22 49 23
REMARK SMILES IDX 50 24 51 25 52 26 56 27 53 28 55 29 54 30 57 31 58 32 59 33
REMARK SMILES IDX 60 35 61 36 62 37 63 38 64 39 65 40 66 41 67 42 68 43 21 45
REMARK SMILES IDX 20 46 18 47 19 48 17 50 16 52 14 53 15 54 9 56 8 57 6 58
REMARK SMILES IDX 7 59 5 61 4 62 3 63 2 64 1 65 10 66 11 67 12 68 13 69 22 71
REMARK SMILES IDX 23 72 24 73 25 74 26 75 27 76 28 77
REMARK H PARENT 31 4 36 13 59 34 20 49 16 55 8 60 13 70 27 78 27 79 28 80
REMARK H PARENT 28 81
REMARK Flexibility Score:  259.900
ROOT
ATOM      1  O   UNL     1       1.298   2.044  -5.560  1.00  0.00    -0.273 OA
ATOM      2  N   UNL     1       1.356   1.051  -3.501  1.00  0.00    -0.343 N 
ATOM      3  C   UNL     1       1.767   1.188  -4.810  1.00  0.00     0.243 C 
ATOM      4  H   UNL     1       1.774   0.345  -2.908  1.00  0.00     0.164 HD
ENDROOT
BRANCH   2   5
ATOM      5  C   UNL     1       0.251   1.849  -2.982  1.00  0.00     0.171 C 
ATOM      6  C   UNL     1      -1.061   1.944  -0.399  1.00  0.00     0.214 C 
ATOM      7  N   UNL     1      -1.569   1.059  -1.421  1.00  0.00    -0.303 N 
ATOM      8  C   UNL     1      -0.400   3.193  -0.959  1.00  0.00     0.057 C 
ATOM      9  C   UNL     1      -0.960   0.927  -2.659  1.00  0.00     0.247 C 
ATOM     10  C   UNL     1       0.729   2.803  -1.888  1.00  0.00     0.040 C 
ATOM     11  O   UNL     1      -1.348   0.103  -3.497  1.00  0.00    -0.272 OA
BRANCH   6  12
ATOM     12  O   UNL     1      -0.149   1.215   0.388  1.00  0.00    -0.373 OA
ATOM     13  H   UNL     1      -0.677   0.632   0.975  1.00  0.00     0.213 HD
ENDBRANCH   6  12
BRANCH   7  14
ATOM     14  C   UNL     1      -2.692   0.175  -1.045  1.00  0.00     0.177 C 
BRANCH  14  15
ATOM     15  C   UNL     1      -3.961   0.325  -1.906  1.00  0.00     0.038 C 
BRANCH  15  16
ATOM     16  C   UNL     1      -4.644  -0.936  -2.482  1.00  0.00    -0.015 C 
ATOM     17  C   UNL     1      -5.104  -0.742  -3.930  1.00  0.00     0.007 C 
ATOM     18  C   UNL     1      -5.870  -1.295  -1.633  1.00  0.00     0.007 C 
ENDBRANCH  15  16
ENDBRANCH  14  15
BRANCH  14  19
ATOM     19  C   UNL     1      -2.150  -1.173  -0.456  1.00  0.00     0.245 C 
ATOM     20  O   UNL     1      -1.608  -1.955  -1.254  1.00  0.00    -0.272 OA
BRANCH  19  21
ATOM     21  N   UNL     1      -2.342  -1.574   0.854  1.00  0.00    -0.332 N 
ATOM     22  C   UNL     1      -1.345  -1.518   1.908  1.00  0.00     0.147 C 
BRANCH  21  23
ATOM     23  C   UNL     1      -3.676  -2.122   1.226  1.00  0.00     0.178 C 
BRANCH  23  24
ATOM     24  C   UNL     1      -3.654  -3.568   1.762  1.00  0.00     0.070 C 
BRANCH  24  25
ATOM     25  C   UNL     1      -4.145  -4.654   0.833  1.00  0.00    -0.045 A 
ATOM     26  C   UNL     1      -4.877  -5.742   1.325  1.00  0.00     0.004 A 
ATOM     27  C   UNL     1      -3.870  -4.588  -0.541  1.00  0.00     0.004 A 
ATOM     28  C   UNL     1      -5.313  -6.750   0.463  1.00  0.00     0.000 A 
ATOM     29  C   UNL     1      -4.307  -5.595  -1.402  1.00  0.00     0.000 A 
ATOM     30  C   UNL     1      -5.026  -6.678  -0.898  1.00  0.00     0.000 A 
ENDBRANCH  24  25
ENDBRANCH  23  24
BRANCH  23  31
ATOM     31  C   UNL     1      -4.525  -1.132   2.059  1.00  0.00     0.243 C 
ATOM     32  O   UNL     1      -4.939  -0.056   1.634  1.00  0.00    -0.273 OA
ATOM     33  N   UNL     1      -4.625  -1.478   3.396  1.00  0.00    -0.341 N 
ATOM     34  H   UNL     1      -4.256  -2.385   3.691  1.00  0.00     0.164 HD
BRANCH  33  35
ATOM     35  C   UNL     1      -5.280  -0.627   4.394  1.00  0.00     0.194 C 
BRANCH  35  36
ATOM     36  C   UNL     1      -4.305   0.293   5.182  1.00  0.00     0.017 C 
ATOM     37  C   UNL     1      -4.527   1.774   4.830  1.00  0.00     0.010 C 
ATOM     38  C   UNL     1      -2.828  -0.025   4.918  1.00  0.00     0.010 C 
ENDBRANCH  35  36
BRANCH  35  39
ATOM     39  C   UNL     1      -6.214  -1.430   5.342  1.00  0.00     0.329 C 
ATOM     40  O   UNL     1      -6.207  -2.651   5.440  1.00  0.00    -0.250 OA
BRANCH  39  41
ATOM     41  O   UNL     1      -6.987  -0.615   6.122  1.00  0.00    -0.458 OA
BRANCH  41  42
ATOM     42  C   UNL     1      -8.347  -0.400   5.674  1.00  0.00     0.205 CG0
ATOM     43  C   UNL     1      -8.382   0.949   4.959  1.00  0.00     0.056 C 
ATOM     44  G   UNL     1      -9.281  -0.442   6.899  1.00  0.00     0.000 G0
ENDBRANCH  41  42
ENDBRANCH  39  41
ENDBRANCH  35  39
ENDBRANCH  33  35
ENDBRANCH  23  31
ENDBRANCH  21  23
ENDBRANCH  19  21
ENDBRANCH  14  19
ENDBRANCH   7  14
ENDBRANCH   2   5
BRANCH   3  45
ATOM     45  C   UNL     1       2.863   0.214  -5.259  1.00  0.00     0.171 C 
BRANCH  45  46
ATOM     46  N   UNL     1       3.242   0.639  -6.600  1.00  0.00    -0.342 N 
ATOM     47  C   UNL     1       4.376   1.370  -6.848  1.00  0.00     0.247 C 
ATOM     48  O   UNL     1       5.191   1.658  -5.970  1.00  0.00    -0.273 OA
ATOM     49  H   UNL     1       2.624   0.373  -7.365  1.00  0.00     0.164 HD
BRANCH  47  50
ATOM     50  C   UNL     1       4.547   1.834  -8.302  1.00  0.00     0.212 CG0
ATOM     51  G   UNL     1       5.208   0.682  -9.085  1.00  0.00     0.000 G0
BRANCH  50  52
ATOM     52  N   UNL     1       3.200   2.151  -8.770  1.00  0.00    -0.339 N 
ATOM     53  C   UNL     1       2.636   3.398  -8.659  1.00  0.00     0.243 C 
ATOM     54  O   UNL     1       3.205   4.335  -8.107  1.00  0.00    -0.273 OA
ATOM     55  H   UNL     1       2.635   1.387  -9.137  1.00  0.00     0.164 HD
BRANCH  53  56
ATOM     56  C   UNL     1       1.174   3.471  -9.144  1.00  0.00     0.182 C 
BRANCH  56  57
ATOM     57  N   UNL     1       0.261   3.729  -8.026  1.00  0.00    -0.344 N 
ATOM     58  C   UNL     1      -0.349   4.946  -7.840  1.00  0.00     0.220 C 
ATOM     59  O   UNL     1      -0.117   5.919  -8.549  1.00  0.00    -0.275 OA
ATOM     60  H   UNL     1      -0.036   2.926  -7.478  1.00  0.00     0.164 HD
BRANCH  58  61
ATOM     61  C   UNL     1      -1.297   4.969  -6.655  1.00  0.00     0.100 C 
BRANCH  61  62
ATOM     62  C   UNL     1      -0.591   5.087  -5.304  1.00  0.00     0.010 C 
BRANCH  62  63
ATOM     63  C   UNL     1       0.266   6.350  -5.152  1.00  0.00     0.000 C 
BRANCH  63  64
ATOM     64  C   UNL     1      -0.090   7.208  -3.939  1.00  0.00    -0.003 C 
ATOM     65  C   UNL     1       0.614   6.712  -2.684  1.00  0.00     0.004 C 
ENDBRANCH  63  64
ENDBRANCH  62  63
ENDBRANCH  61  62
ENDBRANCH  58  61
ENDBRANCH  56  57
BRANCH  56  66
ATOM     66  C   UNL     1       0.782   2.221  -9.931  1.00  0.00     0.157 C 
BRANCH  66  67
ATOM     67  C   UNL     1      -0.709   2.052  -9.977  1.00  0.00     0.305 C 
ATOM     68  O   UNL     1      -1.416   1.545  -9.119  1.00  0.00    -0.252 OA
BRANCH  67  69
ATOM     69  O   UNL     1      -1.251   2.583 -11.090  1.00  0.00    -0.481 OA
ATOM     70  H   UNL     1      -1.492   1.810 -11.643  1.00  0.00     0.296 HD
ENDBRANCH  67  69
ENDBRANCH  66  67
ENDBRANCH  56  66
ENDBRANCH  53  56
ENDBRANCH  50  52
ENDBRANCH  47  50
ENDBRANCH  45  46
BRANCH  45  71
ATOM     71  C   UNL     1       2.336  -1.225  -5.250  1.00  0.00     0.037 C 
BRANCH  71  72
ATOM     72  C   UNL     1       1.280  -1.458  -6.334  1.00  0.00     0.026 C 
BRANCH  72  73
ATOM     73  C   UNL     1       0.801  -2.908  -6.346  1.00  0.00     0.146 C 
BRANCH  73  74
ATOM     74  N   UNL     1      -0.378  -2.997  -5.489  1.00  0.00    -0.254 NA
ATOM     75  C   UNL     1      -0.312  -3.755  -4.458  1.00  0.00     0.185 C 
ATOM     76  N   UNL     1      -1.380  -3.856  -3.649  1.00  0.00    -0.370 N 
ATOM     77  N   UNL     1       0.713  -4.510  -4.027  1.00  0.00    -0.370 N 
ATOM     78  H   UNL     1      -2.200  -3.325  -3.905  1.00  0.00     0.159 HD
ATOM     79  H   UNL     1      -1.454  -4.534  -2.912  1.00  0.00     0.159 HD
ATOM     80  H   UNL     1       1.585  -4.529  -4.535  1.00  0.00     0.159 HD
ATOM     81  H   UNL     1       0.688  -4.976  -3.136  1.00  0.00     0.159 HD
ENDBRANCH  73  74
ENDBRANCH  72  73
ENDBRANCH  71  72
ENDBRANCH  45  71
ENDBRANCH   3  45
TORSDOF 20
ENDMDL
MODEL 48
REMARK VINA RESULT:    -4.243      5.674      9.249
REMARK INTER + INTRA:         -20.658
REMARK INTER:                 -15.975
REMARK INTRA:                  -4.684
REMARK UNBOUND:                -8.478
REMARK SMILES CCCCCC(=O)N[C@H](CC(=O)O)C(=O)N[C@H]1C(=O)N[C@H](CCCN=C(N)N)C(=O)N[C@@H]2CC[C@H](O)N(C2=O)[C@@H](CC(C)C)C(=O)N(C)[C@@H](Cc2ccccc2)C(=O)N[C@H](C(C)C)C(=O)O[C@@H]1C
REMARK SMILES IDX 30 1 31 2 29 3 32 5 35 6 37 7 34 8 38 9 33 10 39 11 36 12
REMARK SMILES IDX 40 14 41 15 42 16 43 17 44 18 45 19 46 20 47 21 48 22 49 23
REMARK SMILES IDX 50 24 51 25 52 26 56 27 53 28 55 29 54 30 57 31 58 32 59 33
REMARK SMILES IDX 60 35 61 36 62 37 63 38 64 39 65 40 66 41 67 42 68 43 21 45
REMARK SMILES IDX 20 46 18 47 19 48 17 50 16 52 14 53 15 54 9 56 8 57 6 58
REMARK SMILES IDX 7 59 5 61 4 62 3 63 2 64 1 65 10 66 11 67 12 68 13 69 22 71
REMARK SMILES IDX 23 72 24 73 25 74 26 75 27 76 28 77
REMARK H PARENT 31 4 36 13 59 34 20 49 16 55 8 60 13 70 27 78 27 79 28 80
REMARK H PARENT 28 81
REMARK Flexibility Score:  259.900
ROOT
ATOM      1  O   UNL     1       0.095   2.685   0.683  1.00  0.00    -0.273 OA
ATOM      2  N   UNL     1       0.406   4.841   1.380  1.00  0.00    -0.343 N 
ATOM      3  C   UNL     1       0.386   3.852   0.420  1.00  0.00     0.243 C 
ATOM      4  H   UNL     1       0.636   5.793   1.125  1.00  0.00     0.164 HD
ENDROOT
BRANCH   2   5
ATOM      5  C   UNL     1       0.194   4.515   2.786  1.00  0.00     0.171 C 
ATOM      6  C   UNL     1      -0.516   6.124   5.091  1.00  0.00     0.214 C 
ATOM      7  N   UNL     1       0.877   5.917   4.771  1.00  0.00    -0.303 N 
ATOM      8  C   UNL     1      -1.408   4.967   4.671  1.00  0.00     0.057 C 
ATOM      9  C   UNL     1       1.285   5.202   3.657  1.00  0.00     0.247 C 
ATOM     10  C   UNL     1      -1.266   4.723   3.184  1.00  0.00     0.040 C 
ATOM     11  O   UNL     1       2.478   5.102   3.342  1.00  0.00    -0.272 OA
BRANCH   6  12
ATOM     12  O   UNL     1      -0.928   7.317   4.464  1.00  0.00    -0.373 OA
ATOM     13  H   UNL     1      -1.740   7.618   4.925  1.00  0.00     0.213 HD
ENDBRANCH   6  12
BRANCH   7  14
ATOM     14  C   UNL     1       1.870   6.628   5.606  1.00  0.00     0.177 C 
BRANCH  14  15
ATOM     15  C   UNL     1       1.555   8.111   5.878  1.00  0.00     0.038 C 
BRANCH  15  16
ATOM     16  C   UNL     1       2.504   9.203   5.335  1.00  0.00    -0.015 C 
ATOM     17  C   UNL     1       3.785   8.617   4.734  1.00  0.00     0.007 C 
ATOM     18  C   UNL     1       2.898  10.158   6.468  1.00  0.00     0.007 C 
ENDBRANCH  15  16
ENDBRANCH  14  15
BRANCH  14  19
ATOM     19  C   UNL     1       2.530   5.638   6.627  1.00  0.00     0.245 C 
ATOM     20  O   UNL     1       1.890   4.609   6.901  1.00  0.00    -0.272 OA
BRANCH  19  21
ATOM     21  N   UNL     1       3.706   5.902   7.306  1.00  0.00    -0.332 N 
ATOM     22  C   UNL     1       4.977   5.237   7.079  1.00  0.00     0.147 C 
BRANCH  21  23
ATOM     23  C   UNL     1       3.678   6.945   8.368  1.00  0.00     0.178 C 
BRANCH  23  24
ATOM     24  C   UNL     1       2.561   6.767   9.417  1.00  0.00     0.070 C 
BRANCH  24  25
ATOM     25  C   UNL     1       2.248   7.955  10.297  1.00  0.00    -0.045 A 
ATOM     26  C   UNL     1       1.641   9.101   9.768  1.00  0.00     0.004 A 
ATOM     27  C   UNL     1       2.569   7.927  11.663  1.00  0.00     0.004 A 
ATOM     28  C   UNL     1       1.371  10.201  10.585  1.00  0.00     0.000 A 
ATOM     29  C   UNL     1       2.298   9.027  12.478  1.00  0.00     0.000 A 
ATOM     30  C   UNL     1       1.702  10.164  11.938  1.00  0.00     0.000 A 
ENDBRANCH  24  25
ENDBRANCH  23  24
BRANCH  23  31
ATOM     31  C   UNL     1       5.077   7.250   8.952  1.00  0.00     0.243 C 
ATOM     32  O   UNL     1       5.867   8.051   8.460  1.00  0.00    -0.273 OA
ATOM     33  N   UNL     1       5.444   6.401   9.983  1.00  0.00    -0.341 N 
ATOM     34  H   UNL     1       4.744   5.750  10.347  1.00  0.00     0.164 HD
BRANCH  33  35
ATOM     35  C   UNL     1       6.769   6.427  10.607  1.00  0.00     0.194 C 
BRANCH  35  36
ATOM     36  C   UNL     1       7.395   5.021  10.830  1.00  0.00     0.017 C 
ATOM     37  C   UNL     1       7.996   4.464   9.528  1.00  0.00     0.010 C 
ATOM     38  C   UNL     1       6.388   3.988  11.349  1.00  0.00     0.010 C 
ENDBRANCH  35  36
BRANCH  35  39
ATOM     39  C   UNL     1       6.805   7.289  11.899  1.00  0.00     0.329 C 
ATOM     40  O   UNL     1       6.015   7.166  12.829  1.00  0.00    -0.250 OA
BRANCH  39  41
ATOM     41  O   UNL     1       7.870   8.146  11.924  1.00  0.00    -0.458 OA
BRANCH  41  42
ATOM     42  C   UNL     1       8.666   8.145  13.134  1.00  0.00     0.205 CG0
ATOM     43  C   UNL     1       9.921   7.322  12.851  1.00  0.00     0.056 C 
ATOM     44  G   UNL     1       7.819   7.554  14.279  1.00  0.00     0.000 G0
ENDBRANCH  41  42
ENDBRANCH  39  41
ENDBRANCH  35  39
ENDBRANCH  33  35
ENDBRANCH  23  31
ENDBRANCH  21  23
ENDBRANCH  19  21
ENDBRANCH  14  19
ENDBRANCH   7  14
ENDBRANCH   2   5
BRANCH   3  45
ATOM     45  C   UNL     1       0.731   4.311  -1.003  1.00  0.00     0.171 C 
BRANCH  45  46
ATOM     46  N   UNL     1      -0.363   3.845  -1.843  1.00  0.00    -0.342 N 
ATOM     47  C   UNL     1      -1.064   4.685  -2.672  1.00  0.00     0.247 C 
ATOM     48  O   UNL     1      -0.773   5.872  -2.822  1.00  0.00    -0.273 OA
ATOM     49  H   UNL     1      -0.601   2.856  -1.793  1.00  0.00     0.164 HD
BRANCH  47  50
ATOM     50  C   UNL     1      -2.262   4.043  -3.387  1.00  0.00     0.212 CG0
ATOM     51  G   UNL     1      -2.081   2.513  -3.319  1.00  0.00     0.000 G0
BRANCH  50  52
ATOM     52  N   UNL     1      -3.442   4.517  -2.670  1.00  0.00    -0.339 N 
ATOM     53  C   UNL     1      -3.918   3.928  -1.524  1.00  0.00     0.243 C 
ATOM     54  O   UNL     1      -3.414   2.917  -1.041  1.00  0.00    -0.273 OA
ATOM     55  H   UNL     1      -3.970   5.284  -3.082  1.00  0.00     0.164 HD
BRANCH  53  56
ATOM     56  C   UNL     1      -5.226   4.549  -0.995  1.00  0.00     0.182 C 
BRANCH  56  57
ATOM     57  N   UNL     1      -6.396   3.933  -1.630  1.00  0.00    -0.344 N 
ATOM     58  C   UNL     1      -7.532   3.613  -0.927  1.00  0.00     0.220 C 
ATOM     59  O   UNL     1      -7.621   3.752   0.289  1.00  0.00    -0.275 OA
ATOM     60  H   UNL     1      -6.402   3.896  -2.645  1.00  0.00     0.164 HD
BRANCH  58  61
ATOM     61  C   UNL     1      -8.636   3.041  -1.796  1.00  0.00     0.100 C 
BRANCH  61  62
ATOM     62  C   UNL     1      -9.812   2.470  -1.003  1.00  0.00     0.010 C 
BRANCH  62  63
ATOM     63  C   UNL     1     -11.069   3.349  -1.025  1.00  0.00     0.000 C 
BRANCH  63  64
ATOM     64  C   UNL     1     -11.429   3.964   0.326  1.00  0.00    -0.003 C 
ATOM     65  C   UNL     1     -10.872   3.138   1.477  1.00  0.00     0.004 C 
ENDBRANCH  63  64
ENDBRANCH  62  63
ENDBRANCH  61  62
ENDBRANCH  58  61
ENDBRANCH  56  57
BRANCH  56  66
ATOM     66  C   UNL     1      -5.224   6.070  -1.143  1.00  0.00     0.157 C 
BRANCH  66  67
ATOM     67  C   UNL     1      -5.985   6.726  -0.027  1.00  0.00     0.305 C 
ATOM     68  O   UNL     1      -5.535   7.101   1.045  1.00  0.00    -0.252 OA
BRANCH  67  69
ATOM     69  O   UNL     1      -7.279   6.927  -0.339  1.00  0.00    -0.481 OA
ATOM     70  H   UNL     1      -7.755   6.872   0.517  1.00  0.00     0.296 HD
ENDBRANCH  67  69
ENDBRANCH  66  67
ENDBRANCH  56  66
ENDBRANCH  53  56
ENDBRANCH  50  52
ENDBRANCH  47  50
ENDBRANCH  45  46
BRANCH  45  71
ATOM     71  C   UNL     1       2.074   3.718  -1.443  1.00  0.00     0.037 C 
BRANCH  71  72
ATOM     72  C   UNL     1       3.096   4.804  -1.792  1.00  0.00     0.026 C 
BRANCH  72  73
ATOM     73  C   UNL     1       2.434   6.173  -1.931  1.00  0.00     0.146 C 
BRANCH  73  74
ATOM     74  N   UNL     1       2.862   6.749  -3.202  1.00  0.00    -0.254 NA
ATOM     75  C   UNL     1       2.137   7.675  -3.714  1.00  0.00     0.185 C 
ATOM     76  N   UNL     1       2.506   8.226  -4.882  1.00  0.00    -0.370 N 
ATOM     77  N   UNL     1       1.000   8.216  -3.243  1.00  0.00    -0.370 N 
ATOM     78  H   UNL     1       3.349   7.870  -5.310  1.00  0.00     0.159 HD
ATOM     79  H   UNL     1       1.919   8.846  -5.411  1.00  0.00     0.159 HD
ATOM     80  H   UNL     1       0.605   7.902  -2.369  1.00  0.00     0.159 HD
ATOM     81  H   UNL     1       0.579   9.021  -3.677  1.00  0.00     0.159 HD
ENDBRANCH  73  74
ENDBRANCH  72  73
ENDBRANCH  71  72
ENDBRANCH  45  71
ENDBRANCH   3  45
TORSDOF 20
ENDMDL
MODEL 49
REMARK VINA RESULT:    -4.237      7.301      9.912
REMARK INTER + INTRA:         -20.643
REMARK INTER:                 -14.115
REMARK INTRA:                  -6.528
REMARK UNBOUND:                -8.478
REMARK SMILES CCCCCC(=O)N[C@H](CC(=O)O)C(=O)N[C@H]1C(=O)N[C@H](CCCN=C(N)N)C(=O)N[C@@H]2CC[C@H](O)N(C2=O)[C@@H](CC(C)C)C(=O)N(C)[C@@H](Cc2ccccc2)C(=O)N[C@H](C(C)C)C(=O)O[C@@H]1C
REMARK SMILES IDX 30 1 31 2 29 3 32 5 35 6 37 7 34 8 38 9 33 10 39 11 36 12
REMARK SMILES IDX 40 14 41 15 42 16 43 17 44 18 45 19 46 20 47 21 48 22 49 23
REMARK SMILES IDX 50 24 51 25 52 26 56 27 53 28 55 29 54 30 57 31 58 32 59 33
REMARK SMILES IDX 60 35 61 36 62 37 63 38 64 39 65 40 66 41 67 42 68 43 21 45
REMARK SMILES IDX 20 46 18 47 19 48 17 50 16 52 14 53 15 54 9 56 8 57 6 58
REMARK SMILES IDX 7 59 5 61 4 62 3 63 2 64 1 65 10 66 11 67 12 68 13 69 22 71
REMARK SMILES IDX 23 72 24 73 25 74 26 75 27 76 28 77
REMARK H PARENT 31 4 36 13 59 34 20 49 16 55 8 60 13 70 27 78 27 79 28 80
REMARK H PARENT 28 81
REMARK Flexibility Score:  259.900
ROOT
ATOM      1  O   UNL     1       1.180   1.828  -4.033  1.00  0.00    -0.273 OA
ATOM      2  N   UNL     1       0.444  -0.046  -2.948  1.00  0.00    -0.343 N 
ATOM      3  C   UNL     1       1.152   0.601  -3.939  1.00  0.00     0.243 C 
ATOM      4  H   UNL     1       0.456  -1.057  -2.893  1.00  0.00     0.164 HD
ENDROOT
BRANCH   2   5
ATOM      5  C   UNL     1      -0.407   0.705  -2.032  1.00  0.00     0.171 C 
ATOM      6  C   UNL     1      -0.835   0.543   0.831  1.00  0.00     0.214 C 
ATOM      7  N   UNL     1      -1.676  -0.225  -0.058  1.00  0.00    -0.303 N 
ATOM      8  C   UNL     1      -0.329   1.836   0.213  1.00  0.00     0.057 C 
ATOM      9  C   UNL     1      -1.493  -0.233  -1.431  1.00  0.00     0.247 C 
ATOM     10  C   UNL     1       0.432   1.533  -1.060  1.00  0.00     0.040 C 
ATOM     11  O   UNL     1      -2.161  -0.960  -2.178  1.00  0.00    -0.272 OA
BRANCH   6  12
ATOM     12  O   UNL     1       0.246  -0.275   1.214  1.00  0.00    -0.373 OA
ATOM     13  H   UNL     1       0.114  -1.147   0.783  1.00  0.00     0.213 HD
ENDBRANCH   6  12
BRANCH   7  14
ATOM     14  C   UNL     1      -2.662  -1.131   0.568  1.00  0.00     0.177 C 
BRANCH  14  15
ATOM     15  C   UNL     1      -2.077  -2.428   1.161  1.00  0.00     0.038 C 
BRANCH  15  16
ATOM     16  C   UNL     1      -2.449  -3.788   0.530  1.00  0.00    -0.015 C 
ATOM     17  C   UNL     1      -3.457  -3.646  -0.614  1.00  0.00     0.007 C 
ATOM     18  C   UNL     1      -3.061  -4.705   1.597  1.00  0.00     0.007 C 
ENDBRANCH  15  16
ENDBRANCH  14  15
BRANCH  14  19
ATOM     19  C   UNL     1      -3.845  -0.306   1.182  1.00  0.00     0.245 C 
ATOM     20  O   UNL     1      -4.515   0.381   0.394  1.00  0.00    -0.272 OA
BRANCH  19  21
ATOM     21  N   UNL     1      -4.102  -0.220   2.538  1.00  0.00    -0.332 N 
ATOM     22  C   UNL     1      -5.132  -0.956   3.250  1.00  0.00     0.147 C 
BRANCH  21  23
ATOM     23  C   UNL     1      -3.268   0.712   3.347  1.00  0.00     0.178 C 
BRANCH  23  24
ATOM     24  C   UNL     1      -3.426   2.202   2.981  1.00  0.00     0.070 C 
BRANCH  24  25
ATOM     25  C   UNL     1      -2.201   3.077   3.113  1.00  0.00    -0.045 A 
ATOM     26  C   UNL     1      -1.076   2.635   3.821  1.00  0.00     0.004 A 
ATOM     27  C   UNL     1      -2.177   4.353   2.529  1.00  0.00     0.004 A 
ATOM     28  C   UNL     1       0.046   3.456   3.952  1.00  0.00     0.000 A 
ATOM     29  C   UNL     1      -1.054   5.172   2.661  1.00  0.00     0.000 A 
ATOM     30  C   UNL     1       0.055   4.724   3.375  1.00  0.00     0.000 A 
ENDBRANCH  24  25
ENDBRANCH  23  24
BRANCH  23  31
ATOM     31  C   UNL     1      -3.315   0.404   4.862  1.00  0.00     0.243 C 
ATOM     32  O   UNL     1      -2.720  -0.530   5.392  1.00  0.00    -0.273 OA
ATOM     33  N   UNL     1      -4.241   1.167   5.553  1.00  0.00    -0.341 N 
ATOM     34  H   UNL     1      -4.710   1.928   5.056  1.00  0.00     0.164 HD
BRANCH  33  35
ATOM     35  C   UNL     1      -4.541   0.966   6.974  1.00  0.00     0.194 C 
BRANCH  35  36
ATOM     36  C   UNL     1      -6.060   0.963   7.307  1.00  0.00     0.017 C 
ATOM     37  C   UNL     1      -6.505   2.312   7.898  1.00  0.00     0.010 C 
ATOM     38  C   UNL     1      -6.456  -0.129   8.308  1.00  0.00     0.010 C 
ENDBRANCH  35  36
BRANCH  35  39
ATOM     39  C   UNL     1      -3.747   1.933   7.895  1.00  0.00     0.329 C 
ATOM     40  O   UNL     1      -3.444   3.080   7.588  1.00  0.00    -0.250 OA
BRANCH  39  41
ATOM     41  O   UNL     1      -3.496   1.391   9.125  1.00  0.00    -0.458 OA
BRANCH  41  42
ATOM     42  C   UNL     1      -3.773   2.236  10.267  1.00  0.00     0.205 CG0
ATOM     43  C   UNL     1      -2.455   2.442  11.010  1.00  0.00     0.056 C 
ATOM     44  G   UNL     1      -4.841   1.548  11.141  1.00  0.00     0.000 G0
ENDBRANCH  41  42
ENDBRANCH  39  41
ENDBRANCH  35  39
ENDBRANCH  33  35
ENDBRANCH  23  31
ENDBRANCH  21  23
ENDBRANCH  19  21
ENDBRANCH  14  19
ENDBRANCH   7  14
ENDBRANCH   2   5
BRANCH   3  45
ATOM     45  C   UNL     1       1.919  -0.314  -4.903  1.00  0.00     0.171 C 
BRANCH  45  46
ATOM     46  N   UNL     1       1.382  -0.030  -6.227  1.00  0.00    -0.342 N 
ATOM     47  C   UNL     1       2.184   0.131  -7.328  1.00  0.00     0.247 C 
ATOM     48  O   UNL     1       3.406  -0.023  -7.293  1.00  0.00    -0.273 OA
ATOM     49  H   UNL     1       0.370   0.050  -6.311  1.00  0.00     0.164 HD
BRANCH  47  50
ATOM     50  C   UNL     1       1.451   0.548  -8.611  1.00  0.00     0.212 CG0
ATOM     51  G   UNL     1       1.843  -0.450  -9.718  1.00  0.00     0.000 G0
BRANCH  50  52
ATOM     52  N   UNL     1       0.030   0.512  -8.277  1.00  0.00    -0.339 N 
ATOM     53  C   UNL     1      -0.881   1.426  -8.749  1.00  0.00     0.243 C 
ATOM     54  O   UNL     1      -0.558   2.381  -9.450  1.00  0.00    -0.273 OA
ATOM     55  H   UNL     1      -0.281  -0.192  -7.610  1.00  0.00     0.164 HD
BRANCH  53  56
ATOM     56  C   UNL     1      -2.306   1.236  -8.191  1.00  0.00     0.182 C 
BRANCH  56  57
ATOM     57  N   UNL     1      -2.699   2.373  -7.353  1.00  0.00    -0.344 N 
ATOM     58  C   UNL     1      -1.830   2.977  -6.477  1.00  0.00     0.220 C 
ATOM     59  O   UNL     1      -0.691   2.564  -6.282  1.00  0.00    -0.275 OA
ATOM     60  H   UNL     1      -3.595   2.807  -7.556  1.00  0.00     0.164 HD
BRANCH  58  61
ATOM     61  C   UNL     1      -2.432   4.169  -5.758  1.00  0.00     0.100 C 
BRANCH  61  62
ATOM     62  C   UNL     1      -1.673   4.575  -4.494  1.00  0.00     0.010 C 
BRANCH  62  63
ATOM     63  C   UNL     1      -2.019   3.736  -3.257  1.00  0.00     0.000 C 
BRANCH  63  64
ATOM     64  C   UNL     1      -1.784   4.452  -1.928  1.00  0.00    -0.003 C 
ATOM     65  C   UNL     1      -3.000   4.349  -1.019  1.00  0.00     0.004 C 
ENDBRANCH  63  64
ENDBRANCH  62  63
ENDBRANCH  61  62
ENDBRANCH  58  61
ENDBRANCH  56  57
BRANCH  56  66
ATOM     66  C   UNL     1      -2.448  -0.097  -7.459  1.00  0.00     0.157 C 
BRANCH  66  67
ATOM     67  C   UNL     1      -3.012   0.097  -6.081  1.00  0.00     0.305 C 
ATOM     68  O   UNL     1      -4.183   0.281  -5.787  1.00  0.00    -0.252 OA
BRANCH  67  69
ATOM     69  O   UNL     1      -2.069  -0.002  -5.124  1.00  0.00    -0.481 OA
ATOM     70  H   UNL     1      -2.378  -0.730  -4.544  1.00  0.00     0.296 HD
ENDBRANCH  67  69
ENDBRANCH  66  67
ENDBRANCH  56  66
ENDBRANCH  53  56
ENDBRANCH  50  52
ENDBRANCH  47  50
ENDBRANCH  45  46
BRANCH  45  71
ATOM     71  C   UNL     1       1.721  -1.784  -4.515  1.00  0.00     0.037 C 
BRANCH  71  72
ATOM     72  C   UNL     1       0.668  -2.472  -5.386  1.00  0.00     0.026 C 
BRANCH  72  73
ATOM     73  C   UNL     1      -0.327  -3.265  -4.541  1.00  0.00     0.146 C 
BRANCH  73  74
ATOM     74  N   UNL     1      -1.310  -3.856  -5.444  1.00  0.00    -0.254 NA
ATOM     75  C   UNL     1      -2.549  -3.617  -5.220  1.00  0.00     0.185 C 
ATOM     76  N   UNL     1      -3.476  -4.146  -6.035  1.00  0.00    -0.370 N 
ATOM     77  N   UNL     1      -3.104  -2.878  -4.244  1.00  0.00    -0.370 N 
ATOM     78  H   UNL     1      -3.144  -4.724  -6.793  1.00  0.00     0.159 HD
ATOM     79  H   UNL     1      -4.462  -4.123  -5.840  1.00  0.00     0.159 HD
ATOM     80  H   UNL     1      -2.526  -2.415  -3.559  1.00  0.00     0.159 HD
ATOM     81  H   UNL     1      -4.088  -2.666  -4.237  1.00  0.00     0.159 HD
ENDBRANCH  73  74
ENDBRANCH  72  73
ENDBRANCH  71  72
ENDBRANCH  45  71
ENDBRANCH   3  45
TORSDOF 20
ENDMDL
MODEL 50
REMARK VINA RESULT:    -4.200      8.099     12.318
REMARK INTER + INTRA:         -20.535
REMARK INTER:                 -14.444
REMARK INTRA:                  -6.091
REMARK UNBOUND:                -8.478
REMARK SMILES CCCCCC(=O)N[C@H](CC(=O)O)C(=O)N[C@H]1C(=O)N[C@H](CCCN=C(N)N)C(=O)N[C@@H]2CC[C@H](O)N(C2=O)[C@@H](CC(C)C)C(=O)N(C)[C@@H](Cc2ccccc2)C(=O)N[C@H](C(C)C)C(=O)O[C@@H]1C
REMARK SMILES IDX 30 1 31 2 29 3 32 5 35 6 37 7 34 8 38 9 33 10 39 11 36 12
REMARK SMILES IDX 40 14 41 15 42 16 43 17 44 18 45 19 46 20 47 21 48 22 49 23
REMARK SMILES IDX 50 24 51 25 52 26 56 27 53 28 55 29 54 30 57 31 58 32 59 33
REMARK SMILES IDX 60 35 61 36 62 37 63 38 64 39 65 40 66 41 67 42 68 43 21 45
REMARK SMILES IDX 20 46 18 47 19 48 17 50 16 52 14 53 15 54 9 56 8 57 6 58
REMARK SMILES IDX 7 59 5 61 4 62 3 63 2 64 1 65 10 66 11 67 12 68 13 69 22 71
REMARK SMILES IDX 23 72 24 73 25 74 26 75 27 76 28 77
REMARK H PARENT 31 4 36 13 59 34 20 49 16 55 8 60 13 70 27 78 27 79 28 80
REMARK H PARENT 28 81
REMARK Flexibility Score:  259.900
ROOT
ATOM      1  O   UNL     1      -3.519   3.911   4.989  1.00  0.00    -0.273 OA
ATOM      2  N   UNL     1      -1.376   3.113   4.990  1.00  0.00    -0.343 N 
ATOM      3  C   UNL     1      -2.709   3.049   5.331  1.00  0.00     0.243 C 
ATOM      4  H   UNL     1      -0.741   2.378   5.277  1.00  0.00     0.164 HD
ENDROOT
BRANCH   2   5
ATOM      5  C   UNL     1      -0.841   4.282   4.300  1.00  0.00     0.171 C 
ATOM      6  C   UNL     1       1.860   5.239   3.859  1.00  0.00     0.214 C 
ATOM      7  N   UNL     1       1.131   5.681   5.025  1.00  0.00    -0.303 N 
ATOM      8  C   UNL     1       0.963   4.927   2.671  1.00  0.00     0.057 C 
ATOM      9  C   UNL     1      -0.143   5.224   5.322  1.00  0.00     0.247 C 
ATOM     10  C   UNL     1      -0.052   3.873   3.058  1.00  0.00     0.040 C 
ATOM     11  O   UNL     1      -0.726   5.541   6.367  1.00  0.00    -0.272 OA
BRANCH   6  12
ATOM     12  O   UNL     1       2.606   4.101   4.224  1.00  0.00    -0.373 OA
ATOM     13  H   UNL     1       3.550   4.311   4.057  1.00  0.00     0.213 HD
ENDBRANCH   6  12
BRANCH   7  14
ATOM     14  C   UNL     1       1.858   6.541   5.983  1.00  0.00     0.177 C 
BRANCH  14  15
ATOM     15  C   UNL     1       2.737   5.790   7.002  1.00  0.00     0.038 C 
BRANCH  15  16
ATOM     16  C   UNL     1       2.357   5.815   8.499  1.00  0.00    -0.015 C 
ATOM     17  C   UNL     1       3.568   5.606   9.413  1.00  0.00     0.007 C 
ATOM     18  C   UNL     1       1.336   4.709   8.795  1.00  0.00     0.007 C 
ENDBRANCH  15  16
ENDBRANCH  14  15
BRANCH  14  19
ATOM     19  C   UNL     1       2.212   7.916   5.320  1.00  0.00     0.245 C 
ATOM     20  O   UNL     1       1.260   8.602   4.911  1.00  0.00    -0.272 OA
BRANCH  19  21
ATOM     21  N   UNL     1       3.505   8.342   5.070  1.00  0.00    -0.332 N 
ATOM     22  C   UNL     1       4.428   7.728   4.133  1.00  0.00     0.147 C 
BRANCH  21  23
ATOM     23  C   UNL     1       4.007   9.521   5.828  1.00  0.00     0.178 C 
BRANCH  23  24
ATOM     24  C   UNL     1       5.221   9.236   6.736  1.00  0.00     0.070 C 
BRANCH  24  25
ATOM     25  C   UNL     1       5.185   9.811   8.133  1.00  0.00    -0.045 A 
ATOM     26  C   UNL     1       4.465   9.175   9.152  1.00  0.00     0.004 A 
ATOM     27  C   UNL     1       5.873  10.998   8.427  1.00  0.00     0.004 A 
ATOM     28  C   UNL     1       4.424   9.722  10.437  1.00  0.00     0.000 A 
ATOM     29  C   UNL     1       5.831  11.543   9.711  1.00  0.00     0.000 A 
ATOM     30  C   UNL     1       5.104  10.906  10.714  1.00  0.00     0.000 A 
ENDBRANCH  24  25
ENDBRANCH  23  24
BRANCH  23  31
ATOM     31  C   UNL     1       4.132  10.792   4.953  1.00  0.00     0.243 C 
ATOM     32  O   UNL     1       3.183  11.339   4.397  1.00  0.00    -0.273 OA
ATOM     33  N   UNL     1       5.442  11.159   4.696  1.00  0.00    -0.341 N 
ATOM     34  H   UNL     1       6.191  10.662   5.185  1.00  0.00     0.164 HD
BRANCH  33  35
ATOM     35  C   UNL     1       5.801  12.259   3.796  1.00  0.00     0.194 C 
BRANCH  35  36
ATOM     36  C   UNL     1       7.003  11.947   2.861  1.00  0.00     0.017 C 
ATOM     37  C   UNL     1       6.646  10.857   1.835  1.00  0.00     0.010 C 
ATOM     38  C   UNL     1       8.250  11.473   3.617  1.00  0.00     0.010 C 
ENDBRANCH  35  36
BRANCH  35  39
ATOM     39  C   UNL     1       5.983  13.609   4.544  1.00  0.00     0.329 C 
ATOM     40  O   UNL     1       5.716  13.779   5.728  1.00  0.00    -0.250 OA
BRANCH  39  41
ATOM     41  O   UNL     1       6.557  14.567   3.755  1.00  0.00    -0.458 OA
BRANCH  41  42
ATOM     42  C   UNL     1       5.888  15.851   3.716  1.00  0.00     0.205 CG0
ATOM     43  C   UNL     1       4.734  15.731   2.723  1.00  0.00     0.056 C 
ATOM     44  G   UNL     1       6.912  16.926   3.303  1.00  0.00     0.000 G0
ENDBRANCH  41  42
ENDBRANCH  39  41
ENDBRANCH  35  39
ENDBRANCH  33  35
ENDBRANCH  23  31
ENDBRANCH  21  23
ENDBRANCH  19  21
ENDBRANCH  14  19
ENDBRANCH   7  14
ENDBRANCH   2   5
BRANCH   3  45
ATOM     45  C   UNL     1      -3.119   1.817   6.150  1.00  0.00     0.171 C 
BRANCH  45  46
ATOM     46  N   UNL     1      -3.841   0.953   5.226  1.00  0.00    -0.342 N 
ATOM     47  C   UNL     1      -3.201   0.100   4.362  1.00  0.00     0.247 C 
ATOM     48  O   UNL     1      -1.978  -0.050   4.356  1.00  0.00    -0.273 OA
ATOM     49  H   UNL     1      -4.858   1.004   5.238  1.00  0.00     0.164 HD
BRANCH  47  50
ATOM     50  C   UNL     1      -4.118  -0.639   3.378  1.00  0.00     0.212 CG0
ATOM     51  G   UNL     1      -5.409  -1.013   4.134  1.00  0.00     0.000 G0
BRANCH  50  52
ATOM     52  N   UNL     1      -4.344   0.295   2.279  1.00  0.00    -0.339 N 
ATOM     53  C   UNL     1      -5.370   1.208   2.261  1.00  0.00     0.243 C 
ATOM     54  O   UNL     1      -6.214   1.273   3.151  1.00  0.00    -0.273 OA
ATOM     55  H   UNL     1      -3.744   0.215   1.460  1.00  0.00     0.164 HD
BRANCH  53  56
ATOM     56  C   UNL     1      -5.459   2.027   0.958  1.00  0.00     0.182 C 
BRANCH  56  57
ATOM     57  N   UNL     1      -4.129   2.236   0.376  1.00  0.00    -0.344 N 
ATOM     58  C   UNL     1      -3.830   1.890  -0.920  1.00  0.00     0.220 C 
ATOM     59  O   UNL     1      -4.628   1.318  -1.655  1.00  0.00    -0.275 OA
ATOM     60  H   UNL     1      -3.473   2.796   0.914  1.00  0.00     0.164 HD
BRANCH  58  61
ATOM     61  C   UNL     1      -2.413   2.251  -1.327  1.00  0.00     0.100 C 
BRANCH  61  62
ATOM     62  C   UNL     1      -1.601   1.064  -1.846  1.00  0.00     0.010 C 
BRANCH  62  63
ATOM     63  C   UNL     1      -0.282   0.831  -1.098  1.00  0.00     0.000 C 
BRANCH  63  64
ATOM     64  C   UNL     1      -0.300   1.285   0.360  1.00  0.00    -0.003 C 
ATOM     65  C   UNL     1      -0.506   0.109   1.305  1.00  0.00     0.004 C 
ENDBRANCH  63  64
ENDBRANCH  62  63
ENDBRANCH  61  62
ENDBRANCH  58  61
ENDBRANCH  56  57
BRANCH  56  66
ATOM     66  C   UNL     1      -6.207   3.342   1.172  1.00  0.00     0.157 C 
BRANCH  66  67
ATOM     67  C   UNL     1      -5.264   4.510   1.179  1.00  0.00     0.305 C 
ATOM     68  O   UNL     1      -5.089   5.316   0.277  1.00  0.00    -0.252 OA
BRANCH  67  69
ATOM     69  O   UNL     1      -4.616   4.638   2.352  1.00  0.00    -0.481 OA
ATOM     70  H   UNL     1      -5.001   3.943   2.928  1.00  0.00     0.296 HD
ENDBRANCH  67  69
ENDBRANCH  66  67
ENDBRANCH  56  66
ENDBRANCH  53  56
ENDBRANCH  50  52
ENDBRANCH  47  50
ENDBRANCH  45  46
BRANCH  45  71
ATOM     71  C   UNL     1      -3.995   2.233   7.337  1.00  0.00     0.037 C 
BRANCH  71  72
ATOM     72  C   UNL     1      -4.359   1.043   8.228  1.00  0.00     0.026 C 
BRANCH  72  73
ATOM     73  C   UNL     1      -4.149   1.365   9.706  1.00  0.00     0.146 C 
BRANCH  73  74
ATOM     74  N   UNL     1      -4.903   2.577  10.011  1.00  0.00    -0.254 NA
ATOM     75  C   UNL     1      -4.699   3.140  11.145  1.00  0.00     0.185 C 
ATOM     76  N   UNL     1      -5.376   4.258  11.453  1.00  0.00    -0.370 N 
ATOM     77  N   UNL     1      -3.866   2.772  12.134  1.00  0.00    -0.370 N 
ATOM     78  H   UNL     1      -6.031   4.601  10.765  1.00  0.00     0.159 HD
ATOM     79  H   UNL     1      -5.378   4.669  12.370  1.00  0.00     0.159 HD
ATOM     80  H   UNL     1      -3.288   1.950  12.039  1.00  0.00     0.159 HD
ATOM     81  H   UNL     1      -3.705   3.359  12.935  1.00  0.00     0.159 HD
ENDBRANCH  73  74
ENDBRANCH  72  73
ENDBRANCH  71  72
ENDBRANCH  45  71
ENDBRANCH   3  45
TORSDOF 20
ENDMDL
