MODEL 1
REMARK VINA RESULT:    -1.551      0.000      0.000
REMARK INTER + INTRA:          -0.506
REMARK INTER:                  -2.774
REMARK INTRA:                   2.268
REMARK UNBOUND:                 2.268
REMARK SMILES CC[C@H](C)[C@H]1NC(=O)c2coc(n2)[C@H](C(C)C)NC(=O)[C@H]([C@@H](C)O)NC(=O)[C@H](C)NC(=O)c2csc1n2
REMARK SMILES IDX 11 1 13 2 12 3 9 4 10 5 7 6 6 7 8 8 5 10 36 11 35 12 34 13
REMARK SMILES IDX 37 14 33 15 31 16 32 17 30 18 28 20 29 21 3 23 4 24 2 25
REMARK SMILES IDX 1 26 14 27 18 28 19 29 20 30 21 32 25 33 26 34 27 35 22 38
REMARK SMILES IDX 23 39 24 40 15 42 16 43 17 44
REMARK H PARENT 6 9 30 19 18 31 25 36 24 41
REMARK Flexibility Score:   94.900
ROOT
ATOM      1  O   UNL     1      -3.153   2.412 -10.063  1.00  0.00    -0.446 OA
ATOM      2  N   UNL     1      -1.075   3.057  -9.470  1.00  0.00    -0.207 NA
ATOM      3  C   UNL     1      -2.009   2.128  -9.365  1.00  0.00     0.217 A 
ATOM      4  C   UNL     1      -1.632   4.002 -10.315  1.00  0.00     0.167 A 
ATOM      5  C   UNL     1      -2.896   3.603 -10.672  1.00  0.00     0.231 A 
ENDROOT
BRANCH   4   6
ATOM      6  C   UNL     1      -0.946   5.223 -10.700  1.00  0.00     0.273 C 
ATOM      7  N   UNL     1      -1.825   6.194 -11.110  1.00  0.00    -0.341 N 
ATOM      8  O   UNL     1       0.272   5.351 -10.682  1.00  0.00    -0.267 OA
ATOM      9  H   UNL     1      -2.800   5.912 -11.160  1.00  0.00     0.164 HD
BRANCH   7  10
ATOM     10  C   UNL     1      -1.406   7.411 -11.777  1.00  0.00     0.145 C 
BRANCH  10  11
ATOM     11  C   UNL     1      -2.621   8.322 -11.877  1.00  0.00     0.116 A 
ATOM     12  S   UNL     1      -4.124   7.685 -12.429  1.00  0.00    -0.124 S 
ATOM     13  C   UNL     1      -4.847   9.218 -12.205  1.00  0.00     0.101 A 
ATOM     14  N   UNL     1      -2.635   9.605 -11.553  1.00  0.00    -0.234 NA
ATOM     15  C   UNL     1      -3.921  10.124 -11.725  1.00  0.00     0.139 A 
BRANCH  15  16
ATOM     16  C   UNL     1      -4.238  11.517 -11.405  1.00  0.00     0.271 C 
ATOM     17  O   UNL     1      -4.445  11.906 -10.261  1.00  0.00    -0.267 OA
ATOM     18  N   UNL     1      -4.278  12.341 -12.510  1.00  0.00    -0.339 N 
ATOM     19  H   UNL     1      -4.199  11.878 -13.412  1.00  0.00     0.164 HD
BRANCH  18  20
ATOM     20  C   UNL     1      -4.643  13.746 -12.392  1.00  0.00     0.168 CG0
ATOM     21  C   UNL     1      -3.404  14.637 -12.289  1.00  0.00     0.041 C 
ATOM     22  G   UNL     1      -5.483  14.243 -13.580  1.00  0.00     0.000 G0
ENDBRANCH  18  20
ENDBRANCH  15  16
ENDBRANCH  10  11
BRANCH  10  23
ATOM     23  C   UNL     1      -0.213   8.093 -11.056  1.00  0.00     0.015 C 
ATOM     24  C   UNL     1       1.096   8.039 -11.862  1.00  0.00     0.010 C 
BRANCH  23  25
ATOM     25  C   UNL     1      -0.502   9.564 -10.681  1.00  0.00     0.002 C 
ATOM     26  C   UNL     1       0.276  10.578 -11.508  1.00  0.00     0.004 C 
ENDBRANCH  23  25
ENDBRANCH  10  23
ENDBRANCH   7  10
ENDBRANCH   4   6
BRANCH   3  27
ATOM     27  C   UNL     1      -1.949   0.872  -8.540  1.00  0.00     0.171 C 
BRANCH  27  28
ATOM     28  N   UNL     1      -0.558   0.433  -8.496  1.00  0.00    -0.342 N 
ATOM     29  C   UNL     1      -0.195  -0.892  -8.400  1.00  0.00     0.245 C 
ATOM     30  O   UNL     1      -1.017  -1.806  -8.360  1.00  0.00    -0.273 OA
ATOM     31  H   UNL     1       0.179   1.123  -8.639  1.00  0.00     0.164 HD
BRANCH  29  32
ATOM     32  C   UNL     1       1.320  -1.170  -8.497  1.00  0.00     0.200 C 
BRANCH  32  33
ATOM     33  N   UNL     1       1.562  -2.557  -8.082  1.00  0.00    -0.340 N 
ATOM     34  C   UNL     1       2.814  -2.976  -7.681  1.00  0.00     0.243 CG0
ATOM     35  O   UNL     1       3.790  -2.230  -7.715  1.00  0.00    -0.273 OA
ATOM     36  H   UNL     1       0.782  -3.203  -8.073  1.00  0.00     0.164 HD
ATOM     37  G   UNL     1       2.955  -4.482  -7.405  1.00  0.00     0.000 G0
ENDBRANCH  32  33
BRANCH  32  38
ATOM     38  C   UNL     1       1.861  -0.862  -9.913  1.00  0.00     0.143 C 
ATOM     39  C   UNL     1       3.098   0.029  -9.926  1.00  0.00     0.041 C 
BRANCH  38  40
ATOM     40  O   UNL     1       2.163  -2.090 -10.603  1.00  0.00    -0.391 OA
ATOM     41  H   UNL     1       2.892  -2.515 -10.112  1.00  0.00     0.211 HD
ENDBRANCH  38  40
ENDBRANCH  32  38
ENDBRANCH  29  32
ENDBRANCH  27  28
BRANCH  27  42
ATOM     42  C   UNL     1      -2.577   0.916  -7.125  1.00  0.00     0.015 C 
ATOM     43  C   UNL     1      -2.762  -0.443  -6.441  1.00  0.00     0.010 C 
ATOM     44  C   UNL     1      -1.831   1.881  -6.197  1.00  0.00     0.010 C 
ENDBRANCH  27  42
ENDBRANCH   3  27
TORSDOF 5
ENDMDL
