MODEL 1
REMARK VINA RESULT:    -6.068      0.000      0.000
REMARK INTER + INTRA:         -11.984
REMARK INTER:                 -10.324
REMARK INTRA:                  -1.660
REMARK UNBOUND:                -1.660
REMARK SMILES CC[C@H](C)[C@@H]1NC(=O)[C@H]2CSC(=N2)[C@@H]([C@@H](C)CC)NC(=O)c2csc(n2)CNC(=O)[C@H]2N=C1O[C@@H]2C
REMARK SMILES IDX 27 1 25 2 22 3 26 4 23 5 24 6 20 7 19 8 21 9 14 11 12 12
REMARK SMILES IDX 11 13 10 14 13 15 9 16 15 18 16 19 17 20 18 21 28 22 29 23
REMARK SMILES IDX 30 24 31 26 32 27 35 28 33 29 34 30 36 31 5 32 6 33 7 34
REMARK SMILES IDX 8 35 3 38 4 39 2 40 1 41
REMARK H PARENT 19 10 28 25 6 36
REMARK Flexibility Score:   91.900
ROOT
ATOM      1  C   UNL     1      -3.182  -5.724  -3.268  1.00  0.00     0.183 C 
ENDROOT
BRANCH   1   2
ATOM      2  C   UNL     1      -2.841  -6.719  -4.340  1.00  0.00     0.113 A 
ATOM      3  C   UNL     1      -2.324  -7.519  -6.355  1.00  0.00     0.139 A 
ATOM      4  N   UNL     1      -2.455  -6.381  -5.557  1.00  0.00    -0.234 NA
ATOM      5  C   UNL     1      -2.561  -8.710  -5.697  1.00  0.00     0.101 A 
ATOM      6  S   UNL     1      -2.979  -8.407  -4.060  1.00  0.00    -0.125 S 
BRANCH   3   7
ATOM      7  C   UNL     1      -2.001  -7.383  -7.777  1.00  0.00     0.271 C 
ATOM      8  N   UNL     1      -0.647  -7.460  -7.997  1.00  0.00    -0.341 N 
ATOM      9  O   UNL     1      -2.838  -7.192  -8.650  1.00  0.00    -0.267 OA
ATOM     10  H   UNL     1      -0.076  -7.646  -7.174  1.00  0.00     0.164 HD
BRANCH   8  11
ATOM     11  C   UNL     1      -0.010  -7.176  -9.273  1.00  0.00     0.140 C 
BRANCH  11  12
ATOM     12  C   UNL     1       1.356  -6.546  -8.985  1.00  0.00     0.091 C 
ATOM     13  S   UNL     1       2.828  -7.402  -9.380  1.00  0.00    -0.106 SA
ATOM     14  C   UNL     1       3.792  -5.903  -9.090  1.00  0.00     0.113 C 
ATOM     15  N   UNL     1       1.473  -5.406  -8.380  1.00  0.00    -0.267 NA
ATOM     16  C   UNL     1       2.918  -5.096  -8.142  1.00  0.00     0.205 CG0
ATOM     17  G   UNL     1       3.304  -5.372  -6.680  1.00  0.00     0.000 G0
ENDBRANCH  11  12
BRANCH  11  18
ATOM     18  C   UNL     1      -0.024  -8.368 -10.263  1.00  0.00     0.015 C 
ATOM     19  C   UNL     1      -0.442  -9.657  -9.543  1.00  0.00     0.010 C 
BRANCH  18  20
ATOM     20  C   UNL     1      -0.862  -8.137 -11.538  1.00  0.00     0.002 C 
ATOM     21  C   UNL     1      -2.119  -9.000 -11.588  1.00  0.00     0.004 C 
ENDBRANCH  18  20
ENDBRANCH  11  18
ENDBRANCH   8  11
ENDBRANCH   3   7
ENDBRANCH   1   2
BRANCH   1  22
ATOM     22  N   UNL     1      -2.024  -4.877  -3.081  1.00  0.00    -0.348 N 
ATOM     23  C   UNL     1      -1.055  -5.080  -2.136  1.00  0.00     0.249 C 
ATOM     24  O   UNL     1      -1.028  -6.060  -1.400  1.00  0.00    -0.272 OA
ATOM     25  H   UNL     1      -1.958  -4.019  -3.627  1.00  0.00     0.163 HD
BRANCH  23  26
ATOM     26  C   UNL     1       0.020  -3.983  -2.141  1.00  0.00     0.238 C 
ATOM     27  N   UNL     1       1.356  -4.607  -2.354  1.00  0.00    -0.236 NA
ATOM     28  C   UNL     1      -0.163  -3.013  -3.295  1.00  0.00     0.206 C 
ATOM     29  C   UNL     1       1.687  -4.204  -3.544  1.00  0.00     0.208 C 
ATOM     30  O   UNL     1       0.847  -3.389  -4.229  1.00  0.00    -0.474 OA
ATOM     31  C   UNL     1       0.070  -1.565  -2.884  1.00  0.00     0.056 C 
BRANCH  29  32
ATOM     32  C   UNL     1       2.942  -4.600  -4.317  1.00  0.00     0.171 C 
BRANCH  32  33
ATOM     33  N   UNL     1       2.725  -4.492  -5.751  1.00  0.00    -0.342 N 
ATOM     34  C   UNL     1       3.325  -5.334  -6.656  1.00  0.00     0.246 CG0
ATOM     35  O   UNL     1       4.107  -6.223  -6.329  1.00  0.00    -0.273 OA
ATOM     36  H   UNL     1       2.144  -3.757  -6.139  1.00  0.00     0.164 HD
ATOM     37  G   UNL     1       2.918  -5.091  -8.119  1.00  0.00     0.000 G0
ENDBRANCH  32  33
BRANCH  32  38
ATOM     38  C   UNL     1       4.160  -3.768  -3.835  1.00  0.00     0.017 C 
ATOM     39  C   UNL     1       3.733  -2.321  -3.558  1.00  0.00     0.010 C 
BRANCH  38  40
ATOM     40  C   UNL     1       4.874  -4.394  -2.616  1.00  0.00     0.002 C 
ATOM     41  C   UNL     1       5.552  -5.723  -2.923  1.00  0.00     0.004 C 
ENDBRANCH  38  40
ENDBRANCH  32  38
ENDBRANCH  29  32
ENDBRANCH  23  26
ENDBRANCH   1  22
TORSDOF 4
ENDMDL
MODEL 2
REMARK VINA RESULT:    -5.653      1.243      1.425
REMARK INTER + INTRA:         -11.278
REMARK INTER:                  -9.884
REMARK INTRA:                  -1.394
REMARK UNBOUND:                -1.660
REMARK SMILES CC[C@H](C)[C@@H]1NC(=O)[C@H]2CSC(=N2)[C@@H]([C@@H](C)CC)NC(=O)c2csc(n2)CNC(=O)[C@H]2N=C1O[C@@H]2C
REMARK SMILES IDX 27 1 25 2 22 3 26 4 23 5 24 6 20 7 19 8 21 9 14 11 12 12
REMARK SMILES IDX 11 13 10 14 13 15 9 16 15 18 16 19 17 20 18 21 28 22 29 23
REMARK SMILES IDX 30 24 31 26 32 27 35 28 33 29 34 30 36 31 5 32 6 33 7 34
REMARK SMILES IDX 8 35 3 38 4 39 2 40 1 41
REMARK H PARENT 19 10 28 25 6 36
REMARK Flexibility Score:   91.900
ROOT
ATOM      1  C   UNL     1      -3.164  -5.139  -2.482  1.00  0.00     0.183 C 
ENDROOT
BRANCH   1   2
ATOM      2  C   UNL     1      -3.274  -6.170  -3.568  1.00  0.00     0.113 A 
ATOM      3  C   UNL     1      -3.293  -7.046  -5.618  1.00  0.00     0.139 A 
ATOM      4  N   UNL     1      -2.983  -5.932  -4.834  1.00  0.00    -0.234 NA
ATOM      5  C   UNL     1      -3.762  -8.133  -4.907  1.00  0.00     0.101 A 
ATOM      6  S   UNL     1      -3.844  -7.754  -3.234  1.00  0.00    -0.125 S 
BRANCH   3   7
ATOM      7  C   UNL     1      -3.147  -6.981  -7.073  1.00  0.00     0.271 C 
ATOM      8  N   UNL     1      -2.148  -7.811  -7.519  1.00  0.00    -0.341 N 
ATOM      9  O   UNL     1      -3.815  -6.248  -7.792  1.00  0.00    -0.267 OA
ATOM     10  H   UNL     1      -1.694  -8.378  -6.804  1.00  0.00     0.164 HD
BRANCH   8  11
ATOM     11  C   UNL     1      -1.645  -7.825  -8.883  1.00  0.00     0.140 C 
BRANCH  11  12
ATOM     12  C   UNL     1      -0.165  -7.434  -8.843  1.00  0.00     0.091 C 
ATOM     13  S   UNL     1       1.069  -8.582  -9.306  1.00  0.00    -0.106 SA
ATOM     14  C   UNL     1       2.306  -7.266  -9.320  1.00  0.00     0.113 C 
ATOM     15  N   UNL     1       0.229  -6.281  -8.400  1.00  0.00    -0.267 NA
ATOM     16  C   UNL     1       1.724  -6.222  -8.378  1.00  0.00     0.205 CG0
ATOM     17  G   UNL     1       2.260  -6.419  -6.951  1.00  0.00     0.000 G0
ENDBRANCH  11  12
BRANCH  11  18
ATOM     18  C   UNL     1      -1.996  -9.114  -9.671  1.00  0.00     0.015 C 
ATOM     19  C   UNL     1      -3.086  -9.908  -8.939  1.00  0.00     0.010 C 
BRANCH  18  20
ATOM     20  C   UNL     1      -2.364  -8.884 -11.151  1.00  0.00     0.002 C 
ATOM     21  C   UNL     1      -1.508  -9.704 -12.110  1.00  0.00     0.004 C 
ENDBRANCH  18  20
ENDBRANCH  11  18
ENDBRANCH   8  11
ENDBRANCH   3   7
ENDBRANCH   1   2
BRANCH   1  22
ATOM     22  N   UNL     1      -1.880  -4.492  -2.627  1.00  0.00    -0.348 N 
ATOM     23  C   UNL     1      -0.736  -4.875  -1.980  1.00  0.00     0.249 C 
ATOM     24  O   UNL     1      -0.668  -5.870  -1.268  1.00  0.00    -0.272 OA
ATOM     25  H   UNL     1      -1.827  -3.638  -3.182  1.00  0.00     0.163 HD
BRANCH  23  26
ATOM     26  C   UNL     1       0.459  -3.961  -2.292  1.00  0.00     0.238 C 
ATOM     27  N   UNL     1       1.639  -4.799  -2.642  1.00  0.00    -0.236 NA
ATOM     28  C   UNL     1       0.205  -3.089  -3.509  1.00  0.00     0.206 C 
ATOM     29  C   UNL     1       1.804  -4.568  -3.910  1.00  0.00     0.208 C 
ATOM     30  O   UNL     1       0.973  -3.703  -4.543  1.00  0.00    -0.474 OA
ATOM     31  C   UNL     1       0.700  -1.661  -3.319  1.00  0.00     0.056 C 
BRANCH  29  32
ATOM     32  C   UNL     1       2.837  -5.223  -4.823  1.00  0.00     0.171 C 
BRANCH  32  33
ATOM     33  N   UNL     1       2.373  -5.245  -6.201  1.00  0.00    -0.342 N 
ATOM     34  C   UNL     1       2.277  -6.405  -6.932  1.00  0.00     0.246 CG0
ATOM     35  O   UNL     1       2.598  -7.505  -6.489  1.00  0.00    -0.273 OA
ATOM     36  H   UNL     1       2.135  -4.387  -6.688  1.00  0.00     0.164 HD
ATOM     37  G   UNL     1       1.708  -6.220  -8.348  1.00  0.00     0.000 G0
ENDBRANCH  32  33
BRANCH  32  38
ATOM     38  C   UNL     1       4.215  -4.527  -4.670  1.00  0.00     0.017 C 
ATOM     39  C   UNL     1       4.367  -3.424  -5.725  1.00  0.00     0.010 C 
BRANCH  38  40
ATOM     40  C   UNL     1       4.463  -3.988  -3.243  1.00  0.00     0.002 C 
ATOM     41  C   UNL     1       5.327  -4.905  -2.386  1.00  0.00     0.004 C 
ENDBRANCH  38  40
ENDBRANCH  32  38
ENDBRANCH  29  32
ENDBRANCH  23  26
ENDBRANCH   1  22
TORSDOF 4
ENDMDL
MODEL 3
REMARK VINA RESULT:    -5.464      2.345      6.066
REMARK INTER + INTRA:         -10.957
REMARK INTER:                  -9.411
REMARK INTRA:                  -1.546
REMARK UNBOUND:                -1.660
REMARK SMILES CC[C@H](C)[C@@H]1NC(=O)[C@H]2CSC(=N2)[C@@H]([C@@H](C)CC)NC(=O)c2csc(n2)CNC(=O)[C@H]2N=C1O[C@@H]2C
REMARK SMILES IDX 27 1 25 2 22 3 26 4 23 5 24 6 20 7 19 8 21 9 14 11 12 12
REMARK SMILES IDX 11 13 10 14 13 15 9 16 15 18 16 19 17 20 18 21 28 22 29 23
REMARK SMILES IDX 30 24 31 26 32 27 35 28 33 29 34 30 36 31 5 32 6 33 7 34
REMARK SMILES IDX 8 35 3 38 4 39 2 40 1 41
REMARK H PARENT 19 10 28 25 6 36
REMARK Flexibility Score:   91.900
ROOT
ATOM      1  C   UNL     1      -0.669  -7.757  -9.929  1.00  0.00     0.183 C 
ENDROOT
BRANCH   1   2
ATOM      2  C   UNL     1      -1.776  -7.278  -9.036  1.00  0.00     0.113 A 
ATOM      3  C   UNL     1      -3.028  -7.048  -7.206  1.00  0.00     0.139 A 
ATOM      4  N   UNL     1      -1.827  -7.521  -7.739  1.00  0.00    -0.234 NA
ATOM      5  C   UNL     1      -3.840  -6.399  -8.115  1.00  0.00     0.101 A 
ATOM      6  S   UNL     1      -3.109  -6.398  -9.667  1.00  0.00    -0.125 S 
BRANCH   3   7
ATOM      7  C   UNL     1      -3.352  -7.293  -5.799  1.00  0.00     0.271 C 
ATOM      8  N   UNL     1      -2.934  -6.260  -4.996  1.00  0.00    -0.341 N 
ATOM      9  O   UNL     1      -3.897  -8.312  -5.394  1.00  0.00    -0.267 OA
ATOM     10  H   UNL     1      -2.516  -5.467  -5.480  1.00  0.00     0.164 HD
BRANCH   8  11
ATOM     11  C   UNL     1      -2.947  -6.298  -3.543  1.00  0.00     0.140 C 
BRANCH  11  12
ATOM     12  C   UNL     1      -1.669  -5.618  -3.044  1.00  0.00     0.091 C 
ATOM     13  S   UNL     1      -1.759  -4.185  -2.046  1.00  0.00    -0.106 SA
ATOM     14  C   UNL     1       0.001  -4.322  -1.669  1.00  0.00     0.113 C 
ATOM     15  N   UNL     1      -0.491  -6.026  -3.396  1.00  0.00    -0.267 NA
ATOM     16  C   UNL     1       0.557  -5.110  -2.845  1.00  0.00     0.205 CG0
ATOM     17  G   UNL     1       1.082  -4.161  -3.935  1.00  0.00     0.000 G0
ENDBRANCH  11  12
BRANCH  11  18
ATOM     18  C   UNL     1      -4.278  -5.814  -2.912  1.00  0.00     0.015 C 
ATOM     19  C   UNL     1      -5.003  -4.853  -3.863  1.00  0.00     0.010 C 
BRANCH  18  20
ATOM     20  C   UNL     1      -5.212  -6.943  -2.432  1.00  0.00     0.002 C 
ATOM     21  C   UNL     1      -4.456  -8.170  -1.933  1.00  0.00     0.004 C 
ENDBRANCH  18  20
ENDBRANCH  11  18
ENDBRANCH   8  11
ENDBRANCH   3   7
ENDBRANCH   1   2
BRANCH   1  22
ATOM     22  N   UNL     1       0.441  -6.843  -9.771  1.00  0.00    -0.348 N 
ATOM     23  C   UNL     1       1.466  -7.008  -8.880  1.00  0.00     0.249 C 
ATOM     24  O   UNL     1       1.591  -8.005  -8.177  1.00  0.00    -0.272 OA
ATOM     25  H   UNL     1       0.426  -5.968 -10.294  1.00  0.00     0.163 HD
BRANCH  23  26
ATOM     26  C   UNL     1       2.468  -5.845  -8.903  1.00  0.00     0.238 C 
ATOM     27  N   UNL     1       1.977  -4.756  -8.014  1.00  0.00    -0.236 NA
ATOM     28  C   UNL     1       3.821  -6.248  -8.343  1.00  0.00     0.206 C 
ATOM     29  C   UNL     1       2.822  -4.773  -7.027  1.00  0.00     0.208 C 
ATOM     30  O   UNL     1       3.847  -5.661  -7.042  1.00  0.00    -0.474 OA
ATOM     31  C   UNL     1       4.981  -5.685  -9.153  1.00  0.00     0.056 C 
BRANCH  29  32
ATOM     32  C   UNL     1       2.765  -3.908  -5.771  1.00  0.00     0.171 C 
BRANCH  32  33
ATOM     33  N   UNL     1       2.172  -4.640  -4.662  1.00  0.00    -0.342 N 
ATOM     34  C   UNL     1       1.091  -4.168  -3.956  1.00  0.00     0.246 CG0
ATOM     35  O   UNL     1       0.560  -3.085  -4.189  1.00  0.00    -0.273 OA
ATOM     36  H   UNL     1       2.566  -5.519  -4.345  1.00  0.00     0.164 HD
ATOM     37  G   UNL     1       0.581  -5.120  -2.862  1.00  0.00     0.000 G0
ENDBRANCH  32  33
BRANCH  32  38
ATOM     38  C   UNL     1       4.172  -3.351  -5.431  1.00  0.00     0.017 C 
ATOM     39  C   UNL     1       4.816  -2.744  -6.684  1.00  0.00     0.010 C 
BRANCH  38  40
ATOM     40  C   UNL     1       4.155  -2.346  -4.256  1.00  0.00     0.002 C 
ATOM     41  C   UNL     1       3.364  -1.078  -4.550  1.00  0.00     0.004 C 
ENDBRANCH  38  40
ENDBRANCH  32  38
ENDBRANCH  29  32
ENDBRANCH  23  26
ENDBRANCH   1  22
TORSDOF 4
ENDMDL
MODEL 4
REMARK VINA RESULT:    -5.443      2.729      6.473
REMARK INTER + INTRA:         -10.921
REMARK INTER:                  -9.909
REMARK INTRA:                  -1.011
REMARK UNBOUND:                -1.660
REMARK SMILES CC[C@H](C)[C@@H]1NC(=O)[C@H]2CSC(=N2)[C@@H]([C@@H](C)CC)NC(=O)c2csc(n2)CNC(=O)[C@H]2N=C1O[C@@H]2C
REMARK SMILES IDX 27 1 25 2 22 3 26 4 23 5 24 6 20 7 19 8 21 9 14 11 12 12
REMARK SMILES IDX 11 13 10 14 13 15 9 16 15 18 16 19 17 20 18 21 28 22 29 23
REMARK SMILES IDX 30 24 31 26 32 27 35 28 33 29 34 30 36 31 5 32 6 33 7 34
REMARK SMILES IDX 8 35 3 38 4 39 2 40 1 41
REMARK H PARENT 19 10 28 25 6 36
REMARK Flexibility Score:   91.900
ROOT
ATOM      1  C   UNL     1       0.384  -7.796  -7.760  1.00  0.00     0.183 C 
ENDROOT
BRANCH   1   2
ATOM      2  C   UNL     1      -0.746  -8.072  -6.810  1.00  0.00     0.113 A 
ATOM      3  C   UNL     1      -2.052  -7.888  -5.013  1.00  0.00     0.139 A 
ATOM      4  N   UNL     1      -1.025  -7.314  -5.765  1.00  0.00    -0.234 NA
ATOM      5  C   UNL     1      -2.571  -9.051  -5.548  1.00  0.00     0.101 A 
ATOM      6  S   UNL     1      -1.749  -9.452  -7.000  1.00  0.00    -0.125 S 
BRANCH   3   7
ATOM      7  C   UNL     1      -2.466  -7.275  -3.749  1.00  0.00     0.271 C 
ATOM      8  N   UNL     1      -1.390  -7.015  -2.937  1.00  0.00    -0.341 N 
ATOM      9  O   UNL     1      -3.633  -7.056  -3.449  1.00  0.00    -0.267 OA
ATOM     10  H   UNL     1      -0.476  -7.231  -3.334  1.00  0.00     0.164 HD
BRANCH   8  11
ATOM     11  C   UNL     1      -1.496  -6.584  -1.553  1.00  0.00     0.140 C 
BRANCH  11  12
ATOM     12  C   UNL     1      -1.365  -5.059  -1.524  1.00  0.00     0.091 C 
ATOM     13  S   UNL     1      -2.719  -4.044  -1.963  1.00  0.00    -0.106 SA
ATOM     14  C   UNL     1      -1.856  -2.593  -1.323  1.00  0.00     0.113 C 
ATOM     15  N   UNL     1      -0.243  -4.470  -1.251  1.00  0.00    -0.267 NA
ATOM     16  C   UNL     1      -0.389  -2.989  -1.404  1.00  0.00     0.205 CG0
ATOM     17  G   UNL     1       0.231  -2.510  -2.727  1.00  0.00     0.000 G0
ENDBRANCH  11  12
BRANCH  11  18
ATOM     18  C   UNL     1      -2.708  -7.186  -0.796  1.00  0.00     0.015 C 
ATOM     19  C   UNL     1      -2.481  -8.679  -0.525  1.00  0.00     0.010 C 
BRANCH  18  20
ATOM     20  C   UNL     1      -3.104  -6.433   0.490  1.00  0.00     0.002 C 
ATOM     21  C   UNL     1      -2.639  -7.139   1.760  1.00  0.00     0.004 C 
ENDBRANCH  18  20
ENDBRANCH  11  18
ENDBRANCH   8  11
ENDBRANCH   3   7
ENDBRANCH   1   2
BRANCH   1  22
ATOM     22  N   UNL     1       1.412  -7.101  -7.019  1.00  0.00    -0.348 N 
ATOM     23  C   UNL     1       1.991  -5.923  -7.407  1.00  0.00     0.249 C 
ATOM     24  O   UNL     1       1.632  -5.290  -8.393  1.00  0.00    -0.272 OA
ATOM     25  H   UNL     1       1.801  -7.551  -6.191  1.00  0.00     0.163 HD
BRANCH  23  26
ATOM     26  C   UNL     1       3.093  -5.456  -6.444  1.00  0.00     0.238 C 
ATOM     27  N   UNL     1       2.957  -3.990  -6.217  1.00  0.00    -0.236 NA
ATOM     28  C   UNL     1       2.957  -6.094  -5.072  1.00  0.00     0.206 C 
ATOM     29  C   UNL     1       2.572  -3.915  -4.978  1.00  0.00     0.208 C 
ATOM     30  O   UNL     1       2.419  -5.053  -4.257  1.00  0.00    -0.474 OA
ATOM     31  C   UNL     1       4.298  -6.522  -4.491  1.00  0.00     0.056 C 
BRANCH  29  32
ATOM     32  C   UNL     1       2.205  -2.642  -4.221  1.00  0.00     0.171 C 
BRANCH  32  33
ATOM     33  N   UNL     1       1.491  -2.956  -2.993  1.00  0.00    -0.342 N 
ATOM     34  C   UNL     1       0.232  -2.474  -2.724  1.00  0.00     0.246 CG0
ATOM     35  O   UNL     1      -0.375  -1.725  -3.485  1.00  0.00    -0.273 OA
ATOM     36  H   UNL     1       1.920  -3.519  -2.266  1.00  0.00     0.164 HD
ATOM     37  G   UNL     1      -0.371  -2.971  -1.400  1.00  0.00     0.000 G0
ENDBRANCH  32  33
BRANCH  32  38
ATOM     38  C   UNL     1       3.468  -1.777  -3.970  1.00  0.00     0.017 C 
ATOM     39  C   UNL     1       4.592  -2.642  -3.386  1.00  0.00     0.010 C 
BRANCH  38  40
ATOM     40  C   UNL     1       3.934  -1.012  -5.229  1.00  0.00     0.002 C 
ATOM     41  C   UNL     1       5.421  -1.168  -5.521  1.00  0.00     0.004 C 
ENDBRANCH  38  40
ENDBRANCH  32  38
ENDBRANCH  29  32
ENDBRANCH  23  26
ENDBRANCH   1  22
TORSDOF 4
ENDMDL
MODEL 5
REMARK VINA RESULT:    -5.437      5.759      8.895
REMARK INTER + INTRA:         -10.912
REMARK INTER:                  -9.144
REMARK INTRA:                  -1.767
REMARK UNBOUND:                -1.660
REMARK SMILES CC[C@H](C)[C@@H]1NC(=O)[C@H]2CSC(=N2)[C@@H]([C@@H](C)CC)NC(=O)c2csc(n2)CNC(=O)[C@H]2N=C1O[C@@H]2C
REMARK SMILES IDX 27 1 25 2 22 3 26 4 23 5 24 6 20 7 19 8 21 9 14 11 12 12
REMARK SMILES IDX 11 13 10 14 13 15 9 16 15 18 16 19 17 20 18 21 28 22 29 23
REMARK SMILES IDX 30 24 31 26 32 27 35 28 33 29 34 30 36 31 5 32 6 33 7 34
REMARK SMILES IDX 8 35 3 38 4 39 2 40 1 41
REMARK H PARENT 19 10 28 25 6 36
REMARK Flexibility Score:   91.900
ROOT
ATOM      1  C   UNL     1      -2.364  -4.774   0.868  1.00  0.00     0.183 C 
ENDROOT
BRANCH   1   2
ATOM      2  C   UNL     1      -2.105  -4.621  -0.603  1.00  0.00     0.113 A 
ATOM      3  C   UNL     1      -2.308  -4.938  -2.800  1.00  0.00     0.139 A 
ATOM      4  N   UNL     1      -2.865  -5.160  -1.539  1.00  0.00    -0.234 NA
ATOM      5  C   UNL     1      -1.155  -4.177  -2.790  1.00  0.00     0.101 A 
ATOM      6  S   UNL     1      -0.743  -3.750  -1.179  1.00  0.00    -0.125 S 
BRANCH   3   7
ATOM      7  C   UNL     1      -2.925  -5.531  -3.989  1.00  0.00     0.271 C 
ATOM      8  N   UNL     1      -4.295  -5.496  -3.918  1.00  0.00    -0.341 N 
ATOM      9  O   UNL     1      -2.288  -6.025  -4.911  1.00  0.00    -0.267 OA
ATOM     10  H   UNL     1      -4.683  -5.031  -3.098  1.00  0.00     0.164 HD
BRANCH   8  11
ATOM     11  C   UNL     1      -5.179  -6.171  -4.854  1.00  0.00     0.140 C 
BRANCH  11  12
ATOM     12  C   UNL     1      -6.342  -6.767  -4.056  1.00  0.00     0.091 C 
ATOM     13  S   UNL     1      -7.159  -5.819  -2.835  1.00  0.00    -0.106 SA
ATOM     14  C   UNL     1      -8.469  -7.057  -2.732  1.00  0.00     0.113 C 
ATOM     15  N   UNL     1      -6.712  -8.001  -4.198  1.00  0.00    -0.267 NA
ATOM     16  C   UNL     1      -7.794  -8.330  -3.217  1.00  0.00     0.205 CG0
ATOM     17  G   UNL     1      -7.233  -9.134  -2.032  1.00  0.00     0.000 G0
ENDBRANCH  11  12
BRANCH  11  18
ATOM     18  C   UNL     1      -5.559  -5.316  -6.090  1.00  0.00     0.015 C 
ATOM     19  C   UNL     1      -4.913  -5.892  -7.358  1.00  0.00     0.010 C 
BRANCH  18  20
ATOM     20  C   UNL     1      -7.073  -5.095  -6.281  1.00  0.00     0.002 C 
ATOM     21  C   UNL     1      -7.403  -3.747  -6.912  1.00  0.00     0.004 C 
ENDBRANCH  18  20
ENDBRANCH  11  18
ENDBRANCH   8  11
ENDBRANCH   3   7
ENDBRANCH   1   2
BRANCH   1  22
ATOM     22  N   UNL     1      -3.556  -5.579   1.017  1.00  0.00    -0.348 N 
ATOM     23  C   UNL     1      -3.863  -6.319   2.126  1.00  0.00     0.249 C 
ATOM     24  O   UNL     1      -3.190  -6.306   3.151  1.00  0.00    -0.272 OA
ATOM     25  H   UNL     1      -4.176  -5.678   0.214  1.00  0.00     0.163 HD
BRANCH  23  26
ATOM     26  C   UNL     1      -5.168  -7.114   1.968  1.00  0.00     0.238 C 
ATOM     27  N   UNL     1      -5.359  -7.465   0.533  1.00  0.00    -0.236 NA
ATOM     28  C   UNL     1      -5.120  -8.440   2.708  1.00  0.00     0.206 C 
ATOM     29  C   UNL     1      -5.189  -8.753   0.517  1.00  0.00     0.208 C 
ATOM     30  O   UNL     1      -4.927  -9.406   1.676  1.00  0.00    -0.474 OA
ATOM     31  C   UNL     1      -6.423  -8.754   3.431  1.00  0.00     0.056 C 
BRANCH  29  32
ATOM     32  C   UNL     1      -5.198  -9.651  -0.717  1.00  0.00     0.171 C 
BRANCH  32  33
ATOM     33  N   UNL     1      -5.899  -9.011  -1.820  1.00  0.00    -0.342 N 
ATOM     34  C   UNL     1      -7.251  -9.151  -2.020  1.00  0.00     0.246 CG0
ATOM     35  O   UNL     1      -7.966  -9.845  -1.301  1.00  0.00    -0.273 OA
ATOM     36  H   UNL     1      -5.398  -8.461  -2.510  1.00  0.00     0.164 HD
ATOM     37  G   UNL     1      -7.807  -8.346  -3.206  1.00  0.00     0.000 G0
ENDBRANCH  32  33
BRANCH  32  38
ATOM     38  C   UNL     1      -3.753 -10.070  -1.094  1.00  0.00     0.017 C 
ATOM     39  C   UNL     1      -3.784 -11.294  -2.019  1.00  0.00     0.010 C 
BRANCH  38  40
ATOM     40  C   UNL     1      -2.930  -8.914  -1.708  1.00  0.00     0.002 C 
ATOM     41  C   UNL     1      -1.709  -8.530  -0.883  1.00  0.00     0.004 C 
ENDBRANCH  38  40
ENDBRANCH  32  38
ENDBRANCH  29  32
ENDBRANCH  23  26
ENDBRANCH   1  22
TORSDOF 4
ENDMDL
MODEL 6
REMARK VINA RESULT:    -5.347      4.795      8.909
REMARK INTER + INTRA:         -10.758
REMARK INTER:                  -9.279
REMARK INTRA:                  -1.479
REMARK UNBOUND:                -1.660
REMARK SMILES CC[C@H](C)[C@@H]1NC(=O)[C@H]2CSC(=N2)[C@@H]([C@@H](C)CC)NC(=O)c2csc(n2)CNC(=O)[C@H]2N=C1O[C@@H]2C
REMARK SMILES IDX 27 1 25 2 22 3 26 4 23 5 24 6 20 7 19 8 21 9 14 11 12 12
REMARK SMILES IDX 11 13 10 14 13 15 9 16 15 18 16 19 17 20 18 21 28 22 29 23
REMARK SMILES IDX 30 24 31 26 32 27 35 28 33 29 34 30 36 31 5 32 6 33 7 34
REMARK SMILES IDX 8 35 3 38 4 39 2 40 1 41
REMARK H PARENT 19 10 28 25 6 36
REMARK Flexibility Score:   91.900
ROOT
ATOM      1  C   UNL     1      -7.488  -3.644  -6.784  1.00  0.00     0.183 C 
ENDROOT
BRANCH   1   2
ATOM      2  C   UNL     1      -7.530  -4.480  -5.537  1.00  0.00     0.113 A 
ATOM      3  C   UNL     1      -6.849  -5.875  -3.938  1.00  0.00     0.139 A 
ATOM      4  N   UNL     1      -6.473  -5.085  -5.026  1.00  0.00    -0.234 NA
ATOM      5  C   UNL     1      -8.190  -5.801  -3.613  1.00  0.00     0.101 A 
ATOM      6  S   UNL     1      -9.003  -4.748  -4.697  1.00  0.00    -0.125 S 
BRANCH   3   7
ATOM      7  C   UNL     1      -5.858  -6.721  -3.269  1.00  0.00     0.271 C 
ATOM      8  N   UNL     1      -4.581  -6.421  -3.674  1.00  0.00    -0.341 N 
ATOM      9  O   UNL     1      -6.146  -7.608  -2.475  1.00  0.00    -0.267 OA
ATOM     10  H   UNL     1      -4.497  -5.641  -4.325  1.00  0.00     0.164 HD
BRANCH   8  11
ATOM     11  C   UNL     1      -3.408  -7.208  -3.330  1.00  0.00     0.140 C 
BRANCH  11  12
ATOM     12  C   UNL     1      -2.995  -8.003  -4.573  1.00  0.00     0.091 C 
ATOM     13  S   UNL     1      -1.309  -8.332  -4.895  1.00  0.00    -0.106 SA
ATOM     14  C   UNL     1      -1.772  -9.510  -6.183  1.00  0.00     0.113 C 
ATOM     15  N   UNL     1      -3.858  -8.391  -5.458  1.00  0.00    -0.267 NA
ATOM     16  C   UNL     1      -3.157  -9.045  -6.607  1.00  0.00     0.205 CG0
ATOM     17  G   UNL     1      -3.066  -8.092  -7.809  1.00  0.00     0.000 G0
ENDBRANCH  11  12
BRANCH  11  18
ATOM     18  C   UNL     1      -2.290  -6.398  -2.626  1.00  0.00     0.015 C 
ATOM     19  C   UNL     1      -1.968  -5.127  -3.423  1.00  0.00     0.010 C 
BRANCH  18  20
ATOM     20  C   UNL     1      -2.561  -6.080  -1.142  1.00  0.00     0.002 C 
ATOM     21  C   UNL     1      -2.618  -4.584  -0.855  1.00  0.00     0.004 C 
ENDBRANCH  18  20
ENDBRANCH  11  18
ENDBRANCH   8  11
ENDBRANCH   3   7
ENDBRANCH   1   2
BRANCH   1  22
ATOM     22  N   UNL     1      -7.364  -4.547  -7.906  1.00  0.00    -0.348 N 
ATOM     23  C   UNL     1      -7.605  -4.207  -9.210  1.00  0.00     0.249 C 
ATOM     24  O   UNL     1      -7.870  -3.065  -9.569  1.00  0.00    -0.272 OA
ATOM     25  H   UNL     1      -7.168  -5.529  -7.718  1.00  0.00     0.163 HD
BRANCH  23  26
ATOM     26  C   UNL     1      -7.445  -5.393 -10.173  1.00  0.00     0.238 C 
ATOM     27  N   UNL     1      -6.003  -5.569 -10.500  1.00  0.00    -0.236 NA
ATOM     28  C   UNL     1      -7.881  -6.703  -9.539  1.00  0.00     0.206 C 
ATOM     29  C   UNL     1      -5.698  -6.686  -9.909  1.00  0.00     0.208 C 
ATOM     30  O   UNL     1      -6.655  -7.363  -9.229  1.00  0.00    -0.474 OA
ATOM     31  C   UNL     1      -8.676  -7.580 -10.498  1.00  0.00     0.056 C 
BRANCH  29  32
ATOM     32  C   UNL     1      -4.315  -7.327  -9.846  1.00  0.00     0.171 C 
BRANCH  32  33
ATOM     33  N   UNL     1      -4.181  -8.159  -8.661  1.00  0.00    -0.342 N 
ATOM     34  C   UNL     1      -3.083  -8.103  -7.836  1.00  0.00     0.246 CG0
ATOM     35  O   UNL     1      -2.121  -7.370  -8.050  1.00  0.00    -0.273 OA
ATOM     36  H   UNL     1      -4.889  -8.844  -8.419  1.00  0.00     0.164 HD
ATOM     37  G   UNL     1      -3.164  -9.020  -6.605  1.00  0.00     0.000 G0
ENDBRANCH  32  33
BRANCH  32  38
ATOM     38  C   UNL     1      -4.017  -8.106 -11.155  1.00  0.00     0.017 C 
ATOM     39  C   UNL     1      -2.535  -8.499 -11.209  1.00  0.00     0.010 C 
BRANCH  38  40
ATOM     40  C   UNL     1      -4.938  -9.332 -11.349  1.00  0.00     0.002 C 
ATOM     41  C   UNL     1      -4.470 -10.279 -12.447  1.00  0.00     0.004 C 
ENDBRANCH  38  40
ENDBRANCH  32  38
ENDBRANCH  29  32
ENDBRANCH  23  26
ENDBRANCH   1  22
TORSDOF 4
ENDMDL
MODEL 7
REMARK VINA RESULT:    -5.216      2.812      6.115
REMARK INTER + INTRA:         -10.534
REMARK INTER:                  -9.063
REMARK INTRA:                  -1.471
REMARK UNBOUND:                -1.660
REMARK SMILES CC[C@H](C)[C@@H]1NC(=O)[C@H]2CSC(=N2)[C@@H]([C@@H](C)CC)NC(=O)c2csc(n2)CNC(=O)[C@H]2N=C1O[C@@H]2C
REMARK SMILES IDX 27 1 25 2 22 3 26 4 23 5 24 6 20 7 19 8 21 9 14 11 12 12
REMARK SMILES IDX 11 13 10 14 13 15 9 16 15 18 16 19 17 20 18 21 28 22 29 23
REMARK SMILES IDX 30 24 31 26 32 27 35 28 33 29 34 30 36 31 5 32 6 33 7 34
REMARK SMILES IDX 8 35 3 38 4 39 2 40 1 41
REMARK H PARENT 19 10 28 25 6 36
REMARK Flexibility Score:   91.900
ROOT
ATOM      1  C   UNL     1      -0.017  -1.411  -3.542  1.00  0.00     0.183 C 
ENDROOT
BRANCH   1   2
ATOM      2  C   UNL     1       1.315  -2.068  -3.762  1.00  0.00     0.113 A 
ATOM      3  C   UNL     1       2.803  -3.611  -4.372  1.00  0.00     0.139 A 
ATOM      4  N   UNL     1       1.473  -3.191  -4.438  1.00  0.00    -0.234 NA
ATOM      5  C   UNL     1       3.640  -2.751  -3.687  1.00  0.00     0.101 A 
ATOM      6  S   UNL     1       2.751  -1.409  -3.093  1.00  0.00    -0.125 S 
BRANCH   3   7
ATOM      7  C   UNL     1       3.199  -4.889  -4.967  1.00  0.00     0.271 C 
ATOM      8  N   UNL     1       2.405  -5.216  -6.038  1.00  0.00    -0.341 N 
ATOM      9  O   UNL     1       4.106  -5.589  -4.533  1.00  0.00    -0.267 OA
ATOM     10  H   UNL     1       1.705  -4.522  -6.296  1.00  0.00     0.164 HD
BRANCH   8  11
ATOM     11  C   UNL     1       2.433  -6.503  -6.713  1.00  0.00     0.140 C 
BRANCH  11  12
ATOM     12  C   UNL     1       1.169  -7.270  -6.315  1.00  0.00     0.091 C 
ATOM     13  S   UNL     1       0.132  -7.967  -7.537  1.00  0.00    -0.106 SA
ATOM     14  C   UNL     1      -0.762  -8.891  -6.269  1.00  0.00     0.113 C 
ATOM     15  N   UNL     1       0.785  -7.368  -5.081  1.00  0.00    -0.267 NA
ATOM     16  C   UNL     1      -0.531  -8.076  -5.007  1.00  0.00     0.205 CG0
ATOM     17  G   UNL     1      -1.679  -7.078  -4.786  1.00  0.00     0.000 G0
ENDBRANCH  11  12
BRANCH  11  18
ATOM     18  C   UNL     1       2.735  -6.413  -8.231  1.00  0.00     0.015 C 
ATOM     19  C   UNL     1       2.772  -4.947  -8.683  1.00  0.00     0.010 C 
BRANCH  18  20
ATOM     20  C   UNL     1       3.997  -7.174  -8.685  1.00  0.00     0.002 C 
ATOM     21  C   UNL     1       3.911  -7.663 -10.126  1.00  0.00     0.004 C 
ENDBRANCH  18  20
ENDBRANCH  11  18
ENDBRANCH   8  11
ENDBRANCH   3   7
ENDBRANCH   1   2
BRANCH   1  22
ATOM     22  N   UNL     1      -0.804  -2.295  -2.711  1.00  0.00    -0.348 N 
ATOM     23  C   UNL     1      -1.200  -2.015  -1.431  1.00  0.00     0.249 C 
ATOM     24  O   UNL     1      -0.995  -0.936  -0.885  1.00  0.00    -0.272 OA
ATOM     25  H   UNL     1      -1.013  -3.229  -3.060  1.00  0.00     0.163 HD
BRANCH  23  26
ATOM     26  C   UNL     1      -1.977  -3.170  -0.782  1.00  0.00     0.238 C 
ATOM     27  N   UNL     1      -2.951  -3.720  -1.766  1.00  0.00    -0.236 NA
ATOM     28  C   UNL     1      -1.069  -4.331  -0.416  1.00  0.00     0.206 C 
ATOM     29  C   UNL     1      -2.466  -4.895  -2.038  1.00  0.00     0.208 C 
ATOM     30  O   UNL     1      -1.332  -5.307  -1.422  1.00  0.00    -0.474 OA
ATOM     31  C   UNL     1      -1.407  -4.930   0.943  1.00  0.00     0.056 C 
BRANCH  29  32
ATOM     32  C   UNL     1      -3.022  -5.889  -3.055  1.00  0.00     0.171 C 
BRANCH  32  33
ATOM     33  N   UNL     1      -2.002  -6.842  -3.461  1.00  0.00    -0.342 N 
ATOM     34  C   UNL     1      -1.680  -7.068  -4.778  1.00  0.00     0.246 CG0
ATOM     35  O   UNL     1      -2.245  -6.504  -5.711  1.00  0.00    -0.273 OA
ATOM     36  H   UNL     1      -1.511  -7.408  -2.776  1.00  0.00     0.164 HD
ATOM     37  G   UNL     1      -0.534  -8.070  -4.991  1.00  0.00     0.000 G0
ENDBRANCH  32  33
BRANCH  32  38
ATOM     38  C   UNL     1      -4.294  -6.581  -2.497  1.00  0.00     0.017 C 
ATOM     39  C   UNL     1      -5.393  -6.603  -3.567  1.00  0.00     0.010 C 
BRANCH  38  40
ATOM     40  C   UNL     1      -4.015  -7.995  -1.939  1.00  0.00     0.002 C 
ATOM     41  C   UNL     1      -5.268  -8.724  -1.471  1.00  0.00     0.004 C 
ENDBRANCH  38  40
ENDBRANCH  32  38
ENDBRANCH  29  32
ENDBRANCH  23  26
ENDBRANCH   1  22
TORSDOF 4
ENDMDL
MODEL 8
REMARK VINA RESULT:    -5.211      3.089      6.391
REMARK INTER + INTRA:         -10.526
REMARK INTER:                  -9.273
REMARK INTRA:                  -1.253
REMARK UNBOUND:                -1.660
REMARK SMILES CC[C@H](C)[C@@H]1NC(=O)[C@H]2CSC(=N2)[C@@H]([C@@H](C)CC)NC(=O)c2csc(n2)CNC(=O)[C@H]2N=C1O[C@@H]2C
REMARK SMILES IDX 27 1 25 2 22 3 26 4 23 5 24 6 20 7 19 8 21 9 14 11 12 12
REMARK SMILES IDX 11 13 10 14 13 15 9 16 15 18 16 19 17 20 18 21 28 22 29 23
REMARK SMILES IDX 30 24 31 26 32 27 35 28 33 29 34 30 36 31 5 32 6 33 7 34
REMARK SMILES IDX 8 35 3 38 4 39 2 40 1 41
REMARK H PARENT 19 10 28 25 6 36
REMARK Flexibility Score:   91.900
ROOT
ATOM      1  C   UNL     1       1.908  -1.524  -3.082  1.00  0.00     0.183 C 
ENDROOT
BRANCH   1   2
ATOM      2  C   UNL     1       2.475  -2.482  -4.090  1.00  0.00     0.113 A 
ATOM      3  C   UNL     1       2.722  -4.346  -5.286  1.00  0.00     0.139 A 
ATOM      4  N   UNL     1       1.903  -3.627  -4.413  1.00  0.00    -0.234 NA
ATOM      5  C   UNL     1       3.882  -3.691  -5.652  1.00  0.00     0.101 A 
ATOM      6  S   UNL     1       3.968  -2.163  -4.875  1.00  0.00    -0.125 S 
BRANCH   3   7
ATOM      7  C   UNL     1       2.339  -5.695  -5.706  1.00  0.00     0.271 C 
ATOM      8  N   UNL     1       1.778  -6.406  -4.674  1.00  0.00    -0.341 N 
ATOM      9  O   UNL     1       2.531  -6.138  -6.832  1.00  0.00    -0.267 OA
ATOM     10  H   UNL     1       1.661  -5.895  -3.799  1.00  0.00     0.164 HD
BRANCH   8  11
ATOM     11  C   UNL     1       1.471  -7.826  -4.731  1.00  0.00     0.140 C 
BRANCH  11  12
ATOM     12  C   UNL     1       0.029  -7.975  -5.226  1.00  0.00     0.091 C 
ATOM     13  S   UNL     1      -0.362  -7.715  -6.910  1.00  0.00    -0.106 SA
ATOM     14  C   UNL     1      -2.005  -8.418  -6.650  1.00  0.00     0.113 C 
ATOM     15  N   UNL     1      -0.952  -8.223  -4.418  1.00  0.00    -0.267 NA
ATOM     16  C   UNL     1      -2.250  -8.207  -5.164  1.00  0.00     0.205 CG0
ATOM     17  G   UNL     1      -3.007  -6.892  -4.919  1.00  0.00     0.000 G0
ENDBRANCH  11  12
BRANCH  11  18
ATOM     18  C   UNL     1       2.542  -8.673  -5.464  1.00  0.00     0.015 C 
ATOM     19  C   UNL     1       3.842  -8.713  -4.650  1.00  0.00     0.010 C 
BRANCH  18  20
ATOM     20  C   UNL     1       2.083 -10.091  -5.861  1.00  0.00     0.002 C 
ATOM     21  C   UNL     1       3.063 -11.177  -5.430  1.00  0.00     0.004 C 
ENDBRANCH  18  20
ENDBRANCH  11  18
ENDBRANCH   8  11
ENDBRANCH   3   7
ENDBRANCH   1   2
BRANCH   1  22
ATOM     22  N   UNL     1       0.875  -2.224  -2.353  1.00  0.00    -0.348 N 
ATOM     23  C   UNL     1      -0.447  -1.870  -2.339  1.00  0.00     0.249 C 
ATOM     24  O   UNL     1      -0.906  -0.961  -3.021  1.00  0.00    -0.272 OA
ATOM     25  H   UNL     1       1.151  -2.986  -1.734  1.00  0.00     0.163 HD
BRANCH  23  26
ATOM     26  C   UNL     1      -1.295  -2.771  -1.429  1.00  0.00     0.238 C 
ATOM     27  N   UNL     1      -2.585  -3.078  -2.106  1.00  0.00    -0.236 NA
ATOM     28  C   UNL     1      -0.634  -4.116  -1.184  1.00  0.00     0.206 C 
ATOM     29  C   UNL     1      -2.484  -4.344  -2.381  1.00  0.00     0.208 C 
ATOM     30  O   UNL     1      -1.366  -5.018  -2.013  1.00  0.00    -0.474 OA
ATOM     31  C   UNL     1      -0.759  -4.575   0.263  1.00  0.00     0.056 C 
BRANCH  29  32
ATOM     32  C   UNL     1      -3.498  -5.187  -3.149  1.00  0.00     0.171 C 
BRANCH  32  33
ATOM     33  N   UNL     1      -2.902  -6.437  -3.595  1.00  0.00    -0.342 N 
ATOM     34  C   UNL     1      -3.006  -6.887  -4.889  1.00  0.00     0.246 CG0
ATOM     35  O   UNL     1      -3.629  -6.284  -5.760  1.00  0.00    -0.273 OA
ATOM     36  H   UNL     1      -2.414  -7.046  -2.947  1.00  0.00     0.164 HD
ATOM     37  G   UNL     1      -2.256  -8.199  -5.170  1.00  0.00     0.000 G0
ENDBRANCH  32  33
BRANCH  32  38
ATOM     38  C   UNL     1      -4.776  -5.408  -2.297  1.00  0.00     0.017 C 
ATOM     39  C   UNL     1      -6.023  -5.317  -3.186  1.00  0.00     0.010 C 
BRANCH  38  40
ATOM     40  C   UNL     1      -4.744  -6.729  -1.494  1.00  0.00     0.002 C 
ATOM     41  C   UNL     1      -3.961  -6.631  -0.192  1.00  0.00     0.004 C 
ENDBRANCH  38  40
ENDBRANCH  32  38
ENDBRANCH  29  32
ENDBRANCH  23  26
ENDBRANCH   1  22
TORSDOF 4
ENDMDL
MODEL 9
REMARK VINA RESULT:    -5.198      4.172      5.972
REMARK INTER + INTRA:         -10.504
REMARK INTER:                  -8.763
REMARK INTRA:                  -1.742
REMARK UNBOUND:                -1.660
REMARK SMILES CC[C@H](C)[C@@H]1NC(=O)[C@H]2CSC(=N2)[C@@H]([C@@H](C)CC)NC(=O)c2csc(n2)CNC(=O)[C@H]2N=C1O[C@@H]2C
REMARK SMILES IDX 27 1 25 2 22 3 26 4 23 5 24 6 20 7 19 8 21 9 14 11 12 12
REMARK SMILES IDX 11 13 10 14 13 15 9 16 15 18 16 19 17 20 18 21 28 22 29 23
REMARK SMILES IDX 30 24 31 26 32 27 35 28 33 29 34 30 36 31 5 32 6 33 7 34
REMARK SMILES IDX 8 35 3 38 4 39 2 40 1 41
REMARK H PARENT 19 10 28 25 6 36
REMARK Flexibility Score:   91.900
ROOT
ATOM      1  C   UNL     1      -7.197  -4.751  -6.251  1.00  0.00     0.183 C 
ENDROOT
BRANCH   1   2
ATOM      2  C   UNL     1      -6.815  -5.187  -7.636  1.00  0.00     0.113 A 
ATOM      3  C   UNL     1      -5.553  -5.937  -9.313  1.00  0.00     0.139 A 
ATOM      4  N   UNL     1      -5.660  -5.752  -7.933  1.00  0.00    -0.234 NA
ATOM      5  C   UNL     1      -6.670  -5.555 -10.029  1.00  0.00     0.101 A 
ATOM      6  S   UNL     1      -7.867  -4.931  -8.969  1.00  0.00    -0.125 S 
BRANCH   3   7
ATOM      7  C   UNL     1      -4.312  -6.459  -9.888  1.00  0.00     0.271 C 
ATOM      8  N   UNL     1      -3.713  -7.372  -9.056  1.00  0.00    -0.341 N 
ATOM      9  O   UNL     1      -3.855  -6.094 -10.965  1.00  0.00    -0.267 OA
ATOM     10  H   UNL     1      -4.224  -7.593  -8.203  1.00  0.00     0.164 HD
BRANCH   8  11
ATOM     11  C   UNL     1      -2.383  -7.920  -9.267  1.00  0.00     0.140 C 
BRANCH  11  12
ATOM     12  C   UNL     1      -1.617  -7.817  -7.944  1.00  0.00     0.091 C 
ATOM     13  S   UNL     1      -0.237  -8.845  -7.635  1.00  0.00    -0.106 SA
ATOM     14  C   UNL     1       0.193  -7.853  -6.189  1.00  0.00     0.113 C 
ATOM     15  N   UNL     1      -2.000  -7.030  -6.989  1.00  0.00    -0.267 NA
ATOM     16  C   UNL     1      -1.129  -7.220  -5.786  1.00  0.00     0.205 CG0
ATOM     17  G   UNL     1      -1.840  -8.074  -4.723  1.00  0.00     0.000 G0
ENDBRANCH  11  12
BRANCH  11  18
ATOM     18  C   UNL     1      -2.375  -9.306  -9.961  1.00  0.00     0.015 C 
ATOM     19  C   UNL     1      -3.540 -10.166  -9.453  1.00  0.00     0.010 C 
BRANCH  18  20
ATOM     20  C   UNL     1      -2.343  -9.255 -11.502  1.00  0.00     0.002 C 
ATOM     21  C   UNL     1      -3.049 -10.440 -12.152  1.00  0.00     0.004 C 
ENDBRANCH  18  20
ENDBRANCH  11  18
ENDBRANCH   8  11
ENDBRANCH   3   7
ENDBRANCH   1   2
BRANCH   1  22
ATOM     22  N   UNL     1      -7.008  -5.884  -5.373  1.00  0.00    -0.348 N 
ATOM     23  C   UNL     1      -6.949  -5.811  -4.008  1.00  0.00     0.249 C 
ATOM     24  O   UNL     1      -7.137  -4.775  -3.381  1.00  0.00    -0.272 OA
ATOM     25  H   UNL     1      -6.819  -6.795  -5.791  1.00  0.00     0.163 HD
BRANCH  23  26
ATOM     26  C   UNL     1      -6.683  -7.174  -3.350  1.00  0.00     0.238 C 
ATOM     27  N   UNL     1      -5.355  -7.683  -3.793  1.00  0.00    -0.236 NA
ATOM     28  C   UNL     1      -6.594  -7.067  -1.837  1.00  0.00     0.206 C 
ATOM     29  C   UNL     1      -4.634  -7.611  -2.714  1.00  0.00     0.208 C 
ATOM     30  O   UNL     1      -5.197  -7.162  -1.565  1.00  0.00    -0.474 OA
ATOM     31  C   UNL     1      -7.306  -8.212  -1.128  1.00  0.00     0.056 C 
BRANCH  29  32
ATOM     32  C   UNL     1      -3.149  -7.940  -2.595  1.00  0.00     0.171 C 
BRANCH  32  33
ATOM     33  N   UNL     1      -2.394  -7.333  -3.680  1.00  0.00    -0.342 N 
ATOM     34  C   UNL     1      -1.841  -8.069  -4.700  1.00  0.00     0.246 CG0
ATOM     35  O   UNL     1      -1.918  -9.294  -4.761  1.00  0.00    -0.273 OA
ATOM     36  H   UNL     1      -2.217  -6.334  -3.701  1.00  0.00     0.164 HD
ATOM     37  G   UNL     1      -1.134  -7.232  -5.779  1.00  0.00     0.000 G0
ENDBRANCH  32  33
BRANCH  32  38
ATOM     38  C   UNL     1      -2.613  -7.533  -1.197  1.00  0.00     0.017 C 
ATOM     39  C   UNL     1      -1.847  -8.702  -0.565  1.00  0.00     0.010 C 
BRANCH  38  40
ATOM     40  C   UNL     1      -1.758  -6.245  -1.231  1.00  0.00     0.002 C 
ATOM     41  C   UNL     1      -2.430  -5.049  -0.569  1.00  0.00     0.004 C 
ENDBRANCH  38  40
ENDBRANCH  32  38
ENDBRANCH  29  32
ENDBRANCH  23  26
ENDBRANCH   1  22
TORSDOF 4
ENDMDL
MODEL 10
REMARK VINA RESULT:    -5.197      2.386      6.596
REMARK INTER + INTRA:         -10.503
REMARK INTER:                  -9.446
REMARK INTRA:                  -1.057
REMARK UNBOUND:                -1.660
REMARK SMILES CC[C@H](C)[C@@H]1NC(=O)[C@H]2CSC(=N2)[C@@H]([C@@H](C)CC)NC(=O)c2csc(n2)CNC(=O)[C@H]2N=C1O[C@@H]2C
REMARK SMILES IDX 27 1 25 2 22 3 26 4 23 5 24 6 20 7 19 8 21 9 14 11 12 12
REMARK SMILES IDX 11 13 10 14 13 15 9 16 15 18 16 19 17 20 18 21 28 22 29 23
REMARK SMILES IDX 30 24 31 26 32 27 35 28 33 29 34 30 36 31 5 32 6 33 7 34
REMARK SMILES IDX 8 35 3 38 4 39 2 40 1 41
REMARK H PARENT 19 10 28 25 6 36
REMARK Flexibility Score:   91.900
ROOT
ATOM      1  C   UNL     1      -2.068  -5.811  -1.051  1.00  0.00     0.183 C 
ENDROOT
BRANCH   1   2
ATOM      2  C   UNL     1      -1.146  -4.826  -1.712  1.00  0.00     0.113 A 
ATOM      3  C   UNL     1       0.638  -4.042  -2.792  1.00  0.00     0.139 A 
ATOM      4  N   UNL     1      -0.076  -5.176  -2.402  1.00  0.00    -0.234 NA
ATOM      5  C   UNL     1       0.051  -2.844  -2.432  1.00  0.00     0.101 A 
ATOM      6  S   UNL     1      -1.404  -3.135  -1.570  1.00  0.00    -0.125 S 
BRANCH   3   7
ATOM      7  C   UNL     1       1.919  -4.185  -3.487  1.00  0.00     0.271 C 
ATOM      8  N   UNL     1       1.808  -3.884  -4.822  1.00  0.00    -0.341 N 
ATOM      9  O   UNL     1       2.950  -4.561  -2.942  1.00  0.00    -0.267 OA
ATOM     10  H   UNL     1       0.890  -3.562  -5.126  1.00  0.00     0.164 HD
BRANCH   8  11
ATOM     11  C   UNL     1       2.858  -4.111  -5.801  1.00  0.00     0.140 C 
BRANCH  11  12
ATOM     12  C   UNL     1       2.385  -5.219  -6.748  1.00  0.00     0.091 C 
ATOM     13  S   UNL     1       2.534  -5.030  -8.479  1.00  0.00    -0.106 SA
ATOM     14  C   UNL     1       2.141  -6.776  -8.716  1.00  0.00     0.113 C 
ATOM     15  N   UNL     1       1.798  -6.289  -6.313  1.00  0.00    -0.267 NA
ATOM     16  C   UNL     1       1.354  -7.136  -7.465  1.00  0.00     0.205 CG0
ATOM     17  G   UNL     1      -0.156  -6.982  -7.709  1.00  0.00     0.000 G0
ENDBRANCH  11  12
BRANCH  11  18
ATOM     18  C   UNL     1       3.390  -2.816  -6.467  1.00  0.00     0.015 C 
ATOM     19  C   UNL     1       3.069  -1.595  -5.594  1.00  0.00     0.010 C 
BRANCH  18  20
ATOM     20  C   UNL     1       4.882  -2.856  -6.854  1.00  0.00     0.002 C 
ATOM     21  C   UNL     1       5.633  -1.589  -6.460  1.00  0.00     0.004 C 
ENDBRANCH  18  20
ENDBRANCH  11  18
ENDBRANCH   8  11
ENDBRANCH   3   7
ENDBRANCH   1   2
BRANCH   1  22
ATOM     22  N   UNL     1      -2.607  -6.662  -2.089  1.00  0.00    -0.348 N 
ATOM     23  C   UNL     1      -3.917  -6.673  -2.486  1.00  0.00     0.249 C 
ATOM     24  O   UNL     1      -4.757  -5.892  -2.054  1.00  0.00    -0.272 OA
ATOM     25  H   UNL     1      -1.998  -7.367  -2.502  1.00  0.00     0.163 HD
BRANCH  23  26
ATOM     26  C   UNL     1      -4.201  -7.723  -3.570  1.00  0.00     0.238 C 
ATOM     27  N   UNL     1      -4.109  -7.082  -4.911  1.00  0.00    -0.236 NA
ATOM     28  C   UNL     1      -3.160  -8.830  -3.577  1.00  0.00     0.206 C 
ATOM     29  C   UNL     1      -3.038  -7.611  -5.422  1.00  0.00     0.208 C 
ATOM     30  O   UNL     1      -2.343  -8.531  -4.707  1.00  0.00    -0.474 OA
ATOM     31  C   UNL     1      -3.775 -10.209  -3.773  1.00  0.00     0.056 C 
BRANCH  29  32
ATOM     32  C   UNL     1      -2.412  -7.265  -6.770  1.00  0.00     0.171 C 
BRANCH  32  33
ATOM     33  N   UNL     1      -0.964  -7.394  -6.720  1.00  0.00    -0.342 N 
ATOM     34  C   UNL     1      -0.148  -6.994  -7.751  1.00  0.00     0.246 CG0
ATOM     35  O   UNL     1      -0.578  -6.523  -8.801  1.00  0.00    -0.273 OA
ATOM     36  H   UNL     1      -0.504  -7.825  -5.925  1.00  0.00     0.164 HD
ATOM     37  G   UNL     1       1.355  -7.162  -7.476  1.00  0.00     0.000 G0
ENDBRANCH  32  33
BRANCH  32  38
ATOM     38  C   UNL     1      -3.047  -8.121  -7.898  1.00  0.00     0.017 C 
ATOM     39  C   UNL     1      -3.642  -9.407  -7.312  1.00  0.00     0.010 C 
BRANCH  38  40
ATOM     40  C   UNL     1      -4.088  -7.341  -8.733  1.00  0.00     0.002 C 
ATOM     41  C   UNL     1      -3.595  -6.963 -10.124  1.00  0.00     0.004 C 
ENDBRANCH  38  40
ENDBRANCH  32  38
ENDBRANCH  29  32
ENDBRANCH  23  26
ENDBRANCH   1  22
TORSDOF 4
ENDMDL
MODEL 11
REMARK VINA RESULT:    -5.157      2.737      6.609
REMARK INTER + INTRA:         -10.434
REMARK INTER:                  -8.927
REMARK INTRA:                  -1.507
REMARK UNBOUND:                -1.660
REMARK SMILES CC[C@H](C)[C@@H]1NC(=O)[C@H]2CSC(=N2)[C@@H]([C@@H](C)CC)NC(=O)c2csc(n2)CNC(=O)[C@H]2N=C1O[C@@H]2C
REMARK SMILES IDX 27 1 25 2 22 3 26 4 23 5 24 6 20 7 19 8 21 9 14 11 12 12
REMARK SMILES IDX 11 13 10 14 13 15 9 16 15 18 16 19 17 20 18 21 28 22 29 23
REMARK SMILES IDX 30 24 31 26 32 27 35 28 33 29 34 30 36 31 5 32 6 33 7 34
REMARK SMILES IDX 8 35 3 38 4 39 2 40 1 41
REMARK H PARENT 19 10 28 25 6 36
REMARK Flexibility Score:   91.900
ROOT
ATOM      1  C   UNL     1      -1.755  -3.693  -0.562  1.00  0.00     0.183 C 
ENDROOT
BRANCH   1   2
ATOM      2  C   UNL     1      -0.944  -2.850  -1.504  1.00  0.00     0.113 A 
ATOM      3  C   UNL     1       0.789  -2.173  -2.730  1.00  0.00     0.139 A 
ATOM      4  N   UNL     1       0.236  -3.209  -1.976  1.00  0.00    -0.234 NA
ATOM      5  C   UNL     1      -0.023  -1.063  -2.860  1.00  0.00     0.101 A 
ATOM      6  S   UNL     1      -1.492  -1.303  -2.007  1.00  0.00    -0.125 S 
BRANCH   3   7
ATOM      7  C   UNL     1       2.143  -2.304  -3.274  1.00  0.00     0.271 C 
ATOM      8  N   UNL     1       2.138  -2.922  -4.500  1.00  0.00    -0.341 N 
ATOM      9  O   UNL     1       3.151  -1.936  -2.685  1.00  0.00    -0.267 OA
ATOM     10  H   UNL     1       1.218  -3.150  -4.875  1.00  0.00     0.164 HD
BRANCH   8  11
ATOM     11  C   UNL     1       3.335  -3.358  -5.201  1.00  0.00     0.140 C 
BRANCH  11  12
ATOM     12  C   UNL     1       3.030  -4.708  -5.855  1.00  0.00     0.091 C 
ATOM     13  S   UNL     1       3.241  -4.928  -7.576  1.00  0.00    -0.106 SA
ATOM     14  C   UNL     1       3.049  -6.713  -7.385  1.00  0.00     0.113 C 
ATOM     15  N   UNL     1       2.542  -5.703  -5.182  1.00  0.00    -0.267 NA
ATOM     16  C   UNL     1       2.248  -6.849  -6.100  1.00  0.00     0.205 CG0
ATOM     17  G   UNL     1       0.743  -6.935  -6.404  1.00  0.00     0.000 G0
ENDBRANCH  11  12
BRANCH  11  18
ATOM     18  C   UNL     1       3.960  -2.274  -6.116  1.00  0.00     0.015 C 
ATOM     19  C   UNL     1       2.904  -1.231  -6.507  1.00  0.00     0.010 C 
BRANCH  18  20
ATOM     20  C   UNL     1       5.229  -1.606  -5.550  1.00  0.00     0.002 C 
ATOM     21  C   UNL     1       5.905  -0.671  -6.547  1.00  0.00     0.004 C 
ENDBRANCH  18  20
ENDBRANCH  11  18
ENDBRANCH   8  11
ENDBRANCH   3   7
ENDBRANCH   1   2
BRANCH   1  22
ATOM     22  N   UNL     1      -2.445  -4.686  -1.355  1.00  0.00    -0.348 N 
ATOM     23  C   UNL     1      -1.997  -5.962  -1.569  1.00  0.00     0.249 C 
ATOM     24  O   UNL     1      -0.995  -6.421  -1.033  1.00  0.00    -0.272 OA
ATOM     25  H   UNL     1      -3.280  -4.404  -1.866  1.00  0.00     0.163 HD
BRANCH  23  26
ATOM     26  C   UNL     1      -2.916  -6.767  -2.500  1.00  0.00     0.238 C 
ATOM     27  N   UNL     1      -2.498  -6.548  -3.912  1.00  0.00    -0.236 NA
ATOM     28  C   UNL     1      -2.793  -8.263  -2.266  1.00  0.00     0.206 C 
ATOM     29  C   UNL     1      -2.010  -7.701  -4.260  1.00  0.00     0.208 C 
ATOM     30  O   UNL     1      -2.012  -8.723  -3.369  1.00  0.00    -0.474 OA
ATOM     31  C   UNL     1      -4.140  -8.972  -2.295  1.00  0.00     0.056 C 
BRANCH  29  32
ATOM     32  C   UNL     1      -1.359  -8.042  -5.598  1.00  0.00     0.171 C 
BRANCH  32  33
ATOM     33  N   UNL     1       0.079  -7.829  -5.545  1.00  0.00    -0.342 N 
ATOM     34  C   UNL     1       0.734  -6.975  -6.400  1.00  0.00     0.246 CG0
ATOM     35  O   UNL     1       0.163  -6.347  -7.288  1.00  0.00    -0.273 OA
ATOM     36  H   UNL     1       0.661  -8.340  -4.889  1.00  0.00     0.164 HD
ATOM     37  G   UNL     1       2.244  -6.848  -6.139  1.00  0.00     0.000 G0
ENDBRANCH  32  33
BRANCH  32  38
ATOM     38  C   UNL     1      -1.731  -9.484  -6.032  1.00  0.00     0.017 C 
ATOM     39  C   UNL     1      -3.242  -9.588  -6.274  1.00  0.00     0.010 C 
BRANCH  38  40
ATOM     40  C   UNL     1      -0.923  -9.973  -7.256  1.00  0.00     0.002 C 
ATOM     41  C   UNL     1      -1.342 -11.351  -7.751  1.00  0.00     0.004 C 
ENDBRANCH  38  40
ENDBRANCH  32  38
ENDBRANCH  29  32
ENDBRANCH  23  26
ENDBRANCH   1  22
TORSDOF 4
ENDMDL
MODEL 12
REMARK VINA RESULT:    -5.153      2.933      7.870
REMARK INTER + INTRA:         -10.427
REMARK INTER:                  -8.634
REMARK INTRA:                  -1.793
REMARK UNBOUND:                -1.660
REMARK SMILES CC[C@H](C)[C@@H]1NC(=O)[C@H]2CSC(=N2)[C@@H]([C@@H](C)CC)NC(=O)c2csc(n2)CNC(=O)[C@H]2N=C1O[C@@H]2C
REMARK SMILES IDX 27 1 25 2 22 3 26 4 23 5 24 6 20 7 19 8 21 9 14 11 12 12
REMARK SMILES IDX 11 13 10 14 13 15 9 16 15 18 16 19 17 20 18 21 28 22 29 23
REMARK SMILES IDX 30 24 31 26 32 27 35 28 33 29 34 30 36 31 5 32 6 33 7 34
REMARK SMILES IDX 8 35 3 38 4 39 2 40 1 41
REMARK H PARENT 19 10 28 25 6 36
REMARK Flexibility Score:   91.900
ROOT
ATOM      1  C   UNL     1       3.318  -4.841  -3.430  1.00  0.00     0.183 C 
ENDROOT
BRANCH   1   2
ATOM      2  C   UNL     1       2.143  -3.918  -3.280  1.00  0.00     0.113 A 
ATOM      3  C   UNL     1       0.090  -3.224  -2.763  1.00  0.00     0.139 A 
ATOM      4  N   UNL     1       1.039  -4.239  -2.631  1.00  0.00    -0.234 NA
ATOM      5  C   UNL     1       0.527  -2.120  -3.468  1.00  0.00     0.101 A 
ATOM      6  S   UNL     1       2.141  -2.360  -4.000  1.00  0.00    -0.125 S 
BRANCH   3   7
ATOM      7  C   UNL     1      -1.254  -3.400  -2.208  1.00  0.00     0.271 C 
ATOM      8  N   UNL     1      -1.618  -4.724  -2.176  1.00  0.00    -0.341 N 
ATOM      9  O   UNL     1      -1.971  -2.473  -1.853  1.00  0.00    -0.267 OA
ATOM     10  H   UNL     1      -0.905  -5.385  -2.483  1.00  0.00     0.164 HD
BRANCH   8  11
ATOM     11  C   UNL     1      -2.955  -5.197  -1.855  1.00  0.00     0.140 C 
BRANCH  11  12
ATOM     12  C   UNL     1      -3.570  -5.772  -3.134  1.00  0.00     0.091 C 
ATOM     13  S   UNL     1      -4.867  -6.940  -3.048  1.00  0.00    -0.106 SA
ATOM     14  C   UNL     1      -5.168  -6.755  -4.818  1.00  0.00     0.113 C 
ATOM     15  N   UNL     1      -3.110  -5.477  -4.309  1.00  0.00    -0.267 NA
ATOM     16  C   UNL     1      -3.833  -6.266  -5.356  1.00  0.00     0.205 CG0
ATOM     17  G   UNL     1      -2.976  -7.447  -5.842  1.00  0.00     0.000 G0
ENDBRANCH  11  12
BRANCH  11  18
ATOM     18  C   UNL     1      -3.020  -6.097  -0.594  1.00  0.00     0.015 C 
ATOM     19  C   UNL     1      -1.882  -7.126  -0.613  1.00  0.00     0.010 C 
BRANCH  18  20
ATOM     20  C   UNL     1      -3.064  -5.330   0.743  1.00  0.00     0.002 C 
ATOM     21  C   UNL     1      -3.641  -6.159   1.886  1.00  0.00     0.004 C 
ENDBRANCH  18  20
ENDBRANCH  11  18
ENDBRANCH   8  11
ENDBRANCH   3   7
ENDBRANCH   1   2
BRANCH   1  22
ATOM     22  N   UNL     1       3.064  -5.681  -4.579  1.00  0.00    -0.348 N 
ATOM     23  C   UNL     1       2.425  -6.890  -4.535  1.00  0.00     0.249 C 
ATOM     24  O   UNL     1       1.923  -7.349  -3.515  1.00  0.00    -0.272 OA
ATOM     25  H   UNL     1       3.459  -5.405  -5.478  1.00  0.00     0.163 HD
BRANCH  23  26
ATOM     26  C   UNL     1       2.353  -7.576  -5.908  1.00  0.00     0.238 C 
ATOM     27  N   UNL     1       1.100  -8.377  -5.992  1.00  0.00    -0.236 NA
ATOM     28  C   UNL     1       2.269  -6.570  -7.043  1.00  0.00     0.206 C 
ATOM     29  C   UNL     1       0.390  -7.728  -6.865  1.00  0.00     0.208 C 
ATOM     30  O   UNL     1       0.900  -6.614  -7.444  1.00  0.00    -0.474 OA
ATOM     31  C   UNL     1       3.137  -6.957  -8.233  1.00  0.00     0.056 C 
BRANCH  29  32
ATOM     32  C   UNL     1      -1.037  -8.058  -7.295  1.00  0.00     0.171 C 
BRANCH  32  33
ATOM     33  N   UNL     1      -1.980  -7.092  -6.755  1.00  0.00    -0.342 N 
ATOM     34  C   UNL     1      -2.968  -7.438  -5.865  1.00  0.00     0.246 CG0
ATOM     35  O   UNL     1      -3.147  -8.590  -5.478  1.00  0.00    -0.273 OA
ATOM     36  H   UNL     1      -1.963  -6.121  -7.050  1.00  0.00     0.164 HD
ATOM     37  G   UNL     1      -3.821  -6.259  -5.369  1.00  0.00     0.000 G0
ENDBRANCH  32  33
BRANCH  32  38
ATOM     38  C   UNL     1      -1.124  -8.175  -8.840  1.00  0.00     0.017 C 
ATOM     39  C   UNL     1      -0.252  -9.337  -9.331  1.00  0.00     0.010 C 
BRANCH  38  40
ATOM     40  C   UNL     1      -2.577  -8.297  -9.354  1.00  0.00     0.002 C 
ATOM     41  C   UNL     1      -2.673  -8.738 -10.809  1.00  0.00     0.004 C 
ENDBRANCH  38  40
ENDBRANCH  32  38
ENDBRANCH  29  32
ENDBRANCH  23  26
ENDBRANCH   1  22
TORSDOF 4
ENDMDL
MODEL 13
REMARK VINA RESULT:    -5.106      2.230      5.412
REMARK INTER + INTRA:         -10.347
REMARK INTER:                  -8.779
REMARK INTRA:                  -1.569
REMARK UNBOUND:                -1.660
REMARK SMILES CC[C@H](C)[C@@H]1NC(=O)[C@H]2CSC(=N2)[C@@H]([C@@H](C)CC)NC(=O)c2csc(n2)CNC(=O)[C@H]2N=C1O[C@@H]2C
REMARK SMILES IDX 27 1 25 2 22 3 26 4 23 5 24 6 20 7 19 8 21 9 14 11 12 12
REMARK SMILES IDX 11 13 10 14 13 15 9 16 15 18 16 19 17 20 18 21 28 22 29 23
REMARK SMILES IDX 30 24 31 26 32 27 35 28 33 29 34 30 36 31 5 32 6 33 7 34
REMARK SMILES IDX 8 35 3 38 4 39 2 40 1 41
REMARK H PARENT 19 10 28 25 6 36
REMARK Flexibility Score:   91.900
ROOT
ATOM      1  C   UNL     1       2.945  -4.018  -8.164  1.00  0.00     0.183 C 
ENDROOT
BRANCH   1   2
ATOM      2  C   UNL     1       2.680  -5.438  -8.576  1.00  0.00     0.113 A 
ATOM      3  C   UNL     1       1.582  -7.356  -8.860  1.00  0.00     0.139 A 
ATOM      4  N   UNL     1       1.488  -6.003  -8.524  1.00  0.00    -0.234 NA
ATOM      5  C   UNL     1       2.850  -7.770  -9.218  1.00  0.00     0.101 A 
ATOM      6  S   UNL     1       3.952  -6.459  -9.111  1.00  0.00    -0.125 S 
BRANCH   3   7
ATOM      7  C   UNL     1       0.399  -8.215  -8.776  1.00  0.00     0.271 C 
ATOM      8  N   UNL     1      -0.739  -7.487  -8.530  1.00  0.00    -0.341 N 
ATOM      9  O   UNL     1       0.435  -9.435  -8.880  1.00  0.00    -0.267 OA
ATOM     10  H   UNL     1      -0.616  -6.476  -8.492  1.00  0.00     0.164 HD
BRANCH   8  11
ATOM     11  C   UNL     1      -2.031  -8.073  -8.212  1.00  0.00     0.140 C 
BRANCH  11  12
ATOM     12  C   UNL     1      -2.241  -7.953  -6.699  1.00  0.00     0.091 C 
ATOM     13  S   UNL     1      -3.853  -7.840  -6.034  1.00  0.00    -0.106 SA
ATOM     14  C   UNL     1      -3.200  -8.105  -4.372  1.00  0.00     0.113 C 
ATOM     15  N   UNL     1      -1.247  -7.857  -5.873  1.00  0.00    -0.267 NA
ATOM     16  C   UNL     1      -1.754  -7.644  -4.481  1.00  0.00     0.205 CG0
ATOM     17  G   UNL     1      -1.620  -6.170  -4.068  1.00  0.00     0.000 G0
ENDBRANCH  11  12
BRANCH  11  18
ATOM     18  C   UNL     1      -3.190  -7.570  -9.110  1.00  0.00     0.015 C 
ATOM     19  C   UNL     1      -2.735  -6.365  -9.945  1.00  0.00     0.010 C 
BRANCH  18  20
ATOM     20  C   UNL     1      -3.837  -8.655  -9.994  1.00  0.00     0.002 C 
ATOM     21  C   UNL     1      -4.422  -8.099 -11.288  1.00  0.00     0.004 C 
ENDBRANCH  18  20
ENDBRANCH  11  18
ENDBRANCH   8  11
ENDBRANCH   3   7
ENDBRANCH   1   2
BRANCH   1  22
ATOM     22  N   UNL     1       2.932  -3.976  -6.719  1.00  0.00    -0.348 N 
ATOM     23  C   UNL     1       2.995  -2.832  -5.971  1.00  0.00     0.249 C 
ATOM     24  O   UNL     1       2.984  -1.708  -6.460  1.00  0.00    -0.272 OA
ATOM     25  H   UNL     1       2.964  -4.858  -6.209  1.00  0.00     0.163 HD
BRANCH  23  26
ATOM     26  C   UNL     1       3.019  -3.109  -4.460  1.00  0.00     0.238 C 
ATOM     27  N   UNL     1       1.653  -2.907  -3.903  1.00  0.00    -0.236 NA
ATOM     28  C   UNL     1       3.375  -4.553  -4.152  1.00  0.00     0.206 C 
ATOM     29  C   UNL     1       1.281  -4.111  -3.585  1.00  0.00     0.208 C 
ATOM     30  O   UNL     1       2.129  -5.148  -3.792  1.00  0.00    -0.474 OA
ATOM     31  C   UNL     1       4.333  -4.680  -2.975  1.00  0.00     0.056 C 
BRANCH  29  32
ATOM     32  C   UNL     1      -0.081  -4.520  -3.029  1.00  0.00     0.171 C 
BRANCH  32  33
ATOM     33  N   UNL     1      -0.433  -5.865  -3.455  1.00  0.00    -0.342 N 
ATOM     34  C   UNL     1      -1.628  -6.158  -4.068  1.00  0.00     0.246 CG0
ATOM     35  O   UNL     1      -2.498  -5.317  -4.279  1.00  0.00    -0.273 OA
ATOM     36  H   UNL     1       0.184  -6.650  -3.279  1.00  0.00     0.164 HD
ATOM     37  G   UNL     1      -1.782  -7.628  -4.494  1.00  0.00     0.000 G0
ENDBRANCH  32  33
BRANCH  32  38
ATOM     38  C   UNL     1      -0.107  -4.359  -1.486  1.00  0.00     0.017 C 
ATOM     39  C   UNL     1      -0.542  -2.936  -1.112  1.00  0.00     0.010 C 
BRANCH  38  40
ATOM     40  C   UNL     1      -0.980  -5.424  -0.784  1.00  0.00     0.002 C 
ATOM     41  C   UNL     1      -2.341  -4.902  -0.342  1.00  0.00     0.004 C 
ENDBRANCH  38  40
ENDBRANCH  32  38
ENDBRANCH  29  32
ENDBRANCH  23  26
ENDBRANCH   1  22
TORSDOF 4
ENDMDL
MODEL 14
REMARK VINA RESULT:    -5.097      2.438      5.191
REMARK INTER + INTRA:         -10.332
REMARK INTER:                  -8.760
REMARK INTRA:                  -1.572
REMARK UNBOUND:                -1.660
REMARK SMILES CC[C@H](C)[C@@H]1NC(=O)[C@H]2CSC(=N2)[C@@H]([C@@H](C)CC)NC(=O)c2csc(n2)CNC(=O)[C@H]2N=C1O[C@@H]2C
REMARK SMILES IDX 27 1 25 2 22 3 26 4 23 5 24 6 20 7 19 8 21 9 14 11 12 12
REMARK SMILES IDX 11 13 10 14 13 15 9 16 15 18 16 19 17 20 18 21 28 22 29 23
REMARK SMILES IDX 30 24 31 26 32 27 35 28 33 29 34 30 36 31 5 32 6 33 7 34
REMARK SMILES IDX 8 35 3 38 4 39 2 40 1 41
REMARK H PARENT 19 10 28 25 6 36
REMARK Flexibility Score:   91.900
ROOT
ATOM      1  C   UNL     1      -3.257  -6.231  -8.442  1.00  0.00     0.183 C 
ENDROOT
BRANCH   1   2
ATOM      2  C   UNL     1      -2.003  -6.731  -9.100  1.00  0.00     0.113 A 
ATOM      3  C   UNL     1       0.170  -7.079  -9.453  1.00  0.00     0.139 A 
ATOM      4  N   UNL     1      -0.803  -6.632  -8.557  1.00  0.00    -0.234 NA
ATOM      5  C   UNL     1      -0.331  -7.565 -10.645  1.00  0.00     0.101 A 
ATOM      6  S   UNL     1      -2.043  -7.441 -10.662  1.00  0.00    -0.125 S 
BRANCH   3   7
ATOM      7  C   UNL     1       1.589  -6.971  -9.108  1.00  0.00     0.271 C 
ATOM      8  N   UNL     1       1.826  -7.362  -7.813  1.00  0.00    -0.341 N 
ATOM      9  O   UNL     1       2.446  -6.551  -9.875  1.00  0.00    -0.267 OA
ATOM     10  H   UNL     1       1.015  -7.712  -7.303  1.00  0.00     0.164 HD
BRANCH   8  11
ATOM     11  C   UNL     1       3.096  -7.192  -7.128  1.00  0.00     0.140 C 
BRANCH  11  12
ATOM     12  C   UNL     1       2.901  -6.143  -6.030  1.00  0.00     0.091 C 
ATOM     13  S   UNL     1       4.039  -6.017  -4.709  1.00  0.00    -0.106 SA
ATOM     14  C   UNL     1       3.301  -4.449  -4.205  1.00  0.00     0.113 C 
ATOM     15  N   UNL     1       1.861  -5.370  -5.996  1.00  0.00    -0.267 NA
ATOM     16  C   UNL     1       1.887  -4.528  -4.758  1.00  0.00     0.205 CG0
ATOM     17  G   UNL     1       0.919  -5.080  -3.699  1.00  0.00     0.000 G0
ENDBRANCH  11  12
BRANCH  11  18
ATOM     18  C   UNL     1       3.764  -8.523  -6.698  1.00  0.00     0.015 C 
ATOM     19  C   UNL     1       2.745  -9.670  -6.738  1.00  0.00     0.010 C 
BRANCH  18  20
ATOM     20  C   UNL     1       5.047  -8.882  -7.476  1.00  0.00     0.002 C 
ATOM     21  C   UNL     1       5.373  -7.881  -8.578  1.00  0.00     0.004 C 
ENDBRANCH  18  20
ENDBRANCH  11  18
ENDBRANCH   8  11
ENDBRANCH   3   7
ENDBRANCH   1   2
BRANCH   1  22
ATOM     22  N   UNL     1      -3.198  -6.615  -7.049  1.00  0.00    -0.348 N 
ATOM     23  C   UNL     1      -3.955  -6.059  -6.054  1.00  0.00     0.249 C 
ATOM     24  O   UNL     1      -4.831  -5.226  -6.261  1.00  0.00    -0.272 OA
ATOM     25  H   UNL     1      -2.486  -7.286  -6.761  1.00  0.00     0.163 HD
BRANCH  23  26
ATOM     26  C   UNL     1      -3.630  -6.633  -4.667  1.00  0.00     0.238 C 
ATOM     27  N   UNL     1      -2.234  -6.268  -4.299  1.00  0.00    -0.236 NA
ATOM     28  C   UNL     1      -4.507  -6.031  -3.583  1.00  0.00     0.206 C 
ATOM     29  C   UNL     1      -2.395  -5.417  -3.329  1.00  0.00     0.208 C 
ATOM     30  O   UNL     1      -3.648  -5.110  -2.913  1.00  0.00    -0.474 OA
ATOM     31  C   UNL     1      -4.987  -7.069  -2.576  1.00  0.00     0.056 C 
BRANCH  29  32
ATOM     32  C   UNL     1      -1.291  -4.651  -2.606  1.00  0.00     0.171 C 
BRANCH  32  33
ATOM     33  N   UNL     1      -0.223  -4.287  -3.525  1.00  0.00    -0.342 N 
ATOM     34  C   UNL     1       0.899  -5.062  -3.701  1.00  0.00     0.246 CG0
ATOM     35  O   UNL     1       1.099  -6.103  -3.080  1.00  0.00    -0.273 OA
ATOM     36  H   UNL     1      -0.254  -3.418  -4.048  1.00  0.00     0.164 HD
ATOM     37  G   UNL     1       1.878  -4.532  -4.761  1.00  0.00     0.000 G0
ENDBRANCH  32  33
BRANCH  32  38
ATOM     38  C   UNL     1      -1.880  -3.423  -1.864  1.00  0.00     0.017 C 
ATOM     39  C   UNL     1      -1.914  -3.687  -0.353  1.00  0.00     0.010 C 
BRANCH  38  40
ATOM     40  C   UNL     1      -1.139  -2.106  -2.194  1.00  0.00     0.002 C 
ATOM     41  C   UNL     1      -1.907  -0.856  -1.787  1.00  0.00     0.004 C 
ENDBRANCH  38  40
ENDBRANCH  32  38
ENDBRANCH  29  32
ENDBRANCH  23  26
ENDBRANCH   1  22
TORSDOF 4
ENDMDL
MODEL 15
REMARK VINA RESULT:    -5.087      2.287      6.736
REMARK INTER + INTRA:         -10.315
REMARK INTER:                  -8.687
REMARK INTRA:                  -1.627
REMARK UNBOUND:                -1.660
REMARK SMILES CC[C@H](C)[C@@H]1NC(=O)[C@H]2CSC(=N2)[C@@H]([C@@H](C)CC)NC(=O)c2csc(n2)CNC(=O)[C@H]2N=C1O[C@@H]2C
REMARK SMILES IDX 27 1 25 2 22 3 26 4 23 5 24 6 20 7 19 8 21 9 14 11 12 12
REMARK SMILES IDX 11 13 10 14 13 15 9 16 15 18 16 19 17 20 18 21 28 22 29 23
REMARK SMILES IDX 30 24 31 26 32 27 35 28 33 29 34 30 36 31 5 32 6 33 7 34
REMARK SMILES IDX 8 35 3 38 4 39 2 40 1 41
REMARK H PARENT 19 10 28 25 6 36
REMARK Flexibility Score:   91.900
ROOT
ATOM      1  C   UNL     1      -5.173  -5.306  -3.954  1.00  0.00     0.183 C 
ENDROOT
BRANCH   1   2
ATOM      2  C   UNL     1      -4.100  -5.407  -2.908  1.00  0.00     0.113 A 
ATOM      3  C   UNL     1      -2.110  -5.171  -1.933  1.00  0.00     0.139 A 
ATOM      4  N   UNL     1      -2.933  -4.794  -2.995  1.00  0.00    -0.234 NA
ATOM      5  C   UNL     1      -2.703  -6.026  -1.024  1.00  0.00     0.101 A 
ATOM      6  S   UNL     1      -4.308  -6.388  -1.514  1.00  0.00    -0.125 S 
BRANCH   3   7
ATOM      7  C   UNL     1      -0.726  -4.694  -1.873  1.00  0.00     0.271 C 
ATOM      8  N   UNL     1      -0.310  -4.194  -3.082  1.00  0.00    -0.341 N 
ATOM      9  O   UNL     1      -0.024  -4.768  -0.872  1.00  0.00    -0.267 OA
ATOM     10  H   UNL     1      -1.016  -4.177  -3.818  1.00  0.00     0.164 HD
BRANCH   8  11
ATOM     11  C   UNL     1       1.062  -3.822  -3.384  1.00  0.00     0.140 C 
BRANCH  11  12
ATOM     12  C   UNL     1       1.621  -4.847  -4.374  1.00  0.00     0.091 C 
ATOM     13  S   UNL     1       3.014  -4.465  -5.357  1.00  0.00    -0.106 SA
ATOM     14  C   UNL     1       3.159  -6.196  -5.849  1.00  0.00     0.113 C 
ATOM     15  N   UNL     1       1.047  -5.993  -4.573  1.00  0.00    -0.267 NA
ATOM     16  C   UNL     1       1.749  -6.736  -5.666  1.00  0.00     0.205 CG0
ATOM     17  G   UNL     1       0.960  -6.650  -6.983  1.00  0.00     0.000 G0
ENDBRANCH  11  12
BRANCH  11  18
ATOM     18  C   UNL     1       1.240  -2.329  -3.764  1.00  0.00     0.015 C 
ATOM     19  C   UNL     1       0.039  -1.506  -3.280  1.00  0.00     0.010 C 
BRANCH  18  20
ATOM     20  C   UNL     1       2.573  -1.703  -3.307  1.00  0.00     0.002 C 
ATOM     21  C   UNL     1       3.129  -0.691  -4.303  1.00  0.00     0.004 C 
ENDBRANCH  18  20
ENDBRANCH  11  18
ENDBRANCH   8  11
ENDBRANCH   3   7
ENDBRANCH   1   2
BRANCH   1  22
ATOM     22  N   UNL     1      -4.845  -6.247  -5.002  1.00  0.00    -0.348 N 
ATOM     23  C   UNL     1      -5.187  -6.098  -6.318  1.00  0.00     0.249 C 
ATOM     24  O   UNL     1      -5.740  -5.097  -6.760  1.00  0.00    -0.272 OA
ATOM     25  H   UNL     1      -4.403  -7.128  -4.741  1.00  0.00     0.163 HD
BRANCH  23  26
ATOM     26  C   UNL     1      -4.750  -7.288  -7.185  1.00  0.00     0.238 C 
ATOM     27  N   UNL     1      -3.638  -6.862  -8.080  1.00  0.00    -0.236 NA
ATOM     28  C   UNL     1      -4.186  -8.424  -6.349  1.00  0.00     0.206 C 
ATOM     29  C   UNL     1      -2.613  -7.505  -7.608  1.00  0.00     0.208 C 
ATOM     30  O   UNL     1      -2.776  -8.333  -6.547  1.00  0.00    -0.474 OA
ATOM     31  C   UNL     1      -4.656  -9.791  -6.828  1.00  0.00     0.056 C 
BRANCH  29  32
ATOM     32  C   UNL     1      -1.171  -7.392  -8.097  1.00  0.00     0.171 C 
BRANCH  32  33
ATOM     33  N   UNL     1      -0.243  -7.378  -6.977  1.00  0.00    -0.342 N 
ATOM     34  C   UNL     1       0.931  -6.662  -6.997  1.00  0.00     0.246 CG0
ATOM     35  O   UNL     1       1.297  -6.003  -7.966  1.00  0.00    -0.273 OA
ATOM     36  H   UNL     1      -0.415  -7.934  -6.146  1.00  0.00     0.164 HD
ATOM     37  G   UNL     1       1.741  -6.733  -5.692  1.00  0.00     0.000 G0
ENDBRANCH  32  33
BRANCH  32  38
ATOM     38  C   UNL     1      -0.855  -8.517  -9.117  1.00  0.00     0.017 C 
ATOM     39  C   UNL     1      -0.215  -7.921 -10.377  1.00  0.00     0.010 C 
BRANCH  38  40
ATOM     40  C   UNL     1       0.012  -9.648  -8.518  1.00  0.00     0.002 C 
ATOM     41  C   UNL     1       1.307  -9.893  -9.283  1.00  0.00     0.004 C 
ENDBRANCH  38  40
ENDBRANCH  32  38
ENDBRANCH  29  32
ENDBRANCH  23  26
ENDBRANCH   1  22
TORSDOF 4
ENDMDL
MODEL 16
REMARK VINA RESULT:    -5.042      2.799      6.415
REMARK INTER + INTRA:         -10.239
REMARK INTER:                  -9.213
REMARK INTRA:                  -1.026
REMARK UNBOUND:                -1.660
REMARK SMILES CC[C@H](C)[C@@H]1NC(=O)[C@H]2CSC(=N2)[C@@H]([C@@H](C)CC)NC(=O)c2csc(n2)CNC(=O)[C@H]2N=C1O[C@@H]2C
REMARK SMILES IDX 27 1 25 2 22 3 26 4 23 5 24 6 20 7 19 8 21 9 14 11 12 12
REMARK SMILES IDX 11 13 10 14 13 15 9 16 15 18 16 19 17 20 18 21 28 22 29 23
REMARK SMILES IDX 30 24 31 26 32 27 35 28 33 29 34 30 36 31 5 32 6 33 7 34
REMARK SMILES IDX 8 35 3 38 4 39 2 40 1 41
REMARK H PARENT 19 10 28 25 6 36
REMARK Flexibility Score:   91.900
ROOT
ATOM      1  C   UNL     1      -1.857  -2.244  -1.024  1.00  0.00     0.183 C 
ENDROOT
BRANCH   1   2
ATOM      2  C   UNL     1      -0.809  -2.356  -2.093  1.00  0.00     0.113 A 
ATOM      3  C   UNL     1       0.789  -3.255  -3.360  1.00  0.00     0.139 A 
ATOM      4  N   UNL     1      -0.215  -3.490  -2.419  1.00  0.00    -0.234 NA
ATOM      5  C   UNL     1       0.892  -1.941  -3.772  1.00  0.00     0.101 A 
ATOM      6  S   UNL     1      -0.266  -0.974  -2.953  1.00  0.00    -0.125 S 
BRANCH   3   7
ATOM      7  C   UNL     1       1.653  -4.353  -3.799  1.00  0.00     0.271 C 
ATOM      8  N   UNL     1       1.877  -4.311  -5.154  1.00  0.00    -0.341 N 
ATOM      9  O   UNL     1       2.090  -5.217  -3.049  1.00  0.00    -0.267 OA
ATOM     10  H   UNL     1       1.466  -3.517  -5.643  1.00  0.00     0.164 HD
BRANCH   8  11
ATOM     11  C   UNL     1       2.537  -5.365  -5.906  1.00  0.00     0.140 C 
BRANCH  11  12
ATOM     12  C   UNL     1       1.495  -6.444  -6.217  1.00  0.00     0.091 C 
ATOM     13  S   UNL     1       0.860  -6.624  -7.835  1.00  0.00    -0.106 SA
ATOM     14  C   UNL     1       0.101  -8.197  -7.376  1.00  0.00     0.113 C 
ATOM     15  N   UNL     1       0.996  -7.203  -5.293  1.00  0.00    -0.267 NA
ATOM     16  C   UNL     1      -0.070  -8.082  -5.869  1.00  0.00     0.205 CG0
ATOM     17  G   UNL     1      -1.468  -7.549  -5.519  1.00  0.00     0.000 G0
ENDBRANCH  11  12
BRANCH  11  18
ATOM     18  C   UNL     1       3.376  -4.853  -7.104  1.00  0.00     0.015 C 
ATOM     19  C   UNL     1       3.884  -3.430  -6.833  1.00  0.00     0.010 C 
BRANCH  18  20
ATOM     20  C   UNL     1       4.525  -5.788  -7.534  1.00  0.00     0.002 C 
ATOM     21  C   UNL     1       4.827  -5.714  -9.027  1.00  0.00     0.004 C 
ENDBRANCH  18  20
ENDBRANCH  11  18
ENDBRANCH   8  11
ENDBRANCH   3   7
ENDBRANCH   1   2
BRANCH   1  22
ATOM     22  N   UNL     1      -2.513  -3.529  -0.924  1.00  0.00    -0.348 N 
ATOM     23  C   UNL     1      -2.127  -4.538  -0.084  1.00  0.00     0.249 C 
ATOM     24  O   UNL     1      -1.226  -4.419   0.740  1.00  0.00    -0.272 OA
ATOM     25  H   UNL     1      -3.263  -3.742  -1.580  1.00  0.00     0.163 HD
BRANCH  23  26
ATOM     26  C   UNL     1      -2.981  -5.804  -0.242  1.00  0.00     0.238 C 
ATOM     27  N   UNL     1      -3.576  -5.828  -1.607  1.00  0.00    -0.236 NA
ATOM     28  C   UNL     1      -2.147  -7.069  -0.141  1.00  0.00     0.206 C 
ATOM     29  C   UNL     1      -2.953  -6.810  -2.187  1.00  0.00     0.208 C 
ATOM     30  O   UNL     1      -2.029  -7.516  -1.491  1.00  0.00    -0.474 OA
ATOM     31  C   UNL     1      -2.833  -8.158   0.674  1.00  0.00     0.056 C 
BRANCH  29  32
ATOM     32  C   UNL     1      -3.111  -7.249  -3.640  1.00  0.00     0.171 C 
BRANCH  32  33
ATOM     33  N   UNL     1      -1.844  -7.718  -4.181  1.00  0.00    -0.342 N 
ATOM     34  C   UNL     1      -1.497  -7.556  -5.501  1.00  0.00     0.246 CG0
ATOM     35  O   UNL     1      -2.237  -7.030  -6.329  1.00  0.00    -0.273 OA
ATOM     36  H   UNL     1      -1.181  -8.220  -3.601  1.00  0.00     0.164 HD
ATOM     37  G   UNL     1      -0.092  -8.069  -5.857  1.00  0.00     0.000 G0
ENDBRANCH  32  33
BRANCH  32  38
ATOM     38  C   UNL     1      -4.240  -8.305  -3.769  1.00  0.00     0.017 C 
ATOM     39  C   UNL     1      -3.730  -9.679  -3.318  1.00  0.00     0.010 C 
BRANCH  38  40
ATOM     40  C   UNL     1      -5.530  -7.902  -3.018  1.00  0.00     0.002 C 
ATOM     41  C   UNL     1      -6.795  -8.062  -3.851  1.00  0.00     0.004 C 
ENDBRANCH  38  40
ENDBRANCH  32  38
ENDBRANCH  29  32
ENDBRANCH  23  26
ENDBRANCH   1  22
TORSDOF 4
ENDMDL
MODEL 17
REMARK VINA RESULT:    -5.035      3.199      6.789
REMARK INTER + INTRA:         -10.227
REMARK INTER:                  -8.816
REMARK INTRA:                  -1.411
REMARK UNBOUND:                -1.660
REMARK SMILES CC[C@H](C)[C@@H]1NC(=O)[C@H]2CSC(=N2)[C@@H]([C@@H](C)CC)NC(=O)c2csc(n2)CNC(=O)[C@H]2N=C1O[C@@H]2C
REMARK SMILES IDX 27 1 25 2 22 3 26 4 23 5 24 6 20 7 19 8 21 9 14 11 12 12
REMARK SMILES IDX 11 13 10 14 13 15 9 16 15 18 16 19 17 20 18 21 28 22 29 23
REMARK SMILES IDX 30 24 31 26 32 27 35 28 33 29 34 30 36 31 5 32 6 33 7 34
REMARK SMILES IDX 8 35 3 38 4 39 2 40 1 41
REMARK H PARENT 19 10 28 25 6 36
REMARK Flexibility Score:   91.900
ROOT
ATOM      1  C   UNL     1      -2.202  -4.687  -1.451  1.00  0.00     0.183 C 
ENDROOT
BRANCH   1   2
ATOM      2  C   UNL     1      -1.009  -4.686  -2.364  1.00  0.00     0.113 A 
ATOM      3  C   UNL     1       0.567  -5.459  -3.736  1.00  0.00     0.139 A 
ATOM      4  N   UNL     1      -0.636  -5.730  -3.081  1.00  0.00    -0.234 NA
ATOM      5  C   UNL     1       1.050  -4.180  -3.540  1.00  0.00     0.101 A 
ATOM      6  S   UNL     1       0.000  -3.305  -2.502  1.00  0.00    -0.125 S 
BRANCH   3   7
ATOM      7  C   UNL     1       1.229  -6.508  -4.515  1.00  0.00     0.271 C 
ATOM      8  N   UNL     1       1.102  -6.291  -5.865  1.00  0.00    -0.341 N 
ATOM      9  O   UNL     1       1.793  -7.473  -4.016  1.00  0.00    -0.267 OA
ATOM     10  H   UNL     1       0.625  -5.430  -6.130  1.00  0.00     0.164 HD
BRANCH   8  11
ATOM     11  C   UNL     1       1.490  -7.250  -6.887  1.00  0.00     0.140 C 
BRANCH  11  12
ATOM     12  C   UNL     1       0.248  -7.573  -7.723  1.00  0.00     0.091 C 
ATOM     13  S   UNL     1       0.279  -7.399  -9.462  1.00  0.00    -0.106 SA
ATOM     14  C   UNL     1      -1.294  -8.276  -9.591  1.00  0.00     0.113 C 
ATOM     15  N   UNL     1      -0.878  -7.911  -7.178  1.00  0.00    -0.267 NA
ATOM     16  C   UNL     1      -1.934  -8.060  -8.228  1.00  0.00     0.205 CG0
ATOM     17  G   UNL     1      -2.860  -6.833  -8.252  1.00  0.00     0.000 G0
ENDBRANCH  11  12
BRANCH  11  18
ATOM     18  C   UNL     1       2.765  -6.852  -7.673  1.00  0.00     0.015 C 
ATOM     19  C   UNL     1       3.056  -5.355  -7.500  1.00  0.00     0.010 C 
BRANCH  18  20
ATOM     20  C   UNL     1       4.009  -7.707  -7.358  1.00  0.00     0.002 C 
ATOM     21  C   UNL     1       5.254  -7.246  -8.108  1.00  0.00     0.004 C 
ENDBRANCH  18  20
ENDBRANCH  11  18
ENDBRANCH   8  11
ENDBRANCH   3   7
ENDBRANCH   1   2
BRANCH   1  22
ATOM     22  N   UNL     1      -3.379  -4.539  -2.278  1.00  0.00    -0.348 N 
ATOM     23  C   UNL     1      -4.196  -5.567  -2.663  1.00  0.00     0.249 C 
ATOM     24  O   UNL     1      -4.056  -6.720  -2.271  1.00  0.00    -0.272 OA
ATOM     25  H   UNL     1      -3.578  -3.623  -2.678  1.00  0.00     0.163 HD
BRANCH  23  26
ATOM     26  C   UNL     1      -5.336  -5.108  -3.586  1.00  0.00     0.238 C 
ATOM     27  N   UNL     1      -4.774  -4.743  -4.916  1.00  0.00    -0.236 NA
ATOM     28  C   UNL     1      -6.331  -6.223  -3.857  1.00  0.00     0.206 C 
ATOM     29  C   UNL     1      -5.224  -5.680  -5.696  1.00  0.00     0.208 C 
ATOM     30  O   UNL     1      -6.024  -6.647  -5.184  1.00  0.00    -0.474 OA
ATOM     31  C   UNL     1      -7.775  -5.738  -3.824  1.00  0.00     0.056 C 
BRANCH  29  32
ATOM     32  C   UNL     1      -4.903  -5.855  -7.178  1.00  0.00     0.171 C 
BRANCH  32  33
ATOM     33  N   UNL     1      -3.945  -6.931  -7.378  1.00  0.00    -0.342 N 
ATOM     34  C   UNL     1      -2.884  -6.827  -8.245  1.00  0.00     0.246 CG0
ATOM     35  O   UNL     1      -2.677  -5.832  -8.934  1.00  0.00    -0.273 OA
ATOM     36  H   UNL     1      -4.051  -7.822  -6.905  1.00  0.00     0.164 HD
ATOM     37  G   UNL     1      -1.956  -8.053  -8.266  1.00  0.00     0.000 G0
ENDBRANCH  32  33
BRANCH  32  38
ATOM     38  C   UNL     1      -6.206  -6.058  -7.996  1.00  0.00     0.017 C 
ATOM     39  C   UNL     1      -7.224  -4.966  -7.644  1.00  0.00     0.010 C 
BRANCH  38  40
ATOM     40  C   UNL     1      -5.955  -6.134  -9.519  1.00  0.00     0.002 C 
ATOM     41  C   UNL     1      -7.231  -6.269 -10.340  1.00  0.00     0.004 C 
ENDBRANCH  38  40
ENDBRANCH  32  38
ENDBRANCH  29  32
ENDBRANCH  23  26
ENDBRANCH   1  22
TORSDOF 4
ENDMDL
MODEL 18
REMARK VINA RESULT:    -5.017     23.041     26.505
REMARK INTER + INTRA:         -10.196
REMARK INTER:                  -8.577
REMARK INTRA:                  -1.618
REMARK UNBOUND:                -1.660
REMARK SMILES CC[C@H](C)[C@@H]1NC(=O)[C@H]2CSC(=N2)[C@@H]([C@@H](C)CC)NC(=O)c2csc(n2)CNC(=O)[C@H]2N=C1O[C@@H]2C
REMARK SMILES IDX 27 1 25 2 22 3 26 4 23 5 24 6 20 7 19 8 21 9 14 11 12 12
REMARK SMILES IDX 11 13 10 14 13 15 9 16 15 18 16 19 17 20 18 21 28 22 29 23
REMARK SMILES IDX 30 24 31 26 32 27 35 28 33 29 34 30 36 31 5 32 6 33 7 34
REMARK SMILES IDX 8 35 3 38 4 39 2 40 1 41
REMARK H PARENT 19 10 28 25 6 36
REMARK Flexibility Score:   91.900
ROOT
ATOM      1  C   UNL     1     -14.157   9.489  -3.850  1.00  0.00     0.183 C 
ENDROOT
BRANCH   1   2
ATOM      2  C   UNL     1     -13.422  10.707  -4.333  1.00  0.00     0.113 A 
ATOM      3  C   UNL     1     -12.672  12.805  -4.388  1.00  0.00     0.139 A 
ATOM      4  N   UNL     1     -13.307  11.818  -3.630  1.00  0.00    -0.234 NA
ATOM      5  C   UNL     1     -12.266  12.390  -5.641  1.00  0.00     0.101 A 
ATOM      6  S   UNL     1     -12.704  10.749  -5.892  1.00  0.00    -0.125 S 
BRANCH   3   7
ATOM      7  C   UNL     1     -12.521  14.158  -3.851  1.00  0.00     0.271 C 
ATOM      8  N   UNL     1     -13.508  14.455  -2.943  1.00  0.00    -0.341 N 
ATOM      9  O   UNL     1     -11.641  14.935  -4.200  1.00  0.00    -0.267 OA
ATOM     10  H   UNL     1     -14.158  13.698  -2.735  1.00  0.00     0.164 HD
BRANCH   8  11
ATOM     11  C   UNL     1     -13.732  15.778  -2.382  1.00  0.00     0.140 C 
BRANCH  11  12
ATOM     12  C   UNL     1     -15.241  16.038  -2.380  1.00  0.00     0.091 C 
ATOM     13  S   UNL     1     -15.923  17.299  -1.380  1.00  0.00    -0.106 SA
ATOM     14  C   UNL     1     -17.504  17.141  -2.237  1.00  0.00     0.113 C 
ATOM     15  N   UNL     1     -16.066  15.298  -3.052  1.00  0.00    -0.267 NA
ATOM     16  C   UNL     1     -17.475  15.719  -2.775  1.00  0.00     0.205 CG0
ATOM     17  G   UNL     1     -18.154  14.751  -1.792  1.00  0.00     0.000 G0
ENDBRANCH  11  12
BRANCH  11  18
ATOM     18  C   UNL     1     -12.987  16.030  -1.046  1.00  0.00     0.015 C 
ATOM     19  C   UNL     1     -12.950  14.748  -0.203  1.00  0.00     0.010 C 
BRANCH  18  20
ATOM     20  C   UNL     1     -11.581  16.645  -1.197  1.00  0.00     0.002 C 
ATOM     21  C   UNL     1     -10.591  16.130  -0.159  1.00  0.00     0.004 C 
ENDBRANCH  18  20
ENDBRANCH  11  18
ENDBRANCH   8  11
ENDBRANCH   3   7
ENDBRANCH   1   2
BRANCH   1  22
ATOM     22  N   UNL     1     -14.931   9.882  -2.693  1.00  0.00    -0.348 N 
ATOM     23  C   UNL     1     -16.201   9.451  -2.422  1.00  0.00     0.249 C 
ATOM     24  O   UNL     1     -16.785   8.612  -3.099  1.00  0.00    -0.272 OA
ATOM     25  H   UNL     1     -14.548  10.595  -2.073  1.00  0.00     0.163 HD
BRANCH  23  26
ATOM     26  C   UNL     1     -16.786  10.084  -1.150  1.00  0.00     0.238 C 
ATOM     27  N   UNL     1     -17.189  11.488  -1.442  1.00  0.00    -0.236 NA
ATOM     28  C   UNL     1     -18.054   9.382  -0.697  1.00  0.00     0.206 C 
ATOM     29  C   UNL     1     -18.487  11.442  -1.384  1.00  0.00     0.208 C 
ATOM     30  O   UNL     1     -19.100  10.270  -1.087  1.00  0.00    -0.474 OA
ATOM     31  C   UNL     1     -18.112   9.196   0.813  1.00  0.00     0.056 C 
BRANCH  29  32
ATOM     32  C   UNL     1     -19.446  12.593  -1.674  1.00  0.00     0.171 C 
BRANCH  32  33
ATOM     33  N   UNL     1     -18.777  13.654  -2.412  1.00  0.00    -0.342 N 
ATOM     34  C   UNL     1     -18.191  14.732  -1.793  1.00  0.00     0.246 CG0
ATOM     35  O   UNL     1     -18.210  14.897  -0.575  1.00  0.00    -0.273 OA
ATOM     36  H   UNL     1     -18.751  13.651  -3.426  1.00  0.00     0.164 HD
ATOM     37  G   UNL     1     -17.485  15.709  -2.747  1.00  0.00     0.000 G0
ENDBRANCH  32  33
BRANCH  32  38
ATOM     38  C   UNL     1     -20.714  12.073  -2.401  1.00  0.00     0.017 C 
ATOM     39  C   UNL     1     -21.755  13.194  -2.511  1.00  0.00     0.010 C 
BRANCH  38  40
ATOM     40  C   UNL     1     -20.405  11.446  -3.779  1.00  0.00     0.002 C 
ATOM     41  C   UNL     1     -21.399  10.370  -4.197  1.00  0.00     0.004 C 
ENDBRANCH  38  40
ENDBRANCH  32  38
ENDBRANCH  29  32
ENDBRANCH  23  26
ENDBRANCH   1  22
TORSDOF 4
ENDMDL
MODEL 19
REMARK VINA RESULT:    -5.014      4.894      8.685
REMARK INTER + INTRA:         -10.191
REMARK INTER:                  -8.712
REMARK INTRA:                  -1.479
REMARK UNBOUND:                -1.660
REMARK SMILES CC[C@H](C)[C@@H]1NC(=O)[C@H]2CSC(=N2)[C@@H]([C@@H](C)CC)NC(=O)c2csc(n2)CNC(=O)[C@H]2N=C1O[C@@H]2C
REMARK SMILES IDX 27 1 25 2 22 3 26 4 23 5 24 6 20 7 19 8 21 9 14 11 12 12
REMARK SMILES IDX 11 13 10 14 13 15 9 16 15 18 16 19 17 20 18 21 28 22 29 23
REMARK SMILES IDX 30 24 31 26 32 27 35 28 33 29 34 30 36 31 5 32 6 33 7 34
REMARK SMILES IDX 8 35 3 38 4 39 2 40 1 41
REMARK H PARENT 19 10 28 25 6 36
REMARK Flexibility Score:   91.900
ROOT
ATOM      1  C   UNL     1      -8.196  -5.550  -4.398  1.00  0.00     0.183 C 
ENDROOT
BRANCH   1   2
ATOM      2  C   UNL     1      -8.094  -6.394  -3.160  1.00  0.00     0.113 A 
ATOM      3  C   UNL     1      -7.191  -7.378  -1.376  1.00  0.00     0.139 A 
ATOM      4  N   UNL     1      -7.032  -6.417  -2.376  1.00  0.00    -0.234 NA
ATOM      5  C   UNL     1      -8.410  -8.027  -1.395  1.00  0.00     0.101 A 
ATOM      6  S   UNL     1      -9.367  -7.448  -2.696  1.00  0.00    -0.125 S 
BRANCH   3   7
ATOM      7  C   UNL     1      -6.096  -7.654  -0.443  1.00  0.00     0.271 C 
ATOM      8  N   UNL     1      -5.043  -6.791  -0.629  1.00  0.00    -0.341 N 
ATOM      9  O   UNL     1      -6.112  -8.565   0.375  1.00  0.00    -0.267 OA
ATOM     10  H   UNL     1      -5.186  -6.068  -1.334  1.00  0.00     0.164 HD
BRANCH   8  11
ATOM     11  C   UNL     1      -3.748  -6.932   0.014  1.00  0.00     0.140 C 
BRANCH  11  12
ATOM     12  C   UNL     1      -2.669  -6.642  -1.033  1.00  0.00     0.091 C 
ATOM     13  S   UNL     1      -2.571  -5.071  -1.794  1.00  0.00    -0.106 SA
ATOM     14  C   UNL     1      -0.959  -5.495  -2.490  1.00  0.00     0.113 C 
ATOM     15  N   UNL     1      -1.847  -7.556  -1.444  1.00  0.00    -0.267 NA
ATOM     16  C   UNL     1      -0.983  -7.015  -2.540  1.00  0.00     0.205 CG0
ATOM     17  G   UNL     1      -1.467  -7.506  -3.914  1.00  0.00     0.000 G0
ENDBRANCH  11  12
BRANCH  11  18
ATOM     18  C   UNL     1      -3.625  -6.170   1.359  1.00  0.00     0.015 C 
ATOM     19  C   UNL     1      -4.256  -6.986   2.495  1.00  0.00     0.010 C 
BRANCH  18  20
ATOM     20  C   UNL     1      -2.195  -5.718   1.716  1.00  0.00     0.002 C 
ATOM     21  C   UNL     1      -2.155  -4.735   2.881  1.00  0.00     0.004 C 
ENDBRANCH  18  20
ENDBRANCH  11  18
ENDBRANCH   8  11
ENDBRANCH   3   7
ENDBRANCH   1   2
BRANCH   1  22
ATOM     22  N   UNL     1      -6.971  -5.729  -5.146  1.00  0.00    -0.348 N 
ATOM     23  C   UNL     1      -6.238  -4.712  -5.694  1.00  0.00     0.249 C 
ATOM     24  O   UNL     1      -6.506  -3.526  -5.532  1.00  0.00    -0.272 OA
ATOM     25  H   UNL     1      -6.668  -6.678  -5.359  1.00  0.00     0.163 HD
BRANCH  23  26
ATOM     26  C   UNL     1      -5.017  -5.215  -6.478  1.00  0.00     0.238 C 
ATOM     27  N   UNL     1      -4.072  -5.883  -5.541  1.00  0.00    -0.236 NA
ATOM     28  C   UNL     1      -5.393  -6.274  -7.500  1.00  0.00     0.206 C 
ATOM     29  C   UNL     1      -4.149  -7.135  -5.883  1.00  0.00     0.208 C 
ATOM     30  O   UNL     1      -4.960  -7.497  -6.907  1.00  0.00    -0.474 OA
ATOM     31  C   UNL     1      -4.666  -6.092  -8.826  1.00  0.00     0.056 C 
BRANCH  29  32
ATOM     32  C   UNL     1      -3.440  -8.303  -5.203  1.00  0.00     0.171 C 
BRANCH  32  33
ATOM     33  N   UNL     1      -2.785  -7.872  -3.978  1.00  0.00    -0.342 N 
ATOM     34  C   UNL     1      -1.461  -7.505  -3.936  1.00  0.00     0.246 CG0
ATOM     35  O   UNL     1      -0.725  -7.538  -4.918  1.00  0.00    -0.273 OA
ATOM     36  H   UNL     1      -3.281  -7.862  -3.094  1.00  0.00     0.164 HD
ATOM     37  G   UNL     1      -0.977  -7.025  -2.558  1.00  0.00     0.000 G0
ENDBRANCH  32  33
BRANCH  32  38
ATOM     38  C   UNL     1      -4.429  -9.475  -4.968  1.00  0.00     0.017 C 
ATOM     39  C   UNL     1      -3.907 -10.749  -5.644  1.00  0.00     0.010 C 
BRANCH  38  40
ATOM     40  C   UNL     1      -4.739  -9.711  -3.472  1.00  0.00     0.002 C 
ATOM     41  C   UNL     1      -5.744 -10.828  -3.226  1.00  0.00     0.004 C 
ENDBRANCH  38  40
ENDBRANCH  32  38
ENDBRANCH  29  32
ENDBRANCH  23  26
ENDBRANCH   1  22
TORSDOF 4
ENDMDL
MODEL 20
REMARK VINA RESULT:    -4.976      2.718      6.509
REMARK INTER + INTRA:         -10.126
REMARK INTER:                  -8.967
REMARK INTRA:                  -1.158
REMARK UNBOUND:                -1.660
REMARK SMILES CC[C@H](C)[C@@H]1NC(=O)[C@H]2CSC(=N2)[C@@H]([C@@H](C)CC)NC(=O)c2csc(n2)CNC(=O)[C@H]2N=C1O[C@@H]2C
REMARK SMILES IDX 27 1 25 2 22 3 26 4 23 5 24 6 20 7 19 8 21 9 14 11 12 12
REMARK SMILES IDX 11 13 10 14 13 15 9 16 15 18 16 19 17 20 18 21 28 22 29 23
REMARK SMILES IDX 30 24 31 26 32 27 35 28 33 29 34 30 36 31 5 32 6 33 7 34
REMARK SMILES IDX 8 35 3 38 4 39 2 40 1 41
REMARK H PARENT 19 10 28 25 6 36
REMARK Flexibility Score:   91.900
ROOT
ATOM      1  C   UNL     1      -0.301  -1.696  -3.178  1.00  0.00     0.183 C 
ENDROOT
BRANCH   1   2
ATOM      2  C   UNL     1       1.056  -2.311  -3.369  1.00  0.00     0.113 A 
ATOM      3  C   UNL     1       2.626  -3.881  -3.556  1.00  0.00     0.139 A 
ATOM      4  N   UNL     1       1.257  -3.607  -3.514  1.00  0.00    -0.234 NA
ATOM      5  C   UNL     1       3.435  -2.763  -3.498  1.00  0.00     0.101 A 
ATOM      6  S   UNL     1       2.476  -1.346  -3.364  1.00  0.00    -0.125 S 
BRANCH   3   7
ATOM      7  C   UNL     1       3.095  -5.268  -3.613  1.00  0.00     0.271 C 
ATOM      8  N   UNL     1       2.713  -5.883  -4.780  1.00  0.00    -0.341 N 
ATOM      9  O   UNL     1       3.719  -5.813  -2.712  1.00  0.00    -0.267 OA
ATOM     10  H   UNL     1       2.217  -5.293  -5.447  1.00  0.00     0.164 HD
BRANCH   8  11
ATOM     11  C   UNL     1       2.868  -7.304  -5.043  1.00  0.00     0.140 C 
BRANCH  11  12
ATOM     12  C   UNL     1       1.670  -7.760  -5.881  1.00  0.00     0.091 C 
ATOM     13  S   UNL     1       1.560  -7.342  -7.574  1.00  0.00    -0.106 SA
ATOM     14  C   UNL     1       0.193  -8.503  -7.785  1.00  0.00     0.113 C 
ATOM     15  N   UNL     1       0.670  -8.399  -5.358  1.00  0.00    -0.267 NA
ATOM     16  C   UNL     1      -0.395  -8.617  -6.388  1.00  0.00     0.205 CG0
ATOM     17  G   UNL     1      -1.550  -7.620  -6.201  1.00  0.00     0.000 G0
ENDBRANCH  11  12
BRANCH  11  18
ATOM     18  C   UNL     1       4.270  -7.697  -5.575  1.00  0.00     0.015 C 
ATOM     19  C   UNL     1       4.975  -6.476  -6.181  1.00  0.00     0.010 C 
BRANCH  18  20
ATOM     20  C   UNL     1       5.170  -8.416  -4.549  1.00  0.00     0.002 C 
ATOM     21  C   UNL     1       6.363  -7.574  -4.110  1.00  0.00     0.004 C 
ENDBRANCH  18  20
ENDBRANCH  11  18
ENDBRANCH   8  11
ENDBRANCH   3   7
ENDBRANCH   1   2
BRANCH   1  22
ATOM     22  N   UNL     1      -1.206  -2.755  -2.792  1.00  0.00    -0.348 N 
ATOM     23  C   UNL     1      -1.350  -3.232  -1.517  1.00  0.00     0.249 C 
ATOM     24  O   UNL     1      -0.780  -2.743  -0.548  1.00  0.00    -0.272 OA
ATOM     25  H   UNL     1      -1.715  -3.248  -3.525  1.00  0.00     0.163 HD
BRANCH  23  26
ATOM     26  C   UNL     1      -2.346  -4.398  -1.427  1.00  0.00     0.238 C 
ATOM     27  N   UNL     1      -3.032  -4.561  -2.739  1.00  0.00    -0.236 NA
ATOM     28  C   UNL     1      -1.648  -5.722  -1.166  1.00  0.00     0.206 C 
ATOM     29  C   UNL     1      -2.560  -5.687  -3.184  1.00  0.00     0.208 C 
ATOM     30  O   UNL     1      -1.672  -6.382  -2.431  1.00  0.00    -0.474 OA
ATOM     31  C   UNL     1      -2.391  -6.584  -0.154  1.00  0.00     0.056 C 
BRANCH  29  32
ATOM     32  C   UNL     1      -2.863  -6.322  -4.538  1.00  0.00     0.171 C 
BRANCH  32  33
ATOM     33  N   UNL     1      -1.834  -7.284  -4.902  1.00  0.00    -0.342 N 
ATOM     34  C   UNL     1      -1.562  -7.619  -6.207  1.00  0.00     0.246 CG0
ATOM     35  O   UNL     1      -2.181  -7.155  -7.161  1.00  0.00    -0.273 OA
ATOM     36  H   UNL     1      -1.300  -7.774  -4.193  1.00  0.00     0.164 HD
ATOM     37  G   UNL     1      -0.399  -8.609  -6.381  1.00  0.00     0.000 G0
ENDBRANCH  32  33
BRANCH  32  38
ATOM     38  C   UNL     1      -4.285  -6.944  -4.540  1.00  0.00     0.017 C 
ATOM     39  C   UNL     1      -5.046  -6.514  -5.800  1.00  0.00     0.010 C 
BRANCH  38  40
ATOM     40  C   UNL     1      -4.271  -8.481  -4.379  1.00  0.00     0.002 C 
ATOM     41  C   UNL     1      -5.614  -9.137  -4.672  1.00  0.00     0.004 C 
ENDBRANCH  38  40
ENDBRANCH  32  38
ENDBRANCH  29  32
ENDBRANCH  23  26
ENDBRANCH   1  22
TORSDOF 4
ENDMDL
MODEL 21
REMARK VINA RESULT:    -4.948      2.585      6.578
REMARK INTER + INTRA:         -10.079
REMARK INTER:                  -8.801
REMARK INTRA:                  -1.278
REMARK UNBOUND:                -1.660
REMARK SMILES CC[C@H](C)[C@@H]1NC(=O)[C@H]2CSC(=N2)[C@@H]([C@@H](C)CC)NC(=O)c2csc(n2)CNC(=O)[C@H]2N=C1O[C@@H]2C
REMARK SMILES IDX 27 1 25 2 22 3 26 4 23 5 24 6 20 7 19 8 21 9 14 11 12 12
REMARK SMILES IDX 11 13 10 14 13 15 9 16 15 18 16 19 17 20 18 21 28 22 29 23
REMARK SMILES IDX 30 24 31 26 32 27 35 28 33 29 34 30 36 31 5 32 6 33 7 34
REMARK SMILES IDX 8 35 3 38 4 39 2 40 1 41
REMARK H PARENT 19 10 28 25 6 36
REMARK Flexibility Score:   91.900
ROOT
ATOM      1  C   UNL     1      -2.108  -3.697  -2.099  1.00  0.00     0.183 C 
ENDROOT
BRANCH   1   2
ATOM      2  C   UNL     1      -0.814  -3.771  -2.857  1.00  0.00     0.113 A 
ATOM      3  C   UNL     1       1.003  -4.651  -3.801  1.00  0.00     0.139 A 
ATOM      4  N   UNL     1      -0.239  -4.905  -3.213  1.00  0.00    -0.234 NA
ATOM      5  C   UNL     1       1.312  -3.312  -3.929  1.00  0.00     0.101 A 
ATOM      6  S   UNL     1       0.046  -2.348  -3.284  1.00  0.00    -0.125 S 
BRANCH   3   7
ATOM      7  C   UNL     1       1.872  -5.765  -4.187  1.00  0.00     0.271 C 
ATOM      8  N   UNL     1       1.998  -5.859  -5.551  1.00  0.00    -0.341 N 
ATOM      9  O   UNL     1       2.389  -6.534  -3.386  1.00  0.00    -0.267 OA
ATOM     10  H   UNL     1       1.526  -5.132  -6.088  1.00  0.00     0.164 HD
BRANCH   8  11
ATOM     11  C   UNL     1       2.640  -6.968  -6.238  1.00  0.00     0.140 C 
BRANCH  11  12
ATOM     12  C   UNL     1       1.716  -7.415  -7.374  1.00  0.00     0.091 C 
ATOM     13  S   UNL     1       1.995  -6.870  -9.012  1.00  0.00    -0.106 SA
ATOM     14  C   UNL     1       0.803  -8.077  -9.630  1.00  0.00     0.113 C 
ATOM     15  N   UNL     1       0.665  -8.142  -7.159  1.00  0.00    -0.267 NA
ATOM     16  C   UNL     1      -0.099  -8.330  -8.432  1.00  0.00     0.205 CG0
ATOM     17  G   UNL     1      -1.330  -7.410  -8.474  1.00  0.00     0.000 G0
ENDBRANCH  11  12
BRANCH  11  18
ATOM     18  C   UNL     1       4.120  -6.703  -6.616  1.00  0.00     0.015 C 
ATOM     19  C   UNL     1       4.408  -5.196  -6.623  1.00  0.00     0.010 C 
BRANCH  18  20
ATOM     20  C   UNL     1       5.151  -7.470  -5.764  1.00  0.00     0.002 C 
ATOM     21  C   UNL     1       5.697  -6.645  -4.605  1.00  0.00     0.004 C 
ENDBRANCH  18  20
ENDBRANCH  11  18
ENDBRANCH   8  11
ENDBRANCH   3   7
ENDBRANCH   1   2
BRANCH   1  22
ATOM     22  N   UNL     1      -3.095  -4.436  -2.854  1.00  0.00    -0.348 N 
ATOM     23  C   UNL     1      -3.397  -5.757  -2.660  1.00  0.00     0.249 C 
ATOM     24  O   UNL     1      -2.913  -6.432  -1.758  1.00  0.00    -0.272 OA
ATOM     25  H   UNL     1      -3.544  -3.976  -3.645  1.00  0.00     0.163 HD
BRANCH  23  26
ATOM     26  C   UNL     1      -4.447  -6.280  -3.652  1.00  0.00     0.238 C 
ATOM     27  N   UNL     1      -4.199  -5.678  -4.992  1.00  0.00    -0.236 NA
ATOM     28  C   UNL     1      -4.340  -7.782  -3.855  1.00  0.00     0.206 C 
ATOM     29  C   UNL     1      -3.792  -6.689  -5.701  1.00  0.00     0.208 C 
ATOM     30  O   UNL     1      -3.715  -7.916  -5.130  1.00  0.00    -0.474 OA
ATOM     31  C   UNL     1      -5.701  -8.463  -3.906  1.00  0.00     0.056 C 
BRANCH  29  32
ATOM     32  C   UNL     1      -3.320  -6.644  -7.152  1.00  0.00     0.171 C 
BRANCH  32  33
ATOM     33  N   UNL     1      -2.157  -7.495  -7.346  1.00  0.00    -0.342 N 
ATOM     34  C   UNL     1      -1.348  -7.402  -8.454  1.00  0.00     0.246 CG0
ATOM     35  O   UNL     1      -1.558  -6.615  -9.373  1.00  0.00    -0.273 OA
ATOM     36  H   UNL     1      -1.921  -8.221  -6.679  1.00  0.00     0.164 HD
ATOM     37  G   UNL     1      -0.137  -8.350  -8.439  1.00  0.00     0.000 G0
ENDBRANCH  32  33
BRANCH  32  38
ATOM     38  C   UNL     1      -4.485  -7.001  -8.112  1.00  0.00     0.017 C 
ATOM     39  C   UNL     1      -5.125  -8.330  -7.693  1.00  0.00     0.010 C 
BRANCH  38  40
ATOM     40  C   UNL     1      -5.537  -5.874  -8.228  1.00  0.00     0.002 C 
ATOM     41  C   UNL     1      -6.516  -6.071  -9.378  1.00  0.00     0.004 C 
ENDBRANCH  38  40
ENDBRANCH  32  38
ENDBRANCH  29  32
ENDBRANCH  23  26
ENDBRANCH   1  22
TORSDOF 4
ENDMDL
MODEL 22
REMARK VINA RESULT:    -4.934      5.254      7.295
REMARK INTER + INTRA:         -10.054
REMARK INTER:                  -8.177
REMARK INTRA:                  -1.877
REMARK UNBOUND:                -1.660
REMARK SMILES CC[C@H](C)[C@@H]1NC(=O)[C@H]2CSC(=N2)[C@@H]([C@@H](C)CC)NC(=O)c2csc(n2)CNC(=O)[C@H]2N=C1O[C@@H]2C
REMARK SMILES IDX 27 1 25 2 22 3 26 4 23 5 24 6 20 7 19 8 21 9 14 11 12 12
REMARK SMILES IDX 11 13 10 14 13 15 9 16 15 18 16 19 17 20 18 21 28 22 29 23
REMARK SMILES IDX 30 24 31 26 32 27 35 28 33 29 34 30 36 31 5 32 6 33 7 34
REMARK SMILES IDX 8 35 3 38 4 39 2 40 1 41
REMARK H PARENT 19 10 28 25 6 36
REMARK Flexibility Score:   91.900
ROOT
ATOM      1  C   UNL     1      -6.630  -5.152  -7.333  1.00  0.00     0.183 C 
ENDROOT
BRANCH   1   2
ATOM      2  C   UNL     1      -7.179  -5.416  -8.706  1.00  0.00     0.113 A 
ATOM      3  C   UNL     1      -7.608  -6.494 -10.609  1.00  0.00     0.139 A 
ATOM      4  N   UNL     1      -7.121  -6.591  -9.304  1.00  0.00    -0.234 NA
ATOM      5  C   UNL     1      -8.083  -5.242 -10.949  1.00  0.00     0.101 A 
ATOM      6  S   UNL     1      -7.897  -4.160  -9.630  1.00  0.00    -0.125 S 
BRANCH   3   7
ATOM      7  C   UNL     1      -7.550  -7.653 -11.501  1.00  0.00     0.271 C 
ATOM      8  N   UNL     1      -6.764  -8.652 -10.983  1.00  0.00    -0.341 N 
ATOM      9  O   UNL     1      -8.110  -7.702 -12.590  1.00  0.00    -0.267 OA
ATOM     10  H   UNL     1      -6.383  -8.476 -10.054  1.00  0.00     0.164 HD
BRANCH   8  11
ATOM     11  C   UNL     1      -6.367  -9.843 -11.716  1.00  0.00     0.140 C 
BRANCH  11  12
ATOM     12  C   UNL     1      -4.836  -9.877 -11.763  1.00  0.00     0.091 C 
ATOM     13  S   UNL     1      -3.998 -11.274 -12.395  1.00  0.00    -0.106 SA
ATOM     14  C   UNL     1      -2.447 -10.351 -12.416  1.00  0.00     0.113 C 
ATOM     15  N   UNL     1      -4.113  -8.918 -11.276  1.00  0.00    -0.267 NA
ATOM     16  C   UNL     1      -2.662  -9.273 -11.365  1.00  0.00     0.205 CG0
ATOM     17  G   UNL     1      -2.124  -9.730 -10.000  1.00  0.00     0.000 G0
ENDBRANCH  11  12
BRANCH  11  18
ATOM     18  C   UNL     1      -7.070 -11.140 -11.241  1.00  0.00     0.015 C 
ATOM     19  C   UNL     1      -6.632 -11.494  -9.813  1.00  0.00     0.010 C 
BRANCH  18  20
ATOM     20  C   UNL     1      -8.607 -11.125 -11.371  1.00  0.00     0.002 C 
ATOM     21  C   UNL     1      -9.307 -11.883 -10.249  1.00  0.00     0.004 C 
ENDBRANCH  18  20
ENDBRANCH  11  18
ENDBRANCH   8  11
ENDBRANCH   3   7
ENDBRANCH   1   2
BRANCH   1  22
ATOM     22  N   UNL     1      -6.033  -6.382  -6.863  1.00  0.00    -0.348 N 
ATOM     23  C   UNL     1      -5.117  -6.467  -5.849  1.00  0.00     0.249 C 
ATOM     24  O   UNL     1      -4.771  -5.504  -5.174  1.00  0.00    -0.272 OA
ATOM     25  H   UNL     1      -6.235  -7.244  -7.369  1.00  0.00     0.163 HD
BRANCH  23  26
ATOM     26  C   UNL     1      -4.622  -7.901  -5.612  1.00  0.00     0.238 C 
ATOM     27  N   UNL     1      -4.078  -8.450  -6.886  1.00  0.00    -0.236 NA
ATOM     28  C   UNL     1      -3.469  -7.949  -4.625  1.00  0.00     0.206 C 
ATOM     29  C   UNL     1      -2.802  -8.531  -6.655  1.00  0.00     0.208 C 
ATOM     30  O   UNL     1      -2.320  -8.160  -5.443  1.00  0.00    -0.474 OA
ATOM     31  C   UNL     1      -3.587  -9.108  -3.644  1.00  0.00     0.056 C 
BRANCH  29  32
ATOM     32  C   UNL     1      -1.729  -8.966  -7.649  1.00  0.00     0.171 C 
BRANCH  32  33
ATOM     33  N   UNL     1      -2.166  -8.739  -9.017  1.00  0.00    -0.342 N 
ATOM     34  C   UNL     1      -2.089  -9.708  -9.990  1.00  0.00     0.246 CG0
ATOM     35  O   UNL     1      -1.623 -10.826  -9.786  1.00  0.00    -0.273 OA
ATOM     36  H   UNL     1      -2.513  -7.834  -9.314  1.00  0.00     0.164 HD
ATOM     37  G   UNL     1      -2.657  -9.287 -11.355  1.00  0.00     0.000 G0
ENDBRANCH  32  33
BRANCH  32  38
ATOM     38  C   UNL     1      -0.381  -8.266  -7.332  1.00  0.00     0.017 C 
ATOM     39  C   UNL     1       0.786  -9.227  -7.594  1.00  0.00     0.010 C 
BRANCH  38  40
ATOM     40  C   UNL     1      -0.200  -6.932  -8.091  1.00  0.00     0.002 C 
ATOM     41  C   UNL     1       0.807  -7.011  -9.231  1.00  0.00     0.004 C 
ENDBRANCH  38  40
ENDBRANCH  32  38
ENDBRANCH  29  32
ENDBRANCH  23  26
ENDBRANCH   1  22
TORSDOF 4
ENDMDL
MODEL 23
REMARK VINA RESULT:    -4.877      2.098      6.510
REMARK INTER + INTRA:          -9.959
REMARK INTER:                  -8.554
REMARK INTRA:                  -1.405
REMARK UNBOUND:                -1.660
REMARK SMILES CC[C@H](C)[C@@H]1NC(=O)[C@H]2CSC(=N2)[C@@H]([C@@H](C)CC)NC(=O)c2csc(n2)CNC(=O)[C@H]2N=C1O[C@@H]2C
REMARK SMILES IDX 27 1 25 2 22 3 26 4 23 5 24 6 20 7 19 8 21 9 14 11 12 12
REMARK SMILES IDX 11 13 10 14 13 15 9 16 15 18 16 19 17 20 18 21 28 22 29 23
REMARK SMILES IDX 30 24 31 26 32 27 35 28 33 29 34 30 36 31 5 32 6 33 7 34
REMARK SMILES IDX 8 35 3 38 4 39 2 40 1 41
REMARK H PARENT 19 10 28 25 6 36
REMARK Flexibility Score:   91.900
ROOT
ATOM      1  C   UNL     1      -3.380  -7.150  -6.276  1.00  0.00     0.183 C 
ENDROOT
BRANCH   1   2
ATOM      2  C   UNL     1      -3.102  -7.100  -4.801  1.00  0.00     0.113 A 
ATOM      3  C   UNL     1      -2.201  -6.447  -2.870  1.00  0.00     0.139 A 
ATOM      4  N   UNL     1      -2.376  -6.160  -4.226  1.00  0.00    -0.234 NA
ATOM      5  C   UNL     1      -2.858  -7.582  -2.437  1.00  0.00     0.101 A 
ATOM      6  S   UNL     1      -3.687  -8.321  -3.746  1.00  0.00    -0.125 S 
BRANCH   3   7
ATOM      7  C   UNL     1      -1.344  -5.594  -2.045  1.00  0.00     0.271 C 
ATOM      8  N   UNL     1      -0.556  -4.773  -2.813  1.00  0.00    -0.341 N 
ATOM      9  O   UNL     1      -1.316  -5.638  -0.821  1.00  0.00    -0.267 OA
ATOM     10  H   UNL     1      -0.709  -4.831  -3.820  1.00  0.00     0.164 HD
BRANCH   8  11
ATOM     11  C   UNL     1       0.523  -3.951  -2.290  1.00  0.00     0.140 C 
BRANCH  11  12
ATOM     12  C   UNL     1       1.783  -4.255  -3.106  1.00  0.00     0.091 C 
ATOM     13  S   UNL     1       2.912  -2.981  -3.504  1.00  0.00    -0.106 SA
ATOM     14  C   UNL     1       4.117  -4.205  -4.060  1.00  0.00     0.113 C 
ATOM     15  N   UNL     1       2.020  -5.434  -3.590  1.00  0.00    -0.267 NA
ATOM     16  C   UNL     1       3.259  -5.406  -4.429  1.00  0.00     0.205 CG0
ATOM     17  G   UNL     1       2.909  -5.384  -5.925  1.00  0.00     0.000 G0
ENDBRANCH  11  12
BRANCH  11  18
ATOM     18  C   UNL     1       0.153  -2.455  -2.125  1.00  0.00     0.015 C 
ATOM     19  C   UNL     1      -0.123  -1.818  -3.493  1.00  0.00     0.010 C 
BRANCH  18  20
ATOM     20  C   UNL     1      -0.996  -2.181  -1.133  1.00  0.00     0.002 C 
ATOM     21  C   UNL     1      -1.228  -0.694  -0.888  1.00  0.00     0.004 C 
ENDBRANCH  18  20
ENDBRANCH  11  18
ENDBRANCH   8  11
ENDBRANCH   3   7
ENDBRANCH   1   2
BRANCH   1  22
ATOM     22  N   UNL     1      -2.236  -7.764  -6.912  1.00  0.00    -0.348 N 
ATOM     23  C   UNL     1      -1.933  -7.657  -8.242  1.00  0.00     0.249 C 
ATOM     24  O   UNL     1      -2.564  -6.950  -9.021  1.00  0.00    -0.272 OA
ATOM     25  H   UNL     1      -1.654  -8.393  -6.360  1.00  0.00     0.163 HD
BRANCH  23  26
ATOM     26  C   UNL     1      -0.687  -8.464  -8.636  1.00  0.00     0.238 C 
ATOM     27  N   UNL     1       0.395  -7.528  -9.048  1.00  0.00    -0.236 NA
ATOM     28  C   UNL     1      -0.123  -9.248  -7.463  1.00  0.00     0.206 C 
ATOM     29  C   UNL     1       1.268  -7.643  -8.092  1.00  0.00     0.208 C 
ATOM     30  O   UNL     1       1.029  -8.503  -7.071  1.00  0.00    -0.474 OA
ATOM     31  C   UNL     1       0.316 -10.652  -7.855  1.00  0.00     0.056 C 
BRANCH  29  32
ATOM     32  C   UNL     1       2.565  -6.851  -7.951  1.00  0.00     0.171 C 
BRANCH  32  33
ATOM     33  N   UNL     1       2.903  -6.654  -6.550  1.00  0.00    -0.342 N 
ATOM     34  C   UNL     1       2.906  -5.414  -5.956  1.00  0.00     0.246 CG0
ATOM     35  O   UNL     1       2.649  -4.379  -6.565  1.00  0.00    -0.273 OA
ATOM     36  H   UNL     1       3.189  -7.431  -5.965  1.00  0.00     0.164 HD
ATOM     37  G   UNL     1       3.233  -5.428  -4.454  1.00  0.00     0.000 G0
ENDBRANCH  32  33
BRANCH  32  38
ATOM     38  C   UNL     1       3.708  -7.535  -8.747  1.00  0.00     0.017 C 
ATOM     39  C   UNL     1       4.853  -6.542  -8.982  1.00  0.00     0.010 C 
BRANCH  38  40
ATOM     40  C   UNL     1       4.210  -8.837  -8.083  1.00  0.00     0.002 C 
ATOM     41  C   UNL     1       5.624  -8.731  -7.526  1.00  0.00     0.004 C 
ENDBRANCH  38  40
ENDBRANCH  32  38
ENDBRANCH  29  32
ENDBRANCH  23  26
ENDBRANCH   1  22
TORSDOF 4
ENDMDL
MODEL 24
REMARK VINA RESULT:    -4.752      2.398      6.591
REMARK INTER + INTRA:          -9.745
REMARK INTER:                  -8.680
REMARK INTRA:                  -1.065
REMARK UNBOUND:                -1.660
REMARK SMILES CC[C@H](C)[C@@H]1NC(=O)[C@H]2CSC(=N2)[C@@H]([C@@H](C)CC)NC(=O)c2csc(n2)CNC(=O)[C@H]2N=C1O[C@@H]2C
REMARK SMILES IDX 27 1 25 2 22 3 26 4 23 5 24 6 20 7 19 8 21 9 14 11 12 12
REMARK SMILES IDX 11 13 10 14 13 15 9 16 15 18 16 19 17 20 18 21 28 22 29 23
REMARK SMILES IDX 30 24 31 26 32 27 35 28 33 29 34 30 36 31 5 32 6 33 7 34
REMARK SMILES IDX 8 35 3 38 4 39 2 40 1 41
REMARK H PARENT 19 10 28 25 6 36
REMARK Flexibility Score:   91.900
ROOT
ATOM      1  C   UNL     1      -3.137  -4.553  -2.416  1.00  0.00     0.183 C 
ENDROOT
BRANCH   1   2
ATOM      2  C   UNL     1      -1.727  -4.082  -2.632  1.00  0.00     0.113 A 
ATOM      3  C   UNL     1       0.356  -4.030  -3.422  1.00  0.00     0.139 A 
ATOM      4  N   UNL     1      -0.916  -4.593  -3.540  1.00  0.00    -0.234 NA
ATOM      5  C   UNL     1       0.461  -3.051  -2.453  1.00  0.00     0.101 A 
ATOM      6  S   UNL     1      -1.045  -2.845  -1.656  1.00  0.00    -0.125 S 
BRANCH   3   7
ATOM      7  C   UNL     1       1.453  -4.516  -4.262  1.00  0.00     0.271 C 
ATOM      8  N   UNL     1       1.813  -5.799  -3.932  1.00  0.00    -0.341 N 
ATOM      9  O   UNL     1       1.999  -3.841  -5.125  1.00  0.00    -0.267 OA
ATOM     10  H   UNL     1       1.250  -6.242  -3.206  1.00  0.00     0.164 HD
BRANCH   8  11
ATOM     11  C   UNL     1       2.984  -6.481  -4.458  1.00  0.00     0.140 C 
BRANCH  11  12
ATOM     12  C   UNL     1       2.705  -6.832  -5.922  1.00  0.00     0.091 C 
ATOM     13  S   UNL     1       3.489  -5.951  -7.212  1.00  0.00    -0.106 SA
ATOM     14  C   UNL     1       2.925  -7.177  -8.411  1.00  0.00     0.113 C 
ATOM     15  N   UNL     1       1.834  -7.732  -6.258  1.00  0.00    -0.267 NA
ATOM     16  C   UNL     1       1.697  -7.783  -7.748  1.00  0.00     0.205 CG0
ATOM     17  G   UNL     1       0.420  -7.060  -8.206  1.00  0.00     0.000 G0
ENDBRANCH  11  12
BRANCH  11  18
ATOM     18  C   UNL     1       4.321  -5.751  -4.168  1.00  0.00     0.015 C 
ATOM     19  C   UNL     1       4.386  -5.319  -2.697  1.00  0.00     0.010 C 
BRANCH  18  20
ATOM     20  C   UNL     1       5.584  -6.533  -4.581  1.00  0.00     0.002 C 
ATOM     21  C   UNL     1       5.926  -7.665  -3.619  1.00  0.00     0.004 C 
ENDBRANCH  18  20
ENDBRANCH  11  18
ENDBRANCH   8  11
ENDBRANCH   3   7
ENDBRANCH   1   2
BRANCH   1  22
ATOM     22  N   UNL     1      -3.413  -5.563  -3.413  1.00  0.00    -0.348 N 
ATOM     23  C   UNL     1      -4.486  -5.548  -4.261  1.00  0.00     0.249 C 
ATOM     24  O   UNL     1      -5.285  -4.620  -4.318  1.00  0.00    -0.272 OA
ATOM     25  H   UNL     1      -2.822  -6.393  -3.438  1.00  0.00     0.163 HD
BRANCH  23  26
ATOM     26  C   UNL     1      -4.544  -6.785  -5.171  1.00  0.00     0.238 C 
ATOM     27  N   UNL     1      -4.131  -6.400  -6.549  1.00  0.00    -0.236 NA
ATOM     28  C   UNL     1      -3.559  -7.857  -4.736  1.00  0.00     0.206 C 
ATOM     29  C   UNL     1      -2.986  -6.996  -6.695  1.00  0.00     0.208 C 
ATOM     30  O   UNL     1      -2.498  -7.757  -5.685  1.00  0.00    -0.474 OA
ATOM     31  C   UNL     1      -4.150  -9.258  -4.812  1.00  0.00     0.056 C 
BRANCH  29  32
ATOM     32  C   UNL     1      -2.060  -6.894  -7.904  1.00  0.00     0.171 C 
BRANCH  32  33
ATOM     33  N   UNL     1      -0.763  -7.486  -7.616  1.00  0.00    -0.342 N 
ATOM     34  C   UNL     1       0.395  -7.068  -8.229  1.00  0.00     0.246 CG0
ATOM     35  O   UNL     1       0.420  -6.185  -9.081  1.00  0.00    -0.273 OA
ATOM     36  H   UNL     1      -0.673  -8.264  -6.971  1.00  0.00     0.164 HD
ATOM     37  G   UNL     1       1.666  -7.782  -7.741  1.00  0.00     0.000 G0
ENDBRANCH  32  33
BRANCH  32  38
ATOM     38  C   UNL     1      -2.732  -7.516  -9.156  1.00  0.00     0.017 C 
ATOM     39  C   UNL     1      -3.710  -8.620  -8.736  1.00  0.00     0.010 C 
BRANCH  38  40
ATOM     40  C   UNL     1      -3.417  -6.463 -10.058  1.00  0.00     0.002 C 
ATOM     41  C   UNL     1      -4.911  -6.693 -10.238  1.00  0.00     0.004 C 
ENDBRANCH  38  40
ENDBRANCH  32  38
ENDBRANCH  29  32
ENDBRANCH  23  26
ENDBRANCH   1  22
TORSDOF 4
ENDMDL
MODEL 25
REMARK VINA RESULT:    -4.728      2.402      6.544
REMARK INTER + INTRA:          -9.705
REMARK INTER:                  -8.561
REMARK INTRA:                  -1.144
REMARK UNBOUND:                -1.660
REMARK SMILES CC[C@H](C)[C@@H]1NC(=O)[C@H]2CSC(=N2)[C@@H]([C@@H](C)CC)NC(=O)c2csc(n2)CNC(=O)[C@H]2N=C1O[C@@H]2C
REMARK SMILES IDX 27 1 25 2 22 3 26 4 23 5 24 6 20 7 19 8 21 9 14 11 12 12
REMARK SMILES IDX 11 13 10 14 13 15 9 16 15 18 16 19 17 20 18 21 28 22 29 23
REMARK SMILES IDX 30 24 31 26 32 27 35 28 33 29 34 30 36 31 5 32 6 33 7 34
REMARK SMILES IDX 8 35 3 38 4 39 2 40 1 41
REMARK H PARENT 19 10 28 25 6 36
REMARK Flexibility Score:   91.900
ROOT
ATOM      1  C   UNL     1      -3.387  -7.006  -4.933  1.00  0.00     0.183 C 
ENDROOT
BRANCH   1   2
ATOM      2  C   UNL     1      -2.907  -6.097  -3.838  1.00  0.00     0.113 A 
ATOM      3  C   UNL     1      -1.496  -4.974  -2.529  1.00  0.00     0.139 A 
ATOM      4  N   UNL     1      -1.649  -5.720  -3.699  1.00  0.00    -0.234 NA
ATOM      5  C   UNL     1      -2.668  -4.753  -1.834  1.00  0.00     0.101 A 
ATOM      6  S   UNL     1      -3.983  -5.509  -2.637  1.00  0.00    -0.125 S 
BRANCH   3   7
ATOM      7  C   UNL     1      -0.164  -4.530  -2.112  1.00  0.00     0.271 C 
ATOM      8  N   UNL     1       0.668  -4.344  -3.189  1.00  0.00    -0.341 N 
ATOM      9  O   UNL     1       0.168  -4.380  -0.943  1.00  0.00    -0.267 OA
ATOM     10  H   UNL     1       0.242  -4.485  -4.104  1.00  0.00     0.164 HD
BRANCH   8  11
ATOM     11  C   UNL     1       2.095  -4.087  -3.085  1.00  0.00     0.140 C 
BRANCH  11  12
ATOM     12  C   UNL     1       2.833  -5.352  -3.532  1.00  0.00     0.091 C 
ATOM     13  S   UNL     1       4.561  -5.324  -3.795  1.00  0.00    -0.106 SA
ATOM     14  C   UNL     1       4.588  -7.126  -3.896  1.00  0.00     0.113 C 
ATOM     15  N   UNL     1       2.207  -6.454  -3.802  1.00  0.00    -0.267 NA
ATOM     16  C   UNL     1       3.169  -7.479  -4.315  1.00  0.00     0.205 CG0
ATOM     17  G   UNL     1       3.070  -7.608  -5.844  1.00  0.00     0.000 G0
ENDBRANCH  11  12
BRANCH  11  18
ATOM     18  C   UNL     1       2.545  -2.757  -3.742  1.00  0.00     0.015 C 
ATOM     19  C   UNL     1       3.853  -2.264  -3.109  1.00  0.00     0.010 C 
BRANCH  18  20
ATOM     20  C   UNL     1       2.644  -2.799  -5.280  1.00  0.00     0.002 C 
ATOM     21  C   UNL     1       2.985  -1.444  -5.892  1.00  0.00     0.004 C 
ENDBRANCH  18  20
ENDBRANCH  11  18
ENDBRANCH   8  11
ENDBRANCH   3   7
ENDBRANCH   1   2
BRANCH   1  22
ATOM     22  N   UNL     1      -2.498  -6.832  -6.061  1.00  0.00    -0.348 N 
ATOM     23  C   UNL     1      -2.603  -7.505  -7.247  1.00  0.00     0.249 C 
ATOM     24  O   UNL     1      -3.524  -8.272  -7.506  1.00  0.00    -0.272 OA
ATOM     25  H   UNL     1      -1.683  -6.231  -5.947  1.00  0.00     0.163 HD
BRANCH  23  26
ATOM     26  C   UNL     1      -1.482  -7.149  -8.235  1.00  0.00     0.238 C 
ATOM     27  N   UNL     1      -0.172  -7.194  -7.528  1.00  0.00    -0.236 NA
ATOM     28  C   UNL     1      -1.372  -8.164  -9.360  1.00  0.00     0.206 C 
ATOM     29  C   UNL     1       0.413  -8.230  -8.051  1.00  0.00     0.208 C 
ATOM     30  O   UNL     1      -0.221  -8.936  -9.019  1.00  0.00    -0.474 OA
ATOM     31  C   UNL     1      -1.135  -7.511 -10.715  1.00  0.00     0.056 C 
BRANCH  29  32
ATOM     32  C   UNL     1       1.770  -8.801  -7.648  1.00  0.00     0.171 C 
BRANCH  32  33
ATOM     33  N   UNL     1       2.059  -8.519  -6.251  1.00  0.00    -0.342 N 
ATOM     34  C   UNL     1       3.058  -7.659  -5.860  1.00  0.00     0.246 CG0
ATOM     35  O   UNL     1       3.798  -7.086  -6.655  1.00  0.00    -0.273 OA
ATOM     36  H   UNL     1       1.549  -8.982  -5.506  1.00  0.00     0.164 HD
ATOM     37  G   UNL     1       3.161  -7.452  -4.340  1.00  0.00     0.000 G0
ENDBRANCH  32  33
BRANCH  32  38
ATOM     38  C   UNL     1       1.839 -10.316  -7.975  1.00  0.00     0.017 C 
ATOM     39  C   UNL     1       3.287 -10.724  -8.277  1.00  0.00     0.010 C 
BRANCH  38  40
ATOM     40  C   UNL     1       1.218 -11.201  -6.870  1.00  0.00     0.002 C 
ATOM     41  C   UNL     1       2.249 -11.960  -6.046  1.00  0.00     0.004 C 
ENDBRANCH  38  40
ENDBRANCH  32  38
ENDBRANCH  29  32
ENDBRANCH  23  26
ENDBRANCH   1  22
TORSDOF 4
ENDMDL
MODEL 26
REMARK VINA RESULT:    -4.640      3.090      5.292
REMARK INTER + INTRA:          -9.555
REMARK INTER:                  -9.705
REMARK INTRA:                   0.150
REMARK UNBOUND:                -1.660
REMARK SMILES CC[C@H](C)[C@@H]1NC(=O)[C@H]2CSC(=N2)[C@@H]([C@@H](C)CC)NC(=O)c2csc(n2)CNC(=O)[C@H]2N=C1O[C@@H]2C
REMARK SMILES IDX 27 1 25 2 22 3 26 4 23 5 24 6 20 7 19 8 21 9 14 11 12 12
REMARK SMILES IDX 11 13 10 14 13 15 9 16 15 18 16 19 17 20 18 21 28 22 29 23
REMARK SMILES IDX 30 24 31 26 32 27 35 28 33 29 34 30 36 31 5 32 6 33 7 34
REMARK SMILES IDX 8 35 3 38 4 39 2 40 1 41
REMARK H PARENT 19 10 28 25 6 36
REMARK Flexibility Score:   91.900
ROOT
ATOM      1  C   UNL     1      -2.688  -8.348  -2.691  1.00  0.00     0.183 C 
ENDROOT
BRANCH   1   2
ATOM      2  C   UNL     1      -2.073  -8.029  -4.023  1.00  0.00     0.113 A 
ATOM      3  C   UNL     1      -0.533  -7.436  -5.521  1.00  0.00     0.139 A 
ATOM      4  N   UNL     1      -0.782  -7.822  -4.202  1.00  0.00    -0.234 NA
ATOM      5  C   UNL     1      -1.651  -7.418  -6.332  1.00  0.00     0.101 A 
ATOM      6  S   UNL     1      -3.042  -7.866  -5.431  1.00  0.00    -0.125 S 
BRANCH   3   7
ATOM      7  C   UNL     1       0.820  -7.055  -5.930  1.00  0.00     0.271 C 
ATOM      8  N   UNL     1       1.589  -6.686  -4.854  1.00  0.00    -0.341 N 
ATOM      9  O   UNL     1       1.199  -7.037  -7.094  1.00  0.00    -0.267 OA
ATOM     10  H   UNL     1       1.143  -6.776  -3.942  1.00  0.00     0.164 HD
BRANCH   8  11
ATOM     11  C   UNL     1       2.908  -6.084  -4.960  1.00  0.00     0.140 C 
BRANCH  11  12
ATOM     12  C   UNL     1       2.745  -4.568  -4.822  1.00  0.00     0.091 C 
ATOM     13  S   UNL     1       4.142  -3.541  -4.599  1.00  0.00    -0.106 SA
ATOM     14  C   UNL     1       3.130  -2.077  -4.902  1.00  0.00     0.113 C 
ATOM     15  N   UNL     1       1.579  -4.003  -4.791  1.00  0.00    -0.267 NA
ATOM     16  C   UNL     1       1.726  -2.534  -4.540  1.00  0.00     0.205 CG0
ATOM     17  G   UNL     1       1.402  -2.192  -3.077  1.00  0.00     0.000 G0
ENDBRANCH  11  12
BRANCH  11  18
ATOM     18  C   UNL     1       3.978  -6.747  -4.055  1.00  0.00     0.015 C 
ATOM     19  C   UNL     1       3.450  -8.068  -3.481  1.00  0.00     0.010 C 
BRANCH  18  20
ATOM     20  C   UNL     1       5.358  -6.933  -4.719  1.00  0.00     0.002 C 
ATOM     21  C   UNL     1       5.264  -7.434  -6.156  1.00  0.00     0.004 C 
ENDBRANCH  18  20
ENDBRANCH  11  18
ENDBRANCH   8  11
ENDBRANCH   3   7
ENDBRANCH   1   2
BRANCH   1  22
ATOM     22  N   UNL     1      -2.021  -7.532  -1.700  1.00  0.00    -0.348 N 
ATOM     23  C   UNL     1      -2.552  -6.405  -1.133  1.00  0.00     0.249 C 
ATOM     24  O   UNL     1      -3.694  -6.018  -1.350  1.00  0.00    -0.272 OA
ATOM     25  H   UNL     1      -1.055  -7.753  -1.462  1.00  0.00     0.163 HD
BRANCH  23  26
ATOM     26  C   UNL     1      -1.585  -5.720  -0.156  1.00  0.00     0.238 C 
ATOM     27  N   UNL     1      -0.586  -4.929  -0.927  1.00  0.00    -0.236 NA
ATOM     28  C   UNL     1      -2.296  -4.717   0.737  1.00  0.00     0.206 C 
ATOM     29  C   UNL     1      -0.904  -3.699  -0.653  1.00  0.00     0.208 C 
ATOM     30  O   UNL     1      -1.938  -3.449   0.188  1.00  0.00    -0.474 OA
ATOM     31  C   UNL     1      -1.815  -4.775   2.180  1.00  0.00     0.056 C 
BRANCH  29  32
ATOM     32  C   UNL     1      -0.253  -2.446  -1.233  1.00  0.00     0.171 C 
BRANCH  32  33
ATOM     33  N   UNL     1       0.209  -2.683  -2.592  1.00  0.00    -0.342 N 
ATOM     34  C   UNL     1       1.384  -2.160  -3.076  1.00  0.00     0.246 CG0
ATOM     35  O   UNL     1       2.119  -1.434  -2.411  1.00  0.00    -0.273 OA
ATOM     36  H   UNL     1      -0.347  -3.219  -3.249  1.00  0.00     0.164 HD
ATOM     37  G   UNL     1       1.721  -2.577  -4.517  1.00  0.00     0.000 G0
ENDBRANCH  32  33
BRANCH  32  38
ATOM     38  C   UNL     1      -1.222  -1.238  -1.136  1.00  0.00     0.017 C 
ATOM     39  C   UNL     1      -1.076  -0.346  -2.375  1.00  0.00     0.010 C 
BRANCH  38  40
ATOM     40  C   UNL     1      -2.691  -1.660  -0.909  1.00  0.00     0.002 C 
ATOM     41  C   UNL     1      -3.660  -1.066  -1.923  1.00  0.00     0.004 C 
ENDBRANCH  38  40
ENDBRANCH  32  38
ENDBRANCH  29  32
ENDBRANCH  23  26
ENDBRANCH   1  22
TORSDOF 4
ENDMDL
MODEL 27
REMARK VINA RESULT:    -4.630      2.609      7.023
REMARK INTER + INTRA:          -9.538
REMARK INTER:                  -7.598
REMARK INTRA:                  -1.939
REMARK UNBOUND:                -1.660
REMARK SMILES CC[C@H](C)[C@@H]1NC(=O)[C@H]2CSC(=N2)[C@@H]([C@@H](C)CC)NC(=O)c2csc(n2)CNC(=O)[C@H]2N=C1O[C@@H]2C
REMARK SMILES IDX 27 1 25 2 22 3 26 4 23 5 24 6 20 7 19 8 21 9 14 11 12 12
REMARK SMILES IDX 11 13 10 14 13 15 9 16 15 18 16 19 17 20 18 21 28 22 29 23
REMARK SMILES IDX 30 24 31 26 32 27 35 28 33 29 34 30 36 31 5 32 6 33 7 34
REMARK SMILES IDX 8 35 3 38 4 39 2 40 1 41
REMARK H PARENT 19 10 28 25 6 36
REMARK Flexibility Score:   91.900
ROOT
ATOM      1  C   UNL     1       2.600  -4.106  -2.889  1.00  0.00     0.183 C 
ENDROOT
BRANCH   1   2
ATOM      2  C   UNL     1       1.174  -3.662  -2.738  1.00  0.00     0.113 A 
ATOM      3  C   UNL     1      -1.038  -3.798  -2.498  1.00  0.00     0.139 A 
ATOM      4  N   UNL     1       0.178  -4.484  -2.461  1.00  0.00    -0.234 NA
ATOM      5  C   UNL     1      -0.924  -2.445  -2.747  1.00  0.00     0.101 A 
ATOM      6  S   UNL     1       0.725  -2.021  -2.966  1.00  0.00    -0.125 S 
BRANCH   3   7
ATOM      7  C   UNL     1      -2.296  -4.526  -2.319  1.00  0.00     0.271 C 
ATOM      8  N   UNL     1      -2.157  -5.858  -2.622  1.00  0.00    -0.341 N 
ATOM      9  O   UNL     1      -3.345  -3.997  -1.975  1.00  0.00    -0.267 OA
ATOM     10  H   UNL     1      -1.215  -6.158  -2.871  1.00  0.00     0.164 HD
BRANCH   8  11
ATOM     11  C   UNL     1      -3.265  -6.794  -2.720  1.00  0.00     0.140 C 
BRANCH  11  12
ATOM     12  C   UNL     1      -3.306  -7.325  -4.156  1.00  0.00     0.091 C 
ATOM     13  S   UNL     1      -4.052  -8.865  -4.512  1.00  0.00    -0.106 SA
ATOM     14  C   UNL     1      -3.984  -8.504  -6.279  1.00  0.00     0.113 C 
ATOM     15  N   UNL     1      -2.735  -6.699  -5.136  1.00  0.00    -0.267 NA
ATOM     16  C   UNL     1      -2.846  -7.502  -6.394  1.00  0.00     0.205 CG0
ATOM     17  G   UNL     1      -1.522  -8.218  -6.707  1.00  0.00     0.000 G0
ENDBRANCH  11  12
BRANCH  11  18
ATOM     18  C   UNL     1      -3.294  -7.857  -1.592  1.00  0.00     0.015 C 
ATOM     19  C   UNL     1      -1.961  -7.867  -0.832  1.00  0.00     0.010 C 
BRANCH  18  20
ATOM     20  C   UNL     1      -4.492  -7.740  -0.627  1.00  0.00     0.002 C 
ATOM     21  C   UNL     1      -5.654  -8.649  -1.008  1.00  0.00     0.004 C 
ENDBRANCH  18  20
ENDBRANCH  11  18
ENDBRANCH   8  11
ENDBRANCH   3   7
ENDBRANCH   1   2
BRANCH   1  22
ATOM     22  N   UNL     1       2.770  -4.561  -4.251  1.00  0.00    -0.348 N 
ATOM     23  C   UNL     1       3.548  -5.623  -4.627  1.00  0.00     0.249 C 
ATOM     24  O   UNL     1       4.119  -6.354  -3.826  1.00  0.00    -0.272 OA
ATOM     25  H   UNL     1       2.354  -4.011  -5.001  1.00  0.00     0.163 HD
BRANCH  23  26
ATOM     26  C   UNL     1       3.575  -5.831  -6.148  1.00  0.00     0.238 C 
ATOM     27  N   UNL     1       2.992  -7.163  -6.472  1.00  0.00    -0.236 NA
ATOM     28  C   UNL     1       2.707  -4.819  -6.877  1.00  0.00     0.206 C 
ATOM     29  C   UNL     1       1.874  -6.863  -7.062  1.00  0.00     0.208 C 
ATOM     30  O   UNL     1       1.544  -5.560  -7.242  1.00  0.00    -0.474 OA
ATOM     31  C   UNL     1       3.365  -4.290  -8.144  1.00  0.00     0.056 C 
BRANCH  29  32
ATOM     32  C   UNL     1       0.816  -7.848  -7.551  1.00  0.00     0.171 C 
BRANCH  32  33
ATOM     33  N   UNL     1      -0.521  -7.382  -7.220  1.00  0.00    -0.342 N 
ATOM     34  C   UNL     1      -1.504  -8.221  -6.753  1.00  0.00     0.246 CG0
ATOM     35  O   UNL     1      -1.339  -9.429  -6.603  1.00  0.00    -0.273 OA
ATOM     36  H   UNL     1      -0.788  -6.413  -7.361  1.00  0.00     0.164 HD
ATOM     37  G   UNL     1      -2.828  -7.521  -6.407  1.00  0.00     0.000 G0
ENDBRANCH  32  33
BRANCH  32  38
ATOM     38  C   UNL     1       0.992  -8.124  -9.067  1.00  0.00     0.017 C 
ATOM     39  C   UNL     1       0.637  -9.583  -9.382  1.00  0.00     0.010 C 
BRANCH  38  40
ATOM     40  C   UNL     1       0.195  -7.141  -9.955  1.00  0.00     0.002 C 
ATOM     41  C   UNL     1      -0.794  -7.826 -10.888  1.00  0.00     0.004 C 
ENDBRANCH  38  40
ENDBRANCH  32  38
ENDBRANCH  29  32
ENDBRANCH  23  26
ENDBRANCH   1  22
TORSDOF 4
ENDMDL
MODEL 28
REMARK VINA RESULT:    -4.613      2.768      7.509
REMARK INTER + INTRA:          -9.509
REMARK INTER:                  -8.131
REMARK INTRA:                  -1.378
REMARK UNBOUND:                -1.660
REMARK SMILES CC[C@H](C)[C@@H]1NC(=O)[C@H]2CSC(=N2)[C@@H]([C@@H](C)CC)NC(=O)c2csc(n2)CNC(=O)[C@H]2N=C1O[C@@H]2C
REMARK SMILES IDX 27 1 25 2 22 3 26 4 23 5 24 6 20 7 19 8 21 9 14 11 12 12
REMARK SMILES IDX 11 13 10 14 13 15 9 16 15 18 16 19 17 20 18 21 28 22 29 23
REMARK SMILES IDX 30 24 31 26 32 27 35 28 33 29 34 30 36 31 5 32 6 33 7 34
REMARK SMILES IDX 8 35 3 38 4 39 2 40 1 41
REMARK H PARENT 19 10 28 25 6 36
REMARK Flexibility Score:   91.900
ROOT
ATOM      1  C   UNL     1       4.125  -3.325  -3.758  1.00  0.00     0.183 C 
ENDROOT
BRANCH   1   2
ATOM      2  C   UNL     1       2.841  -2.619  -3.431  1.00  0.00     0.113 A 
ATOM      3  C   UNL     1       0.713  -2.331  -2.833  1.00  0.00     0.139 A 
ATOM      4  N   UNL     1       1.784  -3.222  -2.918  1.00  0.00    -0.234 NA
ATOM      5  C   UNL     1       1.008  -1.043  -3.235  1.00  0.00     0.101 A 
ATOM      6  S   UNL     1       2.641  -0.944  -3.753  1.00  0.00    -0.125 S 
BRANCH   3   7
ATOM      7  C   UNL     1      -0.599  -2.802  -2.385  1.00  0.00     0.271 C 
ATOM      8  N   UNL     1      -0.594  -4.153  -2.137  1.00  0.00    -0.341 N 
ATOM      9  O   UNL     1      -1.582  -2.080  -2.280  1.00  0.00    -0.267 OA
ATOM     10  H   UNL     1       0.307  -4.617  -2.246  1.00  0.00     0.164 HD
BRANCH   8  11
ATOM     11  C   UNL     1      -1.786  -4.937  -1.861  1.00  0.00     0.140 C 
BRANCH  11  12
ATOM     12  C   UNL     1      -1.909  -6.005  -2.951  1.00  0.00     0.091 C 
ATOM     13  S   UNL     1      -2.403  -7.633  -2.548  1.00  0.00    -0.106 SA
ATOM     14  C   UNL     1      -2.621  -8.015  -4.299  1.00  0.00     0.113 C 
ATOM     15  N   UNL     1      -1.586  -5.769  -4.183  1.00  0.00    -0.267 NA
ATOM     16  C   UNL     1      -1.705  -7.021  -4.996  1.00  0.00     0.205 CG0
ATOM     17  G   UNL     1      -0.323  -7.643  -5.251  1.00  0.00     0.000 G0
ENDBRANCH  11  12
BRANCH  11  18
ATOM     18  C   UNL     1      -1.889  -5.433  -0.395  1.00  0.00     0.015 C 
ATOM     19  C   UNL     1      -0.791  -4.792   0.464  1.00  0.00     0.010 C 
BRANCH  18  20
ATOM     20  C   UNL     1      -3.280  -5.262   0.247  1.00  0.00     0.002 C 
ATOM     21  C   UNL     1      -3.432  -6.034   1.553  1.00  0.00     0.004 C 
ENDBRANCH  18  20
ENDBRANCH  11  18
ENDBRANCH   8  11
ENDBRANCH   3   7
ENDBRANCH   1   2
BRANCH   1  22
ATOM     22  N   UNL     1       3.934  -4.008  -5.018  1.00  0.00    -0.348 N 
ATOM     23  C   UNL     1       4.429  -5.249  -5.315  1.00  0.00     0.249 C 
ATOM     24  O   UNL     1       5.021  -5.949  -4.501  1.00  0.00    -0.272 OA
ATOM     25  H   UNL     1       3.473  -3.507  -5.776  1.00  0.00     0.163 HD
BRANCH  23  26
ATOM     26  C   UNL     1       4.110  -5.689  -6.752  1.00  0.00     0.238 C 
ATOM     27  N   UNL     1       3.595  -7.086  -6.734  1.00  0.00    -0.236 NA
ATOM     28  C   UNL     1       3.001  -4.854  -7.369  1.00  0.00     0.206 C 
ATOM     29  C   UNL     1       2.344  -6.946  -7.059  1.00  0.00     0.208 C 
ATOM     30  O   UNL     1       1.860  -5.709  -7.327  1.00  0.00    -0.474 OA
ATOM     31  C   UNL     1       3.283  -4.491  -8.821  1.00  0.00     0.056 C 
BRANCH  29  32
ATOM     32  C   UNL     1       1.298  -8.055  -7.128  1.00  0.00     0.171 C 
BRANCH  32  33
ATOM     33  N   UNL     1       0.013  -7.589  -6.629  1.00  0.00    -0.342 N 
ATOM     34  C   UNL     1      -0.318  -7.616  -5.296  1.00  0.00     0.246 CG0
ATOM     35  O   UNL     1       0.431  -8.058  -4.428  1.00  0.00    -0.273 OA
ATOM     36  H   UNL     1      -0.706  -7.257  -7.263  1.00  0.00     0.164 HD
ATOM     37  G   UNL     1      -1.699  -7.024  -4.970  1.00  0.00     0.000 G0
ENDBRANCH  32  33
BRANCH  32  38
ATOM     38  C   UNL     1       1.205  -8.626  -8.568  1.00  0.00     0.017 C 
ATOM     39  C   UNL     1       2.557  -8.483  -9.278  1.00  0.00     0.010 C 
BRANCH  38  40
ATOM     40  C   UNL     1       0.693 -10.084  -8.607  1.00  0.00     0.002 C 
ATOM     41  C   UNL     1       1.439 -11.017  -7.663  1.00  0.00     0.004 C 
ENDBRANCH  38  40
ENDBRANCH  32  38
ENDBRANCH  29  32
ENDBRANCH  23  26
ENDBRANCH   1  22
TORSDOF 4
ENDMDL
MODEL 29
REMARK VINA RESULT:    -4.488      2.354      3.022
REMARK INTER + INTRA:          -9.296
REMARK INTER:                  -8.015
REMARK INTRA:                  -1.281
REMARK UNBOUND:                -1.660
REMARK SMILES CC[C@H](C)[C@@H]1NC(=O)[C@H]2CSC(=N2)[C@@H]([C@@H](C)CC)NC(=O)c2csc(n2)CNC(=O)[C@H]2N=C1O[C@@H]2C
REMARK SMILES IDX 27 1 25 2 22 3 26 4 23 5 24 6 20 7 19 8 21 9 14 11 12 12
REMARK SMILES IDX 11 13 10 14 13 15 9 16 15 18 16 19 17 20 18 21 28 22 29 23
REMARK SMILES IDX 30 24 31 26 32 27 35 28 33 29 34 30 36 31 5 32 6 33 7 34
REMARK SMILES IDX 8 35 3 38 4 39 2 40 1 41
REMARK H PARENT 19 10 28 25 6 36
REMARK Flexibility Score:   91.900
ROOT
ATOM      1  C   UNL     1      -3.078  -5.770  -0.313  1.00  0.00     0.183 C 
ENDROOT
BRANCH   1   2
ATOM      2  C   UNL     1      -3.385  -6.778  -1.383  1.00  0.00     0.113 A 
ATOM      3  C   UNL     1      -3.761  -7.614  -3.414  1.00  0.00     0.139 A 
ATOM      4  N   UNL     1      -3.305  -6.520  -2.675  1.00  0.00    -0.234 NA
ATOM      5  C   UNL     1      -4.123  -8.708  -2.653  1.00  0.00     0.101 A 
ATOM      6  S   UNL     1      -3.918  -8.361  -0.984  1.00  0.00    -0.125 S 
BRANCH   3   7
ATOM      7  C   UNL     1      -3.859  -7.524  -4.873  1.00  0.00     0.271 C 
ATOM      8  N   UNL     1      -3.233  -8.579  -5.489  1.00  0.00    -0.341 N 
ATOM      9  O   UNL     1      -4.404  -6.599  -5.462  1.00  0.00    -0.267 OA
ATOM     10  H   UNL     1      -2.843  -9.285  -4.865  1.00  0.00     0.164 HD
BRANCH   8  11
ATOM     11  C   UNL     1      -3.002  -8.669  -6.921  1.00  0.00     0.140 C 
BRANCH  11  12
ATOM     12  C   UNL     1      -1.519  -8.385  -7.176  1.00  0.00     0.091 C 
ATOM     13  S   UNL     1      -0.412  -9.693  -7.525  1.00  0.00    -0.106 SA
ATOM     14  C   UNL     1       0.857  -8.505  -8.014  1.00  0.00     0.113 C 
ATOM     15  N   UNL     1      -1.020  -7.194  -7.072  1.00  0.00    -0.267 NA
ATOM     16  C   UNL     1       0.463  -7.238  -7.271  1.00  0.00     0.205 CG0
ATOM     17  G   UNL     1       1.199  -7.147  -5.924  1.00  0.00     0.000 G0
ENDBRANCH  11  12
BRANCH  11  18
ATOM     18  C   UNL     1      -3.581  -9.951  -7.573  1.00  0.00     0.015 C 
ATOM     19  C   UNL     1      -4.043 -10.939  -6.494  1.00  0.00     0.010 C 
BRANCH  18  20
ATOM     20  C   UNL     1      -4.687  -9.700  -8.618  1.00  0.00     0.002 C 
ATOM     21  C   UNL     1      -4.314  -8.624  -9.632  1.00  0.00     0.004 C 
ENDBRANCH  18  20
ENDBRANCH  11  18
ENDBRANCH   8  11
ENDBRANCH   3   7
ENDBRANCH   1   2
BRANCH   1  22
ATOM     22  N   UNL     1      -1.846  -5.109  -0.682  1.00  0.00    -0.348 N 
ATOM     23  C   UNL     1      -1.770  -3.922  -1.358  1.00  0.00     0.249 C 
ATOM     24  O   UNL     1      -2.753  -3.249  -1.647  1.00  0.00    -0.272 OA
ATOM     25  H   UNL     1      -0.966  -5.593  -0.508  1.00  0.00     0.163 HD
BRANCH  23  26
ATOM     26  C   UNL     1      -0.324  -3.498  -1.656  1.00  0.00     0.238 C 
ATOM     27  N   UNL     1       0.515  -4.714  -1.843  1.00  0.00    -0.236 NA
ATOM     28  C   UNL     1      -0.216  -2.725  -2.960  1.00  0.00     0.206 C 
ATOM     29  C   UNL     1       0.801  -4.687  -3.110  1.00  0.00     0.208 C 
ATOM     30  O   UNL     1       0.340  -3.667  -3.876  1.00  0.00    -0.474 OA
ATOM     31  C   UNL     1       0.726  -1.533  -2.856  1.00  0.00     0.056 C 
BRANCH  29  32
ATOM     32  C   UNL     1       1.587  -5.742  -3.883  1.00  0.00     0.171 C 
BRANCH  32  33
ATOM     33  N   UNL     1       0.999  -5.972  -5.193  1.00  0.00    -0.342 N 
ATOM     34  C   UNL     1       1.221  -7.122  -5.913  1.00  0.00     0.246 CG0
ATOM     35  O   UNL     1       1.950  -8.029  -5.520  1.00  0.00    -0.273 OA
ATOM     36  H   UNL     1       0.426  -5.266  -5.642  1.00  0.00     0.164 HD
ATOM     37  G   UNL     1       0.460  -7.195  -7.247  1.00  0.00     0.000 G0
ENDBRANCH  32  33
BRANCH  32  38
ATOM     38  C   UNL     1       3.086  -5.350  -3.965  1.00  0.00     0.017 C 
ATOM     39  C   UNL     1       3.224  -3.845  -4.227  1.00  0.00     0.010 C 
BRANCH  38  40
ATOM     40  C   UNL     1       3.893  -5.787  -2.720  1.00  0.00     0.002 C 
ATOM     41  C   UNL     1       5.357  -5.370  -2.765  1.00  0.00     0.004 C 
ENDBRANCH  38  40
ENDBRANCH  32  38
ENDBRANCH  29  32
ENDBRANCH  23  26
ENDBRANCH   1  22
TORSDOF 4
ENDMDL
MODEL 30
REMARK VINA RESULT:    -4.471      2.956      5.754
REMARK INTER + INTRA:          -9.267
REMARK INTER:                  -8.420
REMARK INTRA:                  -0.847
REMARK UNBOUND:                -1.660
REMARK SMILES CC[C@H](C)[C@@H]1NC(=O)[C@H]2CSC(=N2)[C@@H]([C@@H](C)CC)NC(=O)c2csc(n2)CNC(=O)[C@H]2N=C1O[C@@H]2C
REMARK SMILES IDX 27 1 25 2 22 3 26 4 23 5 24 6 20 7 19 8 21 9 14 11 12 12
REMARK SMILES IDX 11 13 10 14 13 15 9 16 15 18 16 19 17 20 18 21 28 22 29 23
REMARK SMILES IDX 30 24 31 26 32 27 35 28 33 29 34 30 36 31 5 32 6 33 7 34
REMARK SMILES IDX 8 35 3 38 4 39 2 40 1 41
REMARK H PARENT 19 10 28 25 6 36
REMARK Flexibility Score:   91.900
ROOT
ATOM      1  C   UNL     1       1.640  -1.039  -2.891  1.00  0.00     0.183 C 
ENDROOT
BRANCH   1   2
ATOM      2  C   UNL     1       0.440  -1.852  -2.498  1.00  0.00     0.113 A 
ATOM      3  C   UNL     1      -0.997  -3.554  -2.438  1.00  0.00     0.139 A 
ATOM      4  N   UNL     1       0.259  -3.109  -2.858  1.00  0.00    -0.234 NA
ATOM      5  C   UNL     1      -1.718  -2.628  -1.711  1.00  0.00     0.101 A 
ATOM      6  S   UNL     1      -0.829  -1.167  -1.568  1.00  0.00    -0.125 S 
BRANCH   3   7
ATOM      7  C   UNL     1      -1.462  -4.892  -2.811  1.00  0.00     0.271 C 
ATOM      8  N   UNL     1      -2.340  -4.846  -3.866  1.00  0.00    -0.341 N 
ATOM      9  O   UNL     1      -1.131  -5.915  -2.226  1.00  0.00    -0.267 OA
ATOM     10  H   UNL     1      -2.501  -3.922  -4.265  1.00  0.00     0.164 HD
BRANCH   8  11
ATOM     11  C   UNL     1      -3.110  -5.985  -4.338  1.00  0.00     0.140 C 
BRANCH  11  12
ATOM     12  C   UNL     1      -2.133  -6.985  -4.964  1.00  0.00     0.091 C 
ATOM     13  S   UNL     1      -2.183  -8.674  -4.515  1.00  0.00    -0.106 SA
ATOM     14  C   UNL     1      -1.080  -9.084  -5.884  1.00  0.00     0.113 C 
ATOM     15  N   UNL     1      -1.198  -6.613  -5.781  1.00  0.00    -0.267 NA
ATOM     16  C   UNL     1      -0.337  -7.783  -6.143  1.00  0.00     0.205 CG0
ATOM     17  G   UNL     1       0.989  -7.749  -5.364  1.00  0.00     0.000 G0
ENDBRANCH  11  12
BRANCH  11  18
ATOM     18  C   UNL     1      -4.102  -6.553  -3.291  1.00  0.00     0.015 C 
ATOM     19  C   UNL     1      -4.503  -5.464  -2.288  1.00  0.00     0.010 C 
BRANCH  18  20
ATOM     20  C   UNL     1      -5.340  -7.252  -3.889  1.00  0.00     0.002 C 
ATOM     21  C   UNL     1      -6.654  -6.709  -3.339  1.00  0.00     0.004 C 
ENDBRANCH  18  20
ENDBRANCH  11  18
ENDBRANCH   8  11
ENDBRANCH   3   7
ENDBRANCH   1   2
BRANCH   1  22
ATOM     22  N   UNL     1       2.431  -1.845  -3.795  1.00  0.00    -0.348 N 
ATOM     23  C   UNL     1       3.720  -2.240  -3.561  1.00  0.00     0.249 C 
ATOM     24  O   UNL     1       4.311  -2.019  -2.510  1.00  0.00    -0.272 OA
ATOM     25  H   UNL     1       2.043  -2.068  -4.710  1.00  0.00     0.163 HD
BRANCH  23  26
ATOM     26  C   UNL     1       4.318  -3.040  -4.728  1.00  0.00     0.238 C 
ATOM     27  N   UNL     1       4.420  -4.475  -4.339  1.00  0.00    -0.236 NA
ATOM     28  C   UNL     1       3.421  -3.014  -5.954  1.00  0.00     0.206 C 
ATOM     29  C   UNL     1       3.529  -5.050  -5.090  1.00  0.00     0.208 C 
ATOM     30  O   UNL     1       2.811  -4.304  -5.965  1.00  0.00    -0.474 OA
ATOM     31  C   UNL     1       4.205  -2.836  -7.248  1.00  0.00     0.056 C 
BRANCH  29  32
ATOM     32  C   UNL     1       3.142  -6.527  -5.065  1.00  0.00     0.171 C 
BRANCH  32  33
ATOM     33  N   UNL     1       1.870  -6.742  -5.737  1.00  0.00    -0.342 N 
ATOM     34  C   UNL     1       0.995  -7.735  -5.366  1.00  0.00     0.246 CG0
ATOM     35  O   UNL     1       1.229  -8.529  -4.459  1.00  0.00    -0.273 OA
ATOM     36  H   UNL     1       1.599  -6.182  -6.538  1.00  0.00     0.164 HD
ATOM     37  G   UNL     1      -0.319  -7.756  -6.164  1.00  0.00     0.000 G0
ENDBRANCH  32  33
BRANCH  32  38
ATOM     38  C   UNL     1       4.283  -7.396  -5.657  1.00  0.00     0.017 C 
ATOM     39  C   UNL     1       4.972  -6.649  -6.806  1.00  0.00     0.010 C 
BRANCH  38  40
ATOM     40  C   UNL     1       5.299  -7.864  -4.591  1.00  0.00     0.002 C 
ATOM     41  C   UNL     1       6.445  -8.689  -5.162  1.00  0.00     0.004 C 
ENDBRANCH  38  40
ENDBRANCH  32  38
ENDBRANCH  29  32
ENDBRANCH  23  26
ENDBRANCH   1  22
TORSDOF 4
ENDMDL
MODEL 31
REMARK VINA RESULT:    -4.467      2.930      6.921
REMARK INTER + INTRA:          -9.261
REMARK INTER:                  -7.894
REMARK INTRA:                  -1.367
REMARK UNBOUND:                -1.660
REMARK SMILES CC[C@H](C)[C@@H]1NC(=O)[C@H]2CSC(=N2)[C@@H]([C@@H](C)CC)NC(=O)c2csc(n2)CNC(=O)[C@H]2N=C1O[C@@H]2C
REMARK SMILES IDX 27 1 25 2 22 3 26 4 23 5 24 6 20 7 19 8 21 9 14 11 12 12
REMARK SMILES IDX 11 13 10 14 13 15 9 16 15 18 16 19 17 20 18 21 28 22 29 23
REMARK SMILES IDX 30 24 31 26 32 27 35 28 33 29 34 30 36 31 5 32 6 33 7 34
REMARK SMILES IDX 8 35 3 38 4 39 2 40 1 41
REMARK H PARENT 19 10 28 25 6 36
REMARK Flexibility Score:   91.900
ROOT
ATOM      1  C   UNL     1      -2.942  -8.618  -1.196  1.00  0.00     0.183 C 
ENDROOT
BRANCH   1   2
ATOM      2  C   UNL     1      -2.580  -7.241  -0.718  1.00  0.00     0.113 A 
ATOM      3  C   UNL     1      -1.474  -5.313  -0.557  1.00  0.00     0.139 A 
ATOM      4  N   UNL     1      -1.665  -6.484  -1.294  1.00  0.00    -0.234 NA
ATOM      5  C   UNL     1      -2.302  -5.187   0.541  1.00  0.00     0.101 A 
ATOM      6  S   UNL     1      -3.321  -6.562   0.673  1.00  0.00    -0.125 S 
BRANCH   3   7
ATOM      7  C   UNL     1      -0.432  -4.362  -0.951  1.00  0.00     0.271 C 
ATOM      8  N   UNL     1       0.133  -4.699  -2.156  1.00  0.00    -0.341 N 
ATOM      9  O   UNL     1      -0.091  -3.405  -0.266  1.00  0.00    -0.267 OA
ATOM     10  H   UNL     1      -0.273  -5.511  -2.621  1.00  0.00     0.164 HD
BRANCH   8  11
ATOM     11  C   UNL     1       1.311  -4.057  -2.714  1.00  0.00     0.140 C 
BRANCH  11  12
ATOM     12  C   UNL     1       2.068  -5.101  -3.540  1.00  0.00     0.091 C 
ATOM     13  S   UNL     1       3.313  -4.610  -4.666  1.00  0.00    -0.106 SA
ATOM     14  C   UNL     1       3.841  -6.327  -4.849  1.00  0.00     0.113 C 
ATOM     15  N   UNL     1       1.770  -6.362  -3.493  1.00  0.00    -0.267 NA
ATOM     16  C   UNL     1       2.599  -7.123  -4.481  1.00  0.00     0.205 CG0
ATOM     17  G   UNL     1       1.780  -7.464  -5.736  1.00  0.00     0.000 G0
ENDBRANCH  11  12
BRANCH  11  18
ATOM     18  C   UNL     1       1.021  -2.704  -3.413  1.00  0.00     0.015 C 
ATOM     19  C   UNL     1      -0.491  -2.501  -3.577  1.00  0.00     0.010 C 
BRANCH  18  20
ATOM     20  C   UNL     1       1.685  -1.480  -2.750  1.00  0.00     0.002 C 
ATOM     21  C   UNL     1       3.184  -1.401  -3.012  1.00  0.00     0.004 C 
ENDBRANCH  18  20
ENDBRANCH  11  18
ENDBRANCH   8  11
ENDBRANCH   3   7
ENDBRANCH   1   2
BRANCH   1  22
ATOM     22  N   UNL     1      -3.076  -8.556  -2.634  1.00  0.00    -0.348 N 
ATOM     23  C   UNL     1      -3.334  -9.631  -3.441  1.00  0.00     0.249 C 
ATOM     24  O   UNL     1      -3.563 -10.755  -3.009  1.00  0.00    -0.272 OA
ATOM     25  H   UNL     1      -2.884  -7.670  -3.101  1.00  0.00     0.163 HD
BRANCH  23  26
ATOM     26  C   UNL     1      -3.365  -9.263  -4.932  1.00  0.00     0.238 C 
ATOM     27  N   UNL     1      -2.167  -8.441  -5.260  1.00  0.00    -0.236 NA
ATOM     28  C   UNL     1      -3.274 -10.490  -5.822  1.00  0.00     0.206 C 
ATOM     29  C   UNL     1      -1.460  -9.233  -6.009  1.00  0.00     0.208 C 
ATOM     30  O   UNL     1      -1.930 -10.470  -6.301  1.00  0.00    -0.474 OA
ATOM     31  C   UNL     1      -4.216 -10.417  -7.016  1.00  0.00     0.056 C 
BRANCH  29  32
ATOM     32  C   UNL     1      -0.077  -8.938  -6.583  1.00  0.00     0.171 C 
BRANCH  32  33
ATOM     33  N   UNL     1       0.837  -8.502  -5.539  1.00  0.00    -0.342 N 
ATOM     34  C   UNL     1       1.767  -7.509  -5.736  1.00  0.00     0.246 CG0
ATOM     35  O   UNL     1       1.916  -6.934  -6.811  1.00  0.00    -0.273 OA
ATOM     36  H   UNL     1       0.843  -8.947  -4.628  1.00  0.00     0.164 HD
ATOM     37  G   UNL     1       2.595  -7.156  -4.489  1.00  0.00     0.000 G0
ENDBRANCH  32  33
BRANCH  32  38
ATOM     38  C   UNL     1       0.459 -10.166  -7.366  1.00  0.00     0.017 C 
ATOM     39  C   UNL     1       0.912  -9.740  -8.769  1.00  0.00     0.010 C 
BRANCH  38  40
ATOM     40  C   UNL     1       1.577 -10.921  -6.612  1.00  0.00     0.002 C 
ATOM     41  C   UNL     1       2.272 -11.982  -7.455  1.00  0.00     0.004 C 
ENDBRANCH  38  40
ENDBRANCH  32  38
ENDBRANCH  29  32
ENDBRANCH  23  26
ENDBRANCH   1  22
TORSDOF 4
ENDMDL
MODEL 32
REMARK VINA RESULT:    -4.456      2.292      6.435
REMARK INTER + INTRA:          -9.242
REMARK INTER:                  -7.557
REMARK INTRA:                  -1.685
REMARK UNBOUND:                -1.660
REMARK SMILES CC[C@H](C)[C@@H]1NC(=O)[C@H]2CSC(=N2)[C@@H]([C@@H](C)CC)NC(=O)c2csc(n2)CNC(=O)[C@H]2N=C1O[C@@H]2C
REMARK SMILES IDX 27 1 25 2 22 3 26 4 23 5 24 6 20 7 19 8 21 9 14 11 12 12
REMARK SMILES IDX 11 13 10 14 13 15 9 16 15 18 16 19 17 20 18 21 28 22 29 23
REMARK SMILES IDX 30 24 31 26 32 27 35 28 33 29 34 30 36 31 5 32 6 33 7 34
REMARK SMILES IDX 8 35 3 38 4 39 2 40 1 41
REMARK H PARENT 19 10 28 25 6 36
REMARK Flexibility Score:   91.900
ROOT
ATOM      1  C   UNL     1      -2.465  -4.348  -3.460  1.00  0.00     0.183 C 
ENDROOT
BRANCH   1   2
ATOM      2  C   UNL     1      -1.053  -4.358  -2.950  1.00  0.00     0.113 A 
ATOM      3  C   UNL     1       1.175  -4.417  -2.980  1.00  0.00     0.139 A 
ATOM      4  N   UNL     1       0.008  -4.262  -3.731  1.00  0.00    -0.234 NA
ATOM      5  C   UNL     1       0.966  -4.569  -1.623  1.00  0.00     0.101 A 
ATOM      6  S   UNL     1      -0.715  -4.546  -1.277  1.00  0.00    -0.125 S 
BRANCH   3   7
ATOM      7  C   UNL     1       2.478  -4.447  -3.648  1.00  0.00     0.271 C 
ATOM      8  N   UNL     1       2.453  -3.759  -4.836  1.00  0.00    -0.341 N 
ATOM      9  O   UNL     1       3.453  -5.043  -3.210  1.00  0.00    -0.267 OA
ATOM     10  H   UNL     1       1.574  -3.293  -5.057  1.00  0.00     0.164 HD
BRANCH   8  11
ATOM     11  C   UNL     1       3.534  -3.767  -5.808  1.00  0.00     0.140 C 
BRANCH  11  12
ATOM     12  C   UNL     1       3.345  -4.991  -6.710  1.00  0.00     0.091 C 
ATOM     13  S   UNL     1       4.019  -5.017  -8.322  1.00  0.00    -0.106 SA
ATOM     14  C   UNL     1       3.674  -6.784  -8.452  1.00  0.00     0.113 C 
ATOM     15  N   UNL     1       2.628  -6.007  -6.347  1.00  0.00    -0.267 NA
ATOM     16  C   UNL     1       2.535  -6.997  -7.466  1.00  0.00     0.205 CG0
ATOM     17  G   UNL     1       1.175  -6.896  -8.176  1.00  0.00     0.000 G0
ENDBRANCH  11  12
BRANCH  11  18
ATOM     18  C   UNL     1       3.748  -2.409  -6.525  1.00  0.00     0.015 C 
ATOM     19  C   UNL     1       2.634  -1.424  -6.147  1.00  0.00     0.010 C 
BRANCH  18  20
ATOM     20  C   UNL     1       5.144  -1.787  -6.323  1.00  0.00     0.002 C 
ATOM     21  C   UNL     1       5.175  -0.289  -6.605  1.00  0.00     0.004 C 
ENDBRANCH  18  20
ENDBRANCH  11  18
ENDBRANCH   8  11
ENDBRANCH   3   7
ENDBRANCH   1   2
BRANCH   1  22
ATOM     22  N   UNL     1      -2.670  -5.580  -4.190  1.00  0.00    -0.348 N 
ATOM     23  C   UNL     1      -3.856  -5.963  -4.754  1.00  0.00     0.249 C 
ATOM     24  O   UNL     1      -4.854  -5.251  -4.770  1.00  0.00    -0.272 OA
ATOM     25  H   UNL     1      -1.909  -6.258  -4.219  1.00  0.00     0.163 HD
BRANCH  23  26
ATOM     26  C   UNL     1      -3.781  -7.348  -5.414  1.00  0.00     0.238 C 
ATOM     27  N   UNL     1      -3.338  -7.195  -6.828  1.00  0.00    -0.236 NA
ATOM     28  C   UNL     1      -2.740  -8.237  -4.756  1.00  0.00     0.206 C 
ATOM     29  C   UNL     1      -2.146  -7.712  -6.824  1.00  0.00     0.208 C 
ATOM     30  O   UNL     1      -1.648  -8.230  -5.674  1.00  0.00    -0.474 OA
ATOM     31  C   UNL     1      -3.221  -9.671  -4.583  1.00  0.00     0.056 C 
BRANCH  29  32
ATOM     32  C   UNL     1      -1.177  -7.763  -8.002  1.00  0.00     0.171 C 
BRANCH  32  33
ATOM     33  N   UNL     1       0.202  -7.708  -7.544  1.00  0.00    -0.342 N 
ATOM     34  C   UNL     1       1.160  -6.943  -8.165  1.00  0.00     0.246 CG0
ATOM     35  O   UNL     1       0.933  -6.268  -9.166  1.00  0.00    -0.273 OA
ATOM     36  H   UNL     1       0.517  -8.271  -6.760  1.00  0.00     0.164 HD
ATOM     37  G   UNL     1       2.540  -6.978  -7.489  1.00  0.00     0.000 G0
ENDBRANCH  32  33
BRANCH  32  38
ATOM     38  C   UNL     1      -1.461  -9.006  -8.886  1.00  0.00     0.017 C 
ATOM     39  C   UNL     1      -1.417  -8.619 -10.369  1.00  0.00     0.010 C 
BRANCH  38  40
ATOM     40  C   UNL     1      -0.519 -10.192  -8.578  1.00  0.00     0.002 C 
ATOM     41  C   UNL     1      -1.146 -11.252  -7.681  1.00  0.00     0.004 C 
ENDBRANCH  38  40
ENDBRANCH  32  38
ENDBRANCH  29  32
ENDBRANCH  23  26
ENDBRANCH   1  22
TORSDOF 4
ENDMDL
MODEL 33
REMARK VINA RESULT:    -4.429      2.770      7.019
REMARK INTER + INTRA:          -9.196
REMARK INTER:                  -7.999
REMARK INTRA:                  -1.196
REMARK UNBOUND:                -1.660
REMARK SMILES CC[C@H](C)[C@@H]1NC(=O)[C@H]2CSC(=N2)[C@@H]([C@@H](C)CC)NC(=O)c2csc(n2)CNC(=O)[C@H]2N=C1O[C@@H]2C
REMARK SMILES IDX 27 1 25 2 22 3 26 4 23 5 24 6 20 7 19 8 21 9 14 11 12 12
REMARK SMILES IDX 11 13 10 14 13 15 9 16 15 18 16 19 17 20 18 21 28 22 29 23
REMARK SMILES IDX 30 24 31 26 32 27 35 28 33 29 34 30 36 31 5 32 6 33 7 34
REMARK SMILES IDX 8 35 3 38 4 39 2 40 1 41
REMARK H PARENT 19 10 28 25 6 36
REMARK Flexibility Score:   91.900
ROOT
ATOM      1  C   UNL     1      -4.901  -7.999  -2.859  1.00  0.00     0.183 C 
ENDROOT
BRANCH   1   2
ATOM      2  C   UNL     1      -4.364  -7.216  -1.696  1.00  0.00     0.113 A 
ATOM      3  C   UNL     1      -3.006  -5.899  -0.519  1.00  0.00     0.139 A 
ATOM      4  N   UNL     1      -3.340  -6.387  -1.783  1.00  0.00    -0.234 NA
ATOM      5  C   UNL     1      -3.833  -6.332   0.499  1.00  0.00     0.101 A 
ATOM      6  S   UNL     1      -5.035  -7.387  -0.125  1.00  0.00    -0.125 S 
BRANCH   3   7
ATOM      7  C   UNL     1      -1.834  -5.035  -0.353  1.00  0.00     0.271 C 
ATOM      8  N   UNL     1      -1.208  -4.797  -1.551  1.00  0.00    -0.341 N 
ATOM      9  O   UNL     1      -1.449  -4.612   0.730  1.00  0.00    -0.267 OA
ATOM     10  H   UNL     1      -1.659  -5.198  -2.372  1.00  0.00     0.164 HD
BRANCH   8  11
ATOM     11  C   UNL     1       0.079  -4.133  -1.682  1.00  0.00     0.140 C 
BRANCH  11  12
ATOM     12  C   UNL     1       0.945  -4.971  -2.627  1.00  0.00     0.091 C 
ATOM     13  S   UNL     1       2.406  -4.304  -3.318  1.00  0.00    -0.106 SA
ATOM     14  C   UNL     1       2.895  -5.943  -3.897  1.00  0.00     0.113 C 
ATOM     15  N   UNL     1       0.596  -6.161  -3.005  1.00  0.00    -0.267 NA
ATOM     16  C   UNL     1       1.575  -6.690  -4.006  1.00  0.00     0.205 CG0
ATOM     17  G   UNL     1       1.009  -6.589  -5.432  1.00  0.00     0.000 G0
ENDBRANCH  11  12
BRANCH  11  18
ATOM     18  C   UNL     1      -0.021  -2.619  -2.000  1.00  0.00     0.015 C 
ATOM     19  C   UNL     1      -0.406  -2.405  -3.470  1.00  0.00     0.010 C 
BRANCH  18  20
ATOM     20  C   UNL     1      -0.943  -1.822  -1.055  1.00  0.00     0.002 C 
ATOM     21  C   UNL     1      -0.934  -0.324  -1.337  1.00  0.00     0.004 C 
ENDBRANCH  18  20
ENDBRANCH  11  18
ENDBRANCH   8  11
ENDBRANCH   3   7
ENDBRANCH   1   2
BRANCH   1  22
ATOM     22  N   UNL     1      -4.406  -7.377  -4.066  1.00  0.00    -0.348 N 
ATOM     23  C   UNL     1      -4.529  -7.905  -5.323  1.00  0.00     0.249 C 
ATOM     24  O   UNL     1      -5.155  -8.931  -5.562  1.00  0.00    -0.272 OA
ATOM     25  H   UNL     1      -3.849  -6.527  -3.980  1.00  0.00     0.163 HD
BRANCH  23  26
ATOM     26  C   UNL     1      -3.854  -7.042  -6.400  1.00  0.00     0.238 C 
ATOM     27  N   UNL     1      -2.407  -6.899  -6.078  1.00  0.00    -0.236 NA
ATOM     28  C   UNL     1      -3.904  -7.699  -7.768  1.00  0.00     0.206 C 
ATOM     29  C   UNL     1      -1.825  -7.589  -7.013  1.00  0.00     0.208 C 
ATOM     30  O   UNL     1      -2.579  -8.192  -7.964  1.00  0.00    -0.474 OA
ATOM     31  C   UNL     1      -4.223  -6.709  -8.881  1.00  0.00     0.056 C 
BRANCH  29  32
ATOM     32  C   UNL     1      -0.327  -7.854  -7.142  1.00  0.00     0.171 C 
BRANCH  32  33
ATOM     33  N   UNL     1       0.332  -7.747  -5.850  1.00  0.00    -0.342 N 
ATOM     34  C   UNL     1       1.004  -6.615  -5.453  1.00  0.00     0.246 CG0
ATOM     35  O   UNL     1       1.121  -5.621  -6.165  1.00  0.00    -0.273 OA
ATOM     36  H   UNL     1       0.350  -8.529  -5.204  1.00  0.00     0.164 HD
ATOM     37  G   UNL     1       1.580  -6.683  -4.029  1.00  0.00     0.000 G0
ENDBRANCH  32  33
BRANCH  32  38
ATOM     38  C   UNL     1      -0.076  -9.224  -7.826  1.00  0.00     0.017 C 
ATOM     39  C   UNL     1       0.348  -9.014  -9.285  1.00  0.00     0.010 C 
BRANCH  38  40
ATOM     40  C   UNL     1       0.939 -10.103  -7.059  1.00  0.00     0.002 C 
ATOM     41  C   UNL     1       0.466 -11.535  -6.847  1.00  0.00     0.004 C 
ENDBRANCH  38  40
ENDBRANCH  32  38
ENDBRANCH  29  32
ENDBRANCH  23  26
ENDBRANCH   1  22
TORSDOF 4
ENDMDL
MODEL 34
REMARK VINA RESULT:    -4.421      2.902      6.183
REMARK INTER + INTRA:          -9.182
REMARK INTER:                  -7.579
REMARK INTRA:                  -1.603
REMARK UNBOUND:                -1.660
REMARK SMILES CC[C@H](C)[C@@H]1NC(=O)[C@H]2CSC(=N2)[C@@H]([C@@H](C)CC)NC(=O)c2csc(n2)CNC(=O)[C@H]2N=C1O[C@@H]2C
REMARK SMILES IDX 27 1 25 2 22 3 26 4 23 5 24 6 20 7 19 8 21 9 14 11 12 12
REMARK SMILES IDX 11 13 10 14 13 15 9 16 15 18 16 19 17 20 18 21 28 22 29 23
REMARK SMILES IDX 30 24 31 26 32 27 35 28 33 29 34 30 36 31 5 32 6 33 7 34
REMARK SMILES IDX 8 35 3 38 4 39 2 40 1 41
REMARK H PARENT 19 10 28 25 6 36
REMARK Flexibility Score:   91.900
ROOT
ATOM      1  C   UNL     1       0.004  -2.682  -2.943  1.00  0.00     0.183 C 
ENDROOT
BRANCH   1   2
ATOM      2  C   UNL     1       0.893  -3.502  -3.833  1.00  0.00     0.113 A 
ATOM      3  C   UNL     1       1.630  -5.247  -5.008  1.00  0.00     0.139 A 
ATOM      4  N   UNL     1       0.557  -4.685  -4.313  1.00  0.00    -0.234 NA
ATOM      5  C   UNL     1       2.747  -4.438  -5.085  1.00  0.00     0.101 A 
ATOM      6  S   UNL     1       2.466  -2.961  -4.257  1.00  0.00    -0.125 S 
BRANCH   3   7
ATOM      7  C   UNL     1       1.525  -6.604  -5.547  1.00  0.00     0.271 C 
ATOM      8  N   UNL     1       1.118  -6.597  -6.858  1.00  0.00    -0.341 N 
ATOM      9  O   UNL     1       1.742  -7.615  -4.891  1.00  0.00    -0.267 OA
ATOM     10  H   UNL     1       0.999  -5.676  -7.278  1.00  0.00     0.164 HD
BRANCH   8  11
ATOM     11  C   UNL     1       0.745  -7.788  -7.604  1.00  0.00     0.140 C 
BRANCH  11  12
ATOM     12  C   UNL     1      -0.781  -7.807  -7.726  1.00  0.00     0.091 C 
ATOM     13  S   UNL     1      -1.569  -7.109  -9.122  1.00  0.00    -0.106 SA
ATOM     14  C   UNL     1      -3.134  -7.865  -8.632  1.00  0.00     0.113 C 
ATOM     15  N   UNL     1      -1.540  -8.267  -6.781  1.00  0.00    -0.267 NA
ATOM     16  C   UNL     1      -2.980  -8.059  -7.132  1.00  0.00     0.205 CG0
ATOM     17  G   UNL     1      -3.564  -6.861  -6.365  1.00  0.00     0.000 G0
ENDBRANCH  11  12
BRANCH  11  18
ATOM     18  C   UNL     1       1.544  -7.984  -8.918  1.00  0.00     0.015 C 
ATOM     19  C   UNL     1       2.615  -6.895  -9.061  1.00  0.00     0.010 C 
BRANCH  18  20
ATOM     20  C   UNL     1       2.144  -9.392  -9.104  1.00  0.00     0.002 C 
ATOM     21  C   UNL     1       2.298 -10.152  -7.791  1.00  0.00     0.004 C 
ENDBRANCH  18  20
ENDBRANCH  11  18
ENDBRANCH   8  11
ENDBRANCH   3   7
ENDBRANCH   1   2
BRANCH   1  22
ATOM     22  N   UNL     1      -1.050  -3.550  -2.467  1.00  0.00    -0.348 N 
ATOM     23  C   UNL     1      -0.973  -4.326  -1.343  1.00  0.00     0.249 C 
ATOM     24  O   UNL     1      -0.020  -4.298  -0.571  1.00  0.00    -0.272 OA
ATOM     25  H   UNL     1      -1.881  -3.665  -3.046  1.00  0.00     0.163 HD
BRANCH  23  26
ATOM     26  C   UNL     1      -2.228  -5.184  -1.123  1.00  0.00     0.238 C 
ATOM     27  N   UNL     1      -3.271  -4.789  -2.110  1.00  0.00    -0.236 NA
ATOM     28  C   UNL     1      -1.962  -6.657  -1.380  1.00  0.00     0.206 C 
ATOM     29  C   UNL     1      -3.343  -5.821  -2.896  1.00  0.00     0.208 C 
ATOM     30  O   UNL     1      -2.559  -6.900  -2.653  1.00  0.00    -0.474 OA
ATOM     31  C   UNL     1      -2.629  -7.559  -0.350  1.00  0.00     0.056 C 
BRANCH  29  32
ATOM     32  C   UNL     1      -4.209  -5.947  -4.147  1.00  0.00     0.171 C 
BRANCH  32  33
ATOM     33  N   UNL     1      -3.717  -7.005  -5.015  1.00  0.00    -0.342 N 
ATOM     34  C   UNL     1      -3.573  -6.843  -6.372  1.00  0.00     0.246 CG0
ATOM     35  O   UNL     1      -3.873  -5.806  -6.959  1.00  0.00    -0.273 OA
ATOM     36  H   UNL     1      -3.494  -7.924  -4.647  1.00  0.00     0.164 HD
ATOM     37  G   UNL     1      -2.982  -8.061  -7.100  1.00  0.00     0.000 G0
ENDBRANCH  32  33
BRANCH  32  38
ATOM     38  C   UNL     1      -5.698  -6.141  -3.759  1.00  0.00     0.017 C 
ATOM     39  C   UNL     1      -6.603  -5.407  -4.757  1.00  0.00     0.010 C 
BRANCH  38  40
ATOM     40  C   UNL     1      -6.095  -7.629  -3.617  1.00  0.00     0.002 C 
ATOM     41  C   UNL     1      -6.990  -7.909  -2.418  1.00  0.00     0.004 C 
ENDBRANCH  38  40
ENDBRANCH  32  38
ENDBRANCH  29  32
ENDBRANCH  23  26
ENDBRANCH   1  22
TORSDOF 4
ENDMDL
MODEL 35
REMARK VINA RESULT:    -4.370      3.583      7.262
REMARK INTER + INTRA:          -9.095
REMARK INTER:                  -7.901
REMARK INTRA:                  -1.194
REMARK UNBOUND:                -1.660
REMARK SMILES CC[C@H](C)[C@@H]1NC(=O)[C@H]2CSC(=N2)[C@@H]([C@@H](C)CC)NC(=O)c2csc(n2)CNC(=O)[C@H]2N=C1O[C@@H]2C
REMARK SMILES IDX 27 1 25 2 22 3 26 4 23 5 24 6 20 7 19 8 21 9 14 11 12 12
REMARK SMILES IDX 11 13 10 14 13 15 9 16 15 18 16 19 17 20 18 21 28 22 29 23
REMARK SMILES IDX 30 24 31 26 32 27 35 28 33 29 34 30 36 31 5 32 6 33 7 34
REMARK SMILES IDX 8 35 3 38 4 39 2 40 1 41
REMARK H PARENT 19 10 28 25 6 36
REMARK Flexibility Score:   91.900
ROOT
ATOM      1  C   UNL     1       2.150  -0.995  -2.105  1.00  0.00     0.183 C 
ENDROOT
BRANCH   1   2
ATOM      2  C   UNL     1       0.648  -1.016  -2.113  1.00  0.00     0.113 A 
ATOM      3  C   UNL     1      -1.426  -1.823  -2.008  1.00  0.00     0.139 A 
ATOM      4  N   UNL     1      -0.070  -2.078  -1.796  1.00  0.00    -0.234 NA
ATOM      5  C   UNL     1      -1.708  -0.539  -2.431  1.00  0.00     0.101 A 
ATOM      6  S   UNL     1      -0.256   0.362  -2.592  1.00  0.00    -0.125 S 
BRANCH   3   7
ATOM      7  C   UNL     1      -2.411  -2.891  -1.818  1.00  0.00     0.271 C 
ATOM      8  N   UNL     1      -1.954  -3.852  -0.950  1.00  0.00    -0.341 N 
ATOM      9  O   UNL     1      -3.491  -2.930  -2.394  1.00  0.00    -0.267 OA
ATOM     10  H   UNL     1      -1.044  -3.669  -0.530  1.00  0.00     0.164 HD
BRANCH   8  11
ATOM     11  C   UNL     1      -2.624  -5.119  -0.709  1.00  0.00     0.140 C 
BRANCH  11  12
ATOM     12  C   UNL     1      -2.203  -6.091  -1.815  1.00  0.00     0.091 C 
ATOM     13  S   UNL     1      -2.289  -7.818  -1.559  1.00  0.00    -0.106 SA
ATOM     14  C   UNL     1      -2.012  -8.105  -3.320  1.00  0.00     0.113 C 
ATOM     15  N   UNL     1      -1.705  -5.678  -2.938  1.00  0.00    -0.267 NA
ATOM     16  C   UNL     1      -1.289  -6.847  -3.776  1.00  0.00     0.205 CG0
ATOM     17  G   UNL     1       0.234  -7.046  -3.722  1.00  0.00     0.000 G0
ENDBRANCH  11  12
BRANCH  11  18
ATOM     18  C   UNL     1      -2.492  -5.634   0.748  1.00  0.00     0.015 C 
ATOM     19  C   UNL     1      -1.457  -4.803   1.518  1.00  0.00     0.010 C 
BRANCH  18  20
ATOM     20  C   UNL     1      -3.823  -5.732   1.520  1.00  0.00     0.002 C 
ATOM     21  C   UNL     1      -3.958  -7.029   2.311  1.00  0.00     0.004 C 
ENDBRANCH  18  20
ENDBRANCH  11  18
ENDBRANCH   8  11
ENDBRANCH   3   7
ENDBRANCH   1   2
BRANCH   1  22
ATOM     22  N   UNL     1       2.600  -1.820  -3.204  1.00  0.00    -0.348 N 
ATOM     23  C   UNL     1       3.890  -2.238  -3.387  1.00  0.00     0.249 C 
ATOM     24  O   UNL     1       4.788  -2.023  -2.581  1.00  0.00    -0.272 OA
ATOM     25  H   UNL     1       1.938  -2.040  -3.947  1.00  0.00     0.163 HD
BRANCH  23  26
ATOM     26  C   UNL     1       4.073  -3.055  -4.676  1.00  0.00     0.238 C 
ATOM     27  N   UNL     1       4.077  -4.506  -4.341  1.00  0.00    -0.236 NA
ATOM     28  C   UNL     1       2.916  -2.863  -5.640  1.00  0.00     0.206 C 
ATOM     29  C   UNL     1       2.962  -4.933  -4.853  1.00  0.00     0.208 C 
ATOM     30  O   UNL     1       2.157  -4.065  -5.514  1.00  0.00    -0.474 OA
ATOM     31  C   UNL     1       3.375  -2.729  -7.086  1.00  0.00     0.056 C 
BRANCH  29  32
ATOM     32  C   UNL     1       2.402  -6.349  -4.750  1.00  0.00     0.171 C 
BRANCH  32  33
ATOM     33  N   UNL     1       0.950  -6.329  -4.672  1.00  0.00    -0.342 N 
ATOM     34  C   UNL     1       0.249  -7.042  -3.729  1.00  0.00     0.246 CG0
ATOM     35  O   UNL     1       0.790  -7.769  -2.899  1.00  0.00    -0.273 OA
ATOM     36  H   UNL     1       0.396  -5.810  -5.345  1.00  0.00     0.164 HD
ATOM     37  G   UNL     1      -1.274  -6.839  -3.780  1.00  0.00     0.000 G0
ENDBRANCH  32  33
BRANCH  32  38
ATOM     38  C   UNL     1       2.923  -7.225  -5.920  1.00  0.00     0.017 C 
ATOM     39  C   UNL     1       2.615  -6.549  -7.262  1.00  0.00     0.010 C 
BRANCH  38  40
ATOM     40  C   UNL     1       4.424  -7.574  -5.789  1.00  0.00     0.002 C 
ATOM     41  C   UNL     1       4.725  -9.054  -5.988  1.00  0.00     0.004 C 
ENDBRANCH  38  40
ENDBRANCH  32  38
ENDBRANCH  29  32
ENDBRANCH  23  26
ENDBRANCH   1  22
TORSDOF 4
ENDMDL
MODEL 36
REMARK VINA RESULT:    -4.346      2.606      7.164
REMARK INTER + INTRA:          -9.055
REMARK INTER:                  -7.252
REMARK INTRA:                  -1.803
REMARK UNBOUND:                -1.660
REMARK SMILES CC[C@H](C)[C@@H]1NC(=O)[C@H]2CSC(=N2)[C@@H]([C@@H](C)CC)NC(=O)c2csc(n2)CNC(=O)[C@H]2N=C1O[C@@H]2C
REMARK SMILES IDX 27 1 25 2 22 3 26 4 23 5 24 6 20 7 19 8 21 9 14 11 12 12
REMARK SMILES IDX 11 13 10 14 13 15 9 16 15 18 16 19 17 20 18 21 28 22 29 23
REMARK SMILES IDX 30 24 31 26 32 27 35 28 33 29 34 30 36 31 5 32 6 33 7 34
REMARK SMILES IDX 8 35 3 38 4 39 2 40 1 41
REMARK H PARENT 19 10 28 25 6 36
REMARK Flexibility Score:   91.900
ROOT
ATOM      1  C   UNL     1      -3.967  -6.114  -3.918  1.00  0.00     0.183 C 
ENDROOT
BRANCH   1   2
ATOM      2  C   UNL     1      -2.661  -6.594  -3.354  1.00  0.00     0.113 A 
ATOM      3  C   UNL     1      -0.487  -7.075  -3.246  1.00  0.00     0.139 A 
ATOM      4  N   UNL     1      -1.498  -6.422  -3.954  1.00  0.00    -0.234 NA
ATOM      5  C   UNL     1      -0.908  -7.684  -2.080  1.00  0.00     0.101 A 
ATOM      6  S   UNL     1      -2.598  -7.462  -1.874  1.00  0.00    -0.125 S 
BRANCH   3   7
ATOM      7  C   UNL     1       0.877  -7.106  -3.776  1.00  0.00     0.271 C 
ATOM      8  N   UNL     1       0.969  -6.447  -4.977  1.00  0.00    -0.341 N 
ATOM      9  O   UNL     1       1.808  -7.681  -3.226  1.00  0.00    -0.267 OA
ATOM     10  H   UNL     1       0.112  -5.997  -5.299  1.00  0.00     0.164 HD
BRANCH   8  11
ATOM     11  C   UNL     1       2.144  -6.467  -5.833  1.00  0.00     0.140 C 
BRANCH  11  12
ATOM     12  C   UNL     1       1.731  -7.058  -7.184  1.00  0.00     0.091 C 
ATOM     13  S   UNL     1       2.380  -6.410  -8.672  1.00  0.00    -0.106 SA
ATOM     14  C   UNL     1       1.718  -7.817  -9.589  1.00  0.00     0.113 C 
ATOM     15  N   UNL     1       0.843  -7.997  -7.280  1.00  0.00    -0.267 NA
ATOM     16  C   UNL     1       0.566  -8.297  -8.721  1.00  0.00     0.205 CG0
ATOM     17  G   UNL     1      -0.757  -7.656  -9.170  1.00  0.00     0.000 G0
ENDBRANCH  11  12
BRANCH  11  18
ATOM     18  C   UNL     1       2.915  -5.123  -5.876  1.00  0.00     0.015 C 
ATOM     19  C   UNL     1       2.267  -4.104  -4.929  1.00  0.00     0.010 C 
BRANCH  18  20
ATOM     20  C   UNL     1       4.432  -5.242  -5.623  1.00  0.00     0.002 C 
ATOM     21  C   UNL     1       4.902  -6.686  -5.491  1.00  0.00     0.004 C 
ENDBRANCH  18  20
ENDBRANCH  11  18
ENDBRANCH   8  11
ENDBRANCH   3   7
ENDBRANCH   1   2
BRANCH   1  22
ATOM     22  N   UNL     1      -4.348  -7.031  -4.969  1.00  0.00    -0.348 N 
ATOM     23  C   UNL     1      -5.422  -6.862  -5.800  1.00  0.00     0.249 C 
ATOM     24  O   UNL     1      -6.128  -5.860  -5.790  1.00  0.00    -0.272 OA
ATOM     25  H   UNL     1      -3.840  -7.911  -5.052  1.00  0.00     0.163 HD
BRANCH  23  26
ATOM     26  C   UNL     1      -5.605  -8.030  -6.781  1.00  0.00     0.238 C 
ATOM     27  N   UNL     1      -5.176  -7.601  -8.141  1.00  0.00    -0.236 NA
ATOM     28  C   UNL     1      -4.720  -9.213  -6.429  1.00  0.00     0.206 C 
ATOM     29  C   UNL     1      -4.093  -8.290  -8.343  1.00  0.00     0.208 C 
ATOM     30  O   UNL     1      -3.666  -9.154  -7.389  1.00  0.00    -0.474 OA
ATOM     31  C   UNL     1      -5.439 -10.546  -6.578  1.00  0.00     0.056 C 
BRANCH  29  32
ATOM     32  C   UNL     1      -3.177  -8.200  -9.560  1.00  0.00     0.171 C 
BRANCH  32  33
ATOM     33  N   UNL     1      -1.818  -8.590  -9.217  1.00  0.00    -0.342 N 
ATOM     34  C   UNL     1      -0.779  -7.692  -9.173  1.00  0.00     0.246 CG0
ATOM     35  O   UNL     1      -0.910  -6.501  -9.443  1.00  0.00    -0.273 OA
ATOM     36  H   UNL     1      -1.581  -9.559  -9.033  1.00  0.00     0.164 HD
ATOM     37  G   UNL     1       0.565  -8.295  -8.732  1.00  0.00     0.000 G0
ENDBRANCH  32  33
BRANCH  32  38
ATOM     38  C   UNL     1      -3.755  -9.030 -10.736  1.00  0.00     0.017 C 
ATOM     39  C   UNL     1      -2.667  -9.283 -11.787  1.00  0.00     0.010 C 
BRANCH  38  40
ATOM     40  C   UNL     1      -4.418 -10.348 -10.276  1.00  0.00     0.002 C 
ATOM     41  C   UNL     1      -5.864 -10.495 -10.732  1.00  0.00     0.004 C 
ENDBRANCH  38  40
ENDBRANCH  32  38
ENDBRANCH  29  32
ENDBRANCH  23  26
ENDBRANCH   1  22
TORSDOF 4
ENDMDL
MODEL 37
REMARK VINA RESULT:    -4.332      2.552      5.329
REMARK INTER + INTRA:          -9.031
REMARK INTER:                  -7.521
REMARK INTRA:                  -1.509
REMARK UNBOUND:                -1.660
REMARK SMILES CC[C@H](C)[C@@H]1NC(=O)[C@H]2CSC(=N2)[C@@H]([C@@H](C)CC)NC(=O)c2csc(n2)CNC(=O)[C@H]2N=C1O[C@@H]2C
REMARK SMILES IDX 27 1 25 2 22 3 26 4 23 5 24 6 20 7 19 8 21 9 14 11 12 12
REMARK SMILES IDX 11 13 10 14 13 15 9 16 15 18 16 19 17 20 18 21 28 22 29 23
REMARK SMILES IDX 30 24 31 26 32 27 35 28 33 29 34 30 36 31 5 32 6 33 7 34
REMARK SMILES IDX 8 35 3 38 4 39 2 40 1 41
REMARK H PARENT 19 10 28 25 6 36
REMARK Flexibility Score:   91.900
ROOT
ATOM      1  C   UNL     1      -4.011  -8.632  -8.889  1.00  0.00     0.183 C 
ENDROOT
BRANCH   1   2
ATOM      2  C   UNL     1      -2.538  -8.925  -8.899  1.00  0.00     0.113 A 
ATOM      3  C   UNL     1      -0.341  -8.564  -8.989  1.00  0.00     0.139 A 
ATOM      4  N   UNL     1      -1.606  -7.991  -8.848  1.00  0.00    -0.234 NA
ATOM      5  C   UNL     1      -0.344  -9.942  -9.087  1.00  0.00     0.101 A 
ATOM      6  S   UNL     1      -1.954 -10.534  -9.027  1.00  0.00    -0.125 S 
BRANCH   3   7
ATOM      7  C   UNL     1       0.847  -7.710  -9.063  1.00  0.00     0.271 C 
ATOM      8  N   UNL     1       1.660  -7.879  -7.970  1.00  0.00    -0.341 N 
ATOM      9  O   UNL     1       1.062  -6.920  -9.974  1.00  0.00    -0.267 OA
ATOM     10  H   UNL     1       1.361  -8.591  -7.304  1.00  0.00     0.164 HD
BRANCH   8  11
ATOM     11  C   UNL     1       2.809  -7.041  -7.669  1.00  0.00     0.140 C 
BRANCH  11  12
ATOM     12  C   UNL     1       2.564  -6.378  -6.310  1.00  0.00     0.091 C 
ATOM     13  S   UNL     1       3.651  -6.668  -4.972  1.00  0.00    -0.106 SA
ATOM     14  C   UNL     1       2.882  -5.326  -4.040  1.00  0.00     0.113 C 
ATOM     15  N   UNL     1       1.519  -5.647  -6.081  1.00  0.00    -0.267 NA
ATOM     16  C   UNL     1       1.491  -5.225  -4.646  1.00  0.00     0.205 CG0
ATOM     17  G   UNL     1       0.487  -6.069  -3.845  1.00  0.00     0.000 G0
ENDBRANCH  11  12
BRANCH  11  18
ATOM     18  C   UNL     1       4.174  -7.753  -7.852  1.00  0.00     0.015 C 
ATOM     19  C   UNL     1       3.967  -9.176  -8.389  1.00  0.00     0.010 C 
BRANCH  18  20
ATOM     20  C   UNL     1       5.199  -6.974  -8.700  1.00  0.00     0.002 C 
ATOM     21  C   UNL     1       5.894  -7.843  -9.742  1.00  0.00     0.004 C 
ENDBRANCH  18  20
ENDBRANCH  11  18
ENDBRANCH   8  11
ENDBRANCH   3   7
ENDBRANCH   1   2
BRANCH   1  22
ATOM     22  N   UNL     1      -4.365  -8.238  -7.544  1.00  0.00    -0.348 N 
ATOM     23  C   UNL     1      -4.480  -6.944  -7.115  1.00  0.00     0.249 C 
ATOM     24  O   UNL     1      -4.376  -5.977  -7.860  1.00  0.00    -0.272 OA
ATOM     25  H   UNL     1      -4.454  -8.965  -6.834  1.00  0.00     0.163 HD
BRANCH  23  26
ATOM     26  C   UNL     1      -4.813  -6.840  -5.619  1.00  0.00     0.238 C 
ATOM     27  N   UNL     1      -3.700  -7.432  -4.825  1.00  0.00    -0.236 NA
ATOM     28  C   UNL     1      -4.919  -5.397  -5.158  1.00  0.00     0.206 C 
ATOM     29  C   UNL     1      -3.170  -6.399  -4.241  1.00  0.00     0.208 C 
ATOM     30  O   UNL     1      -3.702  -5.169  -4.449  1.00  0.00    -0.474 OA
ATOM     31  C   UNL     1      -6.086  -5.170  -4.206  1.00  0.00     0.056 C 
BRANCH  29  32
ATOM     32  C   UNL     1      -1.931  -6.401  -3.350  1.00  0.00     0.171 C 
BRANCH  32  33
ATOM     33  N   UNL     1      -0.834  -5.685  -3.983  1.00  0.00    -0.342 N 
ATOM     34  C   UNL     1       0.476  -6.081  -3.862  1.00  0.00     0.246 CG0
ATOM     35  O   UNL     1       0.825  -7.050  -3.192  1.00  0.00    -0.273 OA
ATOM     36  H   UNL     1      -0.999  -4.836  -4.512  1.00  0.00     0.164 HD
ATOM     37  G   UNL     1       1.476  -5.224  -4.655  1.00  0.00     0.000 G0
ENDBRANCH  32  33
BRANCH  32  38
ATOM     38  C   UNL     1      -2.273  -5.842  -1.944  1.00  0.00     0.017 C 
ATOM     39  C   UNL     1      -1.741  -6.786  -0.858  1.00  0.00     0.010 C 
BRANCH  38  40
ATOM     40  C   UNL     1      -1.775  -4.394  -1.733  1.00  0.00     0.002 C 
ATOM     41  C   UNL     1      -0.609  -4.286  -0.760  1.00  0.00     0.004 C 
ENDBRANCH  38  40
ENDBRANCH  32  38
ENDBRANCH  29  32
ENDBRANCH  23  26
ENDBRANCH   1  22
TORSDOF 4
ENDMDL
MODEL 38
REMARK VINA RESULT:    -4.305      2.921      7.290
REMARK INTER + INTRA:          -8.985
REMARK INTER:                  -9.478
REMARK INTRA:                   0.493
REMARK UNBOUND:                -1.660
REMARK SMILES CC[C@H](C)[C@@H]1NC(=O)[C@H]2CSC(=N2)[C@@H]([C@@H](C)CC)NC(=O)c2csc(n2)CNC(=O)[C@H]2N=C1O[C@@H]2C
REMARK SMILES IDX 27 1 25 2 22 3 26 4 23 5 24 6 20 7 19 8 21 9 14 11 12 12
REMARK SMILES IDX 11 13 10 14 13 15 9 16 15 18 16 19 17 20 18 21 28 22 29 23
REMARK SMILES IDX 30 24 31 26 32 27 35 28 33 29 34 30 36 31 5 32 6 33 7 34
REMARK SMILES IDX 8 35 3 38 4 39 2 40 1 41
REMARK H PARENT 19 10 28 25 6 36
REMARK Flexibility Score:   91.900
ROOT
ATOM      1  C   UNL     1       2.161  -8.314  -7.752  1.00  0.00     0.183 C 
ENDROOT
BRANCH   1   2
ATOM      2  C   UNL     1       2.665  -6.907  -7.599  1.00  0.00     0.113 A 
ATOM      3  C   UNL     1       2.959  -4.882  -6.715  1.00  0.00     0.139 A 
ATOM      4  N   UNL     1       2.479  -6.178  -6.514  1.00  0.00    -0.234 NA
ATOM      5  C   UNL     1       3.556  -4.678  -7.944  1.00  0.00     0.101 A 
ATOM      6  S   UNL     1       3.497  -6.118  -8.876  1.00  0.00    -0.125 S 
BRANCH   3   7
ATOM      7  C   UNL     1       2.772  -3.863  -5.681  1.00  0.00     0.271 C 
ATOM      8  N   UNL     1       2.725  -2.600  -6.218  1.00  0.00    -0.341 N 
ATOM      9  O   UNL     1       2.703  -4.112  -4.484  1.00  0.00    -0.267 OA
ATOM     10  H   UNL     1       2.772  -2.552  -7.236  1.00  0.00     0.164 HD
BRANCH   8  11
ATOM     11  C   UNL     1       2.734  -1.377  -5.433  1.00  0.00     0.140 C 
BRANCH  11  12
ATOM     12  C   UNL     1       1.669  -1.511  -4.341  1.00  0.00     0.091 C 
ATOM     13  S   UNL     1       2.025  -1.050  -2.693  1.00  0.00    -0.106 SA
ATOM     14  C   UNL     1       0.274  -1.167  -2.269  1.00  0.00     0.113 C 
ATOM     15  N   UNL     1       0.506  -2.032  -4.577  1.00  0.00    -0.267 NA
ATOM     16  C   UNL     1      -0.280  -2.131  -3.306  1.00  0.00     0.205 CG0
ATOM     17  G   UNL     1      -0.273  -3.571  -2.768  1.00  0.00     0.000 G0
ENDBRANCH  11  12
BRANCH  11  18
ATOM     18  C   UNL     1       4.147  -0.938  -4.968  1.00  0.00     0.015 C 
ATOM     19  C   UNL     1       4.872  -2.105  -4.285  1.00  0.00     0.010 C 
BRANCH  18  20
ATOM     20  C   UNL     1       5.018  -0.298  -6.068  1.00  0.00     0.002 C 
ATOM     21  C   UNL     1       6.063  -1.255  -6.631  1.00  0.00     0.004 C 
ENDBRANCH  18  20
ENDBRANCH  11  18
ENDBRANCH   8  11
ENDBRANCH   3   7
ENDBRANCH   1   2
BRANCH   1  22
ATOM     22  N   UNL     1       0.994  -8.449  -6.911  1.00  0.00    -0.348 N 
ATOM     23  C   UNL     1      -0.205  -7.828  -7.135  1.00  0.00     0.249 C 
ATOM     24  O   UNL     1      -0.436  -7.153  -8.131  1.00  0.00    -0.272 OA
ATOM     25  H   UNL     1       1.082  -8.973  -6.041  1.00  0.00     0.163 HD
BRANCH  23  26
ATOM     26  C   UNL     1      -1.241  -8.120  -6.038  1.00  0.00     0.238 C 
ATOM     27  N   UNL     1      -0.670  -7.750  -4.713  1.00  0.00    -0.236 NA
ATOM     28  C   UNL     1      -2.490  -7.270  -6.195  1.00  0.00     0.206 C 
ATOM     29  C   UNL     1      -1.371  -6.712  -4.366  1.00  0.00     0.208 C 
ATOM     30  O   UNL     1      -2.357  -6.270  -5.185  1.00  0.00    -0.474 OA
ATOM     31  C   UNL     1      -3.768  -8.056  -5.937  1.00  0.00     0.056 C 
BRANCH  29  32
ATOM     32  C   UNL     1      -1.173  -5.864  -3.113  1.00  0.00     0.171 C 
BRANCH  32  33
ATOM     33  N   UNL     1      -1.095  -4.451  -3.449  1.00  0.00    -0.342 N 
ATOM     34  C   UNL     1      -0.267  -3.576  -2.787  1.00  0.00     0.246 CG0
ATOM     35  O   UNL     1       0.449  -3.912  -1.848  1.00  0.00    -0.273 OA
ATOM     36  H   UNL     1      -1.686  -4.051  -4.171  1.00  0.00     0.164 HD
ATOM     37  G   UNL     1      -0.290  -2.140  -3.335  1.00  0.00     0.000 G0
ENDBRANCH  32  33
BRANCH  32  38
ATOM     38  C   UNL     1      -2.281  -6.167  -2.071  1.00  0.00     0.017 C 
ATOM     39  C   UNL     1      -1.703  -6.101  -0.652  1.00  0.00     0.010 C 
BRANCH  38  40
ATOM     40  C   UNL     1      -3.519  -5.254  -2.225  1.00  0.00     0.002 C 
ATOM     41  C   UNL     1      -4.806  -6.014  -2.515  1.00  0.00     0.004 C 
ENDBRANCH  38  40
ENDBRANCH  32  38
ENDBRANCH  29  32
ENDBRANCH  23  26
ENDBRANCH   1  22
TORSDOF 4
ENDMDL
MODEL 39
REMARK VINA RESULT:    -4.227      3.628      8.810
REMARK INTER + INTRA:          -8.852
REMARK INTER:                  -8.118
REMARK INTRA:                  -0.734
REMARK UNBOUND:                -1.660
REMARK SMILES CC[C@H](C)[C@@H]1NC(=O)[C@H]2CSC(=N2)[C@@H]([C@@H](C)CC)NC(=O)c2csc(n2)CNC(=O)[C@H]2N=C1O[C@@H]2C
REMARK SMILES IDX 27 1 25 2 22 3 26 4 23 5 24 6 20 7 19 8 21 9 14 11 12 12
REMARK SMILES IDX 11 13 10 14 13 15 9 16 15 18 16 19 17 20 18 21 28 22 29 23
REMARK SMILES IDX 30 24 31 26 32 27 35 28 33 29 34 30 36 31 5 32 6 33 7 34
REMARK SMILES IDX 8 35 3 38 4 39 2 40 1 41
REMARK H PARENT 19 10 28 25 6 36
REMARK Flexibility Score:   91.900
ROOT
ATOM      1  C   UNL     1       0.953  -8.931  -7.039  1.00  0.00     0.183 C 
ENDROOT
BRANCH   1   2
ATOM      2  C   UNL     1       1.054  -7.792  -6.066  1.00  0.00     0.113 A 
ATOM      3  C   UNL     1       0.420  -6.249  -4.588  1.00  0.00     0.139 A 
ATOM      4  N   UNL     1       0.058  -7.397  -5.295  1.00  0.00    -0.234 NA
ATOM      5  C   UNL     1       1.720  -5.832  -4.801  1.00  0.00     0.101 A 
ATOM      6  S   UNL     1       2.498  -6.874  -5.921  1.00  0.00    -0.125 S 
BRANCH   3   7
ATOM      7  C   UNL     1      -0.562  -5.569  -3.740  1.00  0.00     0.271 C 
ATOM      8  N   UNL     1      -1.536  -6.433  -3.302  1.00  0.00    -0.341 N 
ATOM      9  O   UNL     1      -0.529  -4.372  -3.487  1.00  0.00    -0.267 OA
ATOM     10  H   UNL     1      -1.416  -7.407  -3.576  1.00  0.00     0.164 HD
BRANCH   8  11
ATOM     11  C   UNL     1      -2.741  -6.018  -2.603  1.00  0.00     0.140 C 
BRANCH  11  12
ATOM     12  C   UNL     1      -3.945  -6.473  -3.432  1.00  0.00     0.091 C 
ATOM     13  S   UNL     1      -4.204  -8.170  -3.764  1.00  0.00    -0.106 SA
ATOM     14  C   UNL     1      -5.863  -7.809  -4.380  1.00  0.00     0.113 C 
ATOM     15  N   UNL     1      -4.765  -5.628  -3.974  1.00  0.00    -0.267 NA
ATOM     16  C   UNL     1      -5.774  -6.353  -4.809  1.00  0.00     0.205 CG0
ATOM     17  G   UNL     1      -5.427  -6.246  -6.303  1.00  0.00     0.000 G0
ENDBRANCH  11  12
BRANCH  11  18
ATOM     18  C   UNL     1      -2.758  -6.395  -1.099  1.00  0.00     0.015 C 
ATOM     19  C   UNL     1      -1.675  -5.617  -0.340  1.00  0.00     0.010 C 
BRANCH  18  20
ATOM     20  C   UNL     1      -4.133  -6.257  -0.416  1.00  0.00     0.002 C 
ATOM     21  C   UNL     1      -4.841  -7.595  -0.228  1.00  0.00     0.004 C 
ENDBRANCH  18  20
ENDBRANCH  11  18
ENDBRANCH   8  11
ENDBRANCH   3   7
ENDBRANCH   1   2
BRANCH   1  22
ATOM     22  N   UNL     1      -0.038  -8.569  -8.027  1.00  0.00    -0.348 N 
ATOM     23  C   UNL     1      -1.338  -8.996  -8.021  1.00  0.00     0.249 C 
ATOM     24  O   UNL     1      -1.820  -9.670  -7.117  1.00  0.00    -0.272 OA
ATOM     25  H   UNL     1       0.261  -8.027  -8.837  1.00  0.00     0.163 HD
BRANCH  23  26
ATOM     26  C   UNL     1      -2.137  -8.491  -9.231  1.00  0.00     0.238 C 
ATOM     27  N   UNL     1      -3.580  -8.805  -9.034  1.00  0.00    -0.236 NA
ATOM     28  C   UNL     1      -2.066  -6.979  -9.369  1.00  0.00     0.206 C 
ATOM     29  C   UNL     1      -4.118  -7.636  -8.854  1.00  0.00     0.208 C 
ATOM     30  O   UNL     1      -3.337  -6.529  -8.902  1.00  0.00    -0.474 OA
ATOM     31  C   UNL     1      -1.892  -6.531 -10.814  1.00  0.00     0.056 C 
BRANCH  29  32
ATOM     32  C   UNL     1      -5.582  -7.354  -8.530  1.00  0.00     0.171 C 
BRANCH  32  33
ATOM     33  N   UNL     1      -5.796  -7.307  -7.092  1.00  0.00    -0.342 N 
ATOM     34  C   UNL     1      -5.434  -6.226  -6.325  1.00  0.00     0.246 CG0
ATOM     35  O   UNL     1      -4.881  -5.231  -6.786  1.00  0.00    -0.273 OA
ATOM     36  H   UNL     1      -6.192  -8.097  -6.595  1.00  0.00     0.164 HD
ATOM     37  G   UNL     1      -5.801  -6.350  -4.837  1.00  0.00     0.000 G0
ENDBRANCH  32  33
BRANCH  32  38
ATOM     38  C   UNL     1      -6.057  -6.062  -9.245  1.00  0.00     0.017 C 
ATOM     39  C   UNL     1      -5.734  -6.139 -10.742  1.00  0.00     0.010 C 
BRANCH  38  40
ATOM     40  C   UNL     1      -7.552  -5.753  -9.001  1.00  0.00     0.002 C 
ATOM     41  C   UNL     1      -7.868  -4.263  -8.961  1.00  0.00     0.004 C 
ENDBRANCH  38  40
ENDBRANCH  32  38
ENDBRANCH  29  32
ENDBRANCH  23  26
ENDBRANCH   1  22
TORSDOF 4
ENDMDL
MODEL 40
REMARK VINA RESULT:    -4.174      3.915      7.092
REMARK INTER + INTRA:          -8.763
REMARK INTER:                  -6.912
REMARK INTRA:                  -1.850
REMARK UNBOUND:                -1.660
REMARK SMILES CC[C@H](C)[C@@H]1NC(=O)[C@H]2CSC(=N2)[C@@H]([C@@H](C)CC)NC(=O)c2csc(n2)CNC(=O)[C@H]2N=C1O[C@@H]2C
REMARK SMILES IDX 27 1 25 2 22 3 26 4 23 5 24 6 20 7 19 8 21 9 14 11 12 12
REMARK SMILES IDX 11 13 10 14 13 15 9 16 15 18 16 19 17 20 18 21 28 22 29 23
REMARK SMILES IDX 30 24 31 26 32 27 35 28 33 29 34 30 36 31 5 32 6 33 7 34
REMARK SMILES IDX 8 35 3 38 4 39 2 40 1 41
REMARK H PARENT 19 10 28 25 6 36
REMARK Flexibility Score:   91.900
ROOT
ATOM      1  C   UNL     1      -3.572  -4.705  -1.933  1.00  0.00     0.183 C 
ENDROOT
BRANCH   1   2
ATOM      2  C   UNL     1      -2.213  -4.876  -2.549  1.00  0.00     0.113 A 
ATOM      3  C   UNL     1      -0.472  -5.879  -3.513  1.00  0.00     0.139 A 
ATOM      4  N   UNL     1      -1.815  -5.984  -3.147  1.00  0.00    -0.234 NA
ATOM      5  C   UNL     1       0.104  -4.656  -3.231  1.00  0.00     0.101 A 
ATOM      6  S   UNL     1      -1.040  -3.625  -2.472  1.00  0.00    -0.125 S 
BRANCH   3   7
ATOM      7  C   UNL     1       0.219  -7.026  -4.106  1.00  0.00     0.271 C 
ATOM      8  N   UNL     1      -0.341  -7.389  -5.306  1.00  0.00    -0.341 N 
ATOM      9  O   UNL     1       1.156  -7.606  -3.573  1.00  0.00    -0.267 OA
ATOM     10  H   UNL     1      -1.103  -6.796  -5.634  1.00  0.00     0.164 HD
BRANCH   8  11
ATOM     11  C   UNL     1       0.004  -8.597  -6.037  1.00  0.00     0.140 C 
BRANCH  11  12
ATOM     12  C   UNL     1      -1.299  -9.247  -6.512  1.00  0.00     0.091 C 
ATOM     13  S   UNL     1      -2.450  -8.338  -7.463  1.00  0.00    -0.106 SA
ATOM     14  C   UNL     1      -3.355  -9.854  -7.841  1.00  0.00     0.113 C 
ATOM     15  N   UNL     1      -1.629 -10.453  -6.170  1.00  0.00    -0.267 NA
ATOM     16  C   UNL     1      -2.995 -10.779  -6.688  1.00  0.00     0.205 CG0
ATOM     17  G   UNL     1      -4.044 -10.685  -5.568  1.00  0.00     0.000 G0
ENDBRANCH  11  12
BRANCH  11  18
ATOM     18  C   UNL     1       1.103  -8.392  -7.111  1.00  0.00     0.015 C 
ATOM     19  C   UNL     1       1.248  -6.903  -7.451  1.00  0.00     0.010 C 
BRANCH  18  20
ATOM     20  C   UNL     1       2.465  -9.028  -6.769  1.00  0.00     0.002 C 
ATOM     21  C   UNL     1       3.543  -7.995  -6.458  1.00  0.00     0.004 C 
ENDBRANCH  18  20
ENDBRANCH  11  18
ENDBRANCH   8  11
ENDBRANCH   3   7
ENDBRANCH   1   2
BRANCH   1  22
ATOM     22  N   UNL     1      -4.442  -5.697  -2.524  1.00  0.00    -0.348 N 
ATOM     23  C   UNL     1      -5.333  -5.450  -3.533  1.00  0.00     0.249 C 
ATOM     24  O   UNL     1      -5.422  -4.367  -4.101  1.00  0.00    -0.272 OA
ATOM     25  H   UNL     1      -4.465  -6.629  -2.112  1.00  0.00     0.163 HD
BRANCH  23  26
ATOM     26  C   UNL     1      -6.159  -6.688  -3.914  1.00  0.00     0.238 C 
ATOM     27  N   UNL     1      -5.240  -7.778  -4.344  1.00  0.00    -0.236 NA
ATOM     28  C   UNL     1      -6.926  -7.247  -2.728  1.00  0.00     0.206 C 
ATOM     29  C   UNL     1      -5.346  -8.651  -3.387  1.00  0.00     0.208 C 
ATOM     30  O   UNL     1      -6.185  -8.406  -2.351  1.00  0.00    -0.474 OA
ATOM     31  C   UNL     1      -8.341  -7.673  -3.095  1.00  0.00     0.056 C 
BRANCH  29  32
ATOM     32  C   UNL     1      -4.564  -9.956  -3.263  1.00  0.00     0.171 C 
BRANCH  32  33
ATOM     33  N   UNL     1      -3.673 -10.138  -4.398  1.00  0.00    -0.342 N 
ATOM     34  C   UNL     1      -4.081 -10.718  -5.575  1.00  0.00     0.246 CG0
ATOM     35  O   UNL     1      -5.217 -11.150  -5.750  1.00  0.00    -0.273 OA
ATOM     36  H   UNL     1      -2.695  -9.871  -4.345  1.00  0.00     0.164 HD
ATOM     37  G   UNL     1      -3.003 -10.762  -6.670  1.00  0.00     0.000 G0
ENDBRANCH  32  33
BRANCH  32  38
ATOM     38  C   UNL     1      -3.816 -10.012  -1.905  1.00  0.00     0.017 C 
ATOM     39  C   UNL     1      -3.398 -11.455  -1.593  1.00  0.00     0.010 C 
BRANCH  38  40
ATOM     40  C   UNL     1      -2.612  -9.044  -1.839  1.00  0.00     0.002 C 
ATOM     41  C   UNL     1      -2.353  -8.488  -0.445  1.00  0.00     0.004 C 
ENDBRANCH  38  40
ENDBRANCH  32  38
ENDBRANCH  29  32
ENDBRANCH  23  26
ENDBRANCH   1  22
TORSDOF 4
ENDMDL
MODEL 41
REMARK VINA RESULT:    -4.132      5.226      8.504
REMARK INTER + INTRA:          -8.691
REMARK INTER:                  -6.977
REMARK INTRA:                  -1.714
REMARK UNBOUND:                -1.660
REMARK SMILES CC[C@H](C)[C@@H]1NC(=O)[C@H]2CSC(=N2)[C@@H]([C@@H](C)CC)NC(=O)c2csc(n2)CNC(=O)[C@H]2N=C1O[C@@H]2C
REMARK SMILES IDX 27 1 25 2 22 3 26 4 23 5 24 6 20 7 19 8 21 9 14 11 12 12
REMARK SMILES IDX 11 13 10 14 13 15 9 16 15 18 16 19 17 20 18 21 28 22 29 23
REMARK SMILES IDX 30 24 31 26 32 27 35 28 33 29 34 30 36 31 5 32 6 33 7 34
REMARK SMILES IDX 8 35 3 38 4 39 2 40 1 41
REMARK H PARENT 19 10 28 25 6 36
REMARK Flexibility Score:   91.900
ROOT
ATOM      1  C   UNL     1      -8.267  -4.767  -4.739  1.00  0.00     0.183 C 
ENDROOT
BRANCH   1   2
ATOM      2  C   UNL     1      -8.337  -6.050  -3.961  1.00  0.00     0.113 A 
ATOM      3  C   UNL     1      -7.750  -8.059  -3.196  1.00  0.00     0.139 A 
ATOM      4  N   UNL     1      -7.346  -6.920  -3.894  1.00  0.00    -0.234 NA
ATOM      5  C   UNL     1      -9.036  -7.997  -2.695  1.00  0.00     0.101 A 
ATOM      6  S   UNL     1      -9.765  -6.503  -3.122  1.00  0.00    -0.125 S 
BRANCH   3   7
ATOM      7  C   UNL     1      -6.847  -9.206  -3.079  1.00  0.00     0.271 C 
ATOM      8  N   UNL     1      -5.553  -8.810  -2.850  1.00  0.00    -0.341 N 
ATOM      9  O   UNL     1      -7.206 -10.370  -3.206  1.00  0.00    -0.267 OA
ATOM     10  H   UNL     1      -5.411  -7.806  -2.744  1.00  0.00     0.164 HD
BRANCH   8  11
ATOM     11  C   UNL     1      -4.407  -9.705  -2.874  1.00  0.00     0.140 C 
BRANCH  11  12
ATOM     12  C   UNL     1      -3.312  -9.043  -3.714  1.00  0.00     0.091 C 
ATOM     13  S   UNL     1      -2.992  -7.331  -3.567  1.00  0.00    -0.106 SA
ATOM     14  C   UNL     1      -1.471  -7.520  -4.521  1.00  0.00     0.113 C 
ATOM     15  N   UNL     1      -2.640  -9.700  -4.607  1.00  0.00    -0.267 NA
ATOM     16  C   UNL     1      -1.720  -8.776  -5.342  1.00  0.00     0.205 CG0
ATOM     17  G   UNL     1      -2.290  -8.418  -6.724  1.00  0.00     0.000 G0
ENDBRANCH  11  12
BRANCH  11  18
ATOM     18  C   UNL     1      -3.984 -10.225  -1.476  1.00  0.00     0.015 C 
ATOM     19  C   UNL     1      -4.873  -9.612  -0.386  1.00  0.00     0.010 C 
BRANCH  18  20
ATOM     20  C   UNL     1      -3.918 -11.761  -1.352  1.00  0.00     0.002 C 
ATOM     21  C   UNL     1      -4.440 -12.481  -2.591  1.00  0.00     0.004 C 
ENDBRANCH  18  20
ENDBRANCH  11  18
ENDBRANCH   8  11
ENDBRANCH   3   7
ENDBRANCH   1   2
BRANCH   1  22
ATOM     22  N   UNL     1      -7.621  -5.060  -5.998  1.00  0.00    -0.348 N 
ATOM     23  C   UNL     1      -6.283  -4.906  -6.242  1.00  0.00     0.249 C 
ATOM     24  O   UNL     1      -5.475  -4.580  -5.379  1.00  0.00    -0.272 OA
ATOM     25  H   UNL     1      -8.204  -5.318  -6.794  1.00  0.00     0.163 HD
BRANCH  23  26
ATOM     26  C   UNL     1      -5.899  -5.244  -7.691  1.00  0.00     0.238 C 
ATOM     27  N   UNL     1      -4.663  -6.074  -7.690  1.00  0.00    -0.236 NA
ATOM     28  C   UNL     1      -6.957  -6.090  -8.377  1.00  0.00     0.206 C 
ATOM     29  C   UNL     1      -5.086  -7.238  -8.086  1.00  0.00     0.208 C 
ATOM     30  O   UNL     1      -6.396  -7.402  -8.391  1.00  0.00    -0.474 OA
ATOM     31  C   UNL     1      -7.213  -5.655  -9.814  1.00  0.00     0.056 C 
BRANCH  29  32
ATOM     32  C   UNL     1      -4.252  -8.511  -8.204  1.00  0.00     0.171 C 
BRANCH  32  33
ATOM     33  N   UNL     1      -3.553  -8.791  -6.960  1.00  0.00    -0.342 N 
ATOM     34  C   UNL     1      -2.247  -8.419  -6.744  1.00  0.00     0.246 CG0
ATOM     35  O   UNL     1      -1.565  -7.847  -7.590  1.00  0.00    -0.273 OA
ATOM     36  H   UNL     1      -4.000  -9.310  -6.212  1.00  0.00     0.164 HD
ATOM     37  G   UNL     1      -1.713  -8.755  -5.342  1.00  0.00     0.000 G0
ENDBRANCH  32  33
BRANCH  32  38
ATOM     38  C   UNL     1      -5.137  -9.697  -8.668  1.00  0.00     0.017 C 
ATOM     39  C   UNL     1      -5.003  -9.893 -10.184  1.00  0.00     0.010 C 
BRANCH  38  40
ATOM     40  C   UNL     1      -4.845 -11.005  -7.898  1.00  0.00     0.002 C 
ATOM     41  C   UNL     1      -6.097 -11.793  -7.535  1.00  0.00     0.004 C 
ENDBRANCH  38  40
ENDBRANCH  32  38
ENDBRANCH  29  32
ENDBRANCH  23  26
ENDBRANCH   1  22
TORSDOF 4
ENDMDL
MODEL 42
REMARK VINA RESULT:    -4.119     23.368     26.511
REMARK INTER + INTRA:          -8.668
REMARK INTER:                  -7.102
REMARK INTRA:                  -1.566
REMARK UNBOUND:                -1.660
REMARK SMILES CC[C@H](C)[C@@H]1NC(=O)[C@H]2CSC(=N2)[C@@H]([C@@H](C)CC)NC(=O)c2csc(n2)CNC(=O)[C@H]2N=C1O[C@@H]2C
REMARK SMILES IDX 27 1 25 2 22 3 26 4 23 5 24 6 20 7 19 8 21 9 14 11 12 12
REMARK SMILES IDX 11 13 10 14 13 15 9 16 15 18 16 19 17 20 18 21 28 22 29 23
REMARK SMILES IDX 30 24 31 26 32 27 35 28 33 29 34 30 36 31 5 32 6 33 7 34
REMARK SMILES IDX 8 35 3 38 4 39 2 40 1 41
REMARK H PARENT 19 10 28 25 6 36
REMARK Flexibility Score:   91.900
ROOT
ATOM      1  C   UNL     1     -16.471   9.125  -2.441  1.00  0.00     0.183 C 
ENDROOT
BRANCH   1   2
ATOM      2  C   UNL     1     -15.356   9.780  -3.205  1.00  0.00     0.113 A 
ATOM      3  C   UNL     1     -14.211  11.365  -4.274  1.00  0.00     0.139 A 
ATOM      4  N   UNL     1     -15.300  11.076  -3.449  1.00  0.00    -0.234 NA
ATOM      5  C   UNL     1     -13.428  10.272  -4.590  1.00  0.00     0.101 A 
ATOM      6  S   UNL     1     -14.071   8.855  -3.867  1.00  0.00    -0.125 S 
BRANCH   3   7
ATOM      7  C   UNL     1     -14.003  12.730  -4.762  1.00  0.00     0.271 C 
ATOM      8  N   UNL     1     -13.551  13.560  -3.766  1.00  0.00    -0.341 N 
ATOM      9  O   UNL     1     -14.239  13.086  -5.910  1.00  0.00    -0.267 OA
ATOM     10  H   UNL     1     -13.378  13.114  -2.866  1.00  0.00     0.164 HD
BRANCH   8  11
ATOM     11  C   UNL     1     -13.431  15.003  -3.896  1.00  0.00     0.140 C 
BRANCH  11  12
ATOM     12  C   UNL     1     -14.480  15.645  -2.985  1.00  0.00     0.091 C 
ATOM     13  S   UNL     1     -14.725  15.054  -1.358  1.00  0.00    -0.106 SA
ATOM     14  C   UNL     1     -15.741  16.496  -0.973  1.00  0.00     0.113 C 
ATOM     15  N   UNL     1     -15.267  16.587  -3.401  1.00  0.00    -0.267 NA
ATOM     16  C   UNL     1     -16.254  16.942  -2.333  1.00  0.00     0.205 CG0
ATOM     17  G   UNL     1     -17.628  16.318  -2.627  1.00  0.00     0.000 G0
ENDBRANCH  11  12
BRANCH  11  18
ATOM     18  C   UNL     1     -11.979  15.530  -3.754  1.00  0.00     0.015 C 
ATOM     19  C   UNL     1     -11.364  15.054  -2.431  1.00  0.00     0.010 C 
BRANCH  18  20
ATOM     20  C   UNL     1     -11.059  15.213  -4.950  1.00  0.00     0.002 C 
ATOM     21  C   UNL     1     -11.594  15.751  -6.272  1.00  0.00     0.004 C 
ENDBRANCH  18  20
ENDBRANCH  11  18
ENDBRANCH   8  11
ENDBRANCH   3   7
ENDBRANCH   1   2
BRANCH   1  22
ATOM     22  N   UNL     1     -17.470  10.137  -2.180  1.00  0.00    -0.348 N 
ATOM     23  C   UNL     1     -17.688  10.722  -0.963  1.00  0.00     0.249 C 
ATOM     24  O   UNL     1     -16.992  10.503   0.023  1.00  0.00    -0.272 OA
ATOM     25  H   UNL     1     -18.120  10.379  -2.927  1.00  0.00     0.163 HD
BRANCH  23  26
ATOM     26  C   UNL     1     -18.854  11.721  -0.983  1.00  0.00     0.238 C 
ATOM     27  N   UNL     1     -18.362  13.041  -1.466  1.00  0.00    -0.236 NA
ATOM     28  C   UNL     1     -19.940  11.309  -1.962  1.00  0.00     0.206 C 
ATOM     29  C   UNL     1     -18.928  13.162  -2.630  1.00  0.00     0.208 C 
ATOM     30  O   UNL     1     -19.754  12.183  -3.074  1.00  0.00    -0.474 OA
ATOM     31  C   UNL     1     -21.341  11.523  -1.405  1.00  0.00     0.056 C 
BRANCH  29  32
ATOM     32  C   UNL     1     -18.722  14.303  -3.622  1.00  0.00     0.171 C 
BRANCH  32  33
ATOM     33  N   UNL     1     -17.550  15.091  -3.271  1.00  0.00    -0.342 N 
ATOM     34  C   UNL     1     -17.638  16.313  -2.649  1.00  0.00     0.246 CG0
ATOM     35  O   UNL     1     -18.708  16.845  -2.365  1.00  0.00    -0.273 OA
ATOM     36  H   UNL     1     -16.616  14.777  -3.511  1.00  0.00     0.164 HD
ATOM     37  G   UNL     1     -16.283  16.955  -2.312  1.00  0.00     0.000 G0
ENDBRANCH  32  33
BRANCH  32  38
ATOM     38  C   UNL     1     -18.659  13.757  -5.073  1.00  0.00     0.017 C 
ATOM     39  C   UNL     1     -19.836  14.300  -5.892  1.00  0.00     0.010 C 
BRANCH  38  40
ATOM     40  C   UNL     1     -17.305  14.040  -5.765  1.00  0.00     0.002 C 
ATOM     41  C   UNL     1     -17.369  13.956  -7.284  1.00  0.00     0.004 C 
ENDBRANCH  38  40
ENDBRANCH  32  38
ENDBRANCH  29  32
ENDBRANCH  23  26
ENDBRANCH   1  22
TORSDOF 4
ENDMDL
MODEL 43
REMARK VINA RESULT:    -4.114      3.030      6.861
REMARK INTER + INTRA:          -8.661
REMARK INTER:                  -7.046
REMARK INTRA:                  -1.614
REMARK UNBOUND:                -1.660
REMARK SMILES CC[C@H](C)[C@@H]1NC(=O)[C@H]2CSC(=N2)[C@@H]([C@@H](C)CC)NC(=O)c2csc(n2)CNC(=O)[C@H]2N=C1O[C@@H]2C
REMARK SMILES IDX 27 1 25 2 22 3 26 4 23 5 24 6 20 7 19 8 21 9 14 11 12 12
REMARK SMILES IDX 11 13 10 14 13 15 9 16 15 18 16 19 17 20 18 21 28 22 29 23
REMARK SMILES IDX 30 24 31 26 32 27 35 28 33 29 34 30 36 31 5 32 6 33 7 34
REMARK SMILES IDX 8 35 3 38 4 39 2 40 1 41
REMARK H PARENT 19 10 28 25 6 36
REMARK Flexibility Score:   91.900
ROOT
ATOM      1  C   UNL     1      -3.225  -4.573  -2.765  1.00  0.00     0.183 C 
ENDROOT
BRANCH   1   2
ATOM      2  C   UNL     1      -1.734  -4.401  -2.722  1.00  0.00     0.113 A 
ATOM      3  C   UNL     1       0.423  -4.794  -3.121  1.00  0.00     0.139 A 
ATOM      4  N   UNL     1      -0.896  -5.098  -3.467  1.00  0.00    -0.234 NA
ATOM      5  C   UNL     1       0.550  -3.819  -2.151  1.00  0.00     0.101 A 
ATOM      6  S   UNL     1      -1.000  -3.288  -1.641  1.00  0.00    -0.125 S 
BRANCH   3   7
ATOM      7  C   UNL     1       1.530  -5.520  -3.747  1.00  0.00     0.271 C 
ATOM      8  N   UNL     1       1.386  -5.585  -5.111  1.00  0.00    -0.341 N 
ATOM      9  O   UNL     1       2.448  -6.033  -3.120  1.00  0.00    -0.267 OA
ATOM     10  H   UNL     1       0.582  -5.089  -5.493  1.00  0.00     0.164 HD
BRANCH   8  11
ATOM     11  C   UNL     1       2.221  -6.394  -5.984  1.00  0.00     0.140 C 
BRANCH  11  12
ATOM     12  C   UNL     1       1.349  -7.509  -6.568  1.00  0.00     0.091 C 
ATOM     13  S   UNL     1       1.003  -7.560  -8.280  1.00  0.00    -0.106 SA
ATOM     14  C   UNL     1       0.330  -9.227  -8.107  1.00  0.00     0.113 C 
ATOM     15  N   UNL     1       0.781  -8.400  -5.818  1.00  0.00    -0.267 NA
ATOM     16  C   UNL     1      -0.091  -9.290  -6.648  1.00  0.00     0.205 CG0
ATOM     17  G   UNL     1      -1.572  -8.906  -6.492  1.00  0.00     0.000 G0
ENDBRANCH  11  12
BRANCH  11  18
ATOM     18  C   UNL     1       3.057  -5.571  -6.997  1.00  0.00     0.015 C 
ATOM     19  C   UNL     1       3.263  -4.139  -6.484  1.00  0.00     0.010 C 
BRANCH  18  20
ATOM     20  C   UNL     1       4.395  -6.220  -7.407  1.00  0.00     0.002 C 
ATOM     21  C   UNL     1       4.861  -5.797  -8.796  1.00  0.00     0.004 C 
ENDBRANCH  18  20
ENDBRANCH  11  18
ENDBRANCH   8  11
ENDBRANCH   3   7
ENDBRANCH   1   2
BRANCH   1  22
ATOM     22  N   UNL     1      -3.497  -5.993  -2.726  1.00  0.00    -0.348 N 
ATOM     23  C   UNL     1      -4.726  -6.545  -2.481  1.00  0.00     0.249 C 
ATOM     24  O   UNL     1      -5.748  -5.880  -2.353  1.00  0.00    -0.272 OA
ATOM     25  H   UNL     1      -2.713  -6.639  -2.799  1.00  0.00     0.163 HD
BRANCH  23  26
ATOM     26  C   UNL     1      -4.693  -8.080  -2.448  1.00  0.00     0.238 C 
ATOM     27  N   UNL     1      -5.088  -8.609  -3.783  1.00  0.00    -0.236 NA
ATOM     28  C   UNL     1      -3.292  -8.613  -2.197  1.00  0.00     0.206 C 
ATOM     29  C   UNL     1      -3.983  -9.119  -4.240  1.00  0.00     0.208 C 
ATOM     30  O   UNL     1      -2.863  -9.074  -3.478  1.00  0.00    -0.474 OA
ATOM     31  C   UNL     1      -3.279  -9.788  -1.228  1.00  0.00     0.056 C 
BRANCH  29  32
ATOM     32  C   UNL     1      -3.777  -9.744  -5.617  1.00  0.00     0.171 C 
BRANCH  32  33
ATOM     33  N   UNL     1      -2.362  -9.916  -5.903  1.00  0.00    -0.342 N 
ATOM     34  C   UNL     1      -1.599  -8.933  -6.487  1.00  0.00     0.246 CG0
ATOM     35  O   UNL     1      -2.056  -7.848  -6.835  1.00  0.00    -0.273 OA
ATOM     36  H   UNL     1      -1.891 -10.794  -5.711  1.00  0.00     0.164 HD
ATOM     37  G   UNL     1      -0.113  -9.292  -6.649  1.00  0.00     0.000 G0
ENDBRANCH  32  33
BRANCH  32  38
ATOM     38  C   UNL     1      -4.574 -11.070  -5.735  1.00  0.00     0.017 C 
ATOM     39  C   UNL     1      -4.059 -11.889  -6.926  1.00  0.00     0.010 C 
BRANCH  38  40
ATOM     40  C   UNL     1      -4.564 -11.897  -4.429  1.00  0.00     0.002 C 
ATOM     41  C   UNL     1      -5.953 -12.152  -3.859  1.00  0.00     0.004 C 
ENDBRANCH  38  40
ENDBRANCH  32  38
ENDBRANCH  29  32
ENDBRANCH  23  26
ENDBRANCH   1  22
TORSDOF 4
ENDMDL
MODEL 44
REMARK VINA RESULT:    -4.100      4.753      8.365
REMARK INTER + INTRA:          -8.635
REMARK INTER:                  -7.102
REMARK INTRA:                  -1.533
REMARK UNBOUND:                -1.660
REMARK SMILES CC[C@H](C)[C@@H]1NC(=O)[C@H]2CSC(=N2)[C@@H]([C@@H](C)CC)NC(=O)c2csc(n2)CNC(=O)[C@H]2N=C1O[C@@H]2C
REMARK SMILES IDX 27 1 25 2 22 3 26 4 23 5 24 6 20 7 19 8 21 9 14 11 12 12
REMARK SMILES IDX 11 13 10 14 13 15 9 16 15 18 16 19 17 20 18 21 28 22 29 23
REMARK SMILES IDX 30 24 31 26 32 27 35 28 33 29 34 30 36 31 5 32 6 33 7 34
REMARK SMILES IDX 8 35 3 38 4 39 2 40 1 41
REMARK H PARENT 19 10 28 25 6 36
REMARK Flexibility Score:   91.900
ROOT
ATOM      1  C   UNL     1      -8.702  -4.958  -4.584  1.00  0.00     0.183 C 
ENDROOT
BRANCH   1   2
ATOM      2  C   UNL     1      -8.469  -6.124  -3.668  1.00  0.00     0.113 A 
ATOM      3  C   UNL     1      -7.369  -7.685  -2.517  1.00  0.00     0.139 A 
ATOM      4  N   UNL     1      -7.272  -6.509  -3.264  1.00  0.00    -0.234 NA
ATOM      5  C   UNL     1      -8.661  -8.133  -2.323  1.00  0.00     0.101 A 
ATOM      6  S   UNL     1      -9.774  -7.086  -3.105  1.00  0.00    -0.125 S 
BRANCH   3   7
ATOM      7  C   UNL     1      -6.156  -8.356  -2.046  1.00  0.00     0.271 C 
ATOM      8  N   UNL     1      -5.038  -7.589  -2.259  1.00  0.00    -0.341 N 
ATOM      9  O   UNL     1      -6.147  -9.479  -1.556  1.00  0.00    -0.267 OA
ATOM     10  H   UNL     1      -5.206  -6.665  -2.655  1.00  0.00     0.164 HD
BRANCH   8  11
ATOM     11  C   UNL     1      -3.676  -8.060  -2.069  1.00  0.00     0.140 C 
BRANCH  11  12
ATOM     12  C   UNL     1      -2.806  -7.436  -3.164  1.00  0.00     0.091 C 
ATOM     13  S   UNL     1      -2.938  -5.734  -3.541  1.00  0.00    -0.106 SA
ATOM     14  C   UNL     1      -1.440  -5.827  -4.544  1.00  0.00     0.113 C 
ATOM     15  N   UNL     1      -2.006  -8.148  -3.894  1.00  0.00    -0.267 NA
ATOM     16  C   UNL     1      -1.372  -7.292  -4.946  1.00  0.00     0.205 CG0
ATOM     17  G   UNL     1      -2.043  -7.513  -6.311  1.00  0.00     0.000 G0
ENDBRANCH  11  12
BRANCH  11  18
ATOM     18  C   UNL     1      -3.157  -7.919  -0.614  1.00  0.00     0.015 C 
ATOM     19  C   UNL     1      -1.904  -8.781  -0.407  1.00  0.00     0.010 C 
BRANCH  18  20
ATOM     20  C   UNL     1      -2.926  -6.467  -0.150  1.00  0.00     0.002 C 
ATOM     21  C   UNL     1      -3.009  -6.306   1.364  1.00  0.00     0.004 C 
ENDBRANCH  18  20
ENDBRANCH  11  18
ENDBRANCH   8  11
ENDBRANCH   3   7
ENDBRANCH   1   2
BRANCH   1  22
ATOM     22  N   UNL     1      -7.904  -5.173  -5.770  1.00  0.00    -0.348 N 
ATOM     23  C   UNL     1      -6.852  -4.387  -6.156  1.00  0.00     0.249 C 
ATOM     24  O   UNL     1      -6.424  -3.458  -5.479  1.00  0.00    -0.272 OA
ATOM     25  H   UNL     1      -8.187  -5.908  -6.418  1.00  0.00     0.163 HD
BRANCH  23  26
ATOM     26  C   UNL     1      -6.234  -4.831  -7.489  1.00  0.00     0.238 C 
ATOM     27  N   UNL     1      -4.944  -5.527  -7.225  1.00  0.00    -0.236 NA
ATOM     28  C   UNL     1      -7.104  -5.847  -8.209  1.00  0.00     0.206 C 
ATOM     29  C   UNL     1      -5.202  -6.762  -7.536  1.00  0.00     0.208 C 
ATOM     30  O   UNL     1      -6.435  -7.090  -7.994  1.00  0.00    -0.474 OA
ATOM     31  C   UNL     1      -7.183  -5.591  -9.708  1.00  0.00     0.056 C 
BRANCH  29  32
ATOM     32  C   UNL     1      -4.254  -7.949  -7.390  1.00  0.00     0.171 C 
BRANCH  32  33
ATOM     33  N   UNL     1      -3.400  -7.791  -6.224  1.00  0.00    -0.342 N 
ATOM     34  C   UNL     1      -2.062  -7.490  -6.320  1.00  0.00     0.246 CG0
ATOM     35  O   UNL     1      -1.481  -7.357  -7.394  1.00  0.00    -0.273 OA
ATOM     36  H   UNL     1      -3.760  -7.937  -5.287  1.00  0.00     0.164 HD
ATOM     37  G   UNL     1      -1.351  -7.308  -4.969  1.00  0.00     0.000 G0
ENDBRANCH  32  33
BRANCH  32  38
ATOM     38  C   UNL     1      -5.050  -9.280  -7.369  1.00  0.00     0.017 C 
ATOM     39  C   UNL     1      -4.725 -10.108  -8.619  1.00  0.00     0.010 C 
BRANCH  38  40
ATOM     40  C   UNL     1      -4.828 -10.094  -6.074  1.00  0.00     0.002 C 
ATOM     41  C   UNL     1      -4.350 -11.519  -6.323  1.00  0.00     0.004 C 
ENDBRANCH  38  40
ENDBRANCH  32  38
ENDBRANCH  29  32
ENDBRANCH  23  26
ENDBRANCH   1  22
TORSDOF 4
ENDMDL
MODEL 45
REMARK VINA RESULT:    -4.090      2.672      5.100
REMARK INTER + INTRA:          -8.620
REMARK INTER:                  -8.671
REMARK INTRA:                   0.051
REMARK UNBOUND:                -1.660
REMARK SMILES CC[C@H](C)[C@@H]1NC(=O)[C@H]2CSC(=N2)[C@@H]([C@@H](C)CC)NC(=O)c2csc(n2)CNC(=O)[C@H]2N=C1O[C@@H]2C
REMARK SMILES IDX 27 1 25 2 22 3 26 4 23 5 24 6 20 7 19 8 21 9 14 11 12 12
REMARK SMILES IDX 11 13 10 14 13 15 9 16 15 18 16 19 17 20 18 21 28 22 29 23
REMARK SMILES IDX 30 24 31 26 32 27 35 28 33 29 34 30 36 31 5 32 6 33 7 34
REMARK SMILES IDX 8 35 3 38 4 39 2 40 1 41
REMARK H PARENT 19 10 28 25 6 36
REMARK Flexibility Score:   91.900
ROOT
ATOM      1  C   UNL     1      -4.550  -8.175  -8.444  1.00  0.00     0.183 C 
ENDROOT
BRANCH   1   2
ATOM      2  C   UNL     1      -3.198  -7.811  -8.989  1.00  0.00     0.113 A 
ATOM      3  C   UNL     1      -1.005  -7.418  -9.035  1.00  0.00     0.139 A 
ATOM      4  N   UNL     1      -2.075  -7.945  -8.309  1.00  0.00    -0.234 NA
ATOM      5  C   UNL     1      -1.343  -6.945 -10.288  1.00  0.00     0.101 A 
ATOM      6  S   UNL     1      -3.027  -7.137 -10.558  1.00  0.00    -0.125 S 
BRANCH   3   7
ATOM      7  C   UNL     1       0.331  -7.364  -8.438  1.00  0.00     0.271 C 
ATOM      8  N   UNL     1       0.986  -6.204  -8.768  1.00  0.00    -0.341 N 
ATOM      9  O   UNL     1       0.809  -8.264  -7.758  1.00  0.00    -0.267 OA
ATOM     10  H   UNL     1       0.450  -5.537  -9.322  1.00  0.00     0.164 HD
BRANCH   8  11
ATOM     11  C   UNL     1       2.388  -5.947  -8.481  1.00  0.00     0.140 C 
BRANCH  11  12
ATOM     12  C   UNL     1       2.542  -5.824  -6.962  1.00  0.00     0.091 C 
ATOM     13  S   UNL     1       3.874  -6.601  -6.139  1.00  0.00    -0.106 SA
ATOM     14  C   UNL     1       3.496  -5.681  -4.632  1.00  0.00     0.113 C 
ATOM     15  N   UNL     1       1.665  -5.211  -6.231  1.00  0.00    -0.267 NA
ATOM     16  C   UNL     1       2.021  -5.344  -4.783  1.00  0.00     0.205 CG0
ATOM     17  G   UNL     1       1.147  -6.407  -4.098  1.00  0.00     0.000 G0
ENDBRANCH  11  12
BRANCH  11  18
ATOM     18  C   UNL     1       3.365  -6.915  -9.196  1.00  0.00     0.015 C 
ATOM     19  C   UNL     1       2.615  -7.766 -10.229  1.00  0.00     0.010 C 
BRANCH  18  20
ATOM     20  C   UNL     1       4.604  -6.238  -9.816  1.00  0.00     0.002 C 
ATOM     21  C   UNL     1       4.880  -4.855  -9.238  1.00  0.00     0.004 C 
ENDBRANCH  18  20
ENDBRANCH  11  18
ENDBRANCH   8  11
ENDBRANCH   3   7
ENDBRANCH   1   2
BRANCH   1  22
ATOM     22  N   UNL     1      -4.533  -7.898  -7.025  1.00  0.00    -0.348 N 
ATOM     23  C   UNL     1      -4.770  -6.671  -6.468  1.00  0.00     0.249 C 
ATOM     24  O   UNL     1      -5.107  -5.690  -7.121  1.00  0.00    -0.272 OA
ATOM     25  H   UNL     1      -4.242  -8.640  -6.390  1.00  0.00     0.163 HD
BRANCH  23  26
ATOM     26  C   UNL     1      -4.627  -6.674  -4.938  1.00  0.00     0.238 C 
ATOM     27  N   UNL     1      -3.506  -7.575  -4.552  1.00  0.00    -0.236 NA
ATOM     28  C   UNL     1      -4.252  -5.304  -4.399  1.00  0.00     0.206 C 
ATOM     29  C   UNL     1      -2.602  -6.752  -4.109  1.00  0.00     0.208 C 
ATOM     30  O   UNL     1      -2.865  -5.423  -4.085  1.00  0.00    -0.474 OA
ATOM     31  C   UNL     1      -5.010  -4.949  -3.127  1.00  0.00     0.056 C 
BRANCH  29  32
ATOM     32  C   UNL     1      -1.197  -7.120  -3.639  1.00  0.00     0.171 C 
BRANCH  32  33
ATOM     33  N   UNL     1      -0.211  -6.196  -4.178  1.00  0.00    -0.342 N 
ATOM     34  C   UNL     1       1.142  -6.407  -4.062  1.00  0.00     0.246 CG0
ATOM     35  O   UNL     1       1.622  -7.373  -3.474  1.00  0.00    -0.273 OA
ATOM     36  H   UNL     1      -0.493  -5.335  -4.633  1.00  0.00     0.164 HD
ATOM     37  G   UNL     1       2.013  -5.344  -4.752  1.00  0.00     0.000 G0
ENDBRANCH  32  33
BRANCH  32  38
ATOM     38  C   UNL     1      -1.148  -7.204  -2.090  1.00  0.00     0.017 C 
ATOM     39  C   UNL     1      -1.736  -5.929  -1.474  1.00  0.00     0.010 C 
BRANCH  38  40
ATOM     40  C   UNL     1      -1.833  -8.474  -1.534  1.00  0.00     0.002 C 
ATOM     41  C   UNL     1      -2.605  -8.234  -0.244  1.00  0.00     0.004 C 
ENDBRANCH  38  40
ENDBRANCH  32  38
ENDBRANCH  29  32
ENDBRANCH  23  26
ENDBRANCH   1  22
TORSDOF 4
ENDMDL
MODEL 46
REMARK VINA RESULT:    -4.031      2.892      6.362
REMARK INTER + INTRA:          -8.519
REMARK INTER:                  -6.654
REMARK INTRA:                  -1.864
REMARK UNBOUND:                -1.660
REMARK SMILES CC[C@H](C)[C@@H]1NC(=O)[C@H]2CSC(=N2)[C@@H]([C@@H](C)CC)NC(=O)c2csc(n2)CNC(=O)[C@H]2N=C1O[C@@H]2C
REMARK SMILES IDX 27 1 25 2 22 3 26 4 23 5 24 6 20 7 19 8 21 9 14 11 12 12
REMARK SMILES IDX 11 13 10 14 13 15 9 16 15 18 16 19 17 20 18 21 28 22 29 23
REMARK SMILES IDX 30 24 31 26 32 27 35 28 33 29 34 30 36 31 5 32 6 33 7 34
REMARK SMILES IDX 8 35 3 38 4 39 2 40 1 41
REMARK H PARENT 19 10 28 25 6 36
REMARK Flexibility Score:   91.900
ROOT
ATOM      1  C   UNL     1       0.753  -3.646  -2.486  1.00  0.00     0.183 C 
ENDROOT
BRANCH   1   2
ATOM      2  C   UNL     1       1.644  -4.104  -3.604  1.00  0.00     0.113 A 
ATOM      3  C   UNL     1       2.781  -5.486  -4.933  1.00  0.00     0.139 A 
ATOM      4  N   UNL     1       1.810  -5.371  -3.936  1.00  0.00    -0.234 NA
ATOM      5  C   UNL     1       3.291  -4.281  -5.376  1.00  0.00     0.101 A 
ATOM      6  S   UNL     1       2.566  -2.982  -4.520  1.00  0.00    -0.125 S 
BRANCH   3   7
ATOM      7  C   UNL     1       3.207  -6.810  -5.393  1.00  0.00     0.271 C 
ATOM      8  N   UNL     1       2.645  -7.129  -6.605  1.00  0.00    -0.341 N 
ATOM      9  O   UNL     1       3.944  -7.548  -4.752  1.00  0.00    -0.267 OA
ATOM     10  H   UNL     1       2.070  -6.402  -7.029  1.00  0.00     0.164 HD
BRANCH   8  11
ATOM     11  C   UNL     1       2.730  -8.441  -7.224  1.00  0.00     0.140 C 
BRANCH  11  12
ATOM     12  C   UNL     1       1.307  -8.993  -7.351  1.00  0.00     0.091 C 
ATOM     13  S   UNL     1       0.506  -9.033  -8.905  1.00  0.00    -0.106 SA
ATOM     14  C   UNL     1      -0.797 -10.078  -8.221  1.00  0.00     0.113 C 
ATOM     15  N   UNL     1       0.624  -9.376  -6.319  1.00  0.00    -0.267 NA
ATOM     16  C   UNL     1      -0.762  -9.762  -6.733  1.00  0.00     0.205 CG0
ATOM     17  G   UNL     1      -1.767  -8.651  -6.390  1.00  0.00     0.000 G0
ENDBRANCH  11  12
BRANCH  11  18
ATOM     18  C   UNL     1       3.601  -8.478  -8.506  1.00  0.00     0.015 C 
ATOM     19  C   UNL     1       3.978  -7.055  -8.938  1.00  0.00     0.010 C 
BRANCH  18  20
ATOM     20  C   UNL     1       4.843  -9.387  -8.415  1.00  0.00     0.002 C 
ATOM     21  C   UNL     1       5.873  -8.889  -7.407  1.00  0.00     0.004 C 
ENDBRANCH  18  20
ENDBRANCH  11  18
ENDBRANCH   8  11
ENDBRANCH   3   7
ENDBRANCH   1   2
BRANCH   1  22
ATOM     22  N   UNL     1      -0.184  -4.714  -2.215  1.00  0.00    -0.348 N 
ATOM     23  C   UNL     1      -1.543  -4.564  -2.162  1.00  0.00     0.249 C 
ATOM     24  O   UNL     1      -2.114  -3.512  -2.426  1.00  0.00    -0.272 OA
ATOM     25  H   UNL     1       0.186  -5.629  -1.959  1.00  0.00     0.163 HD
BRANCH  23  26
ATOM     26  C   UNL     1      -2.272  -5.866  -1.798  1.00  0.00     0.238 C 
ATOM     27  N   UNL     1      -3.288  -6.169  -2.844  1.00  0.00    -0.236 NA
ATOM     28  C   UNL     1      -1.332  -7.060  -1.786  1.00  0.00     0.206 C 
ATOM     29  C   UNL     1      -2.804  -7.222  -3.433  1.00  0.00     0.208 C 
ATOM     30  O   UNL     1      -1.634  -7.750  -2.998  1.00  0.00    -0.474 OA
ATOM     31  C   UNL     1      -1.592  -7.997  -0.614  1.00  0.00     0.056 C 
BRANCH  29  32
ATOM     32  C   UNL     1      -3.400  -7.934  -4.644  1.00  0.00     0.171 C 
BRANCH  32  33
ATOM     33  N   UNL     1      -2.453  -8.886  -5.204  1.00  0.00    -0.342 N 
ATOM     34  C   UNL     1      -1.762  -8.647  -6.368  1.00  0.00     0.246 CG0
ATOM     35  O   UNL     1      -1.909  -7.627  -7.037  1.00  0.00    -0.273 OA
ATOM     36  H   UNL     1      -2.296  -9.788  -4.767  1.00  0.00     0.164 HD
ATOM     37  G   UNL     1      -0.767  -9.753  -6.757  1.00  0.00     0.000 G0
ENDBRANCH  32  33
BRANCH  32  38
ATOM     38  C   UNL     1      -4.756  -8.591  -4.275  1.00  0.00     0.017 C 
ATOM     39  C   UNL     1      -5.513  -8.988  -5.549  1.00  0.00     0.010 C 
BRANCH  38  40
ATOM     40  C   UNL     1      -4.603  -9.787  -3.308  1.00  0.00     0.002 C 
ATOM     41  C   UNL     1      -5.679  -9.842  -2.232  1.00  0.00     0.004 C 
ENDBRANCH  38  40
ENDBRANCH  32  38
ENDBRANCH  29  32
ENDBRANCH  23  26
ENDBRANCH   1  22
TORSDOF 4
ENDMDL
MODEL 47
REMARK VINA RESULT:    -4.018      4.952      7.698
REMARK INTER + INTRA:          -8.496
REMARK INTER:                  -6.945
REMARK INTRA:                  -1.551
REMARK UNBOUND:                -1.660
REMARK SMILES CC[C@H](C)[C@@H]1NC(=O)[C@H]2CSC(=N2)[C@@H]([C@@H](C)CC)NC(=O)c2csc(n2)CNC(=O)[C@H]2N=C1O[C@@H]2C
REMARK SMILES IDX 27 1 25 2 22 3 26 4 23 5 24 6 20 7 19 8 21 9 14 11 12 12
REMARK SMILES IDX 11 13 10 14 13 15 9 16 15 18 16 19 17 20 18 21 28 22 29 23
REMARK SMILES IDX 30 24 31 26 32 27 35 28 33 29 34 30 36 31 5 32 6 33 7 34
REMARK SMILES IDX 8 35 3 38 4 39 2 40 1 41
REMARK H PARENT 19 10 28 25 6 36
REMARK Flexibility Score:   91.900
ROOT
ATOM      1  C   UNL     1      -8.736 -10.511  -3.250  1.00  0.00     0.183 C 
ENDROOT
BRANCH   1   2
ATOM      2  C   UNL     1      -7.592 -10.582  -4.219  1.00  0.00     0.113 A 
ATOM      3  C   UNL     1      -6.008  -9.896  -5.630  1.00  0.00     0.139 A 
ATOM      4  N   UNL     1      -6.937  -9.522  -4.656  1.00  0.00    -0.234 NA
ATOM      5  C   UNL     1      -5.942 -11.256  -5.865  1.00  0.00     0.101 A 
ATOM      6  S   UNL     1      -7.075 -12.082  -4.875  1.00  0.00    -0.125 S 
BRANCH   3   7
ATOM      7  C   UNL     1      -5.231  -8.874  -6.333  1.00  0.00     0.271 C 
ATOM      8  N   UNL     1      -4.028  -8.638  -5.715  1.00  0.00    -0.341 N 
ATOM      9  O   UNL     1      -5.629  -8.282  -7.329  1.00  0.00    -0.267 OA
ATOM     10  H   UNL     1      -3.825  -9.225  -4.907  1.00  0.00     0.164 HD
BRANCH   8  11
ATOM     11  C   UNL     1      -3.126  -7.554  -6.068  1.00  0.00     0.140 C 
BRANCH  11  12
ATOM     12  C   UNL     1      -2.962  -6.659  -4.836  1.00  0.00     0.091 C 
ATOM     13  S   UNL     1      -1.378  -6.102  -4.349  1.00  0.00    -0.106 SA
ATOM     14  C   UNL     1      -2.130  -4.938  -3.191  1.00  0.00     0.113 C 
ATOM     15  N   UNL     1      -3.964  -6.346  -4.076  1.00  0.00    -0.267 NA
ATOM     16  C   UNL     1      -3.488  -5.557  -2.897  1.00  0.00     0.205 CG0
ATOM     17  G   UNL     1      -3.422  -6.437  -1.638  1.00  0.00     0.000 G0
ENDBRANCH  11  12
BRANCH  11  18
ATOM     18  C   UNL     1      -1.820  -8.021  -6.760  1.00  0.00     0.015 C 
ATOM     19  C   UNL     1      -1.416  -9.413  -6.257  1.00  0.00     0.010 C 
BRANCH  18  20
ATOM     20  C   UNL     1      -1.851  -7.965  -8.301  1.00  0.00     0.002 C 
ATOM     21  C   UNL     1      -0.486  -8.214  -8.933  1.00  0.00     0.004 C 
ENDBRANCH  18  20
ENDBRANCH  11  18
ENDBRANCH   8  11
ENDBRANCH   3   7
ENDBRANCH   1   2
BRANCH   1  22
ATOM     22  N   UNL     1      -8.175 -10.315  -1.932  1.00  0.00    -0.348 N 
ATOM     23  C   UNL     1      -8.316  -9.176  -1.186  1.00  0.00     0.249 C 
ATOM     24  O   UNL     1      -9.012  -8.228  -1.532  1.00  0.00    -0.272 OA
ATOM     25  H   UNL     1      -7.559 -11.035  -1.555  1.00  0.00     0.163 HD
BRANCH  23  26
ATOM     26  C   UNL     1      -7.561  -9.242   0.150  1.00  0.00     0.238 C 
ATOM     27  N   UNL     1      -6.115  -8.978  -0.090  1.00  0.00    -0.236 NA
ATOM     28  C   UNL     1      -8.017  -8.161   1.115  1.00  0.00     0.206 C 
ATOM     29  C   UNL     1      -5.928  -7.817   0.463  1.00  0.00     0.208 C 
ATOM     30  O   UNL     1      -6.966  -7.197   1.076  1.00  0.00    -0.474 OA
ATOM     31  C   UNL     1      -8.156  -8.672   2.542  1.00  0.00     0.056 C 
BRANCH  29  32
ATOM     32  C   UNL     1      -4.632  -7.011   0.460  1.00  0.00     0.171 C 
BRANCH  32  33
ATOM     33  N   UNL     1      -4.489  -6.263  -0.780  1.00  0.00    -0.342 N 
ATOM     34  C   UNL     1      -3.413  -6.420  -1.620  1.00  0.00     0.246 CG0
ATOM     35  O   UNL     1      -2.480  -7.182  -1.378  1.00  0.00    -0.273 OA
ATOM     36  H   UNL     1      -5.171  -5.563  -1.051  1.00  0.00     0.164 HD
ATOM     37  G   UNL     1      -3.481  -5.581  -2.906  1.00  0.00     0.000 G0
ENDBRANCH  32  33
BRANCH  32  38
ATOM     38  C   UNL     1      -4.555  -6.103   1.715  1.00  0.00     0.017 C 
ATOM     39  C   UNL     1      -4.266  -6.949   2.961  1.00  0.00     0.010 C 
BRANCH  38  40
ATOM     40  C   UNL     1      -3.537  -4.949   1.562  1.00  0.00     0.002 C 
ATOM     41  C   UNL     1      -2.086  -5.398   1.671  1.00  0.00     0.004 C 
ENDBRANCH  38  40
ENDBRANCH  32  38
ENDBRANCH  29  32
ENDBRANCH  23  26
ENDBRANCH   1  22
TORSDOF 4
ENDMDL
MODEL 48
REMARK VINA RESULT:    -3.967      3.051      7.518
REMARK INTER + INTRA:          -8.410
REMARK INTER:                  -7.410
REMARK INTRA:                  -1.000
REMARK UNBOUND:                -1.660
REMARK SMILES CC[C@H](C)[C@@H]1NC(=O)[C@H]2CSC(=N2)[C@@H]([C@@H](C)CC)NC(=O)c2csc(n2)CNC(=O)[C@H]2N=C1O[C@@H]2C
REMARK SMILES IDX 27 1 25 2 22 3 26 4 23 5 24 6 20 7 19 8 21 9 14 11 12 12
REMARK SMILES IDX 11 13 10 14 13 15 9 16 15 18 16 19 17 20 18 21 28 22 29 23
REMARK SMILES IDX 30 24 31 26 32 27 35 28 33 29 34 30 36 31 5 32 6 33 7 34
REMARK SMILES IDX 8 35 3 38 4 39 2 40 1 41
REMARK H PARENT 19 10 28 25 6 36
REMARK Flexibility Score:   91.900
ROOT
ATOM      1  C   UNL     1      -6.034  -5.945  -5.913  1.00  0.00     0.183 C 
ENDROOT
BRANCH   1   2
ATOM      2  C   UNL     1      -5.537  -6.267  -4.533  1.00  0.00     0.113 A 
ATOM      3  C   UNL     1      -4.109  -6.562  -2.847  1.00  0.00     0.139 A 
ATOM      4  N   UNL     1      -4.295  -6.059  -4.136  1.00  0.00    -0.234 NA
ATOM      5  C   UNL     1      -5.247  -7.093  -2.271  1.00  0.00     0.101 A 
ATOM      6  S   UNL     1      -6.567  -6.987  -3.364  1.00  0.00    -0.125 S 
BRANCH   3   7
ATOM      7  C   UNL     1      -2.780  -6.535  -2.233  1.00  0.00     0.271 C 
ATOM      8  N   UNL     1      -1.885  -5.825  -2.996  1.00  0.00    -0.341 N 
ATOM      9  O   UNL     1      -2.502  -7.107  -1.187  1.00  0.00    -0.267 OA
ATOM     10  H   UNL     1      -2.270  -5.385  -3.831  1.00  0.00     0.164 HD
BRANCH   8  11
ATOM     11  C   UNL     1      -0.454  -5.778  -2.745  1.00  0.00     0.140 C 
BRANCH  11  12
ATOM     12  C   UNL     1       0.242  -6.589  -3.841  1.00  0.00     0.091 C 
ATOM     13  S   UNL     1       1.807  -6.100  -4.448  1.00  0.00    -0.106 SA
ATOM     14  C   UNL     1       1.980  -7.677  -5.310  1.00  0.00     0.113 C 
ATOM     15  N   UNL     1      -0.324  -7.609  -4.405  1.00  0.00    -0.267 NA
ATOM     16  C   UNL     1       0.542  -8.133  -5.508  1.00  0.00     0.205 CG0
ATOM     17  G   UNL     1       0.014  -7.684  -6.880  1.00  0.00     0.000 G0
ENDBRANCH  11  12
BRANCH  11  18
ATOM     18  C   UNL     1       0.094  -4.350  -2.489  1.00  0.00     0.015 C 
ATOM     19  C   UNL     1       0.176  -3.565  -3.805  1.00  0.00     0.010 C 
BRANCH  18  20
ATOM     20  C   UNL     1      -0.660  -3.555  -1.404  1.00  0.00     0.002 C 
ATOM     21  C   UNL     1      -0.550  -2.045  -1.589  1.00  0.00     0.004 C 
ENDBRANCH  18  20
ENDBRANCH  11  18
ENDBRANCH   8  11
ENDBRANCH   3   7
ENDBRANCH   1   2
BRANCH   1  22
ATOM     22  N   UNL     1      -5.524  -6.962  -6.805  1.00  0.00    -0.348 N 
ATOM     23  C   UNL     1      -5.698  -6.968  -8.162  1.00  0.00     0.249 C 
ATOM     24  O   UNL     1      -6.239  -6.054  -8.774  1.00  0.00    -0.272 OA
ATOM     25  H   UNL     1      -5.074  -7.782  -6.398  1.00  0.00     0.163 HD
BRANCH  23  26
ATOM     26  C   UNL     1      -5.090  -8.207  -8.835  1.00  0.00     0.238 C 
ATOM     27  N   UNL     1      -3.778  -7.844  -9.439  1.00  0.00    -0.236 NA
ATOM     28  C   UNL     1      -4.785  -9.307  -7.833  1.00  0.00     0.206 C 
ATOM     29  C   UNL     1      -2.921  -8.477  -8.694  1.00  0.00     0.208 C 
ATOM     30  O   UNL     1      -3.368  -9.247  -7.672  1.00  0.00    -0.474 OA
ATOM     31  C   UNL     1      -5.157 -10.690  -8.351  1.00  0.00     0.056 C 
BRANCH  29  32
ATOM     32  C   UNL     1      -1.401  -8.411  -8.809  1.00  0.00     0.171 C 
BRANCH  32  33
ATOM     33  N   UNL     1      -0.773  -8.638  -7.517  1.00  0.00    -0.342 N 
ATOM     34  C   UNL     1       0.031  -7.702  -6.909  1.00  0.00     0.246 CG0
ATOM     35  O   UNL     1       0.300  -6.618  -7.419  1.00  0.00    -0.273 OA
ATOM     36  H   UNL     1      -0.878  -9.522  -7.030  1.00  0.00     0.164 HD
ATOM     37  G   UNL     1       0.549  -8.113  -5.521  1.00  0.00     0.000 G0
ENDBRANCH  32  33
BRANCH  32  38
ATOM     38  C   UNL     1      -0.896  -9.396  -9.896  1.00  0.00     0.017 C 
ATOM     39  C   UNL     1      -1.594 -10.752  -9.745  1.00  0.00     0.010 C 
BRANCH  38  40
ATOM     40  C   UNL     1      -1.043  -8.837 -11.330  1.00  0.00     0.002 C 
ATOM     41  C   UNL     1      -0.428  -9.731 -12.399  1.00  0.00     0.004 C 
ENDBRANCH  38  40
ENDBRANCH  32  38
ENDBRANCH  29  32
ENDBRANCH  23  26
ENDBRANCH   1  22
TORSDOF 4
ENDMDL
MODEL 49
REMARK VINA RESULT:    -3.900      4.462      7.866
REMARK INTER + INTRA:          -8.296
REMARK INTER:                  -7.137
REMARK INTRA:                  -1.159
REMARK UNBOUND:                -1.660
REMARK SMILES CC[C@H](C)[C@@H]1NC(=O)[C@H]2CSC(=N2)[C@@H]([C@@H](C)CC)NC(=O)c2csc(n2)CNC(=O)[C@H]2N=C1O[C@@H]2C
REMARK SMILES IDX 27 1 25 2 22 3 26 4 23 5 24 6 20 7 19 8 21 9 14 11 12 12
REMARK SMILES IDX 11 13 10 14 13 15 9 16 15 18 16 19 17 20 18 21 28 22 29 23
REMARK SMILES IDX 30 24 31 26 32 27 35 28 33 29 34 30 36 31 5 32 6 33 7 34
REMARK SMILES IDX 8 35 3 38 4 39 2 40 1 41
REMARK H PARENT 19 10 28 25 6 36
REMARK Flexibility Score:   91.900
ROOT
ATOM      1  C   UNL     1      -3.012  -4.311  -2.397  1.00  0.00     0.183 C 
ENDROOT
BRANCH   1   2
ATOM      2  C   UNL     1      -1.999  -5.123  -3.152  1.00  0.00     0.113 A 
ATOM      3  C   UNL     1      -1.162  -6.523  -4.671  1.00  0.00     0.139 A 
ATOM      4  N   UNL     1      -2.269  -5.771  -4.270  1.00  0.00    -0.234 NA
ATOM      5  C   UNL     1      -0.049  -6.375  -3.866  1.00  0.00     0.101 A 
ATOM      6  S   UNL     1      -0.394  -5.301  -2.572  1.00  0.00    -0.125 S 
BRANCH   3   7
ATOM      7  C   UNL     1      -1.258  -7.406  -5.835  1.00  0.00     0.271 C 
ATOM      8  N   UNL     1      -2.529  -7.423  -6.354  1.00  0.00    -0.341 N 
ATOM      9  O   UNL     1      -0.322  -8.070  -6.264  1.00  0.00    -0.267 OA
ATOM     10  H   UNL     1      -3.197  -6.799  -5.903  1.00  0.00     0.164 HD
BRANCH   8  11
ATOM     11  C   UNL     1      -2.977  -8.341  -7.388  1.00  0.00     0.140 C 
BRANCH  11  12
ATOM     12  C   UNL     1      -3.832  -9.421  -6.720  1.00  0.00     0.091 C 
ATOM     13  S   UNL     1      -5.152 -10.171  -7.587  1.00  0.00    -0.106 SA
ATOM     14  C   UNL     1      -5.296 -11.431  -6.303  1.00  0.00     0.113 C 
ATOM     15  N   UNL     1      -3.662  -9.763  -5.482  1.00  0.00    -0.267 NA
ATOM     16  C   UNL     1      -4.705 -10.757  -5.075  1.00  0.00     0.205 CG0
ATOM     17  G   UNL     1      -5.807 -10.084  -4.240  1.00  0.00     0.000 G0
ENDBRANCH  11  12
BRANCH  11  18
ATOM     18  C   UNL     1      -3.594  -7.641  -8.627  1.00  0.00     0.015 C 
ATOM     19  C   UNL     1      -4.193  -6.285  -8.232  1.00  0.00     0.010 C 
BRANCH  18  20
ATOM     20  C   UNL     1      -2.642  -7.507  -9.832  1.00  0.00     0.002 C 
ATOM     21  C   UNL     1      -3.029  -8.409 -11.000  1.00  0.00     0.004 C 
ENDBRANCH  18  20
ENDBRANCH  11  18
ENDBRANCH   8  11
ENDBRANCH   3   7
ENDBRANCH   1   2
BRANCH   1  22
ATOM     22  N   UNL     1      -3.769  -5.225  -1.571  1.00  0.00    -0.348 N 
ATOM     23  C   UNL     1      -3.406  -5.622  -0.313  1.00  0.00     0.249 C 
ATOM     24  O   UNL     1      -2.432  -5.171   0.280  1.00  0.00    -0.272 OA
ATOM     25  H   UNL     1      -4.588  -5.678  -1.974  1.00  0.00     0.163 HD
BRANCH  23  26
ATOM     26  C   UNL     1      -4.380  -6.643   0.294  1.00  0.00     0.238 C 
ATOM     27  N   UNL     1      -5.519  -6.851  -0.642  1.00  0.00    -0.236 NA
ATOM     28  C   UNL     1      -3.739  -8.009   0.466  1.00  0.00     0.206 C 
ATOM     29  C   UNL     1      -5.337  -8.066  -1.067  1.00  0.00     0.208 C 
ATOM     30  O   UNL     1      -4.287  -8.785  -0.599  1.00  0.00    -0.474 OA
ATOM     31  C   UNL     1      -4.111  -8.668   1.788  1.00  0.00     0.056 C 
BRANCH  29  32
ATOM     32  C   UNL     1      -6.174  -8.792  -2.116  1.00  0.00     0.171 C 
BRANCH  32  33
ATOM     33  N   UNL     1      -5.325  -9.527  -3.040  1.00  0.00    -0.342 N 
ATOM     34  C   UNL     1      -5.800 -10.073  -4.209  1.00  0.00     0.246 CG0
ATOM     35  O   UNL     1      -6.978 -10.005  -4.550  1.00  0.00    -0.273 OA
ATOM     36  H   UNL     1      -4.347  -9.696  -2.832  1.00  0.00     0.164 HD
ATOM     37  G   UNL     1      -4.729 -10.758  -5.074  1.00  0.00     0.000 G0
ENDBRANCH  32  33
BRANCH  32  38
ATOM     38  C   UNL     1      -7.233  -9.698  -1.433  1.00  0.00     0.017 C 
ATOM     39  C   UNL     1      -6.551 -10.655  -0.448  1.00  0.00     0.010 C 
BRANCH  38  40
ATOM     40  C   UNL     1      -8.366  -8.894  -0.755  1.00  0.00     0.002 C 
ATOM     41  C   UNL     1      -8.318  -8.939   0.767  1.00  0.00     0.004 C 
ENDBRANCH  38  40
ENDBRANCH  32  38
ENDBRANCH  29  32
ENDBRANCH  23  26
ENDBRANCH   1  22
TORSDOF 4
ENDMDL
MODEL 50
REMARK VINA RESULT:    -3.799     23.486     26.679
REMARK INTER + INTRA:          -8.124
REMARK INTER:                  -6.747
REMARK INTRA:                  -1.377
REMARK UNBOUND:                -1.660
REMARK SMILES CC[C@H](C)[C@@H]1NC(=O)[C@H]2CSC(=N2)[C@@H]([C@@H](C)CC)NC(=O)c2csc(n2)CNC(=O)[C@H]2N=C1O[C@@H]2C
REMARK SMILES IDX 27 1 25 2 22 3 26 4 23 5 24 6 20 7 19 8 21 9 14 11 12 12
REMARK SMILES IDX 11 13 10 14 13 15 9 16 15 18 16 19 17 20 18 21 28 22 29 23
REMARK SMILES IDX 30 24 31 26 32 27 35 28 33 29 34 30 36 31 5 32 6 33 7 34
REMARK SMILES IDX 8 35 3 38 4 39 2 40 1 41
REMARK H PARENT 19 10 28 25 6 36
REMARK Flexibility Score:   91.900
ROOT
ATOM      1  C   UNL     1     -14.142   9.516  -3.318  1.00  0.00     0.183 C 
ENDROOT
BRANCH   1   2
ATOM      2  C   UNL     1     -13.889  10.475  -4.446  1.00  0.00     0.113 A 
ATOM      3  C   UNL     1     -13.981  12.347  -5.652  1.00  0.00     0.139 A 
ATOM      4  N   UNL     1     -14.247  11.745  -4.420  1.00  0.00    -0.234 NA
ATOM      5  C   UNL     1     -13.366  11.520  -6.571  1.00  0.00     0.101 A 
ATOM      6  S   UNL     1     -13.137   9.957  -5.899  1.00  0.00    -0.125 S 
BRANCH   3   7
ATOM      7  C   UNL     1     -14.386  13.733  -5.894  1.00  0.00     0.271 C 
ATOM      8  N   UNL     1     -14.030  14.554  -4.852  1.00  0.00    -0.341 N 
ATOM      9  O   UNL     1     -14.997  14.099  -6.890  1.00  0.00    -0.267 OA
ATOM     10  H   UNL     1     -13.504  14.109  -4.101  1.00  0.00     0.164 HD
BRANCH   8  11
ATOM     11  C   UNL     1     -14.458  15.936  -4.717  1.00  0.00     0.140 C 
BRANCH  11  12
ATOM     12  C   UNL     1     -14.968  16.134  -3.287  1.00  0.00     0.091 C 
ATOM     13  S   UNL     1     -14.207  15.303  -1.951  1.00  0.00    -0.106 SA
ATOM     14  C   UNL     1     -15.113  16.333  -0.777  1.00  0.00     0.113 C 
ATOM     15  N   UNL     1     -16.014  16.853  -3.024  1.00  0.00    -0.267 NA
ATOM     16  C   UNL     1     -16.336  16.776  -1.564  1.00  0.00     0.205 CG0
ATOM     17  G   UNL     1     -17.518  15.824  -1.314  1.00  0.00     0.000 G0
ENDBRANCH  11  12
BRANCH  11  18
ATOM     18  C   UNL     1     -13.421  16.969  -5.228  1.00  0.00     0.015 C 
ATOM     19  C   UNL     1     -11.997  16.512  -4.884  1.00  0.00     0.010 C 
BRANCH  18  20
ATOM     20  C   UNL     1     -13.552  17.330  -6.721  1.00  0.00     0.002 C 
ATOM     21  C   UNL     1     -12.220  17.290  -7.462  1.00  0.00     0.004 C 
ENDBRANCH  18  20
ENDBRANCH  11  18
ENDBRANCH   8  11
ENDBRANCH   3   7
ENDBRANCH   1   2
BRANCH   1  22
ATOM     22  N   UNL     1     -15.431   9.846  -2.751  1.00  0.00    -0.348 N 
ATOM     23  C   UNL     1     -15.624  10.692  -1.694  1.00  0.00     0.249 C 
ATOM     24  O   UNL     1     -14.718  11.329  -1.168  1.00  0.00    -0.272 OA
ATOM     25  H   UNL     1     -16.254   9.355  -3.100  1.00  0.00     0.163 HD
BRANCH  23  26
ATOM     26  C   UNL     1     -17.099  10.802  -1.280  1.00  0.00     0.238 C 
ATOM     27  N   UNL     1     -17.426  12.228  -1.002  1.00  0.00    -0.236 NA
ATOM     28  C   UNL     1     -18.036  10.382  -2.400  1.00  0.00     0.206 C 
ATOM     29  C   UNL     1     -18.221  12.548  -1.979  1.00  0.00     0.208 C 
ATOM     30  O   UNL     1     -18.546  11.614  -2.906  1.00  0.00    -0.474 OA
ATOM     31  C   UNL     1     -19.204   9.541  -1.900  1.00  0.00     0.056 C 
BRANCH  29  32
ATOM     32  C   UNL     1     -18.817  13.927  -2.246  1.00  0.00     0.171 C 
BRANCH  32  33
ATOM     33  N   UNL     1     -17.774  14.938  -2.320  1.00  0.00    -0.342 N 
ATOM     34  C   UNL     1     -17.530  15.828  -1.302  1.00  0.00     0.246 CG0
ATOM     35  O   UNL     1     -18.188  15.856  -0.265  1.00  0.00    -0.273 OA
ATOM     36  H   UNL     1     -17.206  15.046  -3.154  1.00  0.00     0.164 HD
ATOM     37  G   UNL     1     -16.346  16.776  -1.553  1.00  0.00     0.000 G0
ENDBRANCH  32  33
BRANCH  32  38
ATOM     38  C   UNL     1     -19.707  13.897  -3.516  1.00  0.00     0.017 C 
ATOM     39  C   UNL     1     -21.189  13.924  -3.121  1.00  0.00     0.010 C 
BRANCH  38  40
ATOM     40  C   UNL     1     -19.365  15.023  -4.519  1.00  0.00     0.002 C 
ATOM     41  C   UNL     1     -19.864  16.396  -4.087  1.00  0.00     0.004 C 
ENDBRANCH  38  40
ENDBRANCH  32  38
ENDBRANCH  29  32
ENDBRANCH  23  26
ENDBRANCH   1  22
TORSDOF 4
ENDMDL
