MODEL 1
REMARK VINA RESULT:    -7.262      0.000      0.000
REMARK INTER + INTRA:         -26.285
REMARK INTER:                 -20.846
REMARK INTRA:                  -5.439
REMARK UNBOUND:                -5.439
REMARK SMILES CCCCCC(=O)N[C@H](CC(=O)O)C(=O)N[C@H]1C(=O)N[C@H](CCCN=C(N)N)C(=O)N[C@@H]2CC[C@H](O)N(C2=O)[C@@H](CC(C)C)C(=O)N(C)[C@@H](Cc2ccccc2)C(=O)N[C@H](C(C)C)C(=O)O[C@@H]1C
REMARK SMILES IDX 30 1 31 2 29 3 32 5 35 6 37 7 34 8 38 9 33 10 39 11 36 12
REMARK SMILES IDX 40 14 41 15 42 16 43 17 44 18 45 19 46 20 47 21 48 22 49 23
REMARK SMILES IDX 50 24 51 25 52 26 56 27 53 28 55 29 54 30 57 31 58 32 59 33
REMARK SMILES IDX 60 35 61 36 62 37 63 38 64 39 65 40 66 41 67 42 68 43 21 45
REMARK SMILES IDX 20 46 18 47 19 48 17 50 16 52 14 53 15 54 9 56 8 57 6 58
REMARK SMILES IDX 7 59 5 61 4 62 3 63 2 64 1 65 10 66 11 67 12 68 13 69 22 71
REMARK SMILES IDX 23 72 24 73 25 74 26 75 27 76 28 77
REMARK H PARENT 31 4 36 13 59 34 20 49 16 55 8 60 13 70 27 78 27 79 28 80
REMARK H PARENT 28 81
REMARK Flexibility Score:  259.900
ROOT
ATOM      1  O   UNL     1       3.875  -0.994  -3.552  1.00  0.00    -0.273 OA
ATOM      2  N   UNL     1       4.934  -2.446  -2.137  1.00  0.00    -0.343 N 
ATOM      3  C   UNL     1       3.947  -1.536  -2.448  1.00  0.00     0.243 C 
ATOM      4  H   UNL     1       4.953  -2.884  -1.224  1.00  0.00     0.164 HD
ENDROOT
BRANCH   2   5
ATOM      5  C   UNL     1       6.017  -2.716  -3.076  1.00  0.00     0.171 C 
ATOM      6  C   UNL     1       6.071  -3.140  -5.944  1.00  0.00     0.214 C 
ATOM      7  N   UNL     1       5.930  -4.274  -5.061  1.00  0.00    -0.303 N 
ATOM      8  C   UNL     1       6.864  -1.996  -5.332  1.00  0.00     0.057 C 
ATOM      9  C   UNL     1       5.846  -4.138  -3.684  1.00  0.00     0.247 C 
ATOM     10  C   UNL     1       6.208  -1.549  -4.044  1.00  0.00     0.040 C 
ATOM     11  O   UNL     1       5.638  -5.106  -2.941  1.00  0.00    -0.272 OA
BRANCH   6  12
ATOM     12  O   UNL     1       4.778  -2.708  -6.300  1.00  0.00    -0.373 OA
ATOM     13  H   UNL     1       4.345  -3.453  -6.768  1.00  0.00     0.213 HD
ENDBRANCH   6  12
BRANCH   7  14
ATOM     14  C   UNL     1       5.728  -5.595  -5.693  1.00  0.00     0.177 C 
BRANCH  14  15
ATOM     15  C   UNL     1       6.884  -6.597  -5.503  1.00  0.00     0.038 C 
BRANCH  15  16
ATOM     16  C   UNL     1       7.511  -7.277  -6.740  1.00  0.00    -0.015 C 
ATOM     17  C   UNL     1       7.107  -6.594  -8.050  1.00  0.00     0.007 C 
ATOM     18  C   UNL     1       7.069  -8.744  -6.806  1.00  0.00     0.007 C 
ENDBRANCH  15  16
ENDBRANCH  14  15
BRANCH  14  19
ATOM     19  C   UNL     1       4.204  -5.962  -5.711  1.00  0.00     0.245 C 
ATOM     20  O   UNL     1       3.409  -5.068  -5.374  1.00  0.00    -0.272 OA
BRANCH  19  21
ATOM     21  N   UNL     1       3.719  -7.232  -5.967  1.00  0.00    -0.332 N 
ATOM     22  C   UNL     1       3.573  -7.829  -7.283  1.00  0.00     0.147 C 
BRANCH  21  23
ATOM     23  C   UNL     1       3.298  -8.064  -4.806  1.00  0.00     0.178 C 
BRANCH  23  24
ATOM     24  C   UNL     1       4.068  -7.785  -3.499  1.00  0.00     0.070 C 
BRANCH  24  25
ATOM     25  C   UNL     1       5.006  -8.863  -3.009  1.00  0.00    -0.045 A 
ATOM     26  C   UNL     1       6.190  -8.534  -2.337  1.00  0.00     0.004 A 
ATOM     27  C   UNL     1       4.704 -10.216  -3.227  1.00  0.00     0.004 A 
ATOM     28  C   UNL     1       7.060  -9.536  -1.903  1.00  0.00     0.000 A 
ATOM     29  C   UNL     1       5.574 -11.217  -2.791  1.00  0.00     0.000 A 
ATOM     30  C   UNL     1       6.753 -10.876  -2.132  1.00  0.00     0.000 A 
ENDBRANCH  24  25
ENDBRANCH  23  24
BRANCH  23  31
ATOM     31  C   UNL     1       1.761  -8.150  -4.650  1.00  0.00     0.243 C 
ATOM     32  O   UNL     1       1.117  -9.191  -4.756  1.00  0.00    -0.273 OA
ATOM     33  N   UNL     1       1.144  -6.914  -4.564  1.00  0.00    -0.341 N 
ATOM     34  H   UNL     1       1.733  -6.081  -4.485  1.00  0.00     0.164 HD
BRANCH  33  35
ATOM     35  C   UNL     1      -0.312  -6.748  -4.530  1.00  0.00     0.194 C 
BRANCH  35  36
ATOM     36  C   UNL     1      -0.930  -6.288  -5.880  1.00  0.00     0.017 C 
ATOM     37  C   UNL     1      -2.192  -7.099  -6.223  1.00  0.00     0.010 C 
ATOM     38  C   UNL     1       0.036  -6.422  -7.064  1.00  0.00     0.010 C 
ENDBRANCH  35  36
BRANCH  35  39
ATOM     39  C   UNL     1      -0.786  -5.863  -3.344  1.00  0.00     0.329 C 
ATOM     40  O   UNL     1      -1.797  -5.172  -3.364  1.00  0.00    -0.250 OA
BRANCH  39  41
ATOM     41  O   UNL     1       0.007  -6.007  -2.238  1.00  0.00    -0.458 OA
BRANCH  41  42
ATOM     42  C   UNL     1       0.912  -4.915  -1.951  1.00  0.00     0.205 CG0
ATOM     43  C   UNL     1       2.218  -5.527  -1.450  1.00  0.00     0.056 C 
ATOM     44  G   UNL     1       0.254  -3.992  -0.907  1.00  0.00     0.000 G0
ENDBRANCH  41  42
ENDBRANCH  39  41
ENDBRANCH  35  39
ENDBRANCH  33  35
ENDBRANCH  23  31
ENDBRANCH  21  23
ENDBRANCH  19  21
ENDBRANCH  14  19
ENDBRANCH   7  14
ENDBRANCH   2   5
BRANCH   3  45
ATOM     45  C   UNL     1       2.930  -1.263  -1.332  1.00  0.00     0.171 C 
BRANCH  45  46
ATOM     46  N   UNL     1       1.850  -2.218  -1.540  1.00  0.00    -0.342 N 
ATOM     47  C   UNL     1       1.286  -2.928  -0.510  1.00  0.00     0.247 C 
ATOM     48  O   UNL     1       1.600  -2.758   0.669  1.00  0.00    -0.273 OA
ATOM     49  H   UNL     1       1.521  -2.348  -2.495  1.00  0.00     0.164 HD
BRANCH  47  50
ATOM     50  C   UNL     1       0.249  -3.978  -0.935  1.00  0.00     0.212 CG0
ATOM     51  G   UNL     1       0.919  -4.905  -1.968  1.00  0.00     0.000 G0
BRANCH  50  52
ATOM     52  N   UNL     1      -0.135  -4.665   0.295  1.00  0.00    -0.339 N 
ATOM     53  C   UNL     1      -1.281  -4.378   0.995  1.00  0.00     0.243 C 
ATOM     54  O   UNL     1      -2.049  -3.478   0.667  1.00  0.00    -0.273 OA
ATOM     55  H   UNL     1       0.517  -5.346   0.679  1.00  0.00     0.164 HD
BRANCH  53  56
ATOM     56  C   UNL     1      -1.431  -5.173   2.308  1.00  0.00     0.182 C 
BRANCH  56  57
ATOM     57  N   UNL     1      -2.455  -6.216   2.178  1.00  0.00    -0.344 N 
ATOM     58  C   UNL     1      -2.230  -7.387   1.497  1.00  0.00     0.220 C 
ATOM     59  O   UNL     1      -1.188  -7.612   0.890  1.00  0.00    -0.275 OA
ATOM     60  H   UNL     1      -3.290  -6.114   2.748  1.00  0.00     0.164 HD
BRANCH  58  61
ATOM     61  C   UNL     1      -3.406  -8.344   1.541  1.00  0.00     0.100 C 
BRANCH  61  62
ATOM     62  C   UNL     1      -3.622  -9.116   0.239  1.00  0.00     0.010 C 
BRANCH  62  63
ATOM     63  C   UNL     1      -4.404  -8.339  -0.829  1.00  0.00     0.000 C 
BRANCH  63  64
ATOM     64  C   UNL     1      -3.884  -8.534  -2.252  1.00  0.00    -0.003 C 
ATOM     65  C   UNL     1      -2.445  -9.030  -2.254  1.00  0.00     0.004 C 
ENDBRANCH  63  64
ENDBRANCH  62  63
ENDBRANCH  61  62
ENDBRANCH  58  61
ENDBRANCH  56  57
BRANCH  56  66
ATOM     66  C   UNL     1      -1.697  -4.249   3.495  1.00  0.00     0.157 C 
BRANCH  66  67
ATOM     67  C   UNL     1      -1.340  -4.915   4.793  1.00  0.00     0.305 C 
ATOM     68  O   UNL     1      -0.383  -5.644   5.003  1.00  0.00    -0.252 OA
BRANCH  67  69
ATOM     69  O   UNL     1      -2.186  -4.586   5.787  1.00  0.00    -0.481 OA
ATOM     70  H   UNL     1      -2.193  -5.367   6.379  1.00  0.00     0.296 HD
ENDBRANCH  67  69
ENDBRANCH  66  67
ENDBRANCH  56  66
ENDBRANCH  53  56
ENDBRANCH  50  52
ENDBRANCH  47  50
ENDBRANCH  45  46
BRANCH  45  71
ATOM     71  C   UNL     1       2.429   0.184  -1.409  1.00  0.00     0.037 C 
BRANCH  71  72
ATOM     72  C   UNL     1       1.038   0.278  -2.042  1.00  0.00     0.026 C 
BRANCH  72  73
ATOM     73  C   UNL     1       0.062   1.033  -1.142  1.00  0.00     0.146 C 
BRANCH  73  74
ATOM     74  N   UNL     1       0.061   0.379   0.163  1.00  0.00    -0.254 NA
ATOM     75  C   UNL     1      -0.952  -0.344   0.469  1.00  0.00     0.185 C 
ATOM     76  N   UNL     1      -0.982  -0.960   1.662  1.00  0.00    -0.370 N 
ATOM     77  N   UNL     1      -2.056  -0.603  -0.254  1.00  0.00    -0.370 N 
ATOM     78  H   UNL     1      -0.191  -0.812   2.273  1.00  0.00     0.159 HD
ATOM     79  H   UNL     1      -1.797  -1.419   2.028  1.00  0.00     0.159 HD
ATOM     80  H   UNL     1      -2.169  -0.209  -1.176  1.00  0.00     0.159 HD
ATOM     81  H   UNL     1      -2.736  -1.282   0.045  1.00  0.00     0.159 HD
ENDBRANCH  73  74
ENDBRANCH  72  73
ENDBRANCH  71  72
ENDBRANCH  45  71
ENDBRANCH   3  45
TORSDOF 20
ENDMDL
MODEL 2
REMARK VINA RESULT:    -6.097      3.209      7.472
REMARK INTER + INTRA:         -22.941
REMARK INTER:                 -16.370
REMARK INTRA:                  -6.570
REMARK UNBOUND:                -5.439
REMARK SMILES CCCCCC(=O)N[C@H](CC(=O)O)C(=O)N[C@H]1C(=O)N[C@H](CCCN=C(N)N)C(=O)N[C@@H]2CC[C@H](O)N(C2=O)[C@@H](CC(C)C)C(=O)N(C)[C@@H](Cc2ccccc2)C(=O)N[C@H](C(C)C)C(=O)O[C@@H]1C
REMARK SMILES IDX 30 1 31 2 29 3 32 5 35 6 37 7 34 8 38 9 33 10 39 11 36 12
REMARK SMILES IDX 40 14 41 15 42 16 43 17 44 18 45 19 46 20 47 21 48 22 49 23
REMARK SMILES IDX 50 24 51 25 52 26 56 27 53 28 55 29 54 30 57 31 58 32 59 33
REMARK SMILES IDX 60 35 61 36 62 37 63 38 64 39 65 40 66 41 67 42 68 43 21 45
REMARK SMILES IDX 20 46 18 47 19 48 17 50 16 52 14 53 15 54 9 56 8 57 6 58
REMARK SMILES IDX 7 59 5 61 4 62 3 63 2 64 1 65 10 66 11 67 12 68 13 69 22 71
REMARK SMILES IDX 23 72 24 73 25 74 26 75 27 76 28 77
REMARK H PARENT 31 4 36 13 59 34 20 49 16 55 8 60 13 70 27 78 27 79 28 80
REMARK H PARENT 28 81
REMARK Flexibility Score:  259.900
ROOT
ATOM      1  O   UNL     1      -0.510  -6.405  -0.252  1.00  0.00    -0.273 OA
ATOM      2  N   UNL     1      -0.237  -4.533  -1.536  1.00  0.00    -0.343 N 
ATOM      3  C   UNL     1      -0.807  -5.755  -1.255  1.00  0.00     0.243 C 
ATOM      4  H   UNL     1      -0.516  -4.020  -2.363  1.00  0.00     0.164 HD
ENDROOT
BRANCH   2   5
ATOM      5  C   UNL     1       0.843  -4.009  -0.707  1.00  0.00     0.171 C 
ATOM      6  C   UNL     1       2.478  -1.622  -0.889  1.00  0.00     0.214 C 
ATOM      7  N   UNL     1       2.928  -2.841  -1.519  1.00  0.00    -0.303 N 
ATOM      8  C   UNL     1       1.624  -1.863   0.346  1.00  0.00     0.057 C 
ATOM      9  C   UNL     1       2.173  -4.002  -1.514  1.00  0.00     0.247 C 
ATOM     10  C   UNL     1       0.425  -2.711  -0.018  1.00  0.00     0.040 C 
ATOM     11  O   UNL     1       2.525  -5.017  -2.130  1.00  0.00    -0.272 OA
BRANCH   6  12
ATOM     12  O   UNL     1       1.760  -0.881  -1.848  1.00  0.00    -0.373 OA
ATOM     13  H   UNL     1       2.356  -0.170  -2.167  1.00  0.00     0.213 HD
ENDBRANCH   6  12
BRANCH   7  14
ATOM     14  C   UNL     1       4.176  -2.766  -2.308  1.00  0.00     0.177 C 
BRANCH  14  15
ATOM     15  C   UNL     1       4.255  -1.591  -3.302  1.00  0.00     0.038 C 
BRANCH  15  16
ATOM     16  C   UNL     1       4.944  -0.277  -2.872  1.00  0.00    -0.015 C 
ATOM     17  C   UNL     1       4.276   0.960  -3.481  1.00  0.00     0.007 C 
ATOM     18  C   UNL     1       6.414  -0.294  -3.311  1.00  0.00     0.007 C 
ENDBRANCH  15  16
ENDBRANCH  14  15
BRANCH  14  19
ATOM     19  C   UNL     1       5.378  -3.336  -1.479  1.00  0.00     0.245 C 
ATOM     20  O   UNL     1       5.323  -3.196  -0.246  1.00  0.00    -0.272 OA
BRANCH  19  21
ATOM     21  N   UNL     1       6.522  -3.870  -2.046  1.00  0.00    -0.332 N 
ATOM     22  C   UNL     1       7.831  -3.915  -1.420  1.00  0.00     0.147 C 
BRANCH  21  23
ATOM     23  C   UNL     1       6.417  -4.441  -3.417  1.00  0.00     0.178 C 
BRANCH  23  24
ATOM     24  C   UNL     1       7.528  -3.994  -4.389  1.00  0.00     0.070 C 
BRANCH  24  25
ATOM     25  C   UNL     1       7.171  -3.922  -5.856  1.00  0.00    -0.045 A 
ATOM     26  C   UNL     1       6.522  -2.798  -6.382  1.00  0.00     0.004 A 
ATOM     27  C   UNL     1       7.482  -4.988  -6.713  1.00  0.00     0.004 A 
ATOM     28  C   UNL     1       6.180  -2.746  -7.735  1.00  0.00     0.000 A 
ATOM     29  C   UNL     1       7.141  -4.935  -8.065  1.00  0.00     0.000 A 
ATOM     30  C   UNL     1       6.487  -3.814  -8.575  1.00  0.00     0.000 A 
ENDBRANCH  24  25
ENDBRANCH  23  24
BRANCH  23  31
ATOM     31  C   UNL     1       6.124  -5.961  -3.417  1.00  0.00     0.243 C 
ATOM     32  O   UNL     1       6.748  -6.781  -2.749  1.00  0.00    -0.273 OA
ATOM     33  N   UNL     1       5.210  -6.347  -4.383  1.00  0.00    -0.341 N 
ATOM     34  H   UNL     1       4.726  -5.618  -4.913  1.00  0.00     0.164 HD
BRANCH  33  35
ATOM     35  C   UNL     1       4.870  -7.749  -4.645  1.00  0.00     0.194 C 
BRANCH  35  36
ATOM     36  C   UNL     1       4.692  -8.088  -6.152  1.00  0.00     0.017 C 
ATOM     37  C   UNL     1       6.034  -8.470  -6.801  1.00  0.00     0.010 C 
ATOM     38  C   UNL     1       4.102  -6.930  -6.967  1.00  0.00     0.010 C 
ENDBRANCH  35  36
BRANCH  35  39
ATOM     39  C   UNL     1       3.666  -8.241  -3.794  1.00  0.00     0.329 C 
ATOM     40  O   UNL     1       3.606  -8.151  -2.573  1.00  0.00    -0.250 OA
BRANCH  39  41
ATOM     41  O   UNL     1       2.639  -8.708  -4.567  1.00  0.00    -0.458 OA
BRANCH  41  42
ATOM     42  C   UNL     1       1.431  -9.088  -3.866  1.00  0.00     0.205 CG0
ATOM     43  C   UNL     1       1.354 -10.613  -3.887  1.00  0.00     0.056 C 
ATOM     44  G   UNL     1       0.227  -8.427  -4.568  1.00  0.00     0.000 G0
ENDBRANCH  41  42
ENDBRANCH  39  41
ENDBRANCH  35  39
ENDBRANCH  33  35
ENDBRANCH  23  31
ENDBRANCH  21  23
ENDBRANCH  19  21
ENDBRANCH  14  19
ENDBRANCH   7  14
ENDBRANCH   2   5
BRANCH   3  45
ATOM     45  C   UNL     1      -1.854  -6.240  -2.267  1.00  0.00     0.171 C 
BRANCH  45  46
ATOM     46  N   UNL     1      -1.233  -7.353  -2.973  1.00  0.00    -0.342 N 
ATOM     47  C   UNL     1      -0.208  -7.178  -3.868  1.00  0.00     0.247 C 
ATOM     48  O   UNL     1       0.309  -6.081  -4.084  1.00  0.00    -0.273 OA
ATOM     49  H   UNL     1      -1.594  -8.286  -2.780  1.00  0.00     0.164 HD
BRANCH  47  50
ATOM     50  C   UNL     1       0.235  -8.448  -4.607  1.00  0.00     0.212 CG0
ATOM     51  G   UNL     1       1.410  -9.061  -3.819  1.00  0.00     0.000 G0
BRANCH  50  52
ATOM     52  N   UNL     1      -0.945  -9.308  -4.644  1.00  0.00    -0.339 N 
ATOM     53  C   UNL     1      -1.584  -9.664  -5.807  1.00  0.00     0.243 C 
ATOM     54  O   UNL     1      -1.240  -9.241  -6.907  1.00  0.00    -0.273 OA
ATOM     55  H   UNL     1      -1.345  -9.602  -3.755  1.00  0.00     0.164 HD
BRANCH  53  56
ATOM     56  C   UNL     1      -2.857 -10.507  -5.591  1.00  0.00     0.182 C 
BRANCH  56  57
ATOM     57  N   UNL     1      -3.289 -11.138  -6.842  1.00  0.00    -0.344 N 
ATOM     58  C   UNL     1      -4.209 -12.157  -6.873  1.00  0.00     0.220 C 
ATOM     59  O   UNL     1      -4.677 -12.659  -5.857  1.00  0.00    -0.275 OA
ATOM     60  H   UNL     1      -3.005 -10.686  -7.708  1.00  0.00     0.164 HD
BRANCH  58  61
ATOM     61  C   UNL     1      -4.551 -12.617  -8.279  1.00  0.00     0.100 C 
BRANCH  61  62
ATOM     62  C   UNL     1      -4.314 -11.552  -9.350  1.00  0.00     0.010 C 
BRANCH  62  63
ATOM     63  C   UNL     1      -5.588 -10.838  -9.818  1.00  0.00     0.000 C 
BRANCH  63  64
ATOM     64  C   UNL     1      -6.146  -9.829  -8.815  1.00  0.00    -0.003 C 
ATOM     65  C   UNL     1      -7.529 -10.237  -8.329  1.00  0.00     0.004 C 
ENDBRANCH  63  64
ENDBRANCH  62  63
ENDBRANCH  61  62
ENDBRANCH  58  61
ENDBRANCH  56  57
BRANCH  56  66
ATOM     66  C   UNL     1      -3.970  -9.685  -4.945  1.00  0.00     0.157 C 
BRANCH  66  67
ATOM     67  C   UNL     1      -4.106 -10.005  -3.484  1.00  0.00     0.305 C 
ATOM     68  O   UNL     1      -3.391  -9.607  -2.577  1.00  0.00    -0.252 OA
BRANCH  67  69
ATOM     69  O   UNL     1      -5.177 -10.779  -3.228  1.00  0.00    -0.481 OA
ATOM     70  H   UNL     1      -5.012 -11.609  -3.724  1.00  0.00     0.296 HD
ENDBRANCH  67  69
ENDBRANCH  66  67
ENDBRANCH  56  66
ENDBRANCH  53  56
ENDBRANCH  50  52
ENDBRANCH  47  50
ENDBRANCH  45  46
BRANCH  45  71
ATOM     71  C   UNL     1      -2.237  -5.106  -3.224  1.00  0.00     0.037 C 
BRANCH  71  72
ATOM     72  C   UNL     1      -3.740  -5.077  -3.510  1.00  0.00     0.026 C 
BRANCH  72  73
ATOM     73  C   UNL     1      -4.125  -6.086  -4.589  1.00  0.00     0.146 C 
BRANCH  73  74
ATOM     74  N   UNL     1      -3.004  -6.199  -5.517  1.00  0.00    -0.254 NA
ATOM     75  C   UNL     1      -3.267  -6.440  -6.748  1.00  0.00     0.185 C 
ATOM     76  N   UNL     1      -2.256  -6.547  -7.626  1.00  0.00    -0.370 N 
ATOM     77  N   UNL     1      -4.462  -6.613  -7.339  1.00  0.00    -0.370 N 
ATOM     78  H   UNL     1      -1.321  -6.438  -7.262  1.00  0.00     0.159 HD
ATOM     79  H   UNL     1      -2.374  -6.875  -8.568  1.00  0.00     0.159 HD
ATOM     80  H   UNL     1      -5.314  -6.555  -6.801  1.00  0.00     0.159 HD
ATOM     81  H   UNL     1      -4.552  -6.683  -8.339  1.00  0.00     0.159 HD
ENDBRANCH  73  74
ENDBRANCH  72  73
ENDBRANCH  71  72
ENDBRANCH  45  71
ENDBRANCH   3  45
TORSDOF 20
ENDMDL
MODEL 3
REMARK VINA RESULT:    -6.028      1.989      3.225
REMARK INTER + INTRA:         -22.744
REMARK INTER:                 -18.240
REMARK INTRA:                  -4.503
REMARK UNBOUND:                -5.439
REMARK SMILES CCCCCC(=O)N[C@H](CC(=O)O)C(=O)N[C@H]1C(=O)N[C@H](CCCN=C(N)N)C(=O)N[C@@H]2CC[C@H](O)N(C2=O)[C@@H](CC(C)C)C(=O)N(C)[C@@H](Cc2ccccc2)C(=O)N[C@H](C(C)C)C(=O)O[C@@H]1C
REMARK SMILES IDX 30 1 31 2 29 3 32 5 35 6 37 7 34 8 38 9 33 10 39 11 36 12
REMARK SMILES IDX 40 14 41 15 42 16 43 17 44 18 45 19 46 20 47 21 48 22 49 23
REMARK SMILES IDX 50 24 51 25 52 26 56 27 53 28 55 29 54 30 57 31 58 32 59 33
REMARK SMILES IDX 60 35 61 36 62 37 63 38 64 39 65 40 66 41 67 42 68 43 21 45
REMARK SMILES IDX 20 46 18 47 19 48 17 50 16 52 14 53 15 54 9 56 8 57 6 58
REMARK SMILES IDX 7 59 5 61 4 62 3 63 2 64 1 65 10 66 11 67 12 68 13 69 22 71
REMARK SMILES IDX 23 72 24 73 25 74 26 75 27 76 28 77
REMARK H PARENT 31 4 36 13 59 34 20 49 16 55 8 60 13 70 27 78 27 79 28 80
REMARK H PARENT 28 81
REMARK Flexibility Score:  259.900
ROOT
ATOM      1  O   UNL     1       4.272  -3.644  -4.497  1.00  0.00    -0.273 OA
ATOM      2  N   UNL     1       6.370  -3.892  -3.622  1.00  0.00    -0.343 N 
ATOM      3  C   UNL     1       5.017  -3.652  -3.517  1.00  0.00     0.243 C 
ATOM      4  H   UNL     1       6.950  -3.905  -2.793  1.00  0.00     0.164 HD
ENDROOT
BRANCH   2   5
ATOM      5  C   UNL     1       7.000  -4.030  -4.931  1.00  0.00     0.171 C 
ATOM      6  C   UNL     1       5.928  -4.179  -7.621  1.00  0.00     0.214 C 
ATOM      7  N   UNL     1       6.141  -5.396  -6.872  1.00  0.00    -0.303 N 
ATOM      8  C   UNL     1       6.899  -3.069  -7.252  1.00  0.00     0.057 C 
ATOM      9  C   UNL     1       6.602  -5.394  -5.566  1.00  0.00     0.247 C 
ATOM     10  C   UNL     1       6.800  -2.771  -5.772  1.00  0.00     0.040 C 
ATOM     11  O   UNL     1       6.700  -6.435  -4.903  1.00  0.00    -0.272 OA
BRANCH   6  12
ATOM     12  O   UNL     1       4.600  -3.765  -7.400  1.00  0.00    -0.373 OA
ATOM     13  H   UNL     1       4.501  -3.619  -6.435  1.00  0.00     0.213 HD
ENDBRANCH   6  12
BRANCH   7  14
ATOM     14  C   UNL     1       5.706  -6.658  -7.507  1.00  0.00     0.177 C 
BRANCH  14  15
ATOM     15  C   UNL     1       6.838  -7.648  -7.844  1.00  0.00     0.038 C 
BRANCH  15  16
ATOM     16  C   UNL     1       7.370  -7.733  -9.292  1.00  0.00    -0.015 C 
ATOM     17  C   UNL     1       8.033  -6.430  -9.748  1.00  0.00     0.007 C 
ATOM     18  C   UNL     1       6.214  -8.045 -10.251  1.00  0.00     0.007 C 
ENDBRANCH  15  16
ENDBRANCH  14  15
BRANCH  14  19
ATOM     19  C   UNL     1       4.275  -7.054  -7.005  1.00  0.00     0.245 C 
ATOM     20  O   UNL     1       3.608  -6.162  -6.455  1.00  0.00    -0.272 OA
BRANCH  19  21
ATOM     21  N   UNL     1       3.774  -8.344  -7.041  1.00  0.00    -0.332 N 
ATOM     22  C   UNL     1       3.686  -9.181  -8.224  1.00  0.00     0.147 C 
BRANCH  21  23
ATOM     23  C   UNL     1       3.270  -8.930  -5.768  1.00  0.00     0.178 C 
BRANCH  23  24
ATOM     24  C   UNL     1       3.986  -8.428  -4.498  1.00  0.00     0.070 C 
BRANCH  24  25
ATOM     25  C   UNL     1       5.168  -9.233  -4.010  1.00  0.00    -0.045 A 
ATOM     26  C   UNL     1       5.375  -9.446  -2.641  1.00  0.00     0.004 A 
ATOM     27  C   UNL     1       6.080  -9.777  -4.927  1.00  0.00     0.004 A 
ATOM     28  C   UNL     1       6.479 -10.177  -2.198  1.00  0.00     0.000 A 
ATOM     29  C   UNL     1       7.182 -10.509  -4.482  1.00  0.00     0.000 A 
ATOM     30  C   UNL     1       7.382 -10.706  -3.117  1.00  0.00     0.000 A 
ENDBRANCH  24  25
ENDBRANCH  23  24
BRANCH  23  31
ATOM     31  C   UNL     1       1.725  -8.947  -5.682  1.00  0.00     0.243 C 
ATOM     32  O   UNL     1       1.037  -9.944  -5.884  1.00  0.00    -0.273 OA
ATOM     33  N   UNL     1       1.165  -7.689  -5.536  1.00  0.00    -0.341 N 
ATOM     34  H   UNL     1       1.791  -6.895  -5.377  1.00  0.00     0.164 HD
BRANCH  33  35
ATOM     35  C   UNL     1      -0.281  -7.451  -5.551  1.00  0.00     0.194 C 
BRANCH  35  36
ATOM     36  C   UNL     1      -0.728  -6.318  -6.516  1.00  0.00     0.017 C 
ATOM     37  C   UNL     1      -2.238  -6.392  -6.804  1.00  0.00     0.010 C 
ATOM     38  C   UNL     1      -0.002  -6.352  -7.866  1.00  0.00     0.010 C 
ENDBRANCH  35  36
BRANCH  35  39
ATOM     39  C   UNL     1      -0.870  -7.265  -4.125  1.00  0.00     0.329 C 
ATOM     40  O   UNL     1      -1.593  -8.084  -3.569  1.00  0.00    -0.250 OA
BRANCH  39  41
ATOM     41  O   UNL     1      -0.421  -6.123  -3.521  1.00  0.00    -0.458 OA
BRANCH  41  42
ATOM     42  C   UNL     1       0.702  -6.272  -2.620  1.00  0.00     0.205 CG0
ATOM     43  C   UNL     1       0.339  -7.368  -1.620  1.00  0.00     0.056 C 
ATOM     44  G   UNL     1       0.969  -4.916  -1.938  1.00  0.00     0.000 G0
ENDBRANCH  41  42
ENDBRANCH  39  41
ENDBRANCH  35  39
ENDBRANCH  33  35
ENDBRANCH  23  31
ENDBRANCH  21  23
ENDBRANCH  19  21
ENDBRANCH  14  19
ENDBRANCH   7  14
ENDBRANCH   2   5
BRANCH   3  45
ATOM     45  C   UNL     1       4.501  -3.417  -2.091  1.00  0.00     0.171 C 
BRANCH  45  46
ATOM     46  N   UNL     1       3.064  -3.653  -2.149  1.00  0.00    -0.342 N 
ATOM     47  C   UNL     1       2.485  -4.791  -1.647  1.00  0.00     0.247 C 
ATOM     48  O   UNL     1       3.123  -5.659  -1.049  1.00  0.00    -0.273 OA
ATOM     49  H   UNL     1       2.491  -2.934  -2.585  1.00  0.00     0.164 HD
BRANCH  47  50
ATOM     50  C   UNL     1       0.978  -4.923  -1.908  1.00  0.00     0.212 CG0
ATOM     51  G   UNL     1       0.747  -6.257  -2.646  1.00  0.00     0.000 G0
BRANCH  50  52
ATOM     52  N   UNL     1       0.348  -4.875  -0.592  1.00  0.00    -0.339 N 
ATOM     53  C   UNL     1       0.395  -3.774   0.229  1.00  0.00     0.243 C 
ATOM     54  O   UNL     1       1.020  -2.758  -0.062  1.00  0.00    -0.273 OA
ATOM     55  H   UNL     1      -0.091  -5.726  -0.246  1.00  0.00     0.164 HD
BRANCH  53  56
ATOM     56  C   UNL     1      -0.267  -3.989   1.605  1.00  0.00     0.182 C 
BRANCH  56  57
ATOM     57  N   UNL     1      -1.383  -4.935   1.511  1.00  0.00    -0.344 N 
ATOM     58  C   UNL     1      -1.292  -6.228   1.964  1.00  0.00     0.220 C 
ATOM     59  O   UNL     1      -0.253  -6.703   2.411  1.00  0.00    -0.275 OA
ATOM     60  H   UNL     1      -2.287  -4.555   1.243  1.00  0.00     0.164 HD
BRANCH  58  61
ATOM     61  C   UNL     1      -2.585  -7.009   1.819  1.00  0.00     0.100 C 
BRANCH  61  62
ATOM     62  C   UNL     1      -3.590  -6.751   2.942  1.00  0.00     0.010 C 
BRANCH  62  63
ATOM     63  C   UNL     1      -4.478  -7.955   3.278  1.00  0.00     0.000 C 
BRANCH  63  64
ATOM     64  C   UNL     1      -5.792  -7.592   3.967  1.00  0.00    -0.003 C 
ATOM     65  C   UNL     1      -5.550  -6.986   5.342  1.00  0.00     0.004 C 
ENDBRANCH  63  64
ENDBRANCH  62  63
ENDBRANCH  61  62
ENDBRANCH  58  61
ENDBRANCH  56  57
BRANCH  56  66
ATOM     66  C   UNL     1      -0.686  -2.663   2.237  1.00  0.00     0.157 C 
BRANCH  66  67
ATOM     67  C   UNL     1      -0.952  -2.821   3.707  1.00  0.00     0.305 C 
ATOM     68  O   UNL     1      -1.535  -3.746   4.250  1.00  0.00    -0.252 OA
BRANCH  67  69
ATOM     69  O   UNL     1      -0.420  -1.820   4.434  1.00  0.00    -0.481 OA
ATOM     70  H   UNL     1      -0.791  -1.001   4.042  1.00  0.00     0.296 HD
ENDBRANCH  67  69
ENDBRANCH  66  67
ENDBRANCH  56  66
ENDBRANCH  53  56
ENDBRANCH  50  52
ENDBRANCH  47  50
ENDBRANCH  45  46
BRANCH  45  71
ATOM     71  C   UNL     1       4.821  -1.988  -1.636  1.00  0.00     0.037 C 
BRANCH  71  72
ATOM     72  C   UNL     1       3.641  -1.037  -1.852  1.00  0.00     0.026 C 
BRANCH  72  73
ATOM     73  C   UNL     1       3.948   0.003  -2.927  1.00  0.00     0.146 C 
BRANCH  73  74
ATOM     74  N   UNL     1       5.361  -0.115  -3.272  1.00  0.00    -0.254 NA
ATOM     75  C   UNL     1       5.886   0.818  -3.977  1.00  0.00     0.185 C 
ATOM     76  N   UNL     1       7.184   0.739  -4.309  1.00  0.00    -0.370 N 
ATOM     77  N   UNL     1       5.312   1.931  -4.466  1.00  0.00    -0.370 N 
ATOM     78  H   UNL     1       7.690  -0.074  -3.986  1.00  0.00     0.159 HD
ATOM     79  H   UNL     1       7.624   1.351  -4.973  1.00  0.00     0.159 HD
ATOM     80  H   UNL     1       4.338   2.126  -4.292  1.00  0.00     0.159 HD
ATOM     81  H   UNL     1       5.854   2.653  -4.911  1.00  0.00     0.159 HD
ENDBRANCH  73  74
ENDBRANCH  72  73
ENDBRANCH  71  72
ENDBRANCH  45  71
ENDBRANCH   3  45
TORSDOF 20
ENDMDL
MODEL 4
REMARK VINA RESULT:    -5.867      3.037      7.387
REMARK INTER + INTRA:         -22.282
REMARK INTER:                 -17.034
REMARK INTRA:                  -5.248
REMARK UNBOUND:                -5.439
REMARK SMILES CCCCCC(=O)N[C@H](CC(=O)O)C(=O)N[C@H]1C(=O)N[C@H](CCCN=C(N)N)C(=O)N[C@@H]2CC[C@H](O)N(C2=O)[C@@H](CC(C)C)C(=O)N(C)[C@@H](Cc2ccccc2)C(=O)N[C@H](C(C)C)C(=O)O[C@@H]1C
REMARK SMILES IDX 30 1 31 2 29 3 32 5 35 6 37 7 34 8 38 9 33 10 39 11 36 12
REMARK SMILES IDX 40 14 41 15 42 16 43 17 44 18 45 19 46 20 47 21 48 22 49 23
REMARK SMILES IDX 50 24 51 25 52 26 56 27 53 28 55 29 54 30 57 31 58 32 59 33
REMARK SMILES IDX 60 35 61 36 62 37 63 38 64 39 65 40 66 41 67 42 68 43 21 45
REMARK SMILES IDX 20 46 18 47 19 48 17 50 16 52 14 53 15 54 9 56 8 57 6 58
REMARK SMILES IDX 7 59 5 61 4 62 3 63 2 64 1 65 10 66 11 67 12 68 13 69 22 71
REMARK SMILES IDX 23 72 24 73 25 74 26 75 27 76 28 77
REMARK H PARENT 31 4 36 13 59 34 20 49 16 55 8 60 13 70 27 78 27 79 28 80
REMARK H PARENT 28 81
REMARK Flexibility Score:  259.900
ROOT
ATOM      1  O   UNL     1      -0.652  -6.488  -0.294  1.00  0.00    -0.273 OA
ATOM      2  N   UNL     1      -0.191  -4.727  -1.678  1.00  0.00    -0.343 N 
ATOM      3  C   UNL     1      -0.861  -5.885  -1.347  1.00  0.00     0.243 C 
ATOM      4  H   UNL     1      -0.400  -4.249  -2.546  1.00  0.00     0.164 HD
ENDROOT
BRANCH   2   5
ATOM      5  C   UNL     1       0.892  -4.229  -0.836  1.00  0.00     0.171 C 
ATOM      6  C   UNL     1       2.567  -1.867  -0.984  1.00  0.00     0.214 C 
ATOM      7  N   UNL     1       3.001  -3.087  -1.624  1.00  0.00    -0.303 N 
ATOM      8  C   UNL     1       1.701  -2.107   0.243  1.00  0.00     0.057 C 
ATOM      9  C   UNL     1       2.226  -4.236  -1.636  1.00  0.00     0.247 C 
ATOM     10  C   UNL     1       0.490  -2.931  -0.137  1.00  0.00     0.040 C 
ATOM     11  O   UNL     1       2.566  -5.250  -2.260  1.00  0.00    -0.272 OA
BRANCH   6  12
ATOM     12  O   UNL     1       1.866  -1.105  -1.939  1.00  0.00    -0.373 OA
ATOM     13  H   UNL     1       2.514  -0.840  -2.627  1.00  0.00     0.213 HD
ENDBRANCH   6  12
BRANCH   7  14
ATOM     14  C   UNL     1       4.255  -3.025  -2.405  1.00  0.00     0.177 C 
BRANCH  14  15
ATOM     15  C   UNL     1       4.343  -1.862  -3.412  1.00  0.00     0.038 C 
BRANCH  15  16
ATOM     16  C   UNL     1       5.475  -0.820  -3.274  1.00  0.00    -0.015 C 
ATOM     17  C   UNL     1       5.319   0.050  -2.023  1.00  0.00     0.007 C 
ATOM     18  C   UNL     1       5.485   0.101  -4.501  1.00  0.00     0.007 C 
ENDBRANCH  15  16
ENDBRANCH  14  15
BRANCH  14  19
ATOM     19  C   UNL     1       5.450  -3.585  -1.559  1.00  0.00     0.245 C 
ATOM     20  O   UNL     1       5.561  -3.160  -0.397  1.00  0.00    -0.272 OA
BRANCH  19  21
ATOM     21  N   UNL     1       6.428  -4.422  -2.067  1.00  0.00    -0.332 N 
ATOM     22  C   UNL     1       7.538  -4.976  -1.312  1.00  0.00     0.147 C 
BRANCH  21  23
ATOM     23  C   UNL     1       6.355  -4.783  -3.509  1.00  0.00     0.178 C 
BRANCH  23  24
ATOM     24  C   UNL     1       7.443  -4.139  -4.392  1.00  0.00     0.070 C 
BRANCH  24  25
ATOM     25  C   UNL     1       7.077  -3.839  -5.827  1.00  0.00    -0.045 A 
ATOM     26  C   UNL     1       6.691  -4.866  -6.699  1.00  0.00     0.004 A 
ATOM     27  C   UNL     1       7.123  -2.522  -6.309  1.00  0.00     0.004 A 
ATOM     28  C   UNL     1       6.370  -4.582  -8.028  1.00  0.00     0.000 A 
ATOM     29  C   UNL     1       6.801  -2.241  -7.638  1.00  0.00     0.000 A 
ATOM     30  C   UNL     1       6.428  -3.272  -8.497  1.00  0.00     0.000 A 
ENDBRANCH  24  25
ENDBRANCH  23  24
BRANCH  23  31
ATOM     31  C   UNL     1       6.139  -6.298  -3.742  1.00  0.00     0.243 C 
ATOM     32  O   UNL     1       7.002  -7.151  -3.553  1.00  0.00    -0.273 OA
ATOM     33  N   UNL     1       4.938  -6.596  -4.364  1.00  0.00    -0.341 N 
ATOM     34  H   UNL     1       4.261  -5.842  -4.500  1.00  0.00     0.164 HD
BRANCH  33  35
ATOM     35  C   UNL     1       4.574  -7.951  -4.789  1.00  0.00     0.194 C 
BRANCH  35  36
ATOM     36  C   UNL     1       4.048  -8.038  -6.249  1.00  0.00     0.017 C 
ATOM     37  C   UNL     1       5.193  -8.300  -7.242  1.00  0.00     0.010 C 
ATOM     38  C   UNL     1       3.325  -6.766  -6.708  1.00  0.00     0.010 C 
ENDBRANCH  35  36
BRANCH  35  39
ATOM     39  C   UNL     1       3.620  -8.656  -3.785  1.00  0.00     0.329 C 
ATOM     40  O   UNL     1       3.987  -9.468  -2.944  1.00  0.00    -0.250 OA
BRANCH  39  41
ATOM     41  O   UNL     1       2.333  -8.203  -3.885  1.00  0.00    -0.458 OA
BRANCH  41  42
ATOM     42  C   UNL     1       1.303  -9.216  -3.981  1.00  0.00     0.205 CG0
ATOM     43  C   UNL     1       1.916 -10.422  -4.689  1.00  0.00     0.056 C 
ATOM     44  G   UNL     1       0.105  -8.626  -4.751  1.00  0.00     0.000 G0
ENDBRANCH  41  42
ENDBRANCH  39  41
ENDBRANCH  35  39
ENDBRANCH  33  35
ENDBRANCH  23  31
ENDBRANCH  21  23
ENDBRANCH  19  21
ENDBRANCH  14  19
ENDBRANCH   7  14
ENDBRANCH   2   5
BRANCH   3  45
ATOM     45  C   UNL     1      -1.901  -6.358  -2.371  1.00  0.00     0.171 C 
BRANCH  45  46
ATOM     46  N   UNL     1      -1.287  -7.482  -3.065  1.00  0.00    -0.342 N 
ATOM     47  C   UNL     1      -0.344  -7.315  -4.047  1.00  0.00     0.247 C 
ATOM     48  O   UNL     1       0.106  -6.213  -4.361  1.00  0.00    -0.273 OA
ATOM     49  H   UNL     1      -1.590  -8.417  -2.795  1.00  0.00     0.164 HD
BRANCH  47  50
ATOM     50  C   UNL     1       0.098  -8.606  -4.751  1.00  0.00     0.212 CG0
ATOM     51  G   UNL     1       1.284  -9.189  -3.958  1.00  0.00     0.000 G0
BRANCH  50  52
ATOM     52  N   UNL     1      -1.078  -9.472  -4.749  1.00  0.00    -0.339 N 
ATOM     53  C   UNL     1      -1.799  -9.770  -5.880  1.00  0.00     0.243 C 
ATOM     54  O   UNL     1      -1.539  -9.285  -6.978  1.00  0.00    -0.273 OA
ATOM     55  H   UNL     1      -1.411  -9.816  -3.851  1.00  0.00     0.164 HD
BRANCH  53  56
ATOM     56  C   UNL     1      -3.050 -10.634  -5.618  1.00  0.00     0.182 C 
BRANCH  56  57
ATOM     57  N   UNL     1      -2.839 -11.534  -4.480  1.00  0.00    -0.344 N 
ATOM     58  C   UNL     1      -3.778 -11.704  -3.492  1.00  0.00     0.220 C 
ATOM     59  O   UNL     1      -4.822 -11.063  -3.453  1.00  0.00    -0.275 OA
ATOM     60  H   UNL     1      -2.036 -12.156  -4.528  1.00  0.00     0.164 HD
BRANCH  58  61
ATOM     61  C   UNL     1      -3.372 -12.726  -2.446  1.00  0.00     0.100 C 
BRANCH  61  62
ATOM     62  C   UNL     1      -1.893 -12.666  -2.067  1.00  0.00     0.010 C 
BRANCH  62  63
ATOM     63  C   UNL     1      -1.637 -12.423  -0.573  1.00  0.00     0.000 C 
BRANCH  63  64
ATOM     64  C   UNL     1      -2.553 -11.376   0.057  1.00  0.00    -0.003 C 
ATOM     65  C   UNL     1      -2.151  -9.967  -0.355  1.00  0.00     0.004 C 
ENDBRANCH  63  64
ENDBRANCH  62  63
ENDBRANCH  61  62
ENDBRANCH  58  61
ENDBRANCH  56  57
BRANCH  56  66
ATOM     66  C   UNL     1      -3.485 -11.385  -6.875  1.00  0.00     0.157 C 
BRANCH  66  67
ATOM     67  C   UNL     1      -4.778 -10.843  -7.413  1.00  0.00     0.305 C 
ATOM     68  O   UNL     1      -5.427 -11.289  -8.346  1.00  0.00    -0.252 OA
BRANCH  67  69
ATOM     69  O   UNL     1      -5.221  -9.785  -6.708  1.00  0.00    -0.481 OA
ATOM     70  H   UNL     1      -4.961  -9.974  -5.782  1.00  0.00     0.296 HD
ENDBRANCH  67  69
ENDBRANCH  66  67
ENDBRANCH  56  66
ENDBRANCH  53  56
ENDBRANCH  50  52
ENDBRANCH  47  50
ENDBRANCH  45  46
BRANCH  45  71
ATOM     71  C   UNL     1      -2.254  -5.222  -3.337  1.00  0.00     0.037 C 
BRANCH  71  72
ATOM     72  C   UNL     1      -3.753  -5.170  -3.642  1.00  0.00     0.026 C 
BRANCH  72  73
ATOM     73  C   UNL     1      -4.292  -6.542  -4.041  1.00  0.00     0.146 C 
BRANCH  73  74
ATOM     74  N   UNL     1      -3.515  -7.013  -5.183  1.00  0.00    -0.254 NA
ATOM     75  C   UNL     1      -3.658  -6.398  -6.299  1.00  0.00     0.185 C 
ATOM     76  N   UNL     1      -2.956  -6.807  -7.368  1.00  0.00    -0.370 N 
ATOM     77  N   UNL     1      -4.444  -5.347  -6.590  1.00  0.00    -0.370 N 
ATOM     78  H   UNL     1      -2.343  -7.599  -7.238  1.00  0.00     0.159 HD
ATOM     79  H   UNL     1      -3.122  -6.472  -8.301  1.00  0.00     0.159 HD
ATOM     80  H   UNL     1      -5.028  -4.930  -5.880  1.00  0.00     0.159 HD
ATOM     81  H   UNL     1      -4.387  -4.874  -7.476  1.00  0.00     0.159 HD
ENDBRANCH  73  74
ENDBRANCH  72  73
ENDBRANCH  71  72
ENDBRANCH  45  71
ENDBRANCH   3  45
TORSDOF 20
ENDMDL
MODEL 5
REMARK VINA RESULT:    -4.942      2.905      7.290
REMARK INTER + INTRA:         -19.627
REMARK INTER:                 -17.461
REMARK INTRA:                  -2.166
REMARK UNBOUND:                -5.439
REMARK SMILES CCCCCC(=O)N[C@H](CC(=O)O)C(=O)N[C@H]1C(=O)N[C@H](CCCN=C(N)N)C(=O)N[C@@H]2CC[C@H](O)N(C2=O)[C@@H](CC(C)C)C(=O)N(C)[C@@H](Cc2ccccc2)C(=O)N[C@H](C(C)C)C(=O)O[C@@H]1C
REMARK SMILES IDX 30 1 31 2 29 3 32 5 35 6 37 7 34 8 38 9 33 10 39 11 36 12
REMARK SMILES IDX 40 14 41 15 42 16 43 17 44 18 45 19 46 20 47 21 48 22 49 23
REMARK SMILES IDX 50 24 51 25 52 26 56 27 53 28 55 29 54 30 57 31 58 32 59 33
REMARK SMILES IDX 60 35 61 36 62 37 63 38 64 39 65 40 66 41 67 42 68 43 21 45
REMARK SMILES IDX 20 46 18 47 19 48 17 50 16 52 14 53 15 54 9 56 8 57 6 58
REMARK SMILES IDX 7 59 5 61 4 62 3 63 2 64 1 65 10 66 11 67 12 68 13 69 22 71
REMARK SMILES IDX 23 72 24 73 25 74 26 75 27 76 28 77
REMARK H PARENT 31 4 36 13 59 34 20 49 16 55 8 60 13 70 27 78 27 79 28 80
REMARK H PARENT 28 81
REMARK Flexibility Score:  259.900
ROOT
ATOM      1  O   UNL     1      -1.585  -4.136  -1.128  1.00  0.00    -0.273 OA
ATOM      2  N   UNL     1       0.214  -5.439  -1.671  1.00  0.00    -0.343 N 
ATOM      3  C   UNL     1      -1.125  -5.115  -1.716  1.00  0.00     0.243 C 
ATOM      4  H   UNL     1       0.560  -6.244  -2.179  1.00  0.00     0.164 HD
ENDROOT
BRANCH   2   5
ATOM      5  C   UNL     1       1.130  -4.693  -0.815  1.00  0.00     0.171 C 
ATOM      6  C   UNL     1       2.303  -2.050  -1.028  1.00  0.00     0.214 C 
ATOM      7  N   UNL     1       3.005  -3.185  -1.579  1.00  0.00    -0.303 N 
ATOM      8  C   UNL     1       1.441  -2.402   0.174  1.00  0.00     0.057 C 
ATOM      9  C   UNL     1       2.479  -4.467  -1.557  1.00  0.00     0.247 C 
ATOM     10  C   UNL     1       0.441  -3.472  -0.208  1.00  0.00     0.040 C 
ATOM     11  O   UNL     1       3.046  -5.419  -2.108  1.00  0.00    -0.272 OA
BRANCH   6  12
ATOM     12  O   UNL     1       1.515  -1.492  -2.053  1.00  0.00    -0.373 OA
ATOM     13  H   UNL     1       2.061  -1.493  -2.868  1.00  0.00     0.213 HD
ENDBRANCH   6  12
BRANCH   7  14
ATOM     14  C   UNL     1       4.260  -2.907  -2.310  1.00  0.00     0.177 C 
BRANCH  14  15
ATOM     15  C   UNL     1       4.305  -1.554  -3.046  1.00  0.00     0.038 C 
BRANCH  15  16
ATOM     16  C   UNL     1       4.820  -0.301  -2.304  1.00  0.00    -0.015 C 
ATOM     17  C   UNL     1       3.895   0.907  -2.485  1.00  0.00     0.007 C 
ATOM     18  C   UNL     1       6.211   0.077  -2.830  1.00  0.00     0.007 C 
ENDBRANCH  15  16
ENDBRANCH  14  15
BRANCH  14  19
ATOM     19  C   UNL     1       5.473  -3.586  -1.585  1.00  0.00     0.245 C 
ATOM     20  O   UNL     1       6.014  -2.937  -0.674  1.00  0.00    -0.272 OA
BRANCH  19  21
ATOM     21  N   UNL     1       6.028  -4.792  -1.975  1.00  0.00    -0.332 N 
ATOM     22  C   UNL     1       6.412  -5.871  -1.083  1.00  0.00     0.147 C 
BRANCH  21  23
ATOM     23  C   UNL     1       6.268  -5.010  -3.429  1.00  0.00     0.178 C 
BRANCH  23  24
ATOM     24  C   UNL     1       7.528  -4.318  -3.986  1.00  0.00     0.070 C 
BRANCH  24  25
ATOM     25  C   UNL     1       7.386  -3.582  -5.298  1.00  0.00    -0.045 A 
ATOM     26  C   UNL     1       7.094  -2.212  -5.324  1.00  0.00     0.004 A 
ATOM     27  C   UNL     1       7.541  -4.265  -6.514  1.00  0.00     0.004 A 
ATOM     28  C   UNL     1       6.947  -1.542  -6.540  1.00  0.00     0.000 A 
ATOM     29  C   UNL     1       7.395  -3.594  -7.729  1.00  0.00     0.000 A 
ATOM     30  C   UNL     1       7.096  -2.233  -7.741  1.00  0.00     0.000 A 
ENDBRANCH  24  25
ENDBRANCH  23  24
BRANCH  23  31
ATOM     31  C   UNL     1       6.093  -6.487  -3.854  1.00  0.00     0.243 C 
ATOM     32  O   UNL     1       6.823  -7.401  -3.479  1.00  0.00    -0.273 OA
ATOM     33  N   UNL     1       5.147  -6.668  -4.849  1.00  0.00    -0.341 N 
ATOM     34  H   UNL     1       4.573  -5.868  -5.124  1.00  0.00     0.164 HD
BRANCH  33  35
ATOM     35  C   UNL     1       4.898  -7.963  -5.489  1.00  0.00     0.194 C 
BRANCH  35  36
ATOM     36  C   UNL     1       5.894  -8.308  -6.632  1.00  0.00     0.017 C 
ATOM     37  C   UNL     1       7.287  -8.653  -6.076  1.00  0.00     0.010 C 
ATOM     38  C   UNL     1       6.072  -7.169  -7.643  1.00  0.00     0.010 C 
ENDBRANCH  35  36
BRANCH  35  39
ATOM     39  C   UNL     1       3.420  -8.135  -5.936  1.00  0.00     0.329 C 
ATOM     40  O   UNL     1       3.046  -8.948  -6.773  1.00  0.00    -0.250 OA
BRANCH  39  41
ATOM     41  O   UNL     1       2.566  -7.336  -5.226  1.00  0.00    -0.458 OA
BRANCH  41  42
ATOM     42  C   UNL     1       1.720  -8.002  -4.258  1.00  0.00     0.205 CG0
ATOM     43  C   UNL     1       2.343  -9.368  -3.975  1.00  0.00     0.056 C 
ATOM     44  G   UNL     1       0.298  -8.113  -4.841  1.00  0.00     0.000 G0
ENDBRANCH  41  42
ENDBRANCH  39  41
ENDBRANCH  35  39
ENDBRANCH  33  35
ENDBRANCH  23  31
ENDBRANCH  21  23
ENDBRANCH  19  21
ENDBRANCH  14  19
ENDBRANCH   7  14
ENDBRANCH   2   5
BRANCH   3  45
ATOM     45  C   UNL     1      -1.997  -6.046  -2.568  1.00  0.00     0.171 C 
BRANCH  45  46
ATOM     46  N   UNL     1      -1.088  -7.039  -3.124  1.00  0.00    -0.342 N 
ATOM     47  C   UNL     1      -0.567  -6.935  -4.389  1.00  0.00     0.247 C 
ATOM     48  O   UNL     1      -0.770  -5.963  -5.117  1.00  0.00    -0.273 OA
ATOM     49  H   UNL     1      -0.848  -7.833  -2.533  1.00  0.00     0.164 HD
BRANCH  47  50
ATOM     50  C   UNL     1       0.271  -8.136  -4.848  1.00  0.00     0.212 CG0
ATOM     51  G   UNL     1       1.679  -7.984  -4.239  1.00  0.00     0.000 G0
BRANCH  50  52
ATOM     52  N   UNL     1      -0.442  -9.316  -4.365  1.00  0.00    -0.339 N 
ATOM     53  C   UNL     1      -1.344 -10.019  -5.127  1.00  0.00     0.243 C 
ATOM     54  O   UNL     1      -1.661  -9.675  -6.263  1.00  0.00    -0.273 OA
ATOM     55  H   UNL     1      -0.305  -9.586  -3.393  1.00  0.00     0.164 HD
BRANCH  53  56
ATOM     56  C   UNL     1      -2.035 -11.174  -4.375  1.00  0.00     0.182 C 
BRANCH  56  57
ATOM     57  N   UNL     1      -2.105 -10.898  -2.937  1.00  0.00    -0.344 N 
ATOM     58  C   UNL     1      -3.239 -10.409  -2.336  1.00  0.00     0.220 C 
ATOM     59  O   UNL     1      -4.244 -10.100  -2.967  1.00  0.00    -0.275 OA
ATOM     60  H   UNL     1      -1.334 -11.234  -2.365  1.00  0.00     0.164 HD
BRANCH  58  61
ATOM     61  C   UNL     1      -3.105 -10.256  -0.832  1.00  0.00     0.100 C 
BRANCH  61  62
ATOM     62  C   UNL     1      -3.739  -8.977  -0.284  1.00  0.00     0.010 C 
BRANCH  62  63
ATOM     63  C   UNL     1      -3.164  -8.520   1.063  1.00  0.00     0.000 C 
BRANCH  63  64
ATOM     64  C   UNL     1      -2.200  -7.339   0.965  1.00  0.00    -0.003 C 
ATOM     65  C   UNL     1      -0.753  -7.806   0.920  1.00  0.00     0.004 C 
ENDBRANCH  63  64
ENDBRANCH  62  63
ENDBRANCH  61  62
ENDBRANCH  58  61
ENDBRANCH  56  57
BRANCH  56  66
ATOM     66  C   UNL     1      -1.366 -12.515  -4.674  1.00  0.00     0.157 C 
BRANCH  66  67
ATOM     67  C   UNL     1       0.040 -12.550  -4.149  1.00  0.00     0.305 C 
ATOM     68  O   UNL     1       0.385 -12.594  -2.978  1.00  0.00    -0.252 OA
BRANCH  67  69
ATOM     69  O   UNL     1       0.954 -12.581  -5.138  1.00  0.00    -0.481 OA
ATOM     70  H   UNL     1       1.394 -13.452  -5.046  1.00  0.00     0.296 HD
ENDBRANCH  67  69
ENDBRANCH  66  67
ENDBRANCH  56  66
ENDBRANCH  53  56
ENDBRANCH  50  52
ENDBRANCH  47  50
ENDBRANCH  45  46
BRANCH  45  71
ATOM     71  C   UNL     1      -2.708  -5.251  -3.670  1.00  0.00     0.037 C 
BRANCH  71  72
ATOM     72  C   UNL     1      -4.105  -5.801  -3.966  1.00  0.00     0.026 C 
BRANCH  72  73
ATOM     73  C   UNL     1      -4.040  -7.203  -4.568  1.00  0.00     0.146 C 
BRANCH  73  74
ATOM     74  N   UNL     1      -4.446  -7.109  -5.967  1.00  0.00    -0.254 NA
ATOM     75  C   UNL     1      -4.785  -8.190  -6.567  1.00  0.00     0.185 C 
ATOM     76  N   UNL     1      -5.165  -8.135  -7.853  1.00  0.00    -0.370 N 
ATOM     77  N   UNL     1      -4.826  -9.445  -6.087  1.00  0.00    -0.370 N 
ATOM     78  H   UNL     1      -5.156  -7.226  -8.295  1.00  0.00     0.159 HD
ATOM     79  H   UNL     1      -5.304  -8.949  -8.425  1.00  0.00     0.159 HD
ATOM     80  H   UNL     1      -4.570  -9.638  -5.130  1.00  0.00     0.159 HD
ATOM     81  H   UNL     1      -5.221 -10.202  -6.620  1.00  0.00     0.159 HD
ENDBRANCH  73  74
ENDBRANCH  72  73
ENDBRANCH  71  72
ENDBRANCH  45  71
ENDBRANCH   3  45
TORSDOF 20
ENDMDL
MODEL 6
REMARK VINA RESULT:    -4.864      2.168      3.154
REMARK INTER + INTRA:         -19.403
REMARK INTER:                 -15.891
REMARK INTRA:                  -3.512
REMARK UNBOUND:                -5.439
REMARK SMILES CCCCCC(=O)N[C@H](CC(=O)O)C(=O)N[C@H]1C(=O)N[C@H](CCCN=C(N)N)C(=O)N[C@@H]2CC[C@H](O)N(C2=O)[C@@H](CC(C)C)C(=O)N(C)[C@@H](Cc2ccccc2)C(=O)N[C@H](C(C)C)C(=O)O[C@@H]1C
REMARK SMILES IDX 30 1 31 2 29 3 32 5 35 6 37 7 34 8 38 9 33 10 39 11 36 12
REMARK SMILES IDX 40 14 41 15 42 16 43 17 44 18 45 19 46 20 47 21 48 22 49 23
REMARK SMILES IDX 50 24 51 25 52 26 56 27 53 28 55 29 54 30 57 31 58 32 59 33
REMARK SMILES IDX 60 35 61 36 62 37 63 38 64 39 65 40 66 41 67 42 68 43 21 45
REMARK SMILES IDX 20 46 18 47 19 48 17 50 16 52 14 53 15 54 9 56 8 57 6 58
REMARK SMILES IDX 7 59 5 61 4 62 3 63 2 64 1 65 10 66 11 67 12 68 13 69 22 71
REMARK SMILES IDX 23 72 24 73 25 74 26 75 27 76 28 77
REMARK H PARENT 31 4 36 13 59 34 20 49 16 55 8 60 13 70 27 78 27 79 28 80
REMARK H PARENT 28 81
REMARK Flexibility Score:  259.900
ROOT
ATOM      1  O   UNL     1       4.288  -4.301  -4.733  1.00  0.00    -0.273 OA
ATOM      2  N   UNL     1       6.283  -4.817  -3.740  1.00  0.00    -0.343 N 
ATOM      3  C   UNL     1       4.952  -4.460  -3.708  1.00  0.00     0.243 C 
ATOM      4  H   UNL     1       6.793  -4.953  -2.876  1.00  0.00     0.164 HD
ENDROOT
BRANCH   2   5
ATOM      5  C   UNL     1       6.997  -4.906  -5.009  1.00  0.00     0.171 C 
ATOM      6  C   UNL     1       6.150  -4.605  -7.765  1.00  0.00     0.214 C 
ATOM      7  N   UNL     1       6.126  -5.913  -7.154  1.00  0.00    -0.303 N 
ATOM      8  C   UNL     1       7.231  -3.697  -7.201  1.00  0.00     0.057 C 
ATOM      9  C   UNL     1       6.469  -6.119  -5.827  1.00  0.00     0.247 C 
ATOM     10  C   UNL     1       7.047  -3.548  -5.706  1.00  0.00     0.040 C 
ATOM     11  O   UNL     1       6.363  -7.228  -5.287  1.00  0.00    -0.272 OA
BRANCH   6  12
ATOM     12  O   UNL     1       4.878  -4.024  -7.589  1.00  0.00    -0.373 OA
ATOM     13  H   UNL     1       4.999  -3.051  -7.624  1.00  0.00     0.213 HD
ENDBRANCH   6  12
BRANCH   7  14
ATOM     14  C   UNL     1       5.575  -7.021  -7.962  1.00  0.00     0.177 C 
BRANCH  14  15
ATOM     15  C   UNL     1       6.600  -8.085  -8.402  1.00  0.00     0.038 C 
BRANCH  15  16
ATOM     16  C   UNL     1       7.280  -7.962  -9.783  1.00  0.00    -0.015 C 
ATOM     17  C   UNL     1       8.233  -6.766  -9.861  1.00  0.00     0.007 C 
ATOM     18  C   UNL     1       6.213  -7.797 -10.874  1.00  0.00     0.007 C 
ENDBRANCH  15  16
ENDBRANCH  14  15
BRANCH  14  19
ATOM     19  C   UNL     1       4.090  -7.308  -7.552  1.00  0.00     0.245 C 
ATOM     20  O   UNL     1       3.493  -6.403  -6.944  1.00  0.00    -0.272 OA
BRANCH  19  21
ATOM     21  N   UNL     1       3.463  -8.528  -7.728  1.00  0.00    -0.332 N 
ATOM     22  C   UNL     1       3.177  -9.152  -9.008  1.00  0.00     0.147 C 
BRANCH  21  23
ATOM     23  C   UNL     1       3.029  -9.270  -6.512  1.00  0.00     0.178 C 
BRANCH  23  24
ATOM     24  C   UNL     1       3.791  -8.898  -5.223  1.00  0.00     0.070 C 
BRANCH  24  25
ATOM     25  C   UNL     1       4.519 -10.012  -4.507  1.00  0.00    -0.045 A 
ATOM     26  C   UNL     1       4.950  -9.854  -3.184  1.00  0.00     0.004 A 
ATOM     27  C   UNL     1       4.777 -11.224  -5.164  1.00  0.00     0.004 A 
ATOM     28  C   UNL     1       5.637 -10.882  -2.535  1.00  0.00     0.000 A 
ATOM     29  C   UNL     1       5.463 -12.252  -4.514  1.00  0.00     0.000 A 
ATOM     30  C   UNL     1       5.895 -12.078  -3.201  1.00  0.00     0.000 A 
ENDBRANCH  24  25
ENDBRANCH  23  24
BRANCH  23  31
ATOM     31  C   UNL     1       1.491  -9.338  -6.362  1.00  0.00     0.243 C 
ATOM     32  O   UNL     1       0.805 -10.281  -6.747  1.00  0.00    -0.273 OA
ATOM     33  N   UNL     1       0.925  -8.154  -5.920  1.00  0.00    -0.341 N 
ATOM     34  H   UNL     1       1.549  -7.402  -5.618  1.00  0.00     0.164 HD
BRANCH  33  35
ATOM     35  C   UNL     1      -0.523  -7.950  -5.817  1.00  0.00     0.194 C 
BRANCH  35  36
ATOM     36  C   UNL     1      -1.120  -7.060  -6.944  1.00  0.00     0.017 C 
ATOM     37  C   UNL     1      -0.052  -6.133  -7.549  1.00  0.00     0.010 C 
ATOM     38  C   UNL     1      -2.278  -6.176  -6.465  1.00  0.00     0.010 C 
ENDBRANCH  35  36
BRANCH  35  39
ATOM     39  C   UNL     1      -0.960  -7.470  -4.405  1.00  0.00     0.329 C 
ATOM     40  O   UNL     1      -1.810  -8.030  -3.723  1.00  0.00    -0.250 OA
BRANCH  39  41
ATOM     41  O   UNL     1      -0.228  -6.401  -3.970  1.00  0.00    -0.458 OA
BRANCH  41  42
ATOM     42  C   UNL     1       0.758  -6.673  -2.945  1.00  0.00     0.205 CG0
ATOM     43  C   UNL     1       0.404  -8.022  -2.322  1.00  0.00     0.056 C 
ATOM     44  G   UNL     1       0.732  -5.524  -1.919  1.00  0.00     0.000 G0
ENDBRANCH  41  42
ENDBRANCH  39  41
ENDBRANCH  35  39
ENDBRANCH  33  35
ENDBRANCH  23  31
ENDBRANCH  21  23
ENDBRANCH  19  21
ENDBRANCH  14  19
ENDBRANCH   7  14
ENDBRANCH   2   5
BRANCH   3  45
ATOM     45  C   UNL     1       4.349  -4.295  -2.306  1.00  0.00     0.171 C 
BRANCH  45  46
ATOM     46  N   UNL     1       2.925  -4.565  -2.455  1.00  0.00    -0.342 N 
ATOM     47  C   UNL     1       2.202  -5.244  -1.507  1.00  0.00     0.247 C 
ATOM     48  O   UNL     1       2.682  -5.608  -0.434  1.00  0.00    -0.273 OA
ATOM     49  H   UNL     1       2.475  -4.230  -3.305  1.00  0.00     0.164 HD
BRANCH  47  50
ATOM     50  C   UNL     1       0.746  -5.543  -1.892  1.00  0.00     0.212 CG0
ATOM     51  G   UNL     1       0.765  -6.646  -2.969  1.00  0.00     0.000 G0
BRANCH  50  52
ATOM     52  N   UNL     1       0.092  -5.957  -0.653  1.00  0.00    -0.339 N 
ATOM     53  C   UNL     1      -0.931  -5.252  -0.067  1.00  0.00     0.243 C 
ATOM     54  O   UNL     1      -1.341  -4.184  -0.515  1.00  0.00    -0.273 OA
ATOM     55  H   UNL     1       0.462  -6.775  -0.174  1.00  0.00     0.164 HD
BRANCH  53  56
ATOM     56  C   UNL     1      -1.403  -5.835   1.280  1.00  0.00     0.182 C 
BRANCH  56  57
ATOM     57  N   UNL     1      -2.459  -6.833   1.080  1.00  0.00    -0.344 N 
ATOM     58  C   UNL     1      -2.185  -8.150   0.804  1.00  0.00     0.220 C 
ATOM     59  O   UNL     1      -1.045  -8.568   0.632  1.00  0.00    -0.275 OA
ATOM     60  H   UNL     1      -3.408  -6.551   1.313  1.00  0.00     0.164 HD
BRANCH  58  61
ATOM     61  C   UNL     1      -3.428  -9.013   0.695  1.00  0.00     0.100 C 
BRANCH  61  62
ATOM     62  C   UNL     1      -3.335 -10.095  -0.381  1.00  0.00     0.010 C 
BRANCH  62  63
ATOM     63  C   UNL     1      -2.150 -11.054  -0.206  1.00  0.00     0.000 C 
BRANCH  63  64
ATOM     64  C   UNL     1      -2.537 -12.532  -0.188  1.00  0.00    -0.003 C 
ATOM     65  C   UNL     1      -2.968 -12.976   1.203  1.00  0.00     0.004 C 
ENDBRANCH  63  64
ENDBRANCH  62  63
ENDBRANCH  61  62
ENDBRANCH  58  61
ENDBRANCH  56  57
BRANCH  56  66
ATOM     66  C   UNL     1      -1.826  -4.734   2.250  1.00  0.00     0.157 C 
BRANCH  66  67
ATOM     67  C   UNL     1      -1.437  -5.072   3.660  1.00  0.00     0.305 C 
ATOM     68  O   UNL     1      -0.631  -5.919   4.015  1.00  0.00    -0.252 OA
BRANCH  67  69
ATOM     69  O   UNL     1      -2.048  -4.282   4.563  1.00  0.00    -0.481 OA
ATOM     70  H   UNL     1      -1.442  -4.266   5.334  1.00  0.00     0.296 HD
ENDBRANCH  67  69
ENDBRANCH  66  67
ENDBRANCH  56  66
ENDBRANCH  53  56
ENDBRANCH  50  52
ENDBRANCH  47  50
ENDBRANCH  45  46
BRANCH  45  71
ATOM     71  C   UNL     1       4.604  -2.879  -1.778  1.00  0.00     0.037 C 
BRANCH  71  72
ATOM     72  C   UNL     1       3.374  -1.980  -1.924  1.00  0.00     0.026 C 
BRANCH  72  73
ATOM     73  C   UNL     1       3.725  -0.654  -2.596  1.00  0.00     0.146 C 
BRANCH  73  74
ATOM     74  N   UNL     1       5.113  -0.732  -3.041  1.00  0.00    -0.254 NA
ATOM     75  C   UNL     1       5.438  -0.094  -4.104  1.00  0.00     0.185 C 
ATOM     76  N   UNL     1       6.708  -0.145  -4.538  1.00  0.00    -0.370 N 
ATOM     77  N   UNL     1       4.667   0.665  -4.903  1.00  0.00    -0.370 N 
ATOM     78  H   UNL     1       7.354  -0.702  -3.997  1.00  0.00     0.159 HD
ATOM     79  H   UNL     1       7.002   0.205  -5.432  1.00  0.00     0.159 HD
ATOM     80  H   UNL     1       3.688   0.797  -4.697  1.00  0.00     0.159 HD
ATOM     81  H   UNL     1       5.060   1.213  -5.650  1.00  0.00     0.159 HD
ENDBRANCH  73  74
ENDBRANCH  72  73
ENDBRANCH  71  72
ENDBRANCH  45  71
ENDBRANCH   3  45
TORSDOF 20
ENDMDL
MODEL 7
REMARK VINA RESULT:    -4.648      2.868      8.164
REMARK INTER + INTRA:         -18.781
REMARK INTER:                 -16.504
REMARK INTRA:                  -2.277
REMARK UNBOUND:                -5.439
REMARK SMILES CCCCCC(=O)N[C@H](CC(=O)O)C(=O)N[C@H]1C(=O)N[C@H](CCCN=C(N)N)C(=O)N[C@@H]2CC[C@H](O)N(C2=O)[C@@H](CC(C)C)C(=O)N(C)[C@@H](Cc2ccccc2)C(=O)N[C@H](C(C)C)C(=O)O[C@@H]1C
REMARK SMILES IDX 30 1 31 2 29 3 32 5 35 6 37 7 34 8 38 9 33 10 39 11 36 12
REMARK SMILES IDX 40 14 41 15 42 16 43 17 44 18 45 19 46 20 47 21 48 22 49 23
REMARK SMILES IDX 50 24 51 25 52 26 56 27 53 28 55 29 54 30 57 31 58 32 59 33
REMARK SMILES IDX 60 35 61 36 62 37 63 38 64 39 65 40 66 41 67 42 68 43 21 45
REMARK SMILES IDX 20 46 18 47 19 48 17 50 16 52 14 53 15 54 9 56 8 57 6 58
REMARK SMILES IDX 7 59 5 61 4 62 3 63 2 64 1 65 10 66 11 67 12 68 13 69 22 71
REMARK SMILES IDX 23 72 24 73 25 74 26 75 27 76 28 77
REMARK H PARENT 31 4 36 13 59 34 20 49 16 55 8 60 13 70 27 78 27 79 28 80
REMARK H PARENT 28 81
REMARK Flexibility Score:  259.900
ROOT
ATOM      1  O   UNL     1      -1.466  -5.225  -1.665  1.00  0.00    -0.273 OA
ATOM      2  N   UNL     1       0.213  -6.646  -1.039  1.00  0.00    -0.343 N 
ATOM      3  C   UNL     1      -0.977  -6.355  -1.670  1.00  0.00     0.243 C 
ATOM      4  H   UNL     1       0.593  -7.584  -1.076  1.00  0.00     0.164 HD
ENDROOT
BRANCH   2   5
ATOM      5  C   UNL     1       0.889  -5.638  -0.229  1.00  0.00     0.171 C 
ATOM      6  C   UNL     1       0.803  -2.741  -0.224  1.00  0.00     0.214 C 
ATOM      7  N   UNL     1       1.787  -3.421  -1.034  1.00  0.00    -0.303 N 
ATOM      8  C   UNL     1       0.417  -3.512   1.028  1.00  0.00     0.057 C 
ATOM      9  C   UNL     1       1.850  -4.802  -1.122  1.00  0.00     0.247 C 
ATOM     10  C   UNL     1      -0.107  -4.879   0.646  1.00  0.00     0.040 C 
ATOM     11  O   UNL     1       2.639  -5.375  -1.885  1.00  0.00    -0.272 OA
BRANCH   6  12
ATOM     12  O   UNL     1      -0.330  -2.508  -1.028  1.00  0.00    -0.373 OA
ATOM     13  H   UNL     1      -0.016  -2.445  -1.956  1.00  0.00     0.213 HD
ENDBRANCH   6  12
BRANCH   7  14
ATOM     14  C   UNL     1       2.645  -2.579  -1.895  1.00  0.00     0.177 C 
BRANCH  14  15
ATOM     15  C   UNL     1       2.091  -1.173  -2.199  1.00  0.00     0.038 C 
BRANCH  15  16
ATOM     16  C   UNL     1       2.235  -0.053  -1.145  1.00  0.00    -0.015 C 
ATOM     17  C   UNL     1       0.990   0.835  -1.062  1.00  0.00     0.007 C 
ATOM     18  C   UNL     1       3.436   0.835  -1.493  1.00  0.00     0.007 C 
ENDBRANCH  15  16
ENDBRANCH  14  15
BRANCH  14  19
ATOM     19  C   UNL     1       4.156  -2.927  -1.664  1.00  0.00     0.245 C 
ATOM     20  O   UNL     1       4.585  -2.814  -0.503  1.00  0.00    -0.272 OA
BRANCH  19  21
ATOM     21  N   UNL     1       5.040  -3.237  -2.682  1.00  0.00    -0.332 N 
ATOM     22  C   UNL     1       6.479  -3.047  -2.635  1.00  0.00     0.147 C 
BRANCH  21  23
ATOM     23  C   UNL     1       4.481  -3.804  -3.940  1.00  0.00     0.178 C 
BRANCH  23  24
ATOM     24  C   UNL     1       4.530  -2.852  -5.153  1.00  0.00     0.070 C 
BRANCH  24  25
ATOM     25  C   UNL     1       5.397  -1.621  -5.028  1.00  0.00    -0.045 A 
ATOM     26  C   UNL     1       4.925  -0.474  -4.377  1.00  0.00     0.004 A 
ATOM     27  C   UNL     1       6.691  -1.609  -5.570  1.00  0.00     0.004 A 
ATOM     28  C   UNL     1       5.726   0.665  -4.280  1.00  0.00     0.000 A 
ATOM     29  C   UNL     1       7.490  -0.469  -5.472  1.00  0.00     0.000 A 
ATOM     30  C   UNL     1       7.006   0.668  -4.830  1.00  0.00     0.000 A 
ENDBRANCH  24  25
ENDBRANCH  23  24
BRANCH  23  31
ATOM     31  C   UNL     1       4.969  -5.245  -4.223  1.00  0.00     0.243 C 
ATOM     32  O   UNL     1       5.615  -5.920  -3.425  1.00  0.00    -0.273 OA
ATOM     33  N   UNL     1       4.775  -5.648  -5.533  1.00  0.00    -0.341 N 
ATOM     34  H   UNL     1       4.234  -5.039  -6.153  1.00  0.00     0.164 HD
BRANCH  33  35
ATOM     35  C   UNL     1       5.265  -6.926  -6.057  1.00  0.00     0.194 C 
BRANCH  35  36
ATOM     36  C   UNL     1       5.532  -6.924  -7.588  1.00  0.00     0.017 C 
ATOM     37  C   UNL     1       6.613  -7.951  -7.969  1.00  0.00     0.010 C 
ATOM     38  C   UNL     1       5.986  -5.560  -8.121  1.00  0.00     0.010 C 
ENDBRANCH  35  36
BRANCH  35  39
ATOM     39  C   UNL     1       4.379  -8.128  -5.623  1.00  0.00     0.329 C 
ATOM     40  O   UNL     1       4.782  -9.069  -4.950  1.00  0.00    -0.250 OA
BRANCH  39  41
ATOM     41  O   UNL     1       3.075  -7.976  -6.003  1.00  0.00    -0.458 OA
BRANCH  41  42
ATOM     42  C   UNL     1       2.125  -7.709  -4.943  1.00  0.00     0.205 CG0
ATOM     43  C   UNL     1       2.553  -8.534  -3.731  1.00  0.00     0.056 C 
ATOM     44  G   UNL     1       0.714  -8.080  -5.442  1.00  0.00     0.000 G0
ENDBRANCH  41  42
ENDBRANCH  39  41
ENDBRANCH  35  39
ENDBRANCH  33  35
ENDBRANCH  23  31
ENDBRANCH  21  23
ENDBRANCH  19  21
ENDBRANCH  14  19
ENDBRANCH   7  14
ENDBRANCH   2   5
BRANCH   3  45
ATOM     45  C   UNL     1      -1.639  -7.533  -2.398  1.00  0.00     0.171 C 
BRANCH  45  46
ATOM     46  N   UNL     1      -0.642  -8.026  -3.339  1.00  0.00    -0.342 N 
ATOM     47  C   UNL     1      -0.306  -7.342  -4.480  1.00  0.00     0.247 C 
ATOM     48  O   UNL     1      -0.766  -6.233  -4.755  1.00  0.00    -0.273 OA
ATOM     49  H   UNL     1      -0.195  -8.914  -3.121  1.00  0.00     0.164 HD
BRANCH  47  50
ATOM     50  C   UNL     1       0.670  -8.074  -5.412  1.00  0.00     0.212 CG0
ATOM     51  G   UNL     1       2.101  -7.712  -4.968  1.00  0.00     0.000 G0
BRANCH  50  52
ATOM     52  N   UNL     1       0.361  -9.493  -5.263  1.00  0.00    -0.339 N 
ATOM     53  C   UNL     1       0.700 -10.443  -6.197  1.00  0.00     0.243 C 
ATOM     54  O   UNL     1       1.247 -10.161  -7.259  1.00  0.00    -0.273 OA
ATOM     55  H   UNL     1      -0.190  -9.775  -4.455  1.00  0.00     0.164 HD
BRANCH  53  56
ATOM     56  C   UNL     1       0.193 -11.860  -5.863  1.00  0.00     0.182 C 
BRANCH  56  57
ATOM     57  N   UNL     1      -1.046 -12.160  -6.588  1.00  0.00    -0.344 N 
ATOM     58  C   UNL     1      -1.049 -12.786  -7.811  1.00  0.00     0.220 C 
ATOM     59  O   UNL     1      -0.020 -13.070  -8.414  1.00  0.00    -0.275 OA
ATOM     60  H   UNL     1      -1.918 -12.035  -6.081  1.00  0.00     0.164 HD
BRANCH  58  61
ATOM     61  C   UNL     1      -2.444 -13.048  -8.348  1.00  0.00     0.100 C 
BRANCH  61  62
ATOM     62  C   UNL     1      -2.976 -11.936  -9.252  1.00  0.00     0.010 C 
BRANCH  62  63
ATOM     63  C   UNL     1      -4.485 -11.691  -9.124  1.00  0.00     0.000 C 
BRANCH  63  64
ATOM     64  C   UNL     1      -4.861 -10.240  -8.829  1.00  0.00    -0.003 C 
ATOM     65  C   UNL     1      -6.097 -10.156  -7.944  1.00  0.00     0.004 C 
ENDBRANCH  63  64
ENDBRANCH  62  63
ENDBRANCH  61  62
ENDBRANCH  58  61
ENDBRANCH  56  57
BRANCH  56  66
ATOM     66  C   UNL     1       0.042 -12.061  -4.356  1.00  0.00     0.157 C 
BRANCH  66  67
ATOM     67  C   UNL     1      -1.397 -11.966  -3.936  1.00  0.00     0.305 C 
ATOM     68  O   UNL     1      -2.109 -12.880  -3.551  1.00  0.00    -0.252 OA
BRANCH  67  69
ATOM     69  O   UNL     1      -1.859 -10.702  -3.974  1.00  0.00    -0.481 OA
ATOM     70  H   UNL     1      -2.587 -10.721  -4.630  1.00  0.00     0.296 HD
ENDBRANCH  67  69
ENDBRANCH  66  67
ENDBRANCH  56  66
ENDBRANCH  53  56
ENDBRANCH  50  52
ENDBRANCH  47  50
ENDBRANCH  45  46
BRANCH  45  71
ATOM     71  C   UNL     1      -2.913  -7.070  -3.114  1.00  0.00     0.037 C 
BRANCH  71  72
ATOM     72  C   UNL     1      -4.179  -7.603  -2.439  1.00  0.00     0.026 C 
BRANCH  72  73
ATOM     73  C   UNL     1      -3.845  -8.552  -1.290  1.00  0.00     0.146 C 
BRANCH  73  74
ATOM     74  N   UNL     1      -4.026  -7.821  -0.039  1.00  0.00    -0.254 NA
ATOM     75  C   UNL     1      -3.215  -8.069   0.922  1.00  0.00     0.185 C 
ATOM     76  N   UNL     1      -3.356  -7.412   2.085  1.00  0.00    -0.370 N 
ATOM     77  N   UNL     1      -2.185  -8.932   0.958  1.00  0.00    -0.370 N 
ATOM     78  H   UNL     1      -4.114  -6.747   2.146  1.00  0.00     0.159 HD
ATOM     79  H   UNL     1      -2.856  -7.655   2.922  1.00  0.00     0.159 HD
ATOM     80  H   UNL     1      -1.957  -9.493   0.151  1.00  0.00     0.159 HD
ATOM     81  H   UNL     1      -1.544  -8.958   1.733  1.00  0.00     0.159 HD
ENDBRANCH  73  74
ENDBRANCH  72  73
ENDBRANCH  71  72
ENDBRANCH  45  71
ENDBRANCH   3  45
TORSDOF 20
ENDMDL
MODEL 8
REMARK VINA RESULT:    -4.372     14.262     19.359
REMARK INTER + INTRA:         -17.989
REMARK INTER:                 -14.746
REMARK INTRA:                  -3.243
REMARK UNBOUND:                -5.439
REMARK SMILES CCCCCC(=O)N[C@H](CC(=O)O)C(=O)N[C@H]1C(=O)N[C@H](CCCN=C(N)N)C(=O)N[C@@H]2CC[C@H](O)N(C2=O)[C@@H](CC(C)C)C(=O)N(C)[C@@H](Cc2ccccc2)C(=O)N[C@H](C(C)C)C(=O)O[C@@H]1C
REMARK SMILES IDX 30 1 31 2 29 3 32 5 35 6 37 7 34 8 38 9 33 10 39 11 36 12
REMARK SMILES IDX 40 14 41 15 42 16 43 17 44 18 45 19 46 20 47 21 48 22 49 23
REMARK SMILES IDX 50 24 51 25 52 26 56 27 53 28 55 29 54 30 57 31 58 32 59 33
REMARK SMILES IDX 60 35 61 36 62 37 63 38 64 39 65 40 66 41 67 42 68 43 21 45
REMARK SMILES IDX 20 46 18 47 19 48 17 50 16 52 14 53 15 54 9 56 8 57 6 58
REMARK SMILES IDX 7 59 5 61 4 62 3 63 2 64 1 65 10 66 11 67 12 68 13 69 22 71
REMARK SMILES IDX 23 72 24 73 25 74 26 75 27 76 28 77
REMARK H PARENT 31 4 36 13 59 34 20 49 16 55 8 60 13 70 27 78 27 79 28 80
REMARK H PARENT 28 81
REMARK Flexibility Score:  259.900
ROOT
ATOM      1  O   UNL     1     -15.176  -9.008   3.670  1.00  0.00    -0.273 OA
ATOM      2  N   UNL     1     -15.887 -11.158   3.986  1.00  0.00    -0.343 N 
ATOM      3  C   UNL     1     -15.124 -10.058   4.312  1.00  0.00     0.243 C 
ATOM      4  H   UNL     1     -15.830 -12.000   4.545  1.00  0.00     0.164 HD
ENDROOT
BRANCH   2   5
ATOM      5  C   UNL     1     -16.709 -11.162   2.781  1.00  0.00     0.171 C 
ATOM      6  C   UNL     1     -16.979  -9.292   0.582  1.00  0.00     0.214 C 
ATOM      7  N   UNL     1     -17.843  -9.165   1.733  1.00  0.00    -0.303 N 
ATOM      8  C   UNL     1     -16.545 -10.723   0.310  1.00  0.00     0.057 C 
ATOM      9  C   UNL     1     -17.734  -9.992   2.838  1.00  0.00     0.247 C 
ATOM     10  C   UNL     1     -15.845 -11.286   1.528  1.00  0.00     0.040 C 
ATOM     11  O   UNL     1     -18.419  -9.823   3.855  1.00  0.00    -0.272 OA
BRANCH   6  12
ATOM     12  O   UNL     1     -15.856  -8.469   0.795  1.00  0.00    -0.373 OA
ATOM     13  H   UNL     1     -15.898  -8.159   1.725  1.00  0.00     0.213 HD
ENDBRANCH   6  12
BRANCH   7  14
ATOM     14  C   UNL     1     -18.768  -8.011   1.753  1.00  0.00     0.177 C 
BRANCH  14  15
ATOM     15  C   UNL     1     -20.249  -8.353   1.503  1.00  0.00     0.038 C 
BRANCH  15  16
ATOM     16  C   UNL     1     -20.786  -8.401   0.056  1.00  0.00    -0.015 C 
ATOM     17  C   UNL     1     -20.678  -9.799  -0.562  1.00  0.00     0.007 C 
ATOM     18  C   UNL     1     -19.995  -7.425  -0.824  1.00  0.00     0.007 C 
ENDBRANCH  15  16
ENDBRANCH  14  15
BRANCH  14  19
ATOM     19  C   UNL     1     -18.244  -6.913   2.741  1.00  0.00     0.245 C 
ATOM     20  O   UNL     1     -18.308  -7.175   3.954  1.00  0.00    -0.272 OA
BRANCH  19  21
ATOM     21  N   UNL     1     -17.832  -5.653   2.345  1.00  0.00    -0.332 N 
ATOM     22  C   UNL     1     -18.642  -4.449   2.388  1.00  0.00     0.147 C 
BRANCH  21  23
ATOM     23  C   UNL     1     -16.447  -5.507   1.819  1.00  0.00     0.178 C 
BRANCH  23  24
ATOM     24  C   UNL     1     -16.214  -4.253   0.952  1.00  0.00     0.070 C 
BRANCH  24  25
ATOM     25  C   UNL     1     -15.734  -3.007   1.660  1.00  0.00    -0.045 A 
ATOM     26  C   UNL     1     -16.293  -2.617   2.883  1.00  0.00     0.004 A 
ATOM     27  C   UNL     1     -14.721  -2.218   1.095  1.00  0.00     0.004 A 
ATOM     28  C   UNL     1     -15.857  -1.454   3.523  1.00  0.00     0.000 A 
ATOM     29  C   UNL     1     -14.285  -1.057   1.736  1.00  0.00     0.000 A 
ATOM     30  C   UNL     1     -14.855  -0.675   2.948  1.00  0.00     0.000 A 
ENDBRANCH  24  25
ENDBRANCH  23  24
BRANCH  23  31
ATOM     31  C   UNL     1     -15.363  -5.768   2.892  1.00  0.00     0.243 C 
ATOM     32  O   UNL     1     -15.580  -5.774   4.101  1.00  0.00    -0.273 OA
ATOM     33  N   UNL     1     -14.077  -5.814   2.380  1.00  0.00    -0.341 N 
ATOM     34  H   UNL     1     -13.959  -5.800   1.364  1.00  0.00     0.164 HD
BRANCH  33  35
ATOM     35  C   UNL     1     -12.885  -5.932   3.223  1.00  0.00     0.194 C 
BRANCH  35  36
ATOM     36  C   UNL     1     -12.274  -4.569   3.655  1.00  0.00     0.017 C 
ATOM     37  C   UNL     1     -13.228  -3.798   4.584  1.00  0.00     0.010 C 
ATOM     38  C   UNL     1     -11.947  -3.651   2.470  1.00  0.00     0.010 C 
ENDBRANCH  35  36
BRANCH  35  39
ATOM     39  C   UNL     1     -11.814  -6.881   2.616  1.00  0.00     0.329 C 
ATOM     40  O   UNL     1     -11.276  -6.702   1.529  1.00  0.00    -0.250 OA
BRANCH  39  41
ATOM     41  O   UNL     1     -11.473  -7.894   3.468  1.00  0.00    -0.458 OA
BRANCH  41  42
ATOM     42  C   UNL     1     -10.799  -9.030   2.877  1.00  0.00     0.205 CG0
ATOM     43  C   UNL     1     -11.600  -9.442   1.644  1.00  0.00     0.056 C 
ATOM     44  G   UNL     1     -10.715 -10.155   3.928  1.00  0.00     0.000 G0
ENDBRANCH  41  42
ENDBRANCH  39  41
ENDBRANCH  35  39
ENDBRANCH  33  35
ENDBRANCH  23  31
ENDBRANCH  21  23
ENDBRANCH  19  21
ENDBRANCH  14  19
ENDBRANCH   7  14
ENDBRANCH   2   5
BRANCH   3  45
ATOM     45  C   UNL     1     -14.222 -10.224   5.542  1.00  0.00     0.171 C 
BRANCH  45  46
ATOM     46  N   UNL     1     -12.881  -9.868   5.098  1.00  0.00    -0.342 N 
ATOM     47  C   UNL     1     -12.173 -10.633   4.205  1.00  0.00     0.247 C 
ATOM     48  O   UNL     1     -12.645 -11.632   3.660  1.00  0.00    -0.273 OA
ATOM     49  H   UNL     1     -12.474  -9.017   5.481  1.00  0.00     0.164 HD
BRANCH  47  50
ATOM     50  C   UNL     1     -10.732 -10.170   3.951  1.00  0.00     0.212 CG0
ATOM     51  G   UNL     1     -10.779  -9.062   2.879  1.00  0.00     0.000 G0
BRANCH  50  52
ATOM     52  N   UNL     1     -10.239  -9.702   5.243  1.00  0.00    -0.339 N 
ATOM     53  C   UNL     1      -9.214 -10.309   5.926  1.00  0.00     0.243 C 
ATOM     54  O   UNL     1      -8.664 -11.330   5.524  1.00  0.00    -0.273 OA
ATOM     55  H   UNL     1     -10.729  -8.925   5.682  1.00  0.00     0.164 HD
BRANCH  53  56
ATOM     56  C   UNL     1      -8.927  -9.689   7.309  1.00  0.00     0.182 C 
BRANCH  56  57
ATOM     57  N   UNL     1      -7.883  -8.663   7.220  1.00  0.00    -0.344 N 
ATOM     58  C   UNL     1      -7.812  -7.608   8.096  1.00  0.00     0.220 C 
ATOM     59  O   UNL     1      -8.654  -7.409   8.965  1.00  0.00    -0.275 OA
ATOM     60  H   UNL     1      -7.112  -8.845   6.583  1.00  0.00     0.164 HD
BRANCH  58  61
ATOM     61  C   UNL     1      -6.618  -6.703   7.853  1.00  0.00     0.100 C 
BRANCH  61  62
ATOM     62  C   UNL     1      -5.353  -7.141   8.592  1.00  0.00     0.010 C 
BRANCH  62  63
ATOM     63  C   UNL     1      -5.317  -6.732  10.070  1.00  0.00     0.000 C 
BRANCH  63  64
ATOM     64  C   UNL     1      -6.123  -5.475  10.392  1.00  0.00    -0.003 C 
ATOM     65  C   UNL     1      -6.720  -5.542  11.790  1.00  0.00     0.004 C 
ENDBRANCH  63  64
ENDBRANCH  62  63
ENDBRANCH  61  62
ENDBRANCH  58  61
ENDBRANCH  56  57
BRANCH  56  66
ATOM     66  C   UNL     1      -8.595 -10.761   8.345  1.00  0.00     0.157 C 
BRANCH  66  67
ATOM     67  C   UNL     1      -9.523 -10.685   9.523  1.00  0.00     0.305 C 
ATOM     68  O   UNL     1     -10.647 -11.157   9.603  1.00  0.00    -0.252 OA
BRANCH  67  69
ATOM     69  O   UNL     1      -8.965 -10.055  10.574  1.00  0.00    -0.481 OA
ATOM     70  H   UNL     1      -9.444 -10.401  11.357  1.00  0.00     0.296 HD
ENDBRANCH  67  69
ENDBRANCH  66  67
ENDBRANCH  56  66
ENDBRANCH  53  56
ENDBRANCH  50  52
ENDBRANCH  47  50
ENDBRANCH  45  46
BRANCH  45  71
ATOM     71  C   UNL     1     -14.282 -11.666   6.057  1.00  0.00     0.037 C 
BRANCH  71  72
ATOM     72  C   UNL     1     -14.904 -11.753   7.453  1.00  0.00     0.026 C 
BRANCH  72  73
ATOM     73  C   UNL     1     -16.309 -11.155   7.479  1.00  0.00     0.146 C 
BRANCH  73  74
ATOM     74  N   UNL     1     -16.239  -9.880   8.186  1.00  0.00    -0.254 NA
ATOM     75  C   UNL     1     -16.874  -8.884   7.689  1.00  0.00     0.185 C 
ATOM     76  N   UNL     1     -16.830  -7.698   8.317  1.00  0.00    -0.370 N 
ATOM     77  N   UNL     1     -17.622  -8.830   6.573  1.00  0.00    -0.370 N 
ATOM     78  H   UNL     1     -16.281  -7.649   9.164  1.00  0.00     0.159 HD
ATOM     79  H   UNL     1     -17.177  -6.845   7.916  1.00  0.00     0.159 HD
ATOM     80  H   UNL     1     -17.748  -9.650   5.999  1.00  0.00     0.159 HD
ATOM     81  H   UNL     1     -18.169  -8.017   6.342  1.00  0.00     0.159 HD
ENDBRANCH  73  74
ENDBRANCH  72  73
ENDBRANCH  71  72
ENDBRANCH  45  71
ENDBRANCH   3  45
TORSDOF 20
ENDMDL
