MODEL 1
REMARK VINA RESULT:    -7.505      0.000      0.000
REMARK INTER + INTRA:         -28.728
REMARK INTER:                 -22.421
REMARK INTRA:                  -6.307
REMARK UNBOUND:                -6.307
REMARK SMILES C=C1C(=O)N[C@H](C)C(=O)N[C@@H](CC(C)C)C(=O)N[C@@H](C(=O)O)[C@H](C)C(=O)N[C@@H](CCCN=C(N)N)C(=O)N[C@@H](/C=C/C(C)=C/[C@H](C)[C@H](Cc2ccccc2)OC)[C@H](C)C(=O)N[C@@H](C(=O)O)CCC(=O)N1C
REMARK SMILES IDX 39 1 38 2 37 3 36 4 28 6 27 7 25 8 26 9 23 11 24 12 19 13
REMARK SMILES IDX 18 14 16 15 17 16 11 18 10 19 8 20 9 21 12 24 13 25 14 26
REMARK SMILES IDX 15 27 20 28 21 29 22 30 29 32 30 33 31 34 32 35 33 36 34 37
REMARK SMILES IDX 35 38 57 43 58 44 59 45 60 46 61 47 62 49 66 50 67 51 68 52
REMARK SMILES IDX 69 53 70 54 71 55 2 56 1 57 3 58 4 59 5 60 6 62 7 63 63 65
REMARK SMILES IDX 64 66 65 67 40 69 41 70 42 71 44 72 43 73 45 74 46 75 47 76
REMARK SMILES IDX 55 77 56 78 48 79 49 80 50 81 54 82 51 83 53 84 52 85
REMARK H PARENT 38 5 27 10 18 17 10 22 22 31 34 39 34 40 35 41 35 42 61 48
REMARK H PARENT 5 61 65 68
REMARK Flexibility Score:  369.900
ROOT
ATOM      1  C   UNL     1      -7.557   0.937  -5.472  1.00  0.00     0.117 C 
ENDROOT
BRANCH   1   2
ATOM      2  N   UNL     1      -7.222  -0.424  -5.050  1.00  0.00    -0.347 N 
ATOM      3  O   UNL     1      -8.991  -1.502  -6.039  1.00  0.00    -0.273 OA
ATOM      4  C   UNL     1      -7.918  -1.550  -5.446  1.00  0.00     0.243 C 
ATOM      5  H   UNL     1      -6.407  -0.577  -4.475  1.00  0.00     0.164 HD
BRANCH   4   6
ATOM      6  C   UNL     1      -7.305  -2.876  -4.928  1.00  0.00     0.171 C 
BRANCH   6   7
ATOM      7  N   UNL     1      -8.324  -3.937  -4.901  1.00  0.00    -0.344 N 
ATOM      8  C   UNL     1      -9.008  -4.225  -3.740  1.00  0.00     0.226 C 
ATOM      9  O   UNL     1      -8.793  -3.640  -2.685  1.00  0.00    -0.275 OA
ATOM     10  H   UNL     1      -8.481  -4.488  -5.736  1.00  0.00     0.164 HD
BRANCH   8  11
ATOM     11  C   UNL     1     -10.063  -5.307  -3.887  1.00  0.00     0.109 C 
ATOM     12  C   UNL     1     -10.180  -5.732  -5.351  1.00  0.00     0.021 C 
BRANCH  11  13
ATOM     13  C   UNL     1      -9.774  -6.455  -2.900  1.00  0.00     0.204 C 
BRANCH  13  14
ATOM     14  N   UNL     1      -9.949  -6.041  -1.505  1.00  0.00    -0.340 N 
ATOM     15  C   UNL     1      -9.485  -6.782  -0.440  1.00  0.00     0.243 C 
ATOM     16  O   UNL     1      -8.837  -7.817  -0.588  1.00  0.00    -0.273 OA
ATOM     17  H   UNL     1     -10.603  -5.279  -1.309  1.00  0.00     0.164 HD
BRANCH  15  18
ATOM     18  C   UNL     1      -9.965  -6.257   0.935  1.00  0.00     0.171 C 
BRANCH  18  19
ATOM     19  N   UNL     1      -9.718  -7.326   1.901  1.00  0.00    -0.343 N 
ATOM     20  C   UNL     1     -10.723  -7.828   2.706  1.00  0.00     0.242 CG0
ATOM     21  O   UNL     1     -11.836  -7.310   2.743  1.00  0.00    -0.273 OA
ATOM     22  H   UNL     1      -8.784  -7.710   1.990  1.00  0.00     0.164 HD
ATOM     23  G   UNL     1     -10.291  -9.005   3.604  1.00  0.00     0.000 G0
ENDBRANCH  18  19
BRANCH  18  24
ATOM     24  C   UNL     1      -9.218  -4.973   1.315  1.00  0.00     0.038 C 
BRANCH  24  25
ATOM     25  C   UNL     1     -10.122  -3.826   1.816  1.00  0.00    -0.015 C 
ATOM     26  C   UNL     1     -10.536  -4.002   3.277  1.00  0.00     0.007 C 
ATOM     27  C   UNL     1     -11.370  -3.732   0.934  1.00  0.00     0.007 C 
ENDBRANCH  24  25
ENDBRANCH  18  24
ENDBRANCH  15  18
ENDBRANCH  13  14
BRANCH  13  28
ATOM     28  C   UNL     1     -10.664  -7.682  -3.124  1.00  0.00     0.327 C 
ATOM     29  O   UNL     1     -11.885  -7.702  -3.105  1.00  0.00    -0.250 OA
BRANCH  28  30
ATOM     30  O   UNL     1      -9.965  -8.829  -3.239  1.00  0.00    -0.480 OA
ATOM     31  H   UNL     1      -9.334  -8.803  -2.490  1.00  0.00     0.296 HD
ENDBRANCH  28  30
ENDBRANCH  13  28
ENDBRANCH  11  13
ENDBRANCH   8  11
ENDBRANCH   6   7
BRANCH   6  32
ATOM     32  C   UNL     1      -6.127  -3.270  -5.827  1.00  0.00     0.037 C 
BRANCH  32  33
ATOM     33  C   UNL     1      -6.329  -4.647  -6.475  1.00  0.00     0.026 C 
BRANCH  33  34
ATOM     34  C   UNL     1      -6.585  -4.553  -7.980  1.00  0.00     0.146 C 
BRANCH  34  35
ATOM     35  N   UNL     1      -7.940  -4.063  -8.196  1.00  0.00    -0.254 NA
ATOM     36  C   UNL     1      -8.104  -2.991  -8.877  1.00  0.00     0.185 C 
ATOM     37  N   UNL     1      -9.348  -2.533  -9.086  1.00  0.00    -0.370 N 
ATOM     38  N   UNL     1      -7.176  -2.203  -9.449  1.00  0.00    -0.370 N 
ATOM     39  H   UNL     1     -10.105  -3.079  -8.694  1.00  0.00     0.159 HD
ATOM     40  H   UNL     1      -9.570  -1.808  -9.747  1.00  0.00     0.159 HD
ATOM     41  H   UNL     1      -7.422  -1.309  -9.841  1.00  0.00     0.159 HD
ATOM     42  H   UNL     1      -6.196  -2.418  -9.359  1.00  0.00     0.159 HD
ENDBRANCH  34  35
ENDBRANCH  33  34
ENDBRANCH  32  33
ENDBRANCH   6  32
ENDBRANCH   4   6
ENDBRANCH   1   2
BRANCH   1  43
ATOM     43  C   UNL     1      -6.248   1.658  -5.903  1.00  0.00     0.102 C 
ATOM     44  C   UNL     1      -4.987   0.794  -5.730  1.00  0.00     0.020 C 
BRANCH  43  45
ATOM     45  C   UNL     1      -6.145   3.044  -5.259  1.00  0.00     0.225 C 
ATOM     46  O   UNL     1      -6.638   4.052  -5.755  1.00  0.00    -0.275 OA
ATOM     47  N   UNL     1      -5.375   3.111  -4.120  1.00  0.00    -0.342 N 
ATOM     48  H   UNL     1      -5.107   2.260  -3.646  1.00  0.00     0.164 HD
BRANCH  47  49
ATOM     49  C   UNL     1      -5.216   4.365  -3.376  1.00  0.00     0.192 C 
BRANCH  49  50
ATOM     50  C   UNL     1      -3.762   4.512  -2.921  1.00  0.00     0.047 C 
BRANCH  50  51
ATOM     51  C   UNL     1      -3.051   5.683  -3.612  1.00  0.00     0.103 C 
BRANCH  51  52
ATOM     52  C   UNL     1      -2.617   5.332  -5.034  1.00  0.00     0.226 C 
ATOM     53  O   UNL     1      -3.435   5.394  -5.954  1.00  0.00    -0.275 OA
BRANCH  52  54
ATOM     54  N   UNL     1      -1.256   5.026  -5.216  1.00  0.00    -0.311 N 
ATOM     55  C   UNL     1      -0.219   5.676  -4.404  1.00  0.00     0.153 C 
BRANCH  54  56
ATOM     56  C   UNL     1      -0.838   4.086  -6.173  1.00  0.00     0.102 C 
ATOM     57  C   UNL     1      -0.920   2.753  -6.028  1.00  0.00     0.043 C 
BRANCH  56  58
ATOM     58  C   UNL     1      -0.286   4.531  -7.507  1.00  0.00     0.268 C 
ATOM     59  O   UNL     1       0.907   4.513  -7.777  1.00  0.00    -0.268 OA
ATOM     60  N   UNL     1      -1.264   4.893  -8.402  1.00  0.00    -0.339 N 
ATOM     61  H   UNL     1      -2.230   4.891  -8.096  1.00  0.00     0.164 HD
BRANCH  60  62
ATOM     62  C   UNL     1      -0.954   5.297  -9.773  1.00  0.00     0.168 CG0
ATOM     63  C   UNL     1      -1.125   4.130 -10.739  1.00  0.00     0.041 C 
ATOM     64  G   UNL     1       0.484   5.852  -9.836  1.00  0.00     0.000 G0
ENDBRANCH  60  62
ENDBRANCH  56  58
ENDBRANCH  54  56
ENDBRANCH  52  54
ENDBRANCH  51  52
ENDBRANCH  50  51
ENDBRANCH  49  50
BRANCH  49  65
ATOM     65  C   UNL     1      -6.141   4.417  -2.150  1.00  0.00     0.326 C 
ATOM     66  O   UNL     1      -7.178   5.059  -2.070  1.00  0.00    -0.250 OA
BRANCH  65  67
ATOM     67  O   UNL     1      -5.697   3.723  -1.079  1.00  0.00    -0.480 OA
ATOM     68  H   UNL     1      -5.893   4.317  -0.322  1.00  0.00     0.296 HD
ENDBRANCH  65  67
ENDBRANCH  49  65
ENDBRANCH  47  49
ENDBRANCH  43  45
ENDBRANCH   1  43
BRANCH   1  69
ATOM     69  C   UNL     1      -8.389   1.535  -4.352  1.00  0.00    -0.001 C 
ATOM     70  C   UNL     1      -9.688   1.309  -4.089  1.00  0.00     0.001 C 
BRANCH  70  71
ATOM     71  C   UNL     1     -10.475   1.876  -2.992  1.00  0.00    -0.055 C 
ATOM     72  C   UNL     1     -11.472   2.729  -3.310  1.00  0.00    -0.018 C 
ATOM     73  C   UNL     1     -10.122   1.461  -1.587  1.00  0.00     0.044 C 
BRANCH  72  74
ATOM     74  C   UNL     1     -12.443   3.459  -2.394  1.00  0.00     0.038 C 
ATOM     75  C   UNL     1     -13.817   3.427  -3.073  1.00  0.00     0.015 C 
BRANCH  74  76
ATOM     76  C   UNL     1     -11.888   4.886  -2.111  1.00  0.00     0.128 C 
BRANCH  76  77
ATOM     77  O   UNL     1     -11.564   5.020  -0.717  1.00  0.00    -0.381 OA
ATOM     78  C   UNL     1     -12.583   5.648   0.049  1.00  0.00     0.195 C 
ENDBRANCH  76  77
BRANCH  76  79
ATOM     79  C   UNL     1     -10.720   5.303  -3.040  1.00  0.00     0.068 C 
BRANCH  79  80
ATOM     80  C   UNL     1     -11.003   6.323  -4.117  1.00  0.00    -0.045 A 
ATOM     81  C   UNL     1     -10.300   6.308  -5.329  1.00  0.00     0.004 A 
ATOM     82  C   UNL     1     -11.961   7.327  -3.906  1.00  0.00     0.004 A 
ATOM     83  C   UNL     1     -10.558   7.264  -6.314  1.00  0.00     0.000 A 
ATOM     84  C   UNL     1     -12.217   8.283  -4.891  1.00  0.00     0.000 A 
ATOM     85  C   UNL     1     -11.517   8.250  -6.095  1.00  0.00     0.000 A 
ENDBRANCH  79  80
ENDBRANCH  76  79
ENDBRANCH  74  76
ENDBRANCH  72  74
ENDBRANCH  70  71
ENDBRANCH   1  69
TORSDOF 17
ENDMDL
MODEL 2
REMARK VINA RESULT:    -7.433      2.778      7.403
REMARK INTER + INTRA:         -28.514
REMARK INTER:                 -20.493
REMARK INTRA:                  -8.021
REMARK UNBOUND:                -6.307
REMARK SMILES C=C1C(=O)N[C@H](C)C(=O)N[C@@H](CC(C)C)C(=O)N[C@@H](C(=O)O)[C@H](C)C(=O)N[C@@H](CCCN=C(N)N)C(=O)N[C@@H](/C=C/C(C)=C/[C@H](C)[C@H](Cc2ccccc2)OC)[C@H](C)C(=O)N[C@@H](C(=O)O)CCC(=O)N1C
REMARK SMILES IDX 39 1 38 2 37 3 36 4 28 6 27 7 25 8 26 9 23 11 24 12 19 13
REMARK SMILES IDX 18 14 16 15 17 16 11 18 10 19 8 20 9 21 12 24 13 25 14 26
REMARK SMILES IDX 15 27 20 28 21 29 22 30 29 32 30 33 31 34 32 35 33 36 34 37
REMARK SMILES IDX 35 38 57 43 58 44 59 45 60 46 61 47 62 49 66 50 67 51 68 52
REMARK SMILES IDX 69 53 70 54 71 55 2 56 1 57 3 58 4 59 5 60 6 62 7 63 63 65
REMARK SMILES IDX 64 66 65 67 40 69 41 70 42 71 44 72 43 73 45 74 46 75 47 76
REMARK SMILES IDX 55 77 56 78 48 79 49 80 50 81 54 82 51 83 53 84 52 85
REMARK H PARENT 38 5 27 10 18 17 10 22 22 31 34 39 34 40 35 41 35 42 61 48
REMARK H PARENT 5 61 65 68
REMARK Flexibility Score:  369.900
ROOT
ATOM      1  C   UNL     1      -6.155   2.486  -4.782  1.00  0.00     0.117 C 
ENDROOT
BRANCH   1   2
ATOM      2  N   UNL     1      -6.999   1.357  -5.176  1.00  0.00    -0.347 N 
ATOM      3  O   UNL     1      -6.800   0.129  -3.247  1.00  0.00    -0.273 OA
ATOM      4  C   UNL     1      -7.329   0.309  -4.339  1.00  0.00     0.243 C 
ATOM      5  H   UNL     1      -7.417   1.349  -6.095  1.00  0.00     0.164 HD
BRANCH   4   6
ATOM      6  C   UNL     1      -8.307  -0.712  -4.974  1.00  0.00     0.171 C 
BRANCH   6   7
ATOM      7  N   UNL     1      -9.277  -1.185  -3.973  1.00  0.00    -0.344 N 
ATOM      8  C   UNL     1      -9.163  -2.444  -3.425  1.00  0.00     0.226 C 
ATOM      9  O   UNL     1      -8.279  -3.229  -3.750  1.00  0.00    -0.275 OA
ATOM     10  H   UNL     1     -10.060  -0.591  -3.729  1.00  0.00     0.164 HD
BRANCH   8  11
ATOM     11  C   UNL     1     -10.206  -2.764  -2.368  1.00  0.00     0.109 C 
ATOM     12  C   UNL     1     -11.581  -2.272  -2.821  1.00  0.00     0.021 C 
BRANCH  11  13
ATOM     13  C   UNL     1     -10.140  -4.261  -2.006  1.00  0.00     0.204 C 
BRANCH  13  14
ATOM     14  N   UNL     1     -10.341  -4.491  -0.572  1.00  0.00    -0.340 N 
ATOM     15  C   UNL     1      -9.785  -5.558   0.099  1.00  0.00     0.243 C 
ATOM     16  O   UNL     1      -9.030  -6.361  -0.446  1.00  0.00    -0.273 OA
ATOM     17  H   UNL     1     -11.071  -3.954  -0.097  1.00  0.00     0.164 HD
BRANCH  15  18
ATOM     18  C   UNL     1     -10.301  -5.712   1.551  1.00  0.00     0.171 C 
BRANCH  18  19
ATOM     19  N   UNL     1      -9.880  -7.035   2.007  1.00  0.00    -0.343 N 
ATOM     20  C   UNL     1     -10.709  -7.846   2.757  1.00  0.00     0.242 CG0
ATOM     21  O   UNL     1     -11.786  -7.442   3.188  1.00  0.00    -0.273 OA
ATOM     22  H   UNL     1      -8.951  -7.369   1.774  1.00  0.00     0.164 HD
ATOM     23  G   UNL     1     -10.121  -9.236   3.078  1.00  0.00     0.000 G0
ENDBRANCH  18  19
BRANCH  18  24
ATOM     24  C   UNL     1      -9.737  -4.603   2.447  1.00  0.00     0.038 C 
BRANCH  24  25
ATOM     25  C   UNL     1     -10.776  -3.562   2.915  1.00  0.00    -0.015 C 
ATOM     26  C   UNL     1     -12.203  -3.940   2.517  1.00  0.00     0.007 C 
ATOM     27  C   UNL     1     -10.426  -2.189   2.335  1.00  0.00     0.007 C 
ENDBRANCH  24  25
ENDBRANCH  18  24
ENDBRANCH  15  18
ENDBRANCH  13  14
BRANCH  13  28
ATOM     28  C   UNL     1     -11.177  -5.108  -2.751  1.00  0.00     0.327 C 
ATOM     29  O   UNL     1     -12.349  -5.254  -2.440  1.00  0.00    -0.250 OA
BRANCH  28  30
ATOM     30  O   UNL     1     -10.648  -5.814  -3.771  1.00  0.00    -0.480 OA
ATOM     31  H   UNL     1     -10.781  -6.749  -3.512  1.00  0.00     0.296 HD
ENDBRANCH  28  30
ENDBRANCH  13  28
ENDBRANCH  11  13
ENDBRANCH   8  11
ENDBRANCH   6   7
BRANCH   6  32
ATOM     32  C   UNL     1      -9.022  -0.054  -6.160  1.00  0.00     0.037 C 
BRANCH  32  33
ATOM     33  C   UNL     1      -8.753  -0.791  -7.479  1.00  0.00     0.026 C 
BRANCH  33  34
ATOM     34  C   UNL     1      -8.916  -2.306  -7.347  1.00  0.00     0.146 C 
BRANCH  34  35
ATOM     35  N   UNL     1     -10.292  -2.599  -6.971  1.00  0.00    -0.254 NA
ATOM     36  C   UNL     1     -10.558  -3.742  -6.456  1.00  0.00     0.185 C 
ATOM     37  N   UNL     1     -11.822  -4.021  -6.102  1.00  0.00    -0.370 N 
ATOM     38  N   UNL     1      -9.727  -4.767  -6.199  1.00  0.00    -0.370 N 
ATOM     39  H   UNL     1     -12.508  -3.293  -6.255  1.00  0.00     0.159 HD
ATOM     40  H   UNL     1     -12.080  -4.814  -5.540  1.00  0.00     0.159 HD
ATOM     41  H   UNL     1     -10.080  -5.667  -5.921  1.00  0.00     0.159 HD
ATOM     42  H   UNL     1      -8.747  -4.702  -6.429  1.00  0.00     0.159 HD
ENDBRANCH  34  35
ENDBRANCH  33  34
ENDBRANCH  32  33
ENDBRANCH   6  32
ENDBRANCH   4   6
ENDBRANCH   1   2
BRANCH   1  43
ATOM     43  C   UNL     1      -7.050   3.751  -4.650  1.00  0.00     0.102 C 
ATOM     44  C   UNL     1      -6.251   5.065  -4.609  1.00  0.00     0.020 C 
BRANCH  43  45
ATOM     45  C   UNL     1      -8.054   3.598  -3.503  1.00  0.00     0.225 C 
ATOM     46  O   UNL     1      -7.739   3.200  -2.385  1.00  0.00    -0.275 OA
ATOM     47  N   UNL     1      -9.367   3.848  -3.828  1.00  0.00    -0.342 N 
ATOM     48  H   UNL     1      -9.588   4.315  -4.696  1.00  0.00     0.164 HD
BRANCH  47  49
ATOM     49  C   UNL     1     -10.432   3.775  -2.822  1.00  0.00     0.192 C 
BRANCH  49  50
ATOM     50  C   UNL     1     -11.654   3.072  -3.417  1.00  0.00     0.047 C 
BRANCH  50  51
ATOM     51  C   UNL     1     -11.422   2.629  -4.869  1.00  0.00     0.103 C 
BRANCH  51  52
ATOM     52  C   UNL     1     -11.814   3.715  -5.869  1.00  0.00     0.226 C 
ATOM     53  O   UNL     1     -12.642   4.570  -5.548  1.00  0.00    -0.275 OA
BRANCH  52  54
ATOM     54  N   UNL     1     -11.129   3.712  -7.098  1.00  0.00    -0.311 N 
ATOM     55  C   UNL     1     -11.416   2.697  -8.121  1.00  0.00     0.153 C 
BRANCH  54  56
ATOM     56  C   UNL     1     -10.153   4.677  -7.395  1.00  0.00     0.102 C 
ATOM     57  C   UNL     1      -9.235   4.567  -8.369  1.00  0.00     0.043 C 
BRANCH  56  58
ATOM     58  C   UNL     1     -10.097   5.982  -6.635  1.00  0.00     0.268 C 
ATOM     59  O   UNL     1      -9.309   6.191  -5.723  1.00  0.00    -0.268 OA
ATOM     60  N   UNL     1     -10.972   6.926  -7.117  1.00  0.00    -0.339 N 
ATOM     61  H   UNL     1     -11.599   6.669  -7.869  1.00  0.00     0.164 HD
BRANCH  60  62
ATOM     62  C   UNL     1     -11.038   8.279  -6.567  1.00  0.00     0.168 CG0
ATOM     63  C   UNL     1     -12.250   8.442  -5.658  1.00  0.00     0.041 C 
ATOM     64  G   UNL     1     -11.078   9.304  -7.719  1.00  0.00     0.000 G0
ENDBRANCH  60  62
ENDBRANCH  56  58
ENDBRANCH  54  56
ENDBRANCH  52  54
ENDBRANCH  51  52
ENDBRANCH  50  51
ENDBRANCH  49  50
BRANCH  49  65
ATOM     65  C   UNL     1     -10.840   5.172  -2.327  1.00  0.00     0.326 C 
ATOM     66  O   UNL     1     -11.024   5.486  -1.160  1.00  0.00    -0.250 OA
BRANCH  65  67
ATOM     67  O   UNL     1     -11.053   6.077  -3.307  1.00  0.00    -0.480 OA
ATOM     68  H   UNL     1     -11.365   6.872  -2.823  1.00  0.00     0.296 HD
ENDBRANCH  65  67
ENDBRANCH  49  65
ENDBRANCH  47  49
ENDBRANCH  43  45
ENDBRANCH   1  43
BRANCH   1  69
ATOM     69  C   UNL     1      -4.994   2.508  -5.759  1.00  0.00    -0.001 C 
ATOM     70  C   UNL     1      -4.136   1.508  -6.032  1.00  0.00     0.001 C 
BRANCH  70  71
ATOM     71  C   UNL     1      -3.032   1.534  -6.993  1.00  0.00    -0.055 C 
ATOM     72  C   UNL     1      -2.966   2.579  -7.845  1.00  0.00    -0.018 C 
ATOM     73  C   UNL     1      -2.043   0.398  -6.957  1.00  0.00     0.044 C 
BRANCH  72  74
ATOM     74  C   UNL     1      -1.943   2.870  -8.934  1.00  0.00     0.038 C 
ATOM     75  C   UNL     1      -2.053   1.746  -9.971  1.00  0.00     0.015 C 
BRANCH  74  76
ATOM     76  C   UNL     1      -0.540   3.018  -8.276  1.00  0.00     0.128 C 
BRANCH  76  77
ATOM     77  O   UNL     1       0.487   2.856  -9.269  1.00  0.00    -0.381 OA
ATOM     78  C   UNL     1       1.743   3.399  -8.886  1.00  0.00     0.195 C 
ENDBRANCH  76  77
BRANCH  76  79
ATOM     79  C   UNL     1      -0.368   4.313  -7.443  1.00  0.00     0.068 C 
BRANCH  79  80
ATOM     80  C   UNL     1      -0.969   4.347  -6.058  1.00  0.00    -0.045 A 
ATOM     81  C   UNL     1      -0.580   3.424  -5.079  1.00  0.00     0.004 A 
ATOM     82  C   UNL     1      -1.954   5.294  -5.739  1.00  0.00     0.004 A 
ATOM     83  C   UNL     1      -1.151   3.453  -3.805  1.00  0.00     0.000 A 
ATOM     84  C   UNL     1      -2.526   5.322  -4.464  1.00  0.00     0.000 A 
ATOM     85  C   UNL     1      -2.123   4.403  -3.498  1.00  0.00     0.000 A 
ENDBRANCH  79  80
ENDBRANCH  76  79
ENDBRANCH  74  76
ENDBRANCH  72  74
ENDBRANCH  70  71
ENDBRANCH   1  69
TORSDOF 17
ENDMDL
MODEL 3
REMARK VINA RESULT:    -7.384      2.746      4.765
REMARK INTER + INTRA:         -28.367
REMARK INTER:                 -22.473
REMARK INTRA:                  -5.894
REMARK UNBOUND:                -6.307
REMARK SMILES C=C1C(=O)N[C@H](C)C(=O)N[C@@H](CC(C)C)C(=O)N[C@@H](C(=O)O)[C@H](C)C(=O)N[C@@H](CCCN=C(N)N)C(=O)N[C@@H](/C=C/C(C)=C/[C@H](C)[C@H](Cc2ccccc2)OC)[C@H](C)C(=O)N[C@@H](C(=O)O)CCC(=O)N1C
REMARK SMILES IDX 39 1 38 2 37 3 36 4 28 6 27 7 25 8 26 9 23 11 24 12 19 13
REMARK SMILES IDX 18 14 16 15 17 16 11 18 10 19 8 20 9 21 12 24 13 25 14 26
REMARK SMILES IDX 15 27 20 28 21 29 22 30 29 32 30 33 31 34 32 35 33 36 34 37
REMARK SMILES IDX 35 38 57 43 58 44 59 45 60 46 61 47 62 49 66 50 67 51 68 52
REMARK SMILES IDX 69 53 70 54 71 55 2 56 1 57 3 58 4 59 5 60 6 62 7 63 63 65
REMARK SMILES IDX 64 66 65 67 40 69 41 70 42 71 44 72 43 73 45 74 46 75 47 76
REMARK SMILES IDX 55 77 56 78 48 79 49 80 50 81 54 82 51 83 53 84 52 85
REMARK H PARENT 38 5 27 10 18 17 10 22 22 31 34 39 34 40 35 41 35 42 61 48
REMARK H PARENT 5 61 65 68
REMARK Flexibility Score:  369.900
ROOT
ATOM      1  C   UNL     1      -7.339   3.091  -5.554  1.00  0.00     0.117 C 
ENDROOT
BRANCH   1   2
ATOM      2  N   UNL     1      -7.942   1.766  -5.406  1.00  0.00    -0.347 N 
ATOM      3  O   UNL     1      -6.007   0.533  -5.461  1.00  0.00    -0.273 OA
ATOM      4  C   UNL     1      -7.218   0.597  -5.279  1.00  0.00     0.243 C 
ATOM      5  H   UNL     1      -8.946   1.684  -5.341  1.00  0.00     0.164 HD
BRANCH   4   6
ATOM      6  C   UNL     1      -8.097  -0.659  -5.048  1.00  0.00     0.171 C 
BRANCH   6   7
ATOM      7  N   UNL     1      -8.800  -0.564  -3.759  1.00  0.00    -0.344 N 
ATOM      8  C   UNL     1      -9.056  -1.695  -3.013  1.00  0.00     0.226 C 
ATOM      9  O   UNL     1      -8.739  -2.818  -3.387  1.00  0.00    -0.275 OA
ATOM     10  H   UNL     1      -9.138   0.339  -3.449  1.00  0.00     0.164 HD
BRANCH   8  11
ATOM     11  C   UNL     1      -9.739  -1.426  -1.684  1.00  0.00     0.109 C 
ATOM     12  C   UNL     1      -9.887   0.079  -1.463  1.00  0.00     0.021 C 
BRANCH  11  13
ATOM     13  C   UNL     1     -11.055  -2.225  -1.603  1.00  0.00     0.204 C 
BRANCH  13  14
ATOM     14  N   UNL     1     -10.818  -3.661  -1.425  1.00  0.00    -0.340 N 
ATOM     15  C   UNL     1     -11.460  -4.624  -2.173  1.00  0.00     0.243 C 
ATOM     16  O   UNL     1     -12.235  -4.343  -3.086  1.00  0.00    -0.273 OA
ATOM     17  H   UNL     1     -10.308  -3.964  -0.591  1.00  0.00     0.164 HD
BRANCH  15  18
ATOM     18  C   UNL     1     -11.210  -6.067  -1.670  1.00  0.00     0.171 C 
BRANCH  18  19
ATOM     19  N   UNL     1     -12.214  -6.332  -0.641  1.00  0.00    -0.343 N 
ATOM     20  C   UNL     1     -11.861  -6.701   0.643  1.00  0.00     0.242 CG0
ATOM     21  O   UNL     1     -10.696  -6.953   0.943  1.00  0.00    -0.273 OA
ATOM     22  H   UNL     1     -13.197  -6.249  -0.872  1.00  0.00     0.164 HD
ATOM     23  G   UNL     1     -13.053  -6.859   1.610  1.00  0.00     0.000 G0
ENDBRANCH  18  19
BRANCH  18  24
ATOM     24  C   UNL     1     -11.314  -7.069  -2.827  1.00  0.00     0.038 C 
BRANCH  24  25
ATOM     25  C   UNL     1      -9.958  -7.545  -3.391  1.00  0.00    -0.015 C 
ATOM     26  C   UNL     1      -8.835  -7.470  -2.356  1.00  0.00     0.007 C 
ATOM     27  C   UNL     1      -9.587  -6.704  -4.615  1.00  0.00     0.007 C 
ENDBRANCH  24  25
ENDBRANCH  18  24
ENDBRANCH  15  18
ENDBRANCH  13  14
BRANCH  13  28
ATOM     28  C   UNL     1     -11.968  -1.771  -0.460  1.00  0.00     0.327 C 
ATOM     29  O   UNL     1     -11.626  -1.539   0.689  1.00  0.00    -0.250 OA
BRANCH  28  30
ATOM     30  O   UNL     1     -13.272  -1.751  -0.801  1.00  0.00    -0.480 OA
ATOM     31  H   UNL     1     -13.697  -1.217  -0.099  1.00  0.00     0.296 HD
ENDBRANCH  28  30
ENDBRANCH  13  28
ENDBRANCH  11  13
ENDBRANCH   8  11
ENDBRANCH   6   7
BRANCH   6  32
ATOM     32  C   UNL     1      -9.093  -0.796  -6.206  1.00  0.00     0.037 C 
BRANCH  32  33
ATOM     33  C   UNL     1      -8.394  -1.104  -7.537  1.00  0.00     0.026 C 
BRANCH  33  34
ATOM     34  C   UNL     1      -7.294  -2.156  -7.391  1.00  0.00     0.146 C 
BRANCH  34  35
ATOM     35  N   UNL     1      -6.261  -1.898  -8.385  1.00  0.00    -0.254 NA
ATOM     36  C   UNL     1      -5.035  -2.060  -8.053  1.00  0.00     0.185 C 
ATOM     37  N   UNL     1      -4.075  -1.830  -8.963  1.00  0.00    -0.370 N 
ATOM     38  N   UNL     1      -4.523  -2.448  -6.872  1.00  0.00    -0.370 N 
ATOM     39  H   UNL     1      -4.382  -1.544  -9.884  1.00  0.00     0.159 HD
ATOM     40  H   UNL     1      -3.114  -2.098  -8.838  1.00  0.00     0.159 HD
ATOM     41  H   UNL     1      -3.533  -2.403  -6.693  1.00  0.00     0.159 HD
ATOM     42  H   UNL     1      -5.129  -2.640  -6.089  1.00  0.00     0.159 HD
ENDBRANCH  34  35
ENDBRANCH  33  34
ENDBRANCH  32  33
ENDBRANCH   6  32
ENDBRANCH   4   6
ENDBRANCH   1   2
BRANCH   1  43
ATOM     43  C   UNL     1      -6.729   3.513  -4.186  1.00  0.00     0.102 C 
ATOM     44  C   UNL     1      -7.737   4.206  -3.254  1.00  0.00     0.020 C 
BRANCH  43  45
ATOM     45  C   UNL     1      -5.426   4.294  -4.383  1.00  0.00     0.225 C 
ATOM     46  O   UNL     1      -5.363   5.347  -5.011  1.00  0.00    -0.275 OA
ATOM     47  N   UNL     1      -4.293   3.691  -3.885  1.00  0.00    -0.342 N 
ATOM     48  H   UNL     1      -4.380   2.913  -3.247  1.00  0.00     0.164 HD
BRANCH  47  49
ATOM     49  C   UNL     1      -2.981   4.339  -3.969  1.00  0.00     0.192 C 
BRANCH  49  50
ATOM     50  C   UNL     1      -1.879   3.276  -3.927  1.00  0.00     0.047 C 
BRANCH  50  51
ATOM     51  C   UNL     1      -0.495   3.860  -4.240  1.00  0.00     0.103 C 
BRANCH  51  52
ATOM     52  C   UNL     1      -0.405   4.385  -5.672  1.00  0.00     0.226 C 
ATOM     53  O   UNL     1      -0.233   5.590  -5.870  1.00  0.00    -0.275 OA
BRANCH  52  54
ATOM     54  N   UNL     1      -0.450   3.422  -6.697  1.00  0.00    -0.311 N 
ATOM     55  C   UNL     1       0.499   2.300  -6.722  1.00  0.00     0.153 C 
BRANCH  54  56
ATOM     56  C   UNL     1      -1.403   3.492  -7.726  1.00  0.00     0.102 C 
ATOM     57  C   UNL     1      -2.667   3.050  -7.634  1.00  0.00     0.043 C 
BRANCH  56  58
ATOM     58  C   UNL     1      -1.067   4.139  -9.050  1.00  0.00     0.268 C 
ATOM     59  O   UNL     1      -0.955   5.349  -9.194  1.00  0.00    -0.268 OA
ATOM     60  N   UNL     1      -0.838   3.229 -10.053  1.00  0.00    -0.339 N 
ATOM     61  H   UNL     1      -0.963   2.243  -9.855  1.00  0.00     0.164 HD
BRANCH  60  62
ATOM     62  C   UNL     1      -0.438   3.638 -11.399  1.00  0.00     0.168 CG0
ATOM     63  C   UNL     1      -1.652   3.792 -12.308  1.00  0.00     0.041 C 
ATOM     64  G   UNL     1       0.551   2.606 -11.980  1.00  0.00     0.000 G0
ENDBRANCH  60  62
ENDBRANCH  56  58
ENDBRANCH  54  56
ENDBRANCH  52  54
ENDBRANCH  51  52
ENDBRANCH  50  51
ENDBRANCH  49  50
BRANCH  49  65
ATOM     65  C   UNL     1      -2.768   5.338  -2.822  1.00  0.00     0.326 C 
ATOM     66  O   UNL     1      -2.198   6.416  -2.915  1.00  0.00    -0.250 OA
BRANCH  65  67
ATOM     67  O   UNL     1      -3.219   4.920  -1.618  1.00  0.00    -0.480 OA
ATOM     68  H   UNL     1      -3.414   5.755  -1.141  1.00  0.00     0.296 HD
ENDBRANCH  65  67
ENDBRANCH  49  65
ENDBRANCH  47  49
ENDBRANCH  43  45
ENDBRANCH   1  43
BRANCH   1  69
ATOM     69  C   UNL     1      -8.401   3.972  -6.187  1.00  0.00    -0.001 C 
ATOM     70  C   UNL     1      -8.862   3.918  -7.449  1.00  0.00     0.001 C 
BRANCH  70  71
ATOM     71  C   UNL     1      -9.902   4.760  -8.042  1.00  0.00    -0.055 C 
ATOM     72  C   UNL     1      -9.668   5.280  -9.265  1.00  0.00    -0.018 C 
ATOM     73  C   UNL     1     -11.164   4.980  -7.249  1.00  0.00     0.044 C 
BRANCH  72  74
ATOM     74  C   UNL     1     -10.555   6.175 -10.118  1.00  0.00     0.038 C 
ATOM     75  C   UNL     1     -10.789   5.448 -11.447  1.00  0.00     0.015 C 
BRANCH  74  76
ATOM     76  C   UNL     1      -9.880   7.572 -10.248  1.00  0.00     0.128 C 
BRANCH  76  77
ATOM     77  O   UNL     1      -9.443   7.782 -11.602  1.00  0.00    -0.381 OA
ATOM     78  C   UNL     1      -8.711   8.986 -11.785  1.00  0.00     0.195 C 
ENDBRANCH  76  77
BRANCH  76  79
ATOM     79  C   UNL     1     -10.742   8.741  -9.708  1.00  0.00     0.068 C 
BRANCH  79  80
ATOM     80  C   UNL     1     -11.351   8.594  -8.335  1.00  0.00    -0.045 A 
ATOM     81  C   UNL     1     -10.560   8.670  -7.181  1.00  0.00     0.004 A 
ATOM     82  C   UNL     1     -12.726   8.349  -8.194  1.00  0.00     0.004 A 
ATOM     83  C   UNL     1     -11.129   8.519  -5.915  1.00  0.00     0.000 A 
ATOM     84  C   UNL     1     -13.294   8.198  -6.927  1.00  0.00     0.000 A 
ATOM     85  C   UNL     1     -12.496   8.284  -5.789  1.00  0.00     0.000 A 
ENDBRANCH  79  80
ENDBRANCH  76  79
ENDBRANCH  74  76
ENDBRANCH  72  74
ENDBRANCH  70  71
ENDBRANCH   1  69
TORSDOF 17
ENDMDL
MODEL 4
REMARK VINA RESULT:    -7.312      4.103     12.724
REMARK INTER + INTRA:         -28.153
REMARK INTER:                 -20.290
REMARK INTRA:                  -7.863
REMARK UNBOUND:                -6.307
REMARK SMILES C=C1C(=O)N[C@H](C)C(=O)N[C@@H](CC(C)C)C(=O)N[C@@H](C(=O)O)[C@H](C)C(=O)N[C@@H](CCCN=C(N)N)C(=O)N[C@@H](/C=C/C(C)=C/[C@H](C)[C@H](Cc2ccccc2)OC)[C@H](C)C(=O)N[C@@H](C(=O)O)CCC(=O)N1C
REMARK SMILES IDX 39 1 38 2 37 3 36 4 28 6 27 7 25 8 26 9 23 11 24 12 19 13
REMARK SMILES IDX 18 14 16 15 17 16 11 18 10 19 8 20 9 21 12 24 13 25 14 26
REMARK SMILES IDX 15 27 20 28 21 29 22 30 29 32 30 33 31 34 32 35 33 36 34 37
REMARK SMILES IDX 35 38 57 43 58 44 59 45 60 46 61 47 62 49 66 50 67 51 68 52
REMARK SMILES IDX 69 53 70 54 71 55 2 56 1 57 3 58 4 59 5 60 6 62 7 63 63 65
REMARK SMILES IDX 64 66 65 67 40 69 41 70 42 71 44 72 43 73 45 74 46 75 47 76
REMARK SMILES IDX 55 77 56 78 48 79 49 80 50 81 54 82 51 83 53 84 52 85
REMARK H PARENT 38 5 27 10 18 17 10 22 22 31 34 39 34 40 35 41 35 42 61 48
REMARK H PARENT 5 61 65 68
REMARK Flexibility Score:  369.900
ROOT
ATOM      1  C   UNL     1      -7.477   1.731  -8.199  1.00  0.00     0.117 C 
ENDROOT
BRANCH   1   2
ATOM      2  N   UNL     1      -7.790   2.645  -7.099  1.00  0.00    -0.347 N 
ATOM      3  O   UNL     1      -8.845   4.269  -8.333  1.00  0.00    -0.273 OA
ATOM      4  C   UNL     1      -8.533   3.801  -7.242  1.00  0.00     0.243 C 
ATOM      5  H   UNL     1      -7.498   2.410  -6.163  1.00  0.00     0.164 HD
BRANCH   4   6
ATOM      6  C   UNL     1      -8.794   4.544  -5.907  1.00  0.00     0.171 C 
BRANCH   6   7
ATOM      7  N   UNL     1     -10.217   4.898  -5.785  1.00  0.00    -0.344 N 
ATOM      8  C   UNL     1     -10.610   6.217  -5.721  1.00  0.00     0.226 C 
ATOM      9  O   UNL     1      -9.811   7.145  -5.739  1.00  0.00    -0.275 OA
ATOM     10  H   UNL     1     -10.901   4.157  -5.699  1.00  0.00     0.164 HD
BRANCH   8  11
ATOM     11  C   UNL     1     -12.114   6.419  -5.652  1.00  0.00     0.109 C 
ATOM     12  C   UNL     1     -12.447   7.566  -4.698  1.00  0.00     0.021 C 
BRANCH  11  13
ATOM     13  C   UNL     1     -12.685   6.573  -7.076  1.00  0.00     0.204 C 
BRANCH  13  14
ATOM     14  N   UNL     1     -11.719   7.184  -7.995  1.00  0.00    -0.340 N 
ATOM     15  C   UNL     1     -12.021   8.274  -8.781  1.00  0.00     0.243 C 
ATOM     16  O   UNL     1     -13.105   8.851  -8.723  1.00  0.00    -0.273 OA
ATOM     17  H   UNL     1     -10.860   6.667  -8.202  1.00  0.00     0.164 HD
BRANCH  15  18
ATOM     18  C   UNL     1     -10.921   8.613  -9.818  1.00  0.00     0.171 C 
BRANCH  18  19
ATOM     19  N   UNL     1     -10.334   9.886  -9.405  1.00  0.00    -0.343 N 
ATOM     20  C   UNL     1     -10.338  10.993 -10.232  1.00  0.00     0.242 CG0
ATOM     21  O   UNL     1     -10.713  10.922 -11.400  1.00  0.00    -0.273 OA
ATOM     22  H   UNL     1      -9.906   9.963  -8.489  1.00  0.00     0.164 HD
ATOM     23  G   UNL     1      -9.744  12.266  -9.594  1.00  0.00     0.000 G0
ENDBRANCH  18  19
BRANCH  18  24
ATOM     24  C   UNL     1      -9.868   7.500  -9.873  1.00  0.00     0.038 C 
BRANCH  24  25
ATOM     25  C   UNL     1      -9.372   7.151 -11.292  1.00  0.00    -0.015 C 
ATOM     26  C   UNL     1      -8.626   5.818 -11.340  1.00  0.00     0.007 C 
ATOM     27  C   UNL     1      -8.463   8.269 -11.809  1.00  0.00     0.007 C 
ENDBRANCH  24  25
ENDBRANCH  18  24
ENDBRANCH  15  18
ENDBRANCH  13  14
BRANCH  13  28
ATOM     28  C   UNL     1     -13.124   5.244  -7.697  1.00  0.00     0.327 C 
ATOM     29  O   UNL     1     -13.574   5.085  -8.822  1.00  0.00    -0.250 OA
BRANCH  28  30
ATOM     30  O   UNL     1     -13.082   4.214  -6.828  1.00  0.00    -0.480 OA
ATOM     31  H   UNL     1     -12.863   3.438  -7.383  1.00  0.00     0.296 HD
ENDBRANCH  28  30
ENDBRANCH  13  28
ENDBRANCH  11  13
ENDBRANCH   8  11
ENDBRANCH   6   7
BRANCH   6  32
ATOM     32  C   UNL     1      -8.349   3.654  -4.741  1.00  0.00     0.037 C 
BRANCH  32  33
ATOM     33  C   UNL     1      -7.932   4.474  -3.513  1.00  0.00     0.026 C 
BRANCH  33  34
ATOM     34  C   UNL     1      -8.903   4.310  -2.343  1.00  0.00     0.146 C 
BRANCH  34  35
ATOM     35  N   UNL     1     -10.186   3.852  -2.857  1.00  0.00    -0.254 NA
ATOM     36  C   UNL     1     -11.251   4.450  -2.473  1.00  0.00     0.185 C 
ATOM     37  N   UNL     1     -12.438   4.039  -2.945  1.00  0.00    -0.370 N 
ATOM     38  N   UNL     1     -11.379   5.486  -1.625  1.00  0.00    -0.370 N 
ATOM     39  H   UNL     1     -12.424   3.268  -3.600  1.00  0.00     0.159 HD
ATOM     40  H   UNL     1     -13.292   4.559  -2.832  1.00  0.00     0.159 HD
ATOM     41  H   UNL     1     -12.284   5.779  -1.294  1.00  0.00     0.159 HD
ATOM     42  H   UNL     1     -10.569   5.888  -1.181  1.00  0.00     0.159 HD
ENDBRANCH  34  35
ENDBRANCH  33  34
ENDBRANCH  32  33
ENDBRANCH   6  32
ENDBRANCH   4   6
ENDBRANCH   1   2
BRANCH   1  43
ATOM     43  C   UNL     1      -8.215   0.384  -7.948  1.00  0.00     0.102 C 
ATOM     44  C   UNL     1      -9.417   0.163  -8.882  1.00  0.00     0.020 C 
BRANCH  43  45
ATOM     45  C   UNL     1      -8.540   0.203  -6.463  1.00  0.00     0.225 C 
ATOM     46  O   UNL     1      -7.689  -0.056  -5.617  1.00  0.00    -0.275 OA
ATOM     47  N   UNL     1      -9.876   0.256  -6.138  1.00  0.00    -0.342 N 
ATOM     48  H   UNL     1     -10.540   0.617  -6.808  1.00  0.00     0.164 HD
BRANCH  47  49
ATOM     49  C   UNL     1     -10.332   0.134  -4.750  1.00  0.00     0.192 C 
BRANCH  49  50
ATOM     50  C   UNL     1     -10.746  -1.313  -4.469  1.00  0.00     0.047 C 
BRANCH  50  51
ATOM     51  C   UNL     1     -10.182  -1.832  -3.140  1.00  0.00     0.103 C 
BRANCH  51  52
ATOM     52  C   UNL     1      -9.383  -3.121  -3.320  1.00  0.00     0.226 C 
ATOM     53  O   UNL     1      -8.169  -3.063  -3.524  1.00  0.00    -0.275 OA
BRANCH  52  54
ATOM     54  N   UNL     1     -10.093  -4.326  -3.164  1.00  0.00    -0.311 N 
ATOM     55  C   UNL     1     -11.459  -4.334  -2.622  1.00  0.00     0.153 C 
BRANCH  54  56
ATOM     56  C   UNL     1      -9.529  -5.561  -3.524  1.00  0.00     0.102 C 
ATOM     57  C   UNL     1      -9.221  -5.929  -4.778  1.00  0.00     0.043 C 
BRANCH  56  58
ATOM     58  C   UNL     1      -9.172  -6.586  -2.473  1.00  0.00     0.268 C 
ATOM     59  O   UNL     1      -9.726  -7.673  -2.383  1.00  0.00    -0.268 OA
ATOM     60  N   UNL     1      -8.122  -6.198  -1.674  1.00  0.00    -0.339 N 
ATOM     61  H   UNL     1      -7.725  -5.276  -1.806  1.00  0.00     0.164 HD
BRANCH  60  62
ATOM     62  C   UNL     1      -7.574  -7.066  -0.633  1.00  0.00     0.168 CG0
ATOM     63  C   UNL     1      -8.284  -6.840   0.696  1.00  0.00     0.041 C 
ATOM     64  G   UNL     1      -6.059  -6.811  -0.493  1.00  0.00     0.000 G0
ENDBRANCH  60  62
ENDBRANCH  56  58
ENDBRANCH  54  56
ENDBRANCH  52  54
ENDBRANCH  51  52
ENDBRANCH  50  51
ENDBRANCH  49  50
BRANCH  49  65
ATOM     65  C   UNL     1     -11.517   1.068  -4.459  1.00  0.00     0.326 C 
ATOM     66  O   UNL     1     -12.405   0.858  -3.645  1.00  0.00    -0.250 OA
BRANCH  65  67
ATOM     67  O   UNL     1     -11.566   2.175  -5.233  1.00  0.00    -0.480 OA
ATOM     68  H   UNL     1     -12.310   2.690  -4.853  1.00  0.00     0.296 HD
ENDBRANCH  65  67
ENDBRANCH  49  65
ENDBRANCH  47  49
ENDBRANCH  43  45
ENDBRANCH   1  43
BRANCH   1  69
ATOM     69  C   UNL     1      -5.965   1.726  -8.328  1.00  0.00    -0.001 C 
ATOM     70  C   UNL     1      -5.060   1.637  -7.337  1.00  0.00     0.001 C 
BRANCH  70  71
ATOM     71  C   UNL     1      -3.603   1.611  -7.476  1.00  0.00    -0.055 C 
ATOM     72  C   UNL     1      -3.056   2.323  -8.483  1.00  0.00    -0.018 C 
ATOM     73  C   UNL     1      -2.817   0.799  -6.480  1.00  0.00     0.044 C 
BRANCH  72  74
ATOM     74  C   UNL     1      -1.591   2.484  -8.865  1.00  0.00     0.038 C 
ATOM     75  C   UNL     1      -1.124   1.142  -9.441  1.00  0.00     0.015 C 
BRANCH  74  76
ATOM     76  C   UNL     1      -0.799   2.970  -7.616  1.00  0.00     0.128 C 
BRANCH  76  77
ATOM     77  O   UNL     1       0.569   2.536  -7.703  1.00  0.00    -0.381 OA
ATOM     78  C   UNL     1       1.403   3.422  -8.437  1.00  0.00     0.195 C 
ENDBRANCH  76  77
BRANCH  76  79
ATOM     79  C   UNL     1      -0.930   4.489  -7.339  1.00  0.00     0.068 C 
BRANCH  79  80
ATOM     80  C   UNL     1      -1.511   4.919  -6.014  1.00  0.00    -0.045 A 
ATOM     81  C   UNL     1      -0.752   5.662  -5.099  1.00  0.00     0.004 A 
ATOM     82  C   UNL     1      -2.820   4.555  -5.665  1.00  0.00     0.004 A 
ATOM     83  C   UNL     1      -1.292   6.043  -3.870  1.00  0.00     0.000 A 
ATOM     84  C   UNL     1      -3.359   4.937  -4.434  1.00  0.00     0.000 A 
ATOM     85  C   UNL     1      -2.596   5.682  -3.538  1.00  0.00     0.000 A 
ENDBRANCH  79  80
ENDBRANCH  76  79
ENDBRANCH  74  76
ENDBRANCH  72  74
ENDBRANCH  70  71
ENDBRANCH   1  69
TORSDOF 17
ENDMDL
MODEL 5
REMARK VINA RESULT:    -7.279      3.396      7.939
REMARK INTER + INTRA:         -28.053
REMARK INTER:                 -20.908
REMARK INTRA:                  -7.145
REMARK UNBOUND:                -6.307
REMARK SMILES C=C1C(=O)N[C@H](C)C(=O)N[C@@H](CC(C)C)C(=O)N[C@@H](C(=O)O)[C@H](C)C(=O)N[C@@H](CCCN=C(N)N)C(=O)N[C@@H](/C=C/C(C)=C/[C@H](C)[C@H](Cc2ccccc2)OC)[C@H](C)C(=O)N[C@@H](C(=O)O)CCC(=O)N1C
REMARK SMILES IDX 39 1 38 2 37 3 36 4 28 6 27 7 25 8 26 9 23 11 24 12 19 13
REMARK SMILES IDX 18 14 16 15 17 16 11 18 10 19 8 20 9 21 12 24 13 25 14 26
REMARK SMILES IDX 15 27 20 28 21 29 22 30 29 32 30 33 31 34 32 35 33 36 34 37
REMARK SMILES IDX 35 38 57 43 58 44 59 45 60 46 61 47 62 49 66 50 67 51 68 52
REMARK SMILES IDX 69 53 70 54 71 55 2 56 1 57 3 58 4 59 5 60 6 62 7 63 63 65
REMARK SMILES IDX 64 66 65 67 40 69 41 70 42 71 44 72 43 73 45 74 46 75 47 76
REMARK SMILES IDX 55 77 56 78 48 79 49 80 50 81 54 82 51 83 53 84 52 85
REMARK H PARENT 38 5 27 10 18 17 10 22 22 31 34 39 34 40 35 41 35 42 61 48
REMARK H PARENT 5 61 65 68
REMARK Flexibility Score:  369.900
ROOT
ATOM      1  C   UNL     1      -5.224   3.518  -3.922  1.00  0.00     0.117 C 
ENDROOT
BRANCH   1   2
ATOM      2  N   UNL     1      -5.870   2.382  -4.581  1.00  0.00    -0.347 N 
ATOM      3  O   UNL     1      -6.209   1.089  -2.715  1.00  0.00    -0.273 OA
ATOM      4  C   UNL     1      -6.395   1.295  -3.909  1.00  0.00     0.243 C 
ATOM      5  H   UNL     1      -5.994   2.397  -5.582  1.00  0.00     0.164 HD
BRANCH   4   6
ATOM      6  C   UNL     1      -7.101   0.272  -4.835  1.00  0.00     0.171 C 
BRANCH   6   7
ATOM      7  N   UNL     1      -8.296  -0.279  -4.176  1.00  0.00    -0.344 N 
ATOM      8  C   UNL     1      -8.325  -1.592  -3.759  1.00  0.00     0.226 C 
ATOM      9  O   UNL     1      -7.387  -2.361  -3.932  1.00  0.00    -0.275 OA
ATOM     10  H   UNL     1      -9.115   0.306  -4.076  1.00  0.00     0.164 HD
BRANCH   8  11
ATOM     11  C   UNL     1      -9.605  -1.994  -3.048  1.00  0.00     0.109 C 
ATOM     12  C   UNL     1     -10.782  -1.178  -3.582  1.00  0.00     0.021 C 
BRANCH  11  13
ATOM     13  C   UNL     1      -9.788  -3.523  -3.128  1.00  0.00     0.204 C 
BRANCH  13  14
ATOM     14  N   UNL     1      -9.762  -4.152  -1.804  1.00  0.00    -0.340 N 
ATOM     15  C   UNL     1      -9.244  -5.409  -1.582  1.00  0.00     0.243 C 
ATOM     16  O   UNL     1      -8.710  -6.069  -2.472  1.00  0.00    -0.273 OA
ATOM     17  H   UNL     1     -10.321  -3.726  -1.059  1.00  0.00     0.164 HD
BRANCH  15  18
ATOM     18  C   UNL     1      -9.513  -5.947  -0.155  1.00  0.00     0.171 C 
BRANCH  18  19
ATOM     19  N   UNL     1      -8.226  -5.957   0.538  1.00  0.00    -0.343 N 
ATOM     20  C   UNL     1      -7.756  -7.084   1.185  1.00  0.00     0.242 CG0
ATOM     21  O   UNL     1      -8.455  -8.086   1.321  1.00  0.00    -0.273 OA
ATOM     22  H   UNL     1      -7.662  -5.115   0.552  1.00  0.00     0.164 HD
ATOM     23  G   UNL     1      -6.346  -6.929   1.790  1.00  0.00     0.000 G0
ENDBRANCH  18  19
BRANCH  18  24
ATOM     24  C   UNL     1     -10.536  -5.065   0.572  1.00  0.00     0.038 C 
BRANCH  24  25
ATOM     25  C   UNL     1      -9.950  -4.204   1.711  1.00  0.00    -0.015 C 
ATOM     26  C   UNL     1     -10.414  -4.668   3.092  1.00  0.00     0.007 C 
ATOM     27  C   UNL     1     -10.338  -2.739   1.502  1.00  0.00     0.007 C 
ENDBRANCH  24  25
ENDBRANCH  18  24
ENDBRANCH  15  18
ENDBRANCH  13  14
BRANCH  13  28
ATOM     28  C   UNL     1     -11.098  -3.940  -3.803  1.00  0.00     0.327 C 
ATOM     29  O   UNL     1     -11.285  -4.067  -5.004  1.00  0.00    -0.250 OA
BRANCH  28  30
ATOM     30  O   UNL     1     -12.125  -4.057  -2.937  1.00  0.00    -0.480 OA
ATOM     31  H   UNL     1     -12.003  -4.942  -2.535  1.00  0.00     0.296 HD
ENDBRANCH  28  30
ENDBRANCH  13  28
ENDBRANCH  11  13
ENDBRANCH   8  11
ENDBRANCH   6   7
BRANCH   6  32
ATOM     32  C   UNL     1      -7.472   0.960  -6.154  1.00  0.00     0.037 C 
BRANCH  32  33
ATOM     33  C   UNL     1      -8.812   0.460  -6.711  1.00  0.00     0.026 C 
BRANCH  33  34
ATOM     34  C   UNL     1      -8.634  -0.566  -7.832  1.00  0.00     0.146 C 
BRANCH  34  35
ATOM     35  N   UNL     1      -8.187  -1.824  -7.250  1.00  0.00    -0.254 NA
ATOM     36  C   UNL     1      -9.033  -2.778  -7.125  1.00  0.00     0.185 C 
ATOM     37  N   UNL     1      -8.631  -3.943  -6.595  1.00  0.00    -0.370 N 
ATOM     38  N   UNL     1     -10.335  -2.801  -7.461  1.00  0.00    -0.370 N 
ATOM     39  H   UNL     1      -7.658  -4.008  -6.326  1.00  0.00     0.159 HD
ATOM     40  H   UNL     1      -9.180  -4.786  -6.624  1.00  0.00     0.159 HD
ATOM     41  H   UNL     1     -10.931  -3.565  -7.185  1.00  0.00     0.159 HD
ATOM     42  H   UNL     1     -10.777  -1.986  -7.856  1.00  0.00     0.159 HD
ENDBRANCH  34  35
ENDBRANCH  33  34
ENDBRANCH  32  33
ENDBRANCH   6  32
ENDBRANCH   4   6
ENDBRANCH   1   2
BRANCH   1  43
ATOM     43  C   UNL     1      -6.218   4.715  -3.910  1.00  0.00     0.102 C 
ATOM     44  C   UNL     1      -6.691   5.104  -2.499  1.00  0.00     0.020 C 
BRANCH  43  45
ATOM     45  C   UNL     1      -7.358   4.492  -4.908  1.00  0.00     0.225 C 
ATOM     46  O   UNL     1      -7.176   4.348  -6.114  1.00  0.00    -0.275 OA
ATOM     47  N   UNL     1      -8.628   4.557  -4.381  1.00  0.00    -0.342 N 
ATOM     48  H   UNL     1      -8.756   4.523  -3.380  1.00  0.00     0.164 HD
BRANCH  47  49
ATOM     49  C   UNL     1      -9.814   4.328  -5.211  1.00  0.00     0.192 C 
BRANCH  49  50
ATOM     50  C   UNL     1     -10.738   5.546  -5.135  1.00  0.00     0.047 C 
BRANCH  50  51
ATOM     51  C   UNL     1     -10.094   6.804  -5.734  1.00  0.00     0.103 C 
BRANCH  51  52
ATOM     52  C   UNL     1     -11.137   7.786  -6.264  1.00  0.00     0.226 C 
ATOM     53  O   UNL     1     -11.079   8.973  -5.938  1.00  0.00    -0.275 OA
BRANCH  52  54
ATOM     54  N   UNL     1     -12.078   7.270  -7.174  1.00  0.00    -0.311 N 
ATOM     55  C   UNL     1     -13.481   7.075  -6.784  1.00  0.00     0.153 C 
BRANCH  54  56
ATOM     56  C   UNL     1     -11.715   6.928  -8.488  1.00  0.00     0.102 C 
ATOM     57  C   UNL     1     -11.432   5.684  -8.908  1.00  0.00     0.043 C 
BRANCH  56  58
ATOM     58  C   UNL     1     -11.659   7.976  -9.574  1.00  0.00     0.268 C 
ATOM     59  O   UNL     1     -12.209   9.065  -9.482  1.00  0.00    -0.268 OA
ATOM     60  N   UNL     1     -10.876   7.607 -10.641  1.00  0.00    -0.339 N 
ATOM     61  H   UNL     1     -10.463   6.682 -10.646  1.00  0.00     0.164 HD
BRANCH  60  62
ATOM     62  C   UNL     1     -10.634   8.497 -11.775  1.00  0.00     0.168 CG0
ATOM     63  C   UNL     1      -9.214   9.048 -11.746  1.00  0.00     0.041 C 
ATOM     64  G   UNL     1     -11.665   9.645 -11.760  1.00  0.00     0.000 G0
ENDBRANCH  60  62
ENDBRANCH  56  58
ENDBRANCH  54  56
ENDBRANCH  52  54
ENDBRANCH  51  52
ENDBRANCH  50  51
ENDBRANCH  49  50
BRANCH  49  65
ATOM     65  C   UNL     1     -10.585   3.076  -4.765  1.00  0.00     0.326 C 
ATOM     66  O   UNL     1     -11.717   2.775  -5.116  1.00  0.00    -0.250 OA
BRANCH  65  67
ATOM     67  O   UNL     1      -9.935   2.304  -3.866  1.00  0.00    -0.480 OA
ATOM     68  H   UNL     1     -10.647   1.753  -3.476  1.00  0.00     0.296 HD
ENDBRANCH  65  67
ENDBRANCH  49  65
ENDBRANCH  47  49
ENDBRANCH  43  45
ENDBRANCH   1  43
BRANCH   1  69
ATOM     69  C   UNL     1      -3.876   3.690  -4.598  1.00  0.00    -0.001 C 
ATOM     70  C   UNL     1      -3.248   4.844  -4.886  1.00  0.00     0.001 C 
BRANCH  70  71
ATOM     71  C   UNL     1      -1.937   4.997  -5.521  1.00  0.00    -0.055 C 
ATOM     72  C   UNL     1      -1.790   4.529  -6.778  1.00  0.00    -0.018 C 
ATOM     73  C   UNL     1      -0.849   5.674  -4.729  1.00  0.00     0.044 C 
BRANCH  72  74
ATOM     74  C   UNL     1      -0.561   4.552  -7.676  1.00  0.00     0.038 C 
ATOM     75  C   UNL     1      -0.961   5.269  -8.972  1.00  0.00     0.015 C 
BRANCH  74  76
ATOM     76  C   UNL     1      -0.054   3.093  -7.868  1.00  0.00     0.128 C 
BRANCH  76  77
ATOM     77  O   UNL     1       1.380   3.081  -7.968  1.00  0.00    -0.381 OA
ATOM     78  C   UNL     1       1.860   3.048  -9.305  1.00  0.00     0.195 C 
ENDBRANCH  76  77
BRANCH  76  79
ATOM     79  C   UNL     1      -0.589   2.096  -6.809  1.00  0.00     0.068 C 
BRANCH  79  80
ATOM     80  C   UNL     1      -1.645   1.107  -7.240  1.00  0.00    -0.045 A 
ATOM     81  C   UNL     1      -1.337  -0.250  -7.408  1.00  0.00     0.004 A 
ATOM     82  C   UNL     1      -2.953   1.539  -7.507  1.00  0.00     0.004 A 
ATOM     83  C   UNL     1      -2.316  -1.156  -7.820  1.00  0.00     0.000 A 
ATOM     84  C   UNL     1      -3.931   0.632  -7.920  1.00  0.00     0.000 A 
ATOM     85  C   UNL     1      -3.613  -0.715  -8.075  1.00  0.00     0.000 A 
ENDBRANCH  79  80
ENDBRANCH  76  79
ENDBRANCH  74  76
ENDBRANCH  72  74
ENDBRANCH  70  71
ENDBRANCH   1  69
TORSDOF 17
ENDMDL
MODEL 6
REMARK VINA RESULT:    -7.189      4.892      8.203
REMARK INTER + INTRA:         -27.787
REMARK INTER:                 -19.892
REMARK INTRA:                  -7.895
REMARK UNBOUND:                -6.307
REMARK SMILES C=C1C(=O)N[C@H](C)C(=O)N[C@@H](CC(C)C)C(=O)N[C@@H](C(=O)O)[C@H](C)C(=O)N[C@@H](CCCN=C(N)N)C(=O)N[C@@H](/C=C/C(C)=C/[C@H](C)[C@H](Cc2ccccc2)OC)[C@H](C)C(=O)N[C@@H](C(=O)O)CCC(=O)N1C
REMARK SMILES IDX 39 1 38 2 37 3 36 4 28 6 27 7 25 8 26 9 23 11 24 12 19 13
REMARK SMILES IDX 18 14 16 15 17 16 11 18 10 19 8 20 9 21 12 24 13 25 14 26
REMARK SMILES IDX 15 27 20 28 21 29 22 30 29 32 30 33 31 34 32 35 33 36 34 37
REMARK SMILES IDX 35 38 57 43 58 44 59 45 60 46 61 47 62 49 66 50 67 51 68 52
REMARK SMILES IDX 69 53 70 54 71 55 2 56 1 57 3 58 4 59 5 60 6 62 7 63 63 65
REMARK SMILES IDX 64 66 65 67 40 69 41 70 42 71 44 72 43 73 45 74 46 75 47 76
REMARK SMILES IDX 55 77 56 78 48 79 49 80 50 81 54 82 51 83 53 84 52 85
REMARK H PARENT 38 5 27 10 18 17 10 22 22 31 34 39 34 40 35 41 35 42 61 48
REMARK H PARENT 5 61 65 68
REMARK Flexibility Score:  369.900
ROOT
ATOM      1  C   UNL     1      -7.330   2.586  -6.484  1.00  0.00     0.117 C 
ENDROOT
BRANCH   1   2
ATOM      2  N   UNL     1      -8.144   2.736  -5.277  1.00  0.00    -0.347 N 
ATOM      3  O   UNL     1      -8.216   0.522  -4.672  1.00  0.00    -0.273 OA
ATOM      4  C   UNL     1      -8.446   1.699  -4.415  1.00  0.00     0.243 C 
ATOM      5  H   UNL     1      -8.474   3.652  -5.014  1.00  0.00     0.164 HD
BRANCH   4   6
ATOM      6  C   UNL     1      -9.250   2.142  -3.167  1.00  0.00     0.171 C 
BRANCH   6   7
ATOM      7  N   UNL     1     -10.320   3.078  -3.549  1.00  0.00    -0.344 N 
ATOM      8  C   UNL     1     -10.181   4.432  -3.329  1.00  0.00     0.226 C 
ATOM      9  O   UNL     1      -9.191   4.915  -2.793  1.00  0.00    -0.275 OA
ATOM     10  H   UNL     1     -11.181   2.709  -3.932  1.00  0.00     0.164 HD
BRANCH   8  11
ATOM     11  C   UNL     1     -11.345   5.269  -3.828  1.00  0.00     0.109 C 
ATOM     12  C   UNL     1     -11.730   4.844  -5.245  1.00  0.00     0.021 C 
BRANCH  11  13
ATOM     13  C   UNL     1     -12.496   5.225  -2.803  1.00  0.00     0.204 C 
BRANCH  13  14
ATOM     14  N   UNL     1     -13.469   4.172  -3.111  1.00  0.00    -0.340 N 
ATOM     15  C   UNL     1     -14.784   4.437  -3.428  1.00  0.00     0.243 C 
ATOM     16  O   UNL     1     -15.219   5.582  -3.535  1.00  0.00    -0.273 OA
ATOM     17  H   UNL     1     -13.215   3.205  -2.893  1.00  0.00     0.164 HD
BRANCH  15  18
ATOM     18  C   UNL     1     -15.669   3.169  -3.508  1.00  0.00     0.171 C 
BRANCH  18  19
ATOM     19  N   UNL     1     -17.051   3.612  -3.335  1.00  0.00    -0.343 N 
ATOM     20  C   UNL     1     -17.991   2.831  -2.690  1.00  0.00     0.242 CG0
ATOM     21  O   UNL     1     -17.744   1.676  -2.350  1.00  0.00    -0.273 OA
ATOM     22  H   UNL     1     -17.334   4.513  -3.702  1.00  0.00     0.164 HD
ATOM     23  G   UNL     1     -19.373   3.498  -2.535  1.00  0.00     0.000 G0
ENDBRANCH  18  19
BRANCH  18  24
ATOM     24  C   UNL     1     -15.471   2.455  -4.850  1.00  0.00     0.038 C 
BRANCH  24  25
ATOM     25  C   UNL     1     -15.859   3.290  -6.088  1.00  0.00    -0.015 C 
ATOM     26  C   UNL     1     -17.082   2.728  -6.814  1.00  0.00     0.007 C 
ATOM     27  C   UNL     1     -14.673   3.359  -7.054  1.00  0.00     0.007 C 
ENDBRANCH  24  25
ENDBRANCH  18  24
ENDBRANCH  15  18
ENDBRANCH  13  14
BRANCH  13  28
ATOM     28  C   UNL     1     -12.017   4.995  -1.367  1.00  0.00     0.327 C 
ATOM     29  O   UNL     1     -12.274   4.029  -0.665  1.00  0.00    -0.250 OA
BRANCH  28  30
ATOM     30  O   UNL     1     -11.343   6.047  -0.859  1.00  0.00    -0.480 OA
ATOM     31  H   UNL     1     -10.539   6.109  -1.416  1.00  0.00     0.296 HD
ENDBRANCH  28  30
ENDBRANCH  13  28
ENDBRANCH  11  13
ENDBRANCH   8  11
ENDBRANCH   6   7
BRANCH   6  32
ATOM     32  C   UNL     1      -9.830   0.903  -2.475  1.00  0.00     0.037 C 
BRANCH  32  33
ATOM     33  C   UNL     1      -9.434   0.828  -0.994  1.00  0.00     0.026 C 
BRANCH  33  34
ATOM     34  C   UNL     1     -10.647   0.857  -0.063  1.00  0.00     0.146 C 
BRANCH  34  35
ATOM     35  N   UNL     1     -10.558  -0.266   0.860  1.00  0.00    -0.254 NA
ATOM     36  C   UNL     1     -10.045  -0.070   2.018  1.00  0.00     0.185 C 
ATOM     37  N   UNL     1      -9.962  -1.097   2.878  1.00  0.00    -0.370 N 
ATOM     38  N   UNL     1      -9.548   1.064   2.541  1.00  0.00    -0.370 N 
ATOM     39  H   UNL     1     -10.327  -1.986   2.561  1.00  0.00     0.159 HD
ATOM     40  H   UNL     1      -9.738  -0.990   3.853  1.00  0.00     0.159 HD
ATOM     41  H   UNL     1      -9.045   1.059   3.413  1.00  0.00     0.159 HD
ATOM     42  H   UNL     1      -9.531   1.914   1.999  1.00  0.00     0.159 HD
ENDBRANCH  34  35
ENDBRANCH  33  34
ENDBRANCH  32  33
ENDBRANCH   6  32
ENDBRANCH   4   6
ENDBRANCH   1   2
BRANCH   1  43
ATOM     43  C   UNL     1      -5.887   3.077  -6.172  1.00  0.00     0.102 C 
ATOM     44  C   UNL     1      -4.900   1.934  -5.882  1.00  0.00     0.020 C 
BRANCH  43  45
ATOM     45  C   UNL     1      -5.898   4.174  -5.103  1.00  0.00     0.225 C 
ATOM     46  O   UNL     1      -6.464   5.253  -5.255  1.00  0.00    -0.275 OA
ATOM     47  N   UNL     1      -5.148   3.914  -3.979  1.00  0.00    -0.342 N 
ATOM     48  H   UNL     1      -4.819   2.975  -3.804  1.00  0.00     0.164 HD
BRANCH  47  49
ATOM     49  C   UNL     1      -5.094   4.857  -2.858  1.00  0.00     0.192 C 
BRANCH  49  50
ATOM     50  C   UNL     1      -3.668   4.919  -2.306  1.00  0.00     0.047 C 
BRANCH  50  51
ATOM     51  C   UNL     1      -2.681   5.528  -3.311  1.00  0.00     0.103 C 
BRANCH  51  52
ATOM     52  C   UNL     1      -1.934   4.456  -4.102  1.00  0.00     0.226 C 
ATOM     53  O   UNL     1      -2.105   3.266  -3.829  1.00  0.00    -0.275 OA
BRANCH  52  54
ATOM     54  N   UNL     1      -1.136   4.907  -5.170  1.00  0.00    -0.311 N 
ATOM     55  C   UNL     1      -0.221   6.044  -5.003  1.00  0.00     0.153 C 
BRANCH  54  56
ATOM     56  C   UNL     1      -1.179   4.286  -6.430  1.00  0.00     0.102 C 
ATOM     57  C   UNL     1      -2.235   4.304  -7.260  1.00  0.00     0.043 C 
BRANCH  56  58
ATOM     58  C   UNL     1       0.028   3.562  -6.979  1.00  0.00     0.268 C 
ATOM     59  O   UNL     1       0.624   2.690  -6.361  1.00  0.00    -0.268 OA
ATOM     60  N   UNL     1       0.345   3.938  -8.262  1.00  0.00    -0.339 N 
ATOM     61  H   UNL     1      -0.192   4.676  -8.701  1.00  0.00     0.164 HD
BRANCH  60  62
ATOM     62  C   UNL     1       1.441   3.318  -9.007  1.00  0.00     0.168 CG0
ATOM     63  C   UNL     1       0.910   2.469 -10.155  1.00  0.00     0.041 C 
ATOM     64  G   UNL     1       2.300   2.466  -8.050  1.00  0.00     0.000 G0
ENDBRANCH  60  62
ENDBRANCH  56  58
ENDBRANCH  54  56
ENDBRANCH  52  54
ENDBRANCH  51  52
ENDBRANCH  50  51
ENDBRANCH  49  50
BRANCH  49  65
ATOM     65  C   UNL     1      -6.059   4.454  -1.732  1.00  0.00     0.326 C 
ATOM     66  O   UNL     1      -6.213   3.320  -1.300  1.00  0.00    -0.250 OA
BRANCH  65  67
ATOM     67  O   UNL     1      -6.816   5.463  -1.249  1.00  0.00    -0.480 OA
ATOM     68  H   UNL     1      -7.731   5.202  -1.490  1.00  0.00     0.296 HD
ENDBRANCH  65  67
ENDBRANCH  49  65
ENDBRANCH  47  49
ENDBRANCH  43  45
ENDBRANCH   1  43
BRANCH   1  69
ATOM     69  C   UNL     1      -8.106   3.254  -7.605  1.00  0.00    -0.001 C 
ATOM     70  C   UNL     1      -9.140   4.105  -7.488  1.00  0.00     0.001 C 
BRANCH  70  71
ATOM     71  C   UNL     1      -9.868   4.760  -8.576  1.00  0.00    -0.055 C 
ATOM     72  C   UNL     1      -9.211   5.694  -9.297  1.00  0.00    -0.018 C 
ATOM     73  C   UNL     1     -11.294   4.340  -8.821  1.00  0.00     0.044 C 
BRANCH  72  74
ATOM     74  C   UNL     1      -9.705   6.525 -10.472  1.00  0.00     0.038 C 
ATOM     75  C   UNL     1      -8.593   6.519 -11.529  1.00  0.00     0.015 C 
BRANCH  74  76
ATOM     76  C   UNL     1     -10.105   7.938  -9.954  1.00  0.00     0.128 C 
BRANCH  76  77
ATOM     77  O   UNL     1      -9.688   8.942 -10.894  1.00  0.00    -0.381 OA
ATOM     78  C   UNL     1     -10.768   9.614 -11.529  1.00  0.00     0.195 C 
ENDBRANCH  76  77
BRANCH  76  79
ATOM     79  C   UNL     1     -11.599   8.065  -9.564  1.00  0.00     0.068 C 
BRANCH  79  80
ATOM     80  C   UNL     1     -11.941   8.156  -8.096  1.00  0.00    -0.045 A 
ATOM     81  C   UNL     1     -10.965   8.482  -7.146  1.00  0.00     0.004 A 
ATOM     82  C   UNL     1     -13.246   7.885  -7.656  1.00  0.00     0.004 A 
ATOM     83  C   UNL     1     -11.287   8.550  -5.789  1.00  0.00     0.000 A 
ATOM     84  C   UNL     1     -13.567   7.953  -6.299  1.00  0.00     0.000 A 
ATOM     85  C   UNL     1     -12.588   8.287  -5.366  1.00  0.00     0.000 A 
ENDBRANCH  79  80
ENDBRANCH  76  79
ENDBRANCH  74  76
ENDBRANCH  72  74
ENDBRANCH  70  71
ENDBRANCH   1  69
TORSDOF 17
ENDMDL
MODEL 7
REMARK VINA RESULT:    -7.149      4.269     11.502
REMARK INTER + INTRA:         -27.665
REMARK INTER:                 -20.186
REMARK INTRA:                  -7.479
REMARK UNBOUND:                -6.307
REMARK SMILES C=C1C(=O)N[C@H](C)C(=O)N[C@@H](CC(C)C)C(=O)N[C@@H](C(=O)O)[C@H](C)C(=O)N[C@@H](CCCN=C(N)N)C(=O)N[C@@H](/C=C/C(C)=C/[C@H](C)[C@H](Cc2ccccc2)OC)[C@H](C)C(=O)N[C@@H](C(=O)O)CCC(=O)N1C
REMARK SMILES IDX 39 1 38 2 37 3 36 4 28 6 27 7 25 8 26 9 23 11 24 12 19 13
REMARK SMILES IDX 18 14 16 15 17 16 11 18 10 19 8 20 9 21 12 24 13 25 14 26
REMARK SMILES IDX 15 27 20 28 21 29 22 30 29 32 30 33 31 34 32 35 33 36 34 37
REMARK SMILES IDX 35 38 57 43 58 44 59 45 60 46 61 47 62 49 66 50 67 51 68 52
REMARK SMILES IDX 69 53 70 54 71 55 2 56 1 57 3 58 4 59 5 60 6 62 7 63 63 65
REMARK SMILES IDX 64 66 65 67 40 69 41 70 42 71 44 72 43 73 45 74 46 75 47 76
REMARK SMILES IDX 55 77 56 78 48 79 49 80 50 81 54 82 51 83 53 84 52 85
REMARK H PARENT 38 5 27 10 18 17 10 22 22 31 34 39 34 40 35 41 35 42 61 48
REMARK H PARENT 5 61 65 68
REMARK Flexibility Score:  369.900
ROOT
ATOM      1  C   UNL     1      -8.569   2.564  -6.178  1.00  0.00     0.117 C 
ENDROOT
BRANCH   1   2
ATOM      2  N   UNL     1      -7.587   3.211  -5.308  1.00  0.00    -0.347 N 
ATOM      3  O   UNL     1      -5.774   3.053  -6.708  1.00  0.00    -0.273 OA
ATOM      4  C   UNL     1      -6.285   3.487  -5.680  1.00  0.00     0.243 C 
ATOM      5  H   UNL     1      -7.870   3.528  -4.393  1.00  0.00     0.164 HD
BRANCH   4   6
ATOM      6  C   UNL     1      -5.478   4.256  -4.604  1.00  0.00     0.171 C 
BRANCH   6   7
ATOM      7  N   UNL     1      -4.252   4.823  -5.188  1.00  0.00    -0.344 N 
ATOM      8  C   UNL     1      -3.026   4.239  -4.953  1.00  0.00     0.226 C 
ATOM      9  O   UNL     1      -2.891   3.251  -4.241  1.00  0.00    -0.275 OA
ATOM     10  H   UNL     1      -4.315   5.678  -5.726  1.00  0.00     0.164 HD
BRANCH   8  11
ATOM     11  C   UNL     1      -1.867   4.909  -5.668  1.00  0.00     0.109 C 
ATOM     12  C   UNL     1      -1.063   5.761  -4.686  1.00  0.00     0.021 C 
BRANCH  11  13
ATOM     13  C   UNL     1      -1.045   3.852  -6.433  1.00  0.00     0.204 C 
BRANCH  13  14
ATOM     14  N   UNL     1      -1.881   2.751  -6.922  1.00  0.00    -0.340 N 
ATOM     15  C   UNL     1      -1.383   1.493  -7.182  1.00  0.00     0.243 C 
ATOM     16  O   UNL     1      -0.212   1.187  -6.965  1.00  0.00    -0.273 OA
ATOM     17  H   UNL     1      -2.818   2.976  -7.265  1.00  0.00     0.164 HD
BRANCH  15  18
ATOM     18  C   UNL     1      -2.400   0.559  -7.885  1.00  0.00     0.171 C 
BRANCH  18  19
ATOM     19  N   UNL     1      -1.629  -0.542  -8.459  1.00  0.00    -0.343 N 
ATOM     20  C   UNL     1      -1.383  -0.629  -9.816  1.00  0.00     0.242 CG0
ATOM     21  O   UNL     1      -1.910   0.140 -10.616  1.00  0.00    -0.273 OA
ATOM     22  H   UNL     1      -1.269  -1.268  -7.850  1.00  0.00     0.164 HD
ATOM     23  G   UNL     1      -0.487  -1.816 -10.225  1.00  0.00     0.000 G0
ENDBRANCH  18  19
BRANCH  18  24
ATOM     24  C   UNL     1      -3.448   0.051  -6.886  1.00  0.00     0.038 C 
BRANCH  24  25
ATOM     25  C   UNL     1      -4.841  -0.213  -7.494  1.00  0.00    -0.015 C 
ATOM     26  C   UNL     1      -5.937  -0.297  -6.431  1.00  0.00     0.007 C 
ATOM     27  C   UNL     1      -4.811  -1.511  -8.306  1.00  0.00     0.007 C 
ENDBRANCH  24  25
ENDBRANCH  18  24
ENDBRANCH  15  18
ENDBRANCH  13  14
BRANCH  13  28
ATOM     28  C   UNL     1      -0.298   4.426  -7.640  1.00  0.00     0.327 C 
ATOM     29  O   UNL     1       0.913   4.547  -7.750  1.00  0.00    -0.250 OA
BRANCH  28  30
ATOM     30  O   UNL     1      -1.122   4.921  -8.586  1.00  0.00    -0.480 OA
ATOM     31  H   UNL     1      -1.835   4.253  -8.658  1.00  0.00     0.296 HD
ENDBRANCH  28  30
ENDBRANCH  13  28
ENDBRANCH  11  13
ENDBRANCH   8  11
ENDBRANCH   6   7
BRANCH   6  32
ATOM     32  C   UNL     1      -6.360   5.357  -4.005  1.00  0.00     0.037 C 
BRANCH  32  33
ATOM     33  C   UNL     1      -6.402   5.296  -2.472  1.00  0.00     0.026 C 
BRANCH  33  34
ATOM     34  C   UNL     1      -5.955   3.939  -1.928  1.00  0.00     0.146 C 
BRANCH  34  35
ATOM     35  N   UNL     1      -7.025   2.973  -2.138  1.00  0.00    -0.254 NA
ATOM     36  C   UNL     1      -7.056   1.921  -1.409  1.00  0.00     0.185 C 
ATOM     37  N   UNL     1      -8.041   1.028  -1.591  1.00  0.00    -0.370 N 
ATOM     38  N   UNL     1      -6.212   1.546  -0.431  1.00  0.00    -0.370 N 
ATOM     39  H   UNL     1      -8.725   1.245  -2.304  1.00  0.00     0.159 HD
ATOM     40  H   UNL     1      -8.234   0.275  -0.952  1.00  0.00     0.159 HD
ATOM     41  H   UNL     1      -6.262   0.627  -0.024  1.00  0.00     0.159 HD
ATOM     42  H   UNL     1      -5.414   2.116  -0.196  1.00  0.00     0.159 HD
ENDBRANCH  34  35
ENDBRANCH  33  34
ENDBRANCH  32  33
ENDBRANCH   6  32
ENDBRANCH   4   6
ENDBRANCH   1   2
BRANCH   1  43
ATOM     43  C   UNL     1      -9.632   3.621  -6.597  1.00  0.00     0.102 C 
ATOM     44  C   UNL     1      -9.265   4.382  -7.882  1.00  0.00     0.020 C 
BRANCH  43  45
ATOM     45  C   UNL     1      -9.997   4.530  -5.419  1.00  0.00     0.225 C 
ATOM     46  O   UNL     1      -9.390   5.564  -5.157  1.00  0.00    -0.275 OA
ATOM     47  N   UNL     1     -11.002   4.066  -4.602  1.00  0.00    -0.342 N 
ATOM     48  H   UNL     1     -11.586   3.302  -4.912  1.00  0.00     0.164 HD
BRANCH  47  49
ATOM     49  C   UNL     1     -11.481   4.847  -3.458  1.00  0.00     0.192 C 
BRANCH  49  50
ATOM     50  C   UNL     1     -11.370   6.341  -3.772  1.00  0.00     0.047 C 
BRANCH  50  51
ATOM     51  C   UNL     1     -12.742   7.000  -3.964  1.00  0.00     0.103 C 
BRANCH  51  52
ATOM     52  C   UNL     1     -12.899   7.605  -5.358  1.00  0.00     0.226 C 
ATOM     53  O   UNL     1     -12.341   8.671  -5.626  1.00  0.00    -0.275 OA
BRANCH  52  54
ATOM     54  N   UNL     1     -13.628   6.847  -6.292  1.00  0.00    -0.311 N 
ATOM     55  C   UNL     1     -12.947   5.949  -7.235  1.00  0.00     0.153 C 
BRANCH  54  56
ATOM     56  C   UNL     1     -15.030   6.914  -6.355  1.00  0.00     0.102 C 
ATOM     57  C   UNL     1     -15.868   6.030  -5.789  1.00  0.00     0.043 C 
BRANCH  56  58
ATOM     58  C   UNL     1     -15.720   8.060  -7.056  1.00  0.00     0.268 C 
ATOM     59  O   UNL     1     -15.221   8.671  -7.991  1.00  0.00    -0.268 OA
ATOM     60  N   UNL     1     -16.988   8.299  -6.581  1.00  0.00    -0.339 N 
ATOM     61  H   UNL     1     -17.325   7.755  -5.796  1.00  0.00     0.164 HD
BRANCH  60  62
ATOM     62  C   UNL     1     -17.856   9.323  -7.160  1.00  0.00     0.168 CG0
ATOM     63  C   UNL     1     -18.212  10.386  -6.128  1.00  0.00     0.041 C 
ATOM     64  G   UNL     1     -19.131   8.662  -7.724  1.00  0.00     0.000 G0
ENDBRANCH  60  62
ENDBRANCH  56  58
ENDBRANCH  54  56
ENDBRANCH  52  54
ENDBRANCH  51  52
ENDBRANCH  50  51
ENDBRANCH  49  50
BRANCH  49  65
ATOM     65  C   UNL     1     -10.682   4.534  -2.184  1.00  0.00     0.326 C 
ATOM     66  O   UNL     1     -10.520   5.296  -1.241  1.00  0.00    -0.250 OA
BRANCH  65  67
ATOM     67  O   UNL     1     -10.082   3.323  -2.177  1.00  0.00    -0.480 OA
ATOM     68  H   UNL     1      -9.127   3.538  -2.243  1.00  0.00     0.296 HD
ENDBRANCH  65  67
ENDBRANCH  49  65
ENDBRANCH  47  49
ENDBRANCH  43  45
ENDBRANCH   1  43
BRANCH   1  69
ATOM     69  C   UNL     1      -9.025   1.315  -5.448  1.00  0.00    -0.001 C 
ATOM     70  C   UNL     1      -9.830   0.344  -5.914  1.00  0.00     0.001 C 
BRANCH  70  71
ATOM     71  C   UNL     1     -10.246  -0.869  -5.207  1.00  0.00    -0.055 C 
ATOM     72  C   UNL     1      -9.533  -1.239  -4.122  1.00  0.00    -0.018 C 
ATOM     73  C   UNL     1     -11.444  -1.614  -5.735  1.00  0.00     0.044 C 
BRANCH  72  74
ATOM     74  C   UNL     1      -9.731  -2.434  -3.201  1.00  0.00     0.038 C 
ATOM     75  C   UNL     1      -9.964  -1.884  -1.789  1.00  0.00     0.015 C 
BRANCH  74  76
ATOM     76  C   UNL     1      -8.503  -3.382  -3.338  1.00  0.00     0.128 C 
BRANCH  76  77
ATOM     77  O   UNL     1      -8.934  -4.686  -3.762  1.00  0.00    -0.381 OA
ATOM     78  C   UNL     1     -10.337  -4.786  -3.964  1.00  0.00     0.195 C 
ENDBRANCH  76  77
BRANCH  76  79
ATOM     79  C   UNL     1      -7.363  -2.811  -4.219  1.00  0.00     0.068 C 
BRANCH  79  80
ATOM     80  C   UNL     1      -7.092  -3.480  -5.545  1.00  0.00    -0.045 A 
ATOM     81  C   UNL     1      -8.021  -3.411  -6.592  1.00  0.00     0.004 A 
ATOM     82  C   UNL     1      -5.909  -4.209  -5.741  1.00  0.00     0.004 A 
ATOM     83  C   UNL     1      -7.769  -4.045  -7.810  1.00  0.00     0.000 A 
ATOM     84  C   UNL     1      -5.658  -4.842  -6.960  1.00  0.00     0.000 A 
ATOM     85  C   UNL     1      -6.587  -4.759  -7.995  1.00  0.00     0.000 A 
ENDBRANCH  79  80
ENDBRANCH  76  79
ENDBRANCH  74  76
ENDBRANCH  72  74
ENDBRANCH  70  71
ENDBRANCH   1  69
TORSDOF 17
ENDMDL
MODEL 8
REMARK VINA RESULT:    -7.143      3.263      7.097
REMARK INTER + INTRA:         -27.648
REMARK INTER:                 -20.603
REMARK INTRA:                  -7.045
REMARK UNBOUND:                -6.307
REMARK SMILES C=C1C(=O)N[C@H](C)C(=O)N[C@@H](CC(C)C)C(=O)N[C@@H](C(=O)O)[C@H](C)C(=O)N[C@@H](CCCN=C(N)N)C(=O)N[C@@H](/C=C/C(C)=C/[C@H](C)[C@H](Cc2ccccc2)OC)[C@H](C)C(=O)N[C@@H](C(=O)O)CCC(=O)N1C
REMARK SMILES IDX 39 1 38 2 37 3 36 4 28 6 27 7 25 8 26 9 23 11 24 12 19 13
REMARK SMILES IDX 18 14 16 15 17 16 11 18 10 19 8 20 9 21 12 24 13 25 14 26
REMARK SMILES IDX 15 27 20 28 21 29 22 30 29 32 30 33 31 34 32 35 33 36 34 37
REMARK SMILES IDX 35 38 57 43 58 44 59 45 60 46 61 47 62 49 66 50 67 51 68 52
REMARK SMILES IDX 69 53 70 54 71 55 2 56 1 57 3 58 4 59 5 60 6 62 7 63 63 65
REMARK SMILES IDX 64 66 65 67 40 69 41 70 42 71 44 72 43 73 45 74 46 75 47 76
REMARK SMILES IDX 55 77 56 78 48 79 49 80 50 81 54 82 51 83 53 84 52 85
REMARK H PARENT 38 5 27 10 18 17 10 22 22 31 34 39 34 40 35 41 35 42 61 48
REMARK H PARENT 5 61 65 68
REMARK Flexibility Score:  369.900
ROOT
ATOM      1  C   UNL     1      -7.510   2.756  -5.316  1.00  0.00     0.117 C 
ENDROOT
BRANCH   1   2
ATOM      2  N   UNL     1      -8.223   1.522  -4.983  1.00  0.00    -0.347 N 
ATOM      3  O   UNL     1      -6.648   0.622  -3.575  1.00  0.00    -0.273 OA
ATOM      4  C   UNL     1      -7.773   0.593  -4.064  1.00  0.00     0.243 C 
ATOM      5  H   UNL     1      -9.123   1.342  -5.401  1.00  0.00     0.164 HD
BRANCH   4   6
ATOM      6  C   UNL     1      -8.757  -0.581  -3.832  1.00  0.00     0.171 C 
BRANCH   6   7
ATOM      7  N   UNL     1      -9.284  -0.546  -2.458  1.00  0.00    -0.344 N 
ATOM      8  C   UNL     1      -9.598  -1.714  -1.796  1.00  0.00     0.226 C 
ATOM      9  O   UNL     1      -9.481  -2.818  -2.314  1.00  0.00    -0.275 OA
ATOM     10  H   UNL     1      -9.458   0.350  -2.021  1.00  0.00     0.164 HD
BRANCH   8  11
ATOM     11  C   UNL     1     -10.077  -1.515  -0.369  1.00  0.00     0.109 C 
ATOM     12  C   UNL     1     -10.667  -0.114  -0.203  1.00  0.00     0.021 C 
BRANCH  11  13
ATOM     13  C   UNL     1     -11.019  -2.667   0.031  1.00  0.00     0.204 C 
BRANCH  13  14
ATOM     14  N   UNL     1     -10.281  -3.853   0.478  1.00  0.00    -0.340 N 
ATOM     15  C   UNL     1     -10.583  -5.128   0.051  1.00  0.00     0.243 C 
ATOM     16  O   UNL     1     -11.456  -5.355  -0.785  1.00  0.00    -0.273 OA
ATOM     17  H   UNL     1      -9.652  -3.753   1.280  1.00  0.00     0.164 HD
BRANCH  15  18
ATOM     18  C   UNL     1      -9.813  -6.234   0.813  1.00  0.00     0.171 C 
BRANCH  18  19
ATOM     19  N   UNL     1     -10.819  -7.077   1.456  1.00  0.00    -0.343 N 
ATOM     20  C   UNL     1     -11.560  -6.634   2.534  1.00  0.00     0.242 CG0
ATOM     21  O   UNL     1     -11.317  -5.563   3.085  1.00  0.00    -0.273 OA
ATOM     22  H   UNL     1     -10.976  -8.017   1.109  1.00  0.00     0.164 HD
ATOM     23  G   UNL     1     -12.627  -7.633   3.028  1.00  0.00     0.000 G0
ENDBRANCH  18  19
BRANCH  18  24
ATOM     24  C   UNL     1      -8.934  -7.043  -0.150  1.00  0.00     0.038 C 
BRANCH  24  25
ATOM     25  C   UNL     1      -7.547  -7.423   0.410  1.00  0.00    -0.015 C 
ATOM     26  C   UNL     1      -7.001  -6.377   1.382  1.00  0.00     0.007 C 
ATOM     27  C   UNL     1      -6.561  -7.616  -0.746  1.00  0.00     0.007 C 
ENDBRANCH  24  25
ENDBRANCH  18  24
ENDBRANCH  15  18
ENDBRANCH  13  14
BRANCH  13  28
ATOM     28  C   UNL     1     -11.994  -2.290   1.150  1.00  0.00     0.327 C 
ATOM     29  O   UNL     1     -11.722  -2.172   2.336  1.00  0.00    -0.250 OA
BRANCH  28  30
ATOM     30  O   UNL     1     -13.272  -2.200   0.731  1.00  0.00    -0.480 OA
ATOM     31  H   UNL     1     -13.254  -1.495   0.051  1.00  0.00     0.296 HD
ENDBRANCH  28  30
ENDBRANCH  13  28
ENDBRANCH  11  13
ENDBRANCH   8  11
ENDBRANCH   6   7
BRANCH   6  32
ATOM     32  C   UNL     1      -9.895  -0.494  -4.856  1.00  0.00     0.037 C 
BRANCH  32  33
ATOM     33  C   UNL     1     -10.099  -1.817  -5.608  1.00  0.00     0.026 C 
BRANCH  33  34
ATOM     34  C   UNL     1     -11.546  -2.308  -5.545  1.00  0.00     0.146 C 
BRANCH  34  35
ATOM     35  N   UNL     1     -12.213  -1.662  -4.424  1.00  0.00    -0.254 NA
ATOM     36  C   UNL     1     -12.625  -2.388  -3.453  1.00  0.00     0.185 C 
ATOM     37  N   UNL     1     -13.238  -1.803  -2.412  1.00  0.00    -0.370 N 
ATOM     38  N   UNL     1     -12.538  -3.722  -3.299  1.00  0.00    -0.370 N 
ATOM     39  H   UNL     1     -13.333  -0.796  -2.449  1.00  0.00     0.159 HD
ATOM     40  H   UNL     1     -13.431  -2.273  -1.544  1.00  0.00     0.159 HD
ATOM     41  H   UNL     1     -13.025  -4.193  -2.554  1.00  0.00     0.159 HD
ATOM     42  H   UNL     1     -12.114  -4.293  -4.013  1.00  0.00     0.159 HD
ENDBRANCH  34  35
ENDBRANCH  33  34
ENDBRANCH  32  33
ENDBRANCH   6  32
ENDBRANCH   4   6
ENDBRANCH   1   2
BRANCH   1  43
ATOM     43  C   UNL     1      -8.411   3.966  -4.937  1.00  0.00     0.102 C 
ATOM     44  C   UNL     1      -9.251   4.496  -6.112  1.00  0.00     0.020 C 
BRANCH  43  45
ATOM     45  C   UNL     1      -7.604   5.048  -4.213  1.00  0.00     0.225 C 
ATOM     46  O   UNL     1      -7.841   6.247  -4.322  1.00  0.00    -0.275 OA
ATOM     47  N   UNL     1      -6.521   4.596  -3.494  1.00  0.00    -0.342 N 
ATOM     48  H   UNL     1      -6.431   3.611  -3.291  1.00  0.00     0.164 HD
BRANCH  47  49
ATOM     49  C   UNL     1      -5.679   5.514  -2.721  1.00  0.00     0.192 C 
BRANCH  49  50
ATOM     50  C   UNL     1      -4.212   5.319  -3.112  1.00  0.00     0.047 C 
BRANCH  50  51
ATOM     51  C   UNL     1      -4.058   4.741  -4.526  1.00  0.00     0.103 C 
BRANCH  51  52
ATOM     52  C   UNL     1      -3.430   3.349  -4.512  1.00  0.00     0.226 C 
ATOM     53  O   UNL     1      -4.128   2.367  -4.252  1.00  0.00    -0.275 OA
BRANCH  52  54
ATOM     54  N   UNL     1      -2.074   3.270  -4.880  1.00  0.00    -0.311 N 
ATOM     55  C   UNL     1      -1.015   3.731  -3.971  1.00  0.00     0.153 C 
BRANCH  54  56
ATOM     56  C   UNL     1      -1.681   2.744  -6.122  1.00  0.00     0.102 C 
ATOM     57  C   UNL     1      -1.843   1.466  -6.500  1.00  0.00     0.043 C 
BRANCH  56  58
ATOM     58  C   UNL     1      -1.065   3.631  -7.179  1.00  0.00     0.268 C 
ATOM     59  O   UNL     1      -1.698   4.479  -7.793  1.00  0.00    -0.268 OA
ATOM     60  N   UNL     1       0.286   3.431  -7.331  1.00  0.00    -0.339 N 
ATOM     61  H   UNL     1       0.734   2.700  -6.792  1.00  0.00     0.164 HD
BRANCH  60  62
ATOM     62  C   UNL     1       1.092   4.226  -8.257  1.00  0.00     0.168 CG0
ATOM     63  C   UNL     1       1.998   3.335  -9.098  1.00  0.00     0.041 C 
ATOM     64  G   UNL     1       1.922   5.257  -7.465  1.00  0.00     0.000 G0
ENDBRANCH  60  62
ENDBRANCH  56  58
ENDBRANCH  54  56
ENDBRANCH  52  54
ENDBRANCH  51  52
ENDBRANCH  50  51
ENDBRANCH  49  50
BRANCH  49  65
ATOM     65  C   UNL     1      -5.836   5.290  -1.209  1.00  0.00     0.326 C 
ATOM     66  O   UNL     1      -5.386   4.343  -0.580  1.00  0.00    -0.250 OA
BRANCH  65  67
ATOM     67  O   UNL     1      -6.590   6.217  -0.577  1.00  0.00    -0.480 OA
ATOM     68  H   UNL     1      -5.995   6.995  -0.514  1.00  0.00     0.296 HD
ENDBRANCH  65  67
ENDBRANCH  49  65
ENDBRANCH  47  49
ENDBRANCH  43  45
ENDBRANCH   1  43
BRANCH   1  69
ATOM     69  C   UNL     1      -7.052   2.605  -6.755  1.00  0.00    -0.001 C 
ATOM     70  C   UNL     1      -6.579   1.496  -7.350  1.00  0.00     0.001 C 
BRANCH  70  71
ATOM     71  C   UNL     1      -6.160   1.357  -8.746  1.00  0.00    -0.055 C 
ATOM     72  C   UNL     1      -5.059   0.618  -9.001  1.00  0.00    -0.018 C 
ATOM     73  C   UNL     1      -6.991   2.040  -9.801  1.00  0.00     0.044 C 
BRANCH  72  74
ATOM     74  C   UNL     1      -4.399   0.301 -10.335  1.00  0.00     0.038 C 
ATOM     75  C   UNL     1      -5.009  -1.011 -10.842  1.00  0.00     0.015 C 
BRANCH  74  76
ATOM     76  C   UNL     1      -2.855   0.269 -10.135  1.00  0.00     0.128 C 
BRANCH  76  77
ATOM     77  O   UNL     1      -2.346   1.609 -10.024  1.00  0.00    -0.381 OA
ATOM     78  C   UNL     1      -0.944   1.707 -10.241  1.00  0.00     0.195 C 
ENDBRANCH  76  77
BRANCH  76  79
ATOM     79  C   UNL     1      -2.390  -0.647  -8.975  1.00  0.00     0.068 C 
BRANCH  79  80
ATOM     80  C   UNL     1      -1.563  -1.862  -9.321  1.00  0.00    -0.045 A 
ATOM     81  C   UNL     1      -0.986  -2.652  -8.318  1.00  0.00     0.004 A 
ATOM     82  C   UNL     1      -1.334  -2.203 -10.662  1.00  0.00     0.004 A 
ATOM     83  C   UNL     1      -0.211  -3.766  -8.647  1.00  0.00     0.000 A 
ATOM     84  C   UNL     1      -0.558  -3.316 -10.990  1.00  0.00     0.000 A 
ATOM     85  C   UNL     1       0.002  -4.099  -9.983  1.00  0.00     0.000 A 
ENDBRANCH  79  80
ENDBRANCH  76  79
ENDBRANCH  74  76
ENDBRANCH  72  74
ENDBRANCH  70  71
ENDBRANCH   1  69
TORSDOF 17
ENDMDL
MODEL 9
REMARK VINA RESULT:    -7.124      3.965     12.658
REMARK INTER + INTRA:         -27.591
REMARK INTER:                 -20.586
REMARK INTRA:                  -7.005
REMARK UNBOUND:                -6.307
REMARK SMILES C=C1C(=O)N[C@H](C)C(=O)N[C@@H](CC(C)C)C(=O)N[C@@H](C(=O)O)[C@H](C)C(=O)N[C@@H](CCCN=C(N)N)C(=O)N[C@@H](/C=C/C(C)=C/[C@H](C)[C@H](Cc2ccccc2)OC)[C@H](C)C(=O)N[C@@H](C(=O)O)CCC(=O)N1C
REMARK SMILES IDX 39 1 38 2 37 3 36 4 28 6 27 7 25 8 26 9 23 11 24 12 19 13
REMARK SMILES IDX 18 14 16 15 17 16 11 18 10 19 8 20 9 21 12 24 13 25 14 26
REMARK SMILES IDX 15 27 20 28 21 29 22 30 29 32 30 33 31 34 32 35 33 36 34 37
REMARK SMILES IDX 35 38 57 43 58 44 59 45 60 46 61 47 62 49 66 50 67 51 68 52
REMARK SMILES IDX 69 53 70 54 71 55 2 56 1 57 3 58 4 59 5 60 6 62 7 63 63 65
REMARK SMILES IDX 64 66 65 67 40 69 41 70 42 71 44 72 43 73 45 74 46 75 47 76
REMARK SMILES IDX 55 77 56 78 48 79 49 80 50 81 54 82 51 83 53 84 52 85
REMARK H PARENT 38 5 27 10 18 17 10 22 22 31 34 39 34 40 35 41 35 42 61 48
REMARK H PARENT 5 61 65 68
REMARK Flexibility Score:  369.900
ROOT
ATOM      1  C   UNL     1      -9.234  -4.469  -2.434  1.00  0.00     0.117 C 
ENDROOT
BRANCH   1   2
ATOM      2  N   UNL     1      -8.939  -3.106  -2.876  1.00  0.00    -0.347 N 
ATOM      3  O   UNL     1      -6.962  -3.548  -3.955  1.00  0.00    -0.273 OA
ATOM      4  C   UNL     1      -7.869  -2.769  -3.682  1.00  0.00     0.243 C 
ATOM      5  H   UNL     1      -9.569  -2.358  -2.629  1.00  0.00     0.164 HD
BRANCH   4   6
ATOM      6  C   UNL     1      -7.832  -1.271  -4.076  1.00  0.00     0.171 C 
BRANCH   6   7
ATOM      7  N   UNL     1      -7.217  -1.102  -5.402  1.00  0.00    -0.344 N 
ATOM      8  C   UNL     1      -6.213  -0.179  -5.599  1.00  0.00     0.226 C 
ATOM      9  O   UNL     1      -5.804   0.552  -4.705  1.00  0.00    -0.275 OA
ATOM     10  H   UNL     1      -7.575  -1.640  -6.181  1.00  0.00     0.164 HD
BRANCH   8  11
ATOM     11  C   UNL     1      -5.645  -0.163  -7.007  1.00  0.00     0.109 C 
ATOM     12  C   UNL     1      -6.566  -0.931  -7.955  1.00  0.00     0.021 C 
BRANCH  11  13
ATOM     13  C   UNL     1      -5.342   1.288  -7.432  1.00  0.00     0.204 C 
BRANCH  13  14
ATOM     14  N   UNL     1      -3.966   1.681  -7.111  1.00  0.00    -0.340 N 
ATOM     15  C   UNL     1      -3.661   2.802  -6.371  1.00  0.00     0.243 C 
ATOM     16  O   UNL     1      -4.527   3.521  -5.874  1.00  0.00    -0.273 OA
ATOM     17  H   UNL     1      -3.205   1.218  -7.616  1.00  0.00     0.164 HD
BRANCH  15  18
ATOM     18  C   UNL     1      -2.148   3.129  -6.338  1.00  0.00     0.171 C 
BRANCH  18  19
ATOM     19  N   UNL     1      -1.613   2.763  -7.648  1.00  0.00    -0.343 N 
ATOM     20  C   UNL     1      -0.321   2.297  -7.803  1.00  0.00     0.242 CG0
ATOM     21  O   UNL     1       0.478   2.295  -6.870  1.00  0.00    -0.273 OA
ATOM     22  H   UNL     1      -2.199   2.858  -8.469  1.00  0.00     0.164 HD
ATOM     23  G   UNL     1       0.039   1.888  -9.246  1.00  0.00     0.000 G0
ENDBRANCH  18  19
BRANCH  18  24
ATOM     24  C   UNL     1      -1.922   4.615  -6.034  1.00  0.00     0.038 C 
BRANCH  24  25
ATOM     25  C   UNL     1      -1.086   4.893  -4.766  1.00  0.00    -0.015 C 
ATOM     26  C   UNL     1      -0.961   3.664  -3.866  1.00  0.00     0.007 C 
ATOM     27  C   UNL     1      -1.714   6.046  -3.979  1.00  0.00     0.007 C 
ENDBRANCH  24  25
ENDBRANCH  18  24
ENDBRANCH  15  18
ENDBRANCH  13  14
BRANCH  13  28
ATOM     28  C   UNL     1      -5.548   1.534  -8.930  1.00  0.00     0.327 C 
ATOM     29  O   UNL     1      -4.747   1.289  -9.819  1.00  0.00    -0.250 OA
BRANCH  28  30
ATOM     30  O   UNL     1      -6.697   2.182  -9.206  1.00  0.00    -0.480 OA
ATOM     31  H   UNL     1      -6.515   2.649 -10.048  1.00  0.00     0.296 HD
ENDBRANCH  28  30
ENDBRANCH  13  28
ENDBRANCH  11  13
ENDBRANCH   8  11
ENDBRANCH   6   7
BRANCH   6  32
ATOM     32  C   UNL     1      -9.259  -0.711  -4.059  1.00  0.00     0.037 C 
BRANCH  32  33
ATOM     33  C   UNL     1      -9.331   0.672  -3.396  1.00  0.00     0.026 C 
BRANCH  33  34
ATOM     34  C   UNL     1      -8.357   0.810  -2.225  1.00  0.00     0.146 C 
BRANCH  34  35
ATOM     35  N   UNL     1      -7.563   2.016  -2.415  1.00  0.00    -0.254 NA
ATOM     36  C   UNL     1      -6.612   2.261  -1.593  1.00  0.00     0.185 C 
ATOM     37  N   UNL     1      -5.870   3.367  -1.761  1.00  0.00    -0.370 N 
ATOM     38  N   UNL     1      -6.212   1.546  -0.526  1.00  0.00    -0.370 N 
ATOM     39  H   UNL     1      -6.103   3.954  -2.552  1.00  0.00     0.159 HD
ATOM     40  H   UNL     1      -5.008   3.538  -1.272  1.00  0.00     0.159 HD
ATOM     41  H   UNL     1      -5.540   1.915   0.126  1.00  0.00     0.159 HD
ATOM     42  H   UNL     1      -6.691   0.697  -0.269  1.00  0.00     0.159 HD
ENDBRANCH  34  35
ENDBRANCH  33  34
ENDBRANCH  32  33
ENDBRANCH   6  32
ENDBRANCH   4   6
ENDBRANCH   1   2
BRANCH   1  43
ATOM     43  C   UNL     1     -10.220  -5.116  -3.450  1.00  0.00     0.102 C 
ATOM     44  C   UNL     1      -9.542  -6.099  -4.420  1.00  0.00     0.020 C 
BRANCH  43  45
ATOM     45  C   UNL     1     -11.075  -4.050  -4.142  1.00  0.00     0.225 C 
ATOM     46  O   UNL     1     -10.877  -3.677  -5.295  1.00  0.00    -0.275 OA
ATOM     47  N   UNL     1     -12.035  -3.458  -3.354  1.00  0.00    -0.342 N 
ATOM     48  H   UNL     1     -12.284  -3.876  -2.469  1.00  0.00     0.164 HD
BRANCH  47  49
ATOM     49  C   UNL     1     -12.950  -2.447  -3.893  1.00  0.00     0.192 C 
BRANCH  49  50
ATOM     50  C   UNL     1     -13.309  -1.441  -2.795  1.00  0.00     0.047 C 
BRANCH  50  51
ATOM     51  C   UNL     1     -13.499  -0.021  -3.346  1.00  0.00     0.103 C 
BRANCH  51  52
ATOM     52  C   UNL     1     -14.974   0.361  -3.450  1.00  0.00     0.226 C 
ATOM     53  O   UNL     1     -15.547   0.295  -4.539  1.00  0.00    -0.275 OA
BRANCH  52  54
ATOM     54  N   UNL     1     -15.620   0.699  -2.246  1.00  0.00    -0.311 N 
ATOM     55  C   UNL     1     -15.528   2.058  -1.695  1.00  0.00     0.153 C 
BRANCH  54  56
ATOM     56  C   UNL     1     -16.378  -0.243  -1.531  1.00  0.00     0.102 C 
ATOM     57  C   UNL     1     -16.211  -0.537  -0.232  1.00  0.00     0.043 C 
BRANCH  56  58
ATOM     58  C   UNL     1     -17.512  -0.988  -2.194  1.00  0.00     0.268 C 
ATOM     59  O   UNL     1     -17.507  -2.200  -2.366  1.00  0.00    -0.268 OA
ATOM     60  N   UNL     1     -18.573  -0.178  -2.523  1.00  0.00    -0.339 N 
ATOM     61  H   UNL     1     -18.494   0.818  -2.358  1.00  0.00     0.164 HD
BRANCH  60  62
ATOM     62  C   UNL     1     -19.800  -0.704  -3.118  1.00  0.00     0.168 CG0
ATOM     63  C   UNL     1     -21.032  -0.082  -2.471  1.00  0.00     0.041 C 
ATOM     64  G   UNL     1     -19.826  -2.240  -2.975  1.00  0.00     0.000 G0
ENDBRANCH  60  62
ENDBRANCH  56  58
ENDBRANCH  54  56
ENDBRANCH  52  54
ENDBRANCH  51  52
ENDBRANCH  50  51
ENDBRANCH  49  50
BRANCH  49  65
ATOM     65  C   UNL     1     -14.238  -3.082  -4.441  1.00  0.00     0.326 C 
ATOM     66  O   UNL     1     -14.462  -3.332  -5.616  1.00  0.00    -0.250 OA
BRANCH  65  67
ATOM     67  O   UNL     1     -15.191  -3.315  -3.512  1.00  0.00    -0.480 OA
ATOM     68  H   UNL     1     -14.761  -3.940  -2.890  1.00  0.00     0.296 HD
ENDBRANCH  65  67
ENDBRANCH  49  65
ENDBRANCH  47  49
ENDBRANCH  43  45
ENDBRANCH   1  43
BRANCH   1  69
ATOM     69  C   UNL     1      -9.647  -4.363  -0.978  1.00  0.00    -0.001 C 
ATOM     70  C   UNL     1     -10.310  -3.352  -0.388  1.00  0.00     0.001 C 
BRANCH  70  71
ATOM     71  C   UNL     1     -10.722  -3.270   1.015  1.00  0.00    -0.055 C 
ATOM     72  C   UNL     1     -11.752  -4.046   1.412  1.00  0.00    -0.018 C 
ATOM     73  C   UNL     1      -9.963  -2.332   1.916  1.00  0.00     0.044 C 
BRANCH  72  74
ATOM     74  C   UNL     1     -12.388  -4.171   2.790  1.00  0.00     0.038 C 
ATOM     75  C   UNL     1     -12.940  -2.790   3.161  1.00  0.00     0.015 C 
BRANCH  74  76
ATOM     76  C   UNL     1     -11.328  -4.738   3.780  1.00  0.00     0.128 C 
BRANCH  76  77
ATOM     77  O   UNL     1     -11.836  -4.687   5.124  1.00  0.00    -0.381 OA
ATOM     78  C   UNL     1     -10.938  -5.209   6.094  1.00  0.00     0.195 C 
ENDBRANCH  76  77
BRANCH  76  79
ATOM     79  C   UNL     1     -10.793  -6.140   3.395  1.00  0.00     0.068 C 
BRANCH  79  80
ATOM     80  C   UNL     1      -9.460  -6.220   2.692  1.00  0.00    -0.045 A 
ATOM     81  C   UNL     1      -9.290  -7.018   1.553  1.00  0.00     0.004 A 
ATOM     82  C   UNL     1      -8.355  -5.511   3.189  1.00  0.00     0.004 A 
ATOM     83  C   UNL     1      -8.049  -7.097   0.917  1.00  0.00     0.000 A 
ATOM     84  C   UNL     1      -7.115  -5.591   2.553  1.00  0.00     0.000 A 
ATOM     85  C   UNL     1      -6.962  -6.382   1.416  1.00  0.00     0.000 A 
ENDBRANCH  79  80
ENDBRANCH  76  79
ENDBRANCH  74  76
ENDBRANCH  72  74
ENDBRANCH  70  71
ENDBRANCH   1  69
TORSDOF 17
ENDMDL
MODEL 10
REMARK VINA RESULT:    -7.116      4.432      6.712
REMARK INTER + INTRA:         -27.566
REMARK INTER:                 -20.254
REMARK INTRA:                  -7.312
REMARK UNBOUND:                -6.307
REMARK SMILES C=C1C(=O)N[C@H](C)C(=O)N[C@@H](CC(C)C)C(=O)N[C@@H](C(=O)O)[C@H](C)C(=O)N[C@@H](CCCN=C(N)N)C(=O)N[C@@H](/C=C/C(C)=C/[C@H](C)[C@H](Cc2ccccc2)OC)[C@H](C)C(=O)N[C@@H](C(=O)O)CCC(=O)N1C
REMARK SMILES IDX 39 1 38 2 37 3 36 4 28 6 27 7 25 8 26 9 23 11 24 12 19 13
REMARK SMILES IDX 18 14 16 15 17 16 11 18 10 19 8 20 9 21 12 24 13 25 14 26
REMARK SMILES IDX 15 27 20 28 21 29 22 30 29 32 30 33 31 34 32 35 33 36 34 37
REMARK SMILES IDX 35 38 57 43 58 44 59 45 60 46 61 47 62 49 66 50 67 51 68 52
REMARK SMILES IDX 69 53 70 54 71 55 2 56 1 57 3 58 4 59 5 60 6 62 7 63 63 65
REMARK SMILES IDX 64 66 65 67 40 69 41 70 42 71 44 72 43 73 45 74 46 75 47 76
REMARK SMILES IDX 55 77 56 78 48 79 49 80 50 81 54 82 51 83 53 84 52 85
REMARK H PARENT 38 5 27 10 18 17 10 22 22 31 34 39 34 40 35 41 35 42 61 48
REMARK H PARENT 5 61 65 68
REMARK Flexibility Score:  369.900
ROOT
ATOM      1  C   UNL     1      -8.771   4.012  -6.047  1.00  0.00     0.117 C 
ENDROOT
BRANCH   1   2
ATOM      2  N   UNL     1      -9.368   2.677  -5.991  1.00  0.00    -0.347 N 
ATOM      3  O   UNL     1      -7.468   1.508  -5.449  1.00  0.00    -0.273 OA
ATOM      4  C   UNL     1      -8.684   1.540  -5.605  1.00  0.00     0.243 C 
ATOM      5  H   UNL     1     -10.349   2.565  -6.194  1.00  0.00     0.164 HD
BRANCH   4   6
ATOM      6  C   UNL     1      -9.569   0.269  -5.548  1.00  0.00     0.171 C 
BRANCH   6   7
ATOM      7  N   UNL     1     -10.807   0.538  -4.798  1.00  0.00    -0.344 N 
ATOM      8  C   UNL     1     -11.213  -0.305  -3.787  1.00  0.00     0.226 C 
ATOM      9  O   UNL     1     -10.591  -1.314  -3.479  1.00  0.00    -0.275 OA
ATOM     10  H   UNL     1     -11.383   1.326  -5.069  1.00  0.00     0.164 HD
BRANCH   8  11
ATOM     11  C   UNL     1     -12.479   0.138  -3.074  1.00  0.00     0.109 C 
ATOM     12  C   UNL     1     -12.723   1.628  -3.313  1.00  0.00     0.021 C 
BRANCH  11  13
ATOM     13  C   UNL     1     -13.650  -0.783  -3.471  1.00  0.00     0.204 C 
BRANCH  13  14
ATOM     14  N   UNL     1     -14.948  -0.226  -3.078  1.00  0.00    -0.340 N 
ATOM     15  C   UNL     1     -16.038  -1.011  -2.771  1.00  0.00     0.243 C 
ATOM     16  O   UNL     1     -15.981  -2.239  -2.748  1.00  0.00    -0.273 OA
ATOM     17  H   UNL     1     -15.105   0.775  -3.223  1.00  0.00     0.164 HD
BRANCH  15  18
ATOM     18  C   UNL     1     -17.349  -0.207  -2.589  1.00  0.00     0.171 C 
BRANCH  18  19
ATOM     19  N   UNL     1     -18.188  -0.976  -1.672  1.00  0.00    -0.343 N 
ATOM     20  C   UNL     1     -19.422  -1.468  -2.052  1.00  0.00     0.242 CG0
ATOM     21  O   UNL     1     -19.929  -1.170  -3.131  1.00  0.00    -0.273 OA
ATOM     22  H   UNL     1     -17.862  -1.151  -0.728  1.00  0.00     0.164 HD
ATOM     23  G   UNL     1     -20.125  -2.321  -0.977  1.00  0.00     0.000 G0
ENDBRANCH  18  19
BRANCH  18  24
ATOM     24  C   UNL     1     -17.053   1.194  -2.040  1.00  0.00     0.038 C 
BRANCH  24  25
ATOM     25  C   UNL     1     -17.698   2.348  -2.836  1.00  0.00    -0.015 C 
ATOM     26  C   UNL     1     -19.198   2.477  -2.567  1.00  0.00     0.007 C 
ATOM     27  C   UNL     1     -17.459   2.137  -4.333  1.00  0.00     0.007 C 
ENDBRANCH  24  25
ENDBRANCH  18  24
ENDBRANCH  15  18
ENDBRANCH  13  14
BRANCH  13  28
ATOM     28  C   UNL     1     -13.714  -1.064  -4.975  1.00  0.00     0.327 C 
ATOM     29  O   UNL     1     -13.762  -0.228  -5.865  1.00  0.00    -0.250 OA
BRANCH  28  30
ATOM     30  O   UNL     1     -13.834  -2.376  -5.264  1.00  0.00    -0.480 OA
ATOM     31  H   UNL     1     -14.141  -2.780  -4.426  1.00  0.00     0.296 HD
ENDBRANCH  28  30
ENDBRANCH  13  28
ENDBRANCH  11  13
ENDBRANCH   8  11
ENDBRANCH   6   7
BRANCH   6  32
ATOM     32  C   UNL     1      -9.883  -0.190  -6.976  1.00  0.00     0.037 C 
BRANCH  32  33
ATOM     33  C   UNL     1      -9.513  -1.662  -7.205  1.00  0.00     0.026 C 
BRANCH  33  34
ATOM     34  C   UNL     1      -8.254  -1.823  -8.059  1.00  0.00     0.146 C 
BRANCH  34  35
ATOM     35  N   UNL     1      -7.089  -1.805  -7.187  1.00  0.00    -0.254 NA
ATOM     36  C   UNL     1      -6.255  -0.838  -7.295  1.00  0.00     0.185 C 
ATOM     37  N   UNL     1      -5.180  -0.809  -6.493  1.00  0.00    -0.370 N 
ATOM     38  N   UNL     1      -6.286   0.214  -8.132  1.00  0.00    -0.370 N 
ATOM     39  H   UNL     1      -5.091  -1.564  -5.825  1.00  0.00     0.159 HD
ATOM     40  H   UNL     1      -4.580  -0.007  -6.395  1.00  0.00     0.159 HD
ATOM     41  H   UNL     1      -5.498   0.835  -8.218  1.00  0.00     0.159 HD
ATOM     42  H   UNL     1      -7.031   0.313  -8.804  1.00  0.00     0.159 HD
ENDBRANCH  34  35
ENDBRANCH  33  34
ENDBRANCH  32  33
ENDBRANCH   6  32
ENDBRANCH   4   6
ENDBRANCH   1   2
BRANCH   1  43
ATOM     43  C   UNL     1      -8.764   4.612  -4.611  1.00  0.00     0.102 C 
ATOM     44  C   UNL     1      -9.962   5.533  -4.327  1.00  0.00     0.020 C 
BRANCH  43  45
ATOM     45  C   UNL     1      -7.406   5.240  -4.285  1.00  0.00     0.225 C 
ATOM     46  O   UNL     1      -7.185   6.445  -4.372  1.00  0.00    -0.275 OA
ATOM     47  N   UNL     1      -6.402   4.352  -3.972  1.00  0.00    -0.342 N 
ATOM     48  H   UNL     1      -6.632   3.392  -3.757  1.00  0.00     0.164 HD
BRANCH  47  49
ATOM     49  C   UNL     1      -5.060   4.812  -3.603  1.00  0.00     0.192 C 
BRANCH  49  50
ATOM     50  C   UNL     1      -4.011   3.864  -4.191  1.00  0.00     0.047 C 
BRANCH  50  51
ATOM     51  C   UNL     1      -4.338   3.459  -5.635  1.00  0.00     0.103 C 
BRANCH  51  52
ATOM     52  C   UNL     1      -3.360   2.417  -6.174  1.00  0.00     0.226 C 
ATOM     53  O   UNL     1      -3.212   1.352  -5.571  1.00  0.00    -0.275 OA
BRANCH  52  54
ATOM     54  N   UNL     1      -2.733   2.718  -7.397  1.00  0.00    -0.311 N 
ATOM     55  C   UNL     1      -3.180   2.097  -8.650  1.00  0.00     0.153 C 
BRANCH  54  56
ATOM     56  C   UNL     1      -1.662   3.626  -7.466  1.00  0.00     0.102 C 
ATOM     57  C   UNL     1      -1.309   4.315  -8.563  1.00  0.00     0.043 C 
BRANCH  56  58
ATOM     58  C   UNL     1      -0.828   3.934  -6.246  1.00  0.00     0.268 C 
ATOM     59  O   UNL     1       0.103   3.231  -5.875  1.00  0.00    -0.268 OA
ATOM     60  N   UNL     1      -1.178   5.116  -5.636  1.00  0.00    -0.339 N 
ATOM     61  H   UNL     1      -1.969   5.635  -5.999  1.00  0.00     0.164 HD
BRANCH  60  62
ATOM     62  C   UNL     1      -0.459   5.636  -4.475  1.00  0.00     0.168 CG0
ATOM     63  C   UNL     1      -1.363   6.515  -3.620  1.00  0.00     0.041 C 
ATOM     64  G   UNL     1       0.782   6.423  -4.945  1.00  0.00     0.000 G0
ENDBRANCH  60  62
ENDBRANCH  56  58
ENDBRANCH  54  56
ENDBRANCH  52  54
ENDBRANCH  51  52
ENDBRANCH  50  51
ENDBRANCH  49  50
BRANCH  49  65
ATOM     65  C   UNL     1      -4.884   4.882  -2.078  1.00  0.00     0.326 C 
ATOM     66  O   UNL     1      -5.734   5.252  -1.281  1.00  0.00    -0.250 OA
BRANCH  65  67
ATOM     67  O   UNL     1      -3.651   4.548  -1.637  1.00  0.00    -0.480 OA
ATOM     68  H   UNL     1      -3.571   5.030  -0.786  1.00  0.00     0.296 HD
ENDBRANCH  65  67
ENDBRANCH  49  65
ENDBRANCH  47  49
ENDBRANCH  43  45
ENDBRANCH   1  43
BRANCH   1  69
ATOM     69  C   UNL     1      -9.502   4.757  -7.149  1.00  0.00    -0.001 C 
ATOM     70  C   UNL     1      -9.202   4.776  -8.460  1.00  0.00     0.001 C 
BRANCH  70  71
ATOM     71  C   UNL     1      -9.929   5.482  -9.518  1.00  0.00    -0.055 C 
ATOM     72  C   UNL     1      -9.268   6.440 -10.201  1.00  0.00    -0.018 C 
ATOM     73  C   UNL     1     -11.358   5.083  -9.775  1.00  0.00     0.044 C 
BRANCH  72  74
ATOM     74  C   UNL     1      -9.758   7.324 -11.338  1.00  0.00     0.038 C 
ATOM     75  C   UNL     1      -8.663   7.329 -12.412  1.00  0.00     0.015 C 
BRANCH  74  76
ATOM     76  C   UNL     1     -10.117   8.726 -10.765  1.00  0.00     0.128 C 
BRANCH  76  77
ATOM     77  O   UNL     1      -9.876   9.739 -11.756  1.00  0.00    -0.381 OA
ATOM     78  C   UNL     1     -11.046  10.149 -12.451  1.00  0.00     0.195 C 
ENDBRANCH  76  77
BRANCH  76  79
ATOM     79  C   UNL     1     -11.539   8.812 -10.154  1.00  0.00     0.068 C 
BRANCH  79  80
ATOM     80  C   UNL     1     -11.679   8.635  -8.662  1.00  0.00    -0.045 A 
ATOM     81  C   UNL     1     -10.578   8.790  -7.810  1.00  0.00     0.004 A 
ATOM     82  C   UNL     1     -12.918   8.284  -8.105  1.00  0.00     0.004 A 
ATOM     83  C   UNL     1     -10.713   8.610  -6.431  1.00  0.00     0.000 A 
ATOM     84  C   UNL     1     -13.052   8.104  -6.726  1.00  0.00     0.000 A 
ATOM     85  C   UNL     1     -11.950   8.269  -5.890  1.00  0.00     0.000 A 
ENDBRANCH  79  80
ENDBRANCH  76  79
ENDBRANCH  74  76
ENDBRANCH  72  74
ENDBRANCH  70  71
ENDBRANCH   1  69
TORSDOF 17
ENDMDL
MODEL 11
REMARK VINA RESULT:    -7.101      3.039      6.986
REMARK INTER + INTRA:         -27.523
REMARK INTER:                 -20.719
REMARK INTRA:                  -6.803
REMARK UNBOUND:                -6.307
REMARK SMILES C=C1C(=O)N[C@H](C)C(=O)N[C@@H](CC(C)C)C(=O)N[C@@H](C(=O)O)[C@H](C)C(=O)N[C@@H](CCCN=C(N)N)C(=O)N[C@@H](/C=C/C(C)=C/[C@H](C)[C@H](Cc2ccccc2)OC)[C@H](C)C(=O)N[C@@H](C(=O)O)CCC(=O)N1C
REMARK SMILES IDX 39 1 38 2 37 3 36 4 28 6 27 7 25 8 26 9 23 11 24 12 19 13
REMARK SMILES IDX 18 14 16 15 17 16 11 18 10 19 8 20 9 21 12 24 13 25 14 26
REMARK SMILES IDX 15 27 20 28 21 29 22 30 29 32 30 33 31 34 32 35 33 36 34 37
REMARK SMILES IDX 35 38 57 43 58 44 59 45 60 46 61 47 62 49 66 50 67 51 68 52
REMARK SMILES IDX 69 53 70 54 71 55 2 56 1 57 3 58 4 59 5 60 6 62 7 63 63 65
REMARK SMILES IDX 64 66 65 67 40 69 41 70 42 71 44 72 43 73 45 74 46 75 47 76
REMARK SMILES IDX 55 77 56 78 48 79 49 80 50 81 54 82 51 83 53 84 52 85
REMARK H PARENT 38 5 27 10 18 17 10 22 22 31 34 39 34 40 35 41 35 42 61 48
REMARK H PARENT 5 61 65 68
REMARK Flexibility Score:  369.900
ROOT
ATOM      1  C   UNL     1      -8.489   2.629  -2.313  1.00  0.00     0.117 C 
ENDROOT
BRANCH   1   2
ATOM      2  N   UNL     1      -9.662   2.287  -1.508  1.00  0.00    -0.347 N 
ATOM      3  O   UNL     1      -8.796   0.435  -0.464  1.00  0.00    -0.273 OA
ATOM      4  C   UNL     1      -9.690   1.267  -0.576  1.00  0.00     0.243 C 
ATOM      5  H   UNL     1     -10.497   2.848  -1.587  1.00  0.00     0.164 HD
BRANCH   4   6
ATOM      6  C   UNL     1     -11.027   1.170   0.202  1.00  0.00     0.171 C 
BRANCH   6   7
ATOM      7  N   UNL     1     -11.813   0.018  -0.266  1.00  0.00    -0.344 N 
ATOM      8  C   UNL     1     -12.671   0.141  -1.337  1.00  0.00     0.226 C 
ATOM      9  O   UNL     1     -12.840   1.200  -1.929  1.00  0.00    -0.275 OA
ATOM     10  H   UNL     1     -11.751  -0.857   0.240  1.00  0.00     0.164 HD
BRANCH   8  11
ATOM     11  C   UNL     1     -13.368  -1.149  -1.732  1.00  0.00     0.109 C 
ATOM     12  C   UNL     1     -14.673  -0.839  -2.466  1.00  0.00     0.021 C 
BRANCH  11  13
ATOM     13  C   UNL     1     -12.388  -2.055  -2.505  1.00  0.00     0.204 C 
BRANCH  13  14
ATOM     14  N   UNL     1     -12.041  -3.263  -1.751  1.00  0.00    -0.340 N 
ATOM     15  C   UNL     1     -10.856  -3.398  -1.060  1.00  0.00     0.243 C 
ATOM     16  O   UNL     1     -10.031  -2.490  -0.978  1.00  0.00    -0.273 OA
ATOM     17  H   UNL     1     -12.606  -4.103  -1.901  1.00  0.00     0.164 HD
BRANCH  15  18
ATOM     18  C   UNL     1     -10.617  -4.828  -0.516  1.00  0.00     0.171 C 
BRANCH  18  19
ATOM     19  N   UNL     1     -11.837  -5.218   0.188  1.00  0.00    -0.343 N 
ATOM     20  C   UNL     1     -11.871  -6.304   1.042  1.00  0.00     0.242 CG0
ATOM     21  O   UNL     1     -10.915  -7.070   1.146  1.00  0.00    -0.273 OA
ATOM     22  H   UNL     1     -12.686  -4.683   0.044  1.00  0.00     0.164 HD
ATOM     23  G   UNL     1     -13.223  -6.512   1.754  1.00  0.00     0.000 G0
ENDBRANCH  18  19
BRANCH  18  24
ATOM     24  C   UNL     1     -10.295  -5.796  -1.662  1.00  0.00     0.038 C 
BRANCH  24  25
ATOM     25  C   UNL     1      -8.829  -6.276  -1.708  1.00  0.00    -0.015 C 
ATOM     26  C   UNL     1      -8.008  -5.545  -2.770  1.00  0.00     0.007 C 
ATOM     27  C   UNL     1      -8.789  -7.783  -1.972  1.00  0.00     0.007 C 
ENDBRANCH  24  25
ENDBRANCH  18  24
ENDBRANCH  15  18
ENDBRANCH  13  14
BRANCH  13  28
ATOM     28  C   UNL     1     -12.931  -2.509  -3.864  1.00  0.00     0.327 C 
ATOM     29  O   UNL     1     -12.928  -1.858  -4.898  1.00  0.00    -0.250 OA
BRANCH  28  30
ATOM     30  O   UNL     1     -13.550  -3.706  -3.813  1.00  0.00    -0.480 OA
ATOM     31  H   UNL     1     -13.998  -3.709  -2.942  1.00  0.00     0.296 HD
ENDBRANCH  28  30
ENDBRANCH  13  28
ENDBRANCH  11  13
ENDBRANCH   8  11
ENDBRANCH   6   7
BRANCH   6  32
ATOM     32  C   UNL     1     -10.729   1.057   1.701  1.00  0.00     0.037 C 
BRANCH  32  33
ATOM     33  C   UNL     1     -11.107   2.334   2.465  1.00  0.00     0.026 C 
BRANCH  33  34
ATOM     34  C   UNL     1     -12.366   2.998   1.908  1.00  0.00     0.146 C 
BRANCH  34  35
ATOM     35  N   UNL     1     -11.989   4.238   1.244  1.00  0.00    -0.254 NA
ATOM     36  C   UNL     1     -12.548   4.534   0.130  1.00  0.00     0.185 C 
ATOM     37  N   UNL     1     -12.211   5.677  -0.487  1.00  0.00    -0.370 N 
ATOM     38  N   UNL     1     -13.473   3.844  -0.560  1.00  0.00    -0.370 N 
ATOM     39  H   UNL     1     -11.526   6.259  -0.024  1.00  0.00     0.159 HD
ATOM     40  H   UNL     1     -12.723   6.061  -1.263  1.00  0.00     0.159 HD
ATOM     41  H   UNL     1     -13.734   4.113  -1.494  1.00  0.00     0.159 HD
ATOM     42  H   UNL     1     -13.809   2.956  -0.221  1.00  0.00     0.159 HD
ENDBRANCH  34  35
ENDBRANCH  33  34
ENDBRANCH  32  33
ENDBRANCH   6  32
ENDBRANCH   4   6
ENDBRANCH   1   2
BRANCH   1  43
ATOM     43  C   UNL     1      -8.461   4.171  -2.517  1.00  0.00     0.102 C 
ATOM     44  C   UNL     1      -9.777   4.738  -3.078  1.00  0.00     0.020 C 
BRANCH  43  45
ATOM     45  C   UNL     1      -7.217   4.600  -3.300  1.00  0.00     0.225 C 
ATOM     46  O   UNL     1      -7.265   5.312  -4.299  1.00  0.00    -0.275 OA
ATOM     47  N   UNL     1      -6.029   4.057  -2.867  1.00  0.00    -0.342 N 
ATOM     48  H   UNL     1      -5.985   3.603  -1.966  1.00  0.00     0.164 HD
BRANCH  47  49
ATOM     49  C   UNL     1      -4.752   4.405  -3.498  1.00  0.00     0.192 C 
BRANCH  49  50
ATOM     50  C   UNL     1      -4.162   3.169  -4.182  1.00  0.00     0.047 C 
BRANCH  50  51
ATOM     51  C   UNL     1      -3.928   3.390  -5.683  1.00  0.00     0.103 C 
BRANCH  51  52
ATOM     52  C   UNL     1      -2.633   4.152  -5.955  1.00  0.00     0.226 C 
ATOM     53  O   UNL     1      -2.677   5.355  -6.220  1.00  0.00    -0.275 OA
BRANCH  52  54
ATOM     54  N   UNL     1      -1.436   3.426  -5.809  1.00  0.00    -0.311 N 
ATOM     55  C   UNL     1      -0.597   3.584  -4.614  1.00  0.00     0.153 C 
BRANCH  54  56
ATOM     56  C   UNL     1      -1.002   2.523  -6.794  1.00  0.00     0.102 C 
ATOM     57  C   UNL     1      -1.364   1.232  -6.866  1.00  0.00     0.043 C 
BRANCH  56  58
ATOM     58  C   UNL     1      -0.095   2.975  -7.914  1.00  0.00     0.268 C 
ATOM     59  O   UNL     1       1.089   2.674  -7.980  1.00  0.00    -0.268 OA
ATOM     60  N   UNL     1      -0.750   3.700  -8.881  1.00  0.00    -0.339 N 
ATOM     61  H   UNL     1      -1.730   3.917  -8.747  1.00  0.00     0.164 HD
BRANCH  60  62
ATOM     62  C   UNL     1      -0.074   4.183 -10.085  1.00  0.00     0.168 CG0
ATOM     63  C   UNL     1       0.119   3.056 -11.092  1.00  0.00     0.041 C 
ATOM     64  G   UNL     1       1.282   4.810  -9.700  1.00  0.00     0.000 G0
ENDBRANCH  60  62
ENDBRANCH  56  58
ENDBRANCH  54  56
ENDBRANCH  52  54
ENDBRANCH  51  52
ENDBRANCH  50  51
ENDBRANCH  49  50
BRANCH  49  65
ATOM     65  C   UNL     1      -3.744   4.951  -2.475  1.00  0.00     0.326 C 
ATOM     66  O   UNL     1      -2.779   5.655  -2.734  1.00  0.00    -0.250 OA
BRANCH  65  67
ATOM     67  O   UNL     1      -3.956   4.546  -1.203  1.00  0.00    -0.480 OA
ATOM     68  H   UNL     1      -3.121   4.088  -0.964  1.00  0.00     0.296 HD
ENDBRANCH  65  67
ENDBRANCH  49  65
ENDBRANCH  47  49
ENDBRANCH  43  45
ENDBRANCH   1  43
BRANCH   1  69
ATOM     69  C   UNL     1      -8.536   1.728  -3.534  1.00  0.00    -0.001 C 
ATOM     70  C   UNL     1      -7.493   1.198  -4.198  1.00  0.00     0.001 C 
BRANCH  70  71
ATOM     71  C   UNL     1      -7.551   0.312  -5.363  1.00  0.00    -0.055 C 
ATOM     72  C   UNL     1      -8.741  -0.249  -5.666  1.00  0.00    -0.018 C 
ATOM     73  C   UNL     1      -6.282   0.095  -6.144  1.00  0.00     0.044 C 
BRANCH  72  74
ATOM     74  C   UNL     1      -9.097  -1.195  -6.804  1.00  0.00     0.038 C 
ATOM     75  C   UNL     1      -9.963  -0.406  -7.794  1.00  0.00     0.015 C 
BRANCH  74  76
ATOM     76  C   UNL     1      -9.778  -2.462  -6.207  1.00  0.00     0.128 C 
BRANCH  76  77
ATOM     77  O   UNL     1     -10.419  -3.213  -7.252  1.00  0.00    -0.381 OA
ATOM     78  C   UNL     1     -11.226  -4.281  -6.775  1.00  0.00     0.195 C 
ENDBRANCH  76  77
BRANCH  76  79
ATOM     79  C   UNL     1      -8.836  -3.331  -5.336  1.00  0.00     0.068 C 
BRANCH  79  80
ATOM     80  C   UNL     1      -7.606  -3.913  -5.990  1.00  0.00    -0.045 A 
ATOM     81  C   UNL     1      -6.345  -3.329  -5.806  1.00  0.00     0.004 A 
ATOM     82  C   UNL     1      -7.712  -5.040  -6.820  1.00  0.00     0.004 A 
ATOM     83  C   UNL     1      -5.215  -3.866  -6.425  1.00  0.00     0.000 A 
ATOM     84  C   UNL     1      -6.581  -5.575  -7.439  1.00  0.00     0.000 A 
ATOM     85  C   UNL     1      -5.333  -4.990  -7.241  1.00  0.00     0.000 A 
ENDBRANCH  79  80
ENDBRANCH  76  79
ENDBRANCH  74  76
ENDBRANCH  72  74
ENDBRANCH  70  71
ENDBRANCH   1  69
TORSDOF 17
ENDMDL
MODEL 12
REMARK VINA RESULT:    -7.087      3.755     12.631
REMARK INTER + INTRA:         -27.482
REMARK INTER:                 -21.578
REMARK INTRA:                  -5.903
REMARK UNBOUND:                -6.307
REMARK SMILES C=C1C(=O)N[C@H](C)C(=O)N[C@@H](CC(C)C)C(=O)N[C@@H](C(=O)O)[C@H](C)C(=O)N[C@@H](CCCN=C(N)N)C(=O)N[C@@H](/C=C/C(C)=C/[C@H](C)[C@H](Cc2ccccc2)OC)[C@H](C)C(=O)N[C@@H](C(=O)O)CCC(=O)N1C
REMARK SMILES IDX 39 1 38 2 37 3 36 4 28 6 27 7 25 8 26 9 23 11 24 12 19 13
REMARK SMILES IDX 18 14 16 15 17 16 11 18 10 19 8 20 9 21 12 24 13 25 14 26
REMARK SMILES IDX 15 27 20 28 21 29 22 30 29 32 30 33 31 34 32 35 33 36 34 37
REMARK SMILES IDX 35 38 57 43 58 44 59 45 60 46 61 47 62 49 66 50 67 51 68 52
REMARK SMILES IDX 69 53 70 54 71 55 2 56 1 57 3 58 4 59 5 60 6 62 7 63 63 65
REMARK SMILES IDX 64 66 65 67 40 69 41 70 42 71 44 72 43 73 45 74 46 75 47 76
REMARK SMILES IDX 55 77 56 78 48 79 49 80 50 81 54 82 51 83 53 84 52 85
REMARK H PARENT 38 5 27 10 18 17 10 22 22 31 34 39 34 40 35 41 35 42 61 48
REMARK H PARENT 5 61 65 68
REMARK Flexibility Score:  369.900
ROOT
ATOM      1  C   UNL     1      -8.360  -4.128  -6.443  1.00  0.00     0.117 C 
ENDROOT
BRANCH   1   2
ATOM      2  N   UNL     1      -7.488  -2.961  -6.300  1.00  0.00    -0.347 N 
ATOM      3  O   UNL     1      -5.567  -3.902  -7.132  1.00  0.00    -0.273 OA
ATOM      4  C   UNL     1      -6.180  -2.914  -6.743  1.00  0.00     0.243 C 
ATOM      5  H   UNL     1      -7.860  -2.112  -5.901  1.00  0.00     0.164 HD
BRANCH   4   6
ATOM      6  C   UNL     1      -5.506  -1.532  -6.547  1.00  0.00     0.171 C 
BRANCH   6   7
ATOM      7  N   UNL     1      -5.213  -0.914  -7.850  1.00  0.00    -0.344 N 
ATOM      8  C   UNL     1      -3.984  -1.089  -8.450  1.00  0.00     0.226 C 
ATOM      9  O   UNL     1      -3.082  -1.736  -7.931  1.00  0.00    -0.275 OA
ATOM     10  H   UNL     1      -5.909  -0.317  -8.278  1.00  0.00     0.164 HD
BRANCH   8  11
ATOM     11  C   UNL     1      -3.856  -0.435  -9.815  1.00  0.00     0.109 C 
ATOM     12  C   UNL     1      -4.944   0.623  -9.995  1.00  0.00     0.021 C 
BRANCH  11  13
ATOM     13  C   UNL     1      -2.415   0.076 -10.015  1.00  0.00     0.204 C 
BRANCH  13  14
ATOM     14  N   UNL     1      -1.962   0.901  -8.890  1.00  0.00    -0.340 N 
ATOM     15  C   UNL     1      -1.771   2.262  -8.990  1.00  0.00     0.243 C 
ATOM     16  O   UNL     1      -2.027   2.891 -10.015  1.00  0.00    -0.273 OA
ATOM     17  H   UNL     1      -1.589   0.424  -8.065  1.00  0.00     0.164 HD
BRANCH  15  18
ATOM     18  C   UNL     1      -1.093   2.884  -7.745  1.00  0.00     0.171 C 
BRANCH  18  19
ATOM     19  N   UNL     1      -0.226   3.955  -8.231  1.00  0.00    -0.343 N 
ATOM     20  C   UNL     1       1.107   3.738  -8.524  1.00  0.00     0.242 CG0
ATOM     21  O   UNL     1       1.657   2.671  -8.264  1.00  0.00    -0.273 OA
ATOM     22  H   UNL     1      -0.607   4.887  -8.353  1.00  0.00     0.164 HD
ATOM     23  G   UNL     1       1.840   4.967  -9.100  1.00  0.00     0.000 G0
ENDBRANCH  18  19
BRANCH  18  24
ATOM     24  C   UNL     1      -2.145   3.415  -6.764  1.00  0.00     0.038 C 
BRANCH  24  25
ATOM     25  C   UNL     1      -1.922   3.003  -5.293  1.00  0.00    -0.015 C 
ATOM     26  C   UNL     1      -3.166   3.214  -4.430  1.00  0.00     0.007 C 
ATOM     27  C   UNL     1      -0.749   3.796  -4.709  1.00  0.00     0.007 C 
ENDBRANCH  24  25
ENDBRANCH  18  24
ENDBRANCH  15  18
ENDBRANCH  13  14
BRANCH  13  28
ATOM     28  C   UNL     1      -1.394  -1.052 -10.192  1.00  0.00     0.327 C 
ATOM     29  O   UNL     1      -1.333  -1.830 -11.131  1.00  0.00    -0.250 OA
BRANCH  28  30
ATOM     30  O   UNL     1      -0.587  -1.207  -9.122  1.00  0.00    -0.480 OA
ATOM     31  H   UNL     1      -1.173  -1.579  -8.431  1.00  0.00     0.296 HD
ENDBRANCH  28  30
ENDBRANCH  13  28
ENDBRANCH  11  13
ENDBRANCH   8  11
ENDBRANCH   6   7
BRANCH   6  32
ATOM     32  C   UNL     1      -6.427  -0.636  -5.712  1.00  0.00     0.037 C 
BRANCH  32  33
ATOM     33  C   UNL     1      -5.779   0.717  -5.386  1.00  0.00     0.026 C 
BRANCH  33  34
ATOM     34  C   UNL     1      -6.597   1.531  -4.382  1.00  0.00     0.146 C 
BRANCH  34  35
ATOM     35  N   UNL     1      -6.182   1.167  -3.034  1.00  0.00    -0.254 NA
ATOM     36  C   UNL     1      -6.584   1.886  -2.053  1.00  0.00     0.185 C 
ATOM     37  N   UNL     1      -6.213   1.558  -0.806  1.00  0.00    -0.370 N 
ATOM     38  N   UNL     1      -7.366   2.980  -2.072  1.00  0.00    -0.370 N 
ATOM     39  H   UNL     1      -5.630   0.736  -0.707  1.00  0.00     0.159 HD
ATOM     40  H   UNL     1      -6.621   1.959   0.020  1.00  0.00     0.159 HD
ATOM     41  H   UNL     1      -7.498   3.540  -1.245  1.00  0.00     0.159 HD
ATOM     42  H   UNL     1      -7.707   3.352  -2.945  1.00  0.00     0.159 HD
ENDBRANCH  34  35
ENDBRANCH  33  34
ENDBRANCH  32  33
ENDBRANCH   6  32
ENDBRANCH   4   6
ENDBRANCH   1   2
BRANCH   1  43
ATOM     43  C   UNL     1      -9.717  -3.661  -7.044  1.00  0.00     0.102 C 
ATOM     44  C   UNL     1      -9.587  -3.056  -8.453  1.00  0.00     0.020 C 
BRANCH  43  45
ATOM     45  C   UNL     1     -10.481  -2.776  -6.056  1.00  0.00     0.225 C 
ATOM     46  O   UNL     1     -10.248  -1.579  -5.908  1.00  0.00    -0.275 OA
ATOM     47  N   UNL     1     -11.397  -3.427  -5.262  1.00  0.00    -0.342 N 
ATOM     48  H   UNL     1     -11.684  -4.367  -5.497  1.00  0.00     0.164 HD
BRANCH  47  49
ATOM     49  C   UNL     1     -12.227  -2.702  -4.295  1.00  0.00     0.192 C 
BRANCH  49  50
ATOM     50  C   UNL     1     -12.131  -3.378  -2.925  1.00  0.00     0.047 C 
BRANCH  50  51
ATOM     51  C   UNL     1     -10.752  -3.188  -2.278  1.00  0.00     0.103 C 
BRANCH  51  52
ATOM     52  C   UNL     1     -10.533  -1.752  -1.806  1.00  0.00     0.226 C 
ATOM     53  O   UNL     1      -9.926  -0.958  -2.528  1.00  0.00    -0.275 OA
BRANCH  52  54
ATOM     54  N   UNL     1     -11.120  -1.400  -0.577  1.00  0.00    -0.311 N 
ATOM     55  C   UNL     1     -10.620  -1.957   0.687  1.00  0.00     0.153 C 
BRANCH  54  56
ATOM     56  C   UNL     1     -12.198  -0.502  -0.510  1.00  0.00     0.102 C 
ATOM     57  C   UNL     1     -12.089   0.836  -0.572  1.00  0.00     0.043 C 
BRANCH  56  58
ATOM     58  C   UNL     1     -13.619  -1.003  -0.406  1.00  0.00     0.268 C 
ATOM     59  O   UNL     1     -14.241  -1.456  -1.358  1.00  0.00    -0.268 OA
ATOM     60  N   UNL     1     -14.115  -0.959   0.875  1.00  0.00    -0.339 N 
ATOM     61  H   UNL     1     -13.540  -0.560   1.607  1.00  0.00     0.164 HD
BRANCH  60  62
ATOM     62  C   UNL     1     -15.449  -1.455   1.211  1.00  0.00     0.168 CG0
ATOM     63  C   UNL     1     -15.573  -1.720   2.707  1.00  0.00     0.041 C 
ATOM     64  G   UNL     1     -15.744  -2.736   0.403  1.00  0.00     0.000 G0
ENDBRANCH  60  62
ENDBRANCH  56  58
ENDBRANCH  54  56
ENDBRANCH  52  54
ENDBRANCH  51  52
ENDBRANCH  50  51
ENDBRANCH  49  50
BRANCH  49  65
ATOM     65  C   UNL     1     -13.698  -2.652  -4.736  1.00  0.00     0.326 C 
ATOM     66  O   UNL     1     -14.133  -2.026  -5.692  1.00  0.00    -0.250 OA
BRANCH  65  67
ATOM     67  O   UNL     1     -14.550  -3.329  -3.935  1.00  0.00    -0.480 OA
ATOM     68  H   UNL     1     -15.424  -3.196  -4.361  1.00  0.00     0.296 HD
ENDBRANCH  65  67
ENDBRANCH  49  65
ENDBRANCH  47  49
ENDBRANCH  43  45
ENDBRANCH   1  43
BRANCH   1  69
ATOM     69  C   UNL     1      -8.356  -4.828  -5.097  1.00  0.00    -0.001 C 
ATOM     70  C   UNL     1      -9.231  -5.747  -4.651  1.00  0.00     0.001 C 
BRANCH  70  71
ATOM     71  C   UNL     1      -9.204  -6.432  -3.357  1.00  0.00    -0.055 C 
ATOM     72  C   UNL     1      -8.505  -5.856  -2.357  1.00  0.00    -0.018 C 
ATOM     73  C   UNL     1      -9.966  -7.725  -3.231  1.00  0.00     0.044 C 
BRANCH  72  74
ATOM     74  C   UNL     1      -8.305  -6.330  -0.924  1.00  0.00     0.038 C 
ATOM     75  C   UNL     1      -8.128  -7.852  -0.972  1.00  0.00     0.015 C 
BRANCH  74  76
ATOM     76  C   UNL     1      -9.505  -5.838  -0.062  1.00  0.00     0.128 C 
BRANCH  76  77
ATOM     77  O   UNL     1     -10.528  -6.848  -0.023  1.00  0.00    -0.381 OA
ATOM     78  C   UNL     1     -11.825  -6.337   0.250  1.00  0.00     0.195 C 
ENDBRANCH  76  77
BRANCH  76  79
ATOM     79  C   UNL     1      -9.103  -5.337   1.348  1.00  0.00     0.068 C 
BRANCH  79  80
ATOM     80  C   UNL     1      -8.270  -6.252   2.213  1.00  0.00    -0.045 A 
ATOM     81  C   UNL     1      -8.769  -7.487   2.647  1.00  0.00     0.004 A 
ATOM     82  C   UNL     1      -6.985  -5.862   2.620  1.00  0.00     0.004 A 
ATOM     83  C   UNL     1      -7.997  -8.321   3.459  1.00  0.00     0.000 A 
ATOM     84  C   UNL     1      -6.214  -6.697   3.433  1.00  0.00     0.000 A 
ATOM     85  C   UNL     1      -6.719  -7.926   3.850  1.00  0.00     0.000 A 
ENDBRANCH  79  80
ENDBRANCH  76  79
ENDBRANCH  74  76
ENDBRANCH  72  74
ENDBRANCH  70  71
ENDBRANCH   1  69
TORSDOF 17
ENDMDL
MODEL 13
REMARK VINA RESULT:    -7.069      2.816      4.741
REMARK INTER + INTRA:         -27.426
REMARK INTER:                 -21.916
REMARK INTRA:                  -5.511
REMARK UNBOUND:                -6.307
REMARK SMILES C=C1C(=O)N[C@H](C)C(=O)N[C@@H](CC(C)C)C(=O)N[C@@H](C(=O)O)[C@H](C)C(=O)N[C@@H](CCCN=C(N)N)C(=O)N[C@@H](/C=C/C(C)=C/[C@H](C)[C@H](Cc2ccccc2)OC)[C@H](C)C(=O)N[C@@H](C(=O)O)CCC(=O)N1C
REMARK SMILES IDX 39 1 38 2 37 3 36 4 28 6 27 7 25 8 26 9 23 11 24 12 19 13
REMARK SMILES IDX 18 14 16 15 17 16 11 18 10 19 8 20 9 21 12 24 13 25 14 26
REMARK SMILES IDX 15 27 20 28 21 29 22 30 29 32 30 33 31 34 32 35 33 36 34 37
REMARK SMILES IDX 35 38 57 43 58 44 59 45 60 46 61 47 62 49 66 50 67 51 68 52
REMARK SMILES IDX 69 53 70 54 71 55 2 56 1 57 3 58 4 59 5 60 6 62 7 63 63 65
REMARK SMILES IDX 64 66 65 67 40 69 41 70 42 71 44 72 43 73 45 74 46 75 47 76
REMARK SMILES IDX 55 77 56 78 48 79 49 80 50 81 54 82 51 83 53 84 52 85
REMARK H PARENT 38 5 27 10 18 17 10 22 22 31 34 39 34 40 35 41 35 42 61 48
REMARK H PARENT 5 61 65 68
REMARK Flexibility Score:  369.900
ROOT
ATOM      1  C   UNL     1      -7.711   2.841  -4.912  1.00  0.00     0.117 C 
ENDROOT
BRANCH   1   2
ATOM      2  N   UNL     1      -8.240   1.553  -4.463  1.00  0.00    -0.347 N 
ATOM      3  O   UNL     1      -6.238   0.455  -4.232  1.00  0.00    -0.273 OA
ATOM      4  C   UNL     1      -7.453   0.488  -4.070  1.00  0.00     0.243 C 
ATOM      5  H   UNL     1      -9.238   1.430  -4.380  1.00  0.00     0.164 HD
BRANCH   4   6
ATOM      6  C   UNL     1      -8.263  -0.729  -3.555  1.00  0.00     0.171 C 
BRANCH   6   7
ATOM      7  N   UNL     1      -9.368  -0.284  -2.691  1.00  0.00    -0.344 N 
ATOM      8  C   UNL     1     -10.004  -1.172  -1.851  1.00  0.00     0.226 C 
ATOM      9  O   UNL     1      -9.705  -2.359  -1.796  1.00  0.00    -0.275 OA
ATOM     10  H   UNL     1      -9.688   0.674  -2.758  1.00  0.00     0.164 HD
BRANCH   8  11
ATOM     11  C   UNL     1     -11.085  -0.549  -0.985  1.00  0.00     0.109 C 
ATOM     12  C   UNL     1     -12.466  -0.874  -1.554  1.00  0.00     0.021 C 
BRANCH  11  13
ATOM     13  C   UNL     1     -10.876  -0.960   0.486  1.00  0.00     0.204 C 
BRANCH  13  14
ATOM     14  N   UNL     1     -10.650  -2.401   0.629  1.00  0.00    -0.340 N 
ATOM     15  C   UNL     1     -11.619  -3.269   1.084  1.00  0.00     0.243 C 
ATOM     16  O   UNL     1     -12.764  -2.903   1.345  1.00  0.00    -0.273 OA
ATOM     17  H   UNL     1      -9.687  -2.744   0.576  1.00  0.00     0.164 HD
BRANCH  15  18
ATOM     18  C   UNL     1     -11.091  -4.700   1.351  1.00  0.00     0.171 C 
BRANCH  18  19
ATOM     19  N   UNL     1     -12.028  -5.618   0.706  1.00  0.00    -0.343 N 
ATOM     20  C   UNL     1     -12.586  -6.685   1.384  1.00  0.00     0.242 CG0
ATOM     21  O   UNL     1     -12.221  -6.990   2.517  1.00  0.00    -0.273 OA
ATOM     22  H   UNL     1     -12.274  -5.476  -0.267  1.00  0.00     0.164 HD
ATOM     23  G   UNL     1     -13.611  -7.495   0.563  1.00  0.00     0.000 G0
ENDBRANCH  18  19
BRANCH  18  24
ATOM     24  C   UNL     1      -9.671  -4.866   0.797  1.00  0.00     0.038 C 
BRANCH  24  25
ATOM     25  C   UNL     1      -8.692  -5.597   1.740  1.00  0.00    -0.015 C 
ATOM     26  C   UNL     1      -8.803  -7.118   1.634  1.00  0.00     0.007 C 
ATOM     27  C   UNL     1      -8.948  -5.161   3.185  1.00  0.00     0.007 C 
ENDBRANCH  24  25
ENDBRANCH  18  24
ENDBRANCH  15  18
ENDBRANCH  13  14
BRANCH  13  28
ATOM     28  C   UNL     1      -9.694  -0.246   1.150  1.00  0.00     0.327 C 
ATOM     29  O   UNL     1      -8.843   0.422   0.584  1.00  0.00    -0.250 OA
BRANCH  28  30
ATOM     30  O   UNL     1      -9.587  -0.515   2.467  1.00  0.00    -0.480 OA
ATOM     31  H   UNL     1     -10.383  -0.103   2.863  1.00  0.00     0.296 HD
ENDBRANCH  28  30
ENDBRANCH  13  28
ENDBRANCH  11  13
ENDBRANCH   8  11
ENDBRANCH   6   7
BRANCH   6  32
ATOM     32  C   UNL     1      -8.791  -1.525  -4.754  1.00  0.00     0.037 C 
BRANCH  32  33
ATOM     33  C   UNL     1      -8.115  -2.897  -4.883  1.00  0.00     0.026 C 
BRANCH  33  34
ATOM     34  C   UNL     1      -7.520  -3.127  -6.273  1.00  0.00     0.146 C 
BRANCH  34  35
ATOM     35  N   UNL     1      -6.077  -2.937  -6.203  1.00  0.00    -0.254 NA
ATOM     36  C   UNL     1      -5.403  -2.951  -7.292  1.00  0.00     0.185 C 
ATOM     37  N   UNL     1      -4.074  -2.771  -7.241  1.00  0.00    -0.370 N 
ATOM     38  N   UNL     1      -5.837  -3.126  -8.553  1.00  0.00    -0.370 N 
ATOM     39  H   UNL     1      -3.671  -2.621  -6.324  1.00  0.00     0.159 HD
ATOM     40  H   UNL     1      -3.504  -2.596  -8.051  1.00  0.00     0.159 HD
ATOM     41  H   UNL     1      -5.190  -3.256  -9.313  1.00  0.00     0.159 HD
ATOM     42  H   UNL     1      -6.814  -3.289  -8.741  1.00  0.00     0.159 HD
ENDBRANCH  34  35
ENDBRANCH  33  34
ENDBRANCH  32  33
ENDBRANCH   6  32
ENDBRANCH   4   6
ENDBRANCH   1   2
BRANCH   1  43
ATOM     43  C   UNL     1      -7.044   3.553  -3.700  1.00  0.00     0.102 C 
ATOM     44  C   UNL     1      -8.032   4.372  -2.852  1.00  0.00     0.020 C 
BRANCH  43  45
ATOM     45  C   UNL     1      -5.802   4.336  -4.137  1.00  0.00     0.225 C 
ATOM     46  O   UNL     1      -5.849   5.296  -4.900  1.00  0.00    -0.275 OA
ATOM     47  N   UNL     1      -4.600   3.836  -3.691  1.00  0.00    -0.342 N 
ATOM     48  H   UNL     1      -4.588   3.148  -2.951  1.00  0.00     0.164 HD
BRANCH  47  49
ATOM     49  C   UNL     1      -3.331   4.502  -4.001  1.00  0.00     0.192 C 
BRANCH  49  50
ATOM     50  C   UNL     1      -2.267   3.453  -4.332  1.00  0.00     0.047 C 
BRANCH  50  51
ATOM     51  C   UNL     1      -1.159   4.013  -5.235  1.00  0.00     0.103 C 
BRANCH  51  52
ATOM     52  C   UNL     1      -1.538   3.953  -6.713  1.00  0.00     0.226 C 
ATOM     53  O   UNL     1      -2.089   4.921  -7.241  1.00  0.00    -0.275 OA
BRANCH  52  54
ATOM     54  N   UNL     1      -1.156   2.793  -7.412  1.00  0.00    -0.311 N 
ATOM     55  C   UNL     1      -0.089   1.921  -6.903  1.00  0.00     0.153 C 
BRANCH  54  56
ATOM     56  C   UNL     1      -1.780   2.423  -8.614  1.00  0.00     0.102 C 
ATOM     57  C   UNL     1      -2.984   1.835  -8.706  1.00  0.00     0.043 C 
BRANCH  56  58
ATOM     58  C   UNL     1      -1.132   2.716  -9.947  1.00  0.00     0.268 C 
ATOM     59  O   UNL     1      -0.985   1.872 -10.820  1.00  0.00    -0.268 OA
ATOM     60  N   UNL     1      -0.786   4.038 -10.100  1.00  0.00    -0.339 N 
ATOM     61  H   UNL     1      -0.930   4.672  -9.324  1.00  0.00     0.164 HD
BRANCH  60  62
ATOM     62  C   UNL     1      -0.201   4.551 -11.338  1.00  0.00     0.168 CG0
ATOM     63  C   UNL     1      -1.239   5.301 -12.164  1.00  0.00     0.041 C 
ATOM     64  G   UNL     1       0.401   3.384 -12.148  1.00  0.00     0.000 G0
ENDBRANCH  60  62
ENDBRANCH  56  58
ENDBRANCH  54  56
ENDBRANCH  52  54
ENDBRANCH  51  52
ENDBRANCH  50  51
ENDBRANCH  49  50
BRANCH  49  65
ATOM     65  C   UNL     1      -2.845   5.368  -2.828  1.00  0.00     0.326 C 
ATOM     66  O   UNL     1      -2.138   6.361  -2.924  1.00  0.00    -0.250 OA
BRANCH  65  67
ATOM     67  O   UNL     1      -3.212   4.921  -1.607  1.00  0.00    -0.480 OA
ATOM     68  H   UNL     1      -2.467   4.341  -1.340  1.00  0.00     0.296 HD
ENDBRANCH  65  67
ENDBRANCH  49  65
ENDBRANCH  47  49
ENDBRANCH  43  45
ENDBRANCH   1  43
BRANCH   1  69
ATOM     69  C   UNL     1      -8.849   3.537  -5.637  1.00  0.00    -0.001 C 
ATOM     70  C   UNL     1      -8.797   4.171  -6.822  1.00  0.00     0.001 C 
BRANCH  70  71
ATOM     71  C   UNL     1      -9.907   4.821  -7.521  1.00  0.00    -0.055 C 
ATOM     72  C   UNL     1      -9.625   5.491  -8.658  1.00  0.00    -0.018 C 
ATOM     73  C   UNL     1     -11.285   4.689  -6.927  1.00  0.00     0.044 C 
BRANCH  72  74
ATOM     74  C   UNL     1     -10.563   6.251  -9.586  1.00  0.00     0.038 C 
ATOM     75  C   UNL     1     -10.768   5.382 -10.832  1.00  0.00     0.015 C 
BRANCH  74  76
ATOM     76  C   UNL     1      -9.961   7.660  -9.863  1.00  0.00     0.128 C 
BRANCH  76  77
ATOM     77  O   UNL     1      -9.822   7.864 -11.280  1.00  0.00    -0.381 OA
ATOM     78  C   UNL     1     -10.279   9.135 -11.721  1.00  0.00     0.195 C 
ENDBRANCH  76  77
BRANCH  76  79
ATOM     79  C   UNL     1     -10.716   8.817  -9.162  1.00  0.00     0.068 C 
BRANCH  79  80
ATOM     80  C   UNL     1     -11.420   8.516  -7.861  1.00  0.00    -0.045 A 
ATOM     81  C   UNL     1     -10.715   8.474  -6.651  1.00  0.00     0.004 A 
ATOM     82  C   UNL     1     -12.797   8.243  -7.848  1.00  0.00     0.004 A 
ATOM     83  C   UNL     1     -11.371   8.181  -5.454  1.00  0.00     0.000 A 
ATOM     84  C   UNL     1     -13.452   7.950  -6.650  1.00  0.00     0.000 A 
ATOM     85  C   UNL     1     -12.739   7.920  -5.454  1.00  0.00     0.000 A 
ENDBRANCH  79  80
ENDBRANCH  76  79
ENDBRANCH  74  76
ENDBRANCH  72  74
ENDBRANCH  70  71
ENDBRANCH   1  69
TORSDOF 17
ENDMDL
MODEL 14
REMARK VINA RESULT:    -7.049      2.938      5.269
REMARK INTER + INTRA:         -27.367
REMARK INTER:                 -21.557
REMARK INTRA:                  -5.810
REMARK UNBOUND:                -6.307
REMARK SMILES C=C1C(=O)N[C@H](C)C(=O)N[C@@H](CC(C)C)C(=O)N[C@@H](C(=O)O)[C@H](C)C(=O)N[C@@H](CCCN=C(N)N)C(=O)N[C@@H](/C=C/C(C)=C/[C@H](C)[C@H](Cc2ccccc2)OC)[C@H](C)C(=O)N[C@@H](C(=O)O)CCC(=O)N1C
REMARK SMILES IDX 39 1 38 2 37 3 36 4 28 6 27 7 25 8 26 9 23 11 24 12 19 13
REMARK SMILES IDX 18 14 16 15 17 16 11 18 10 19 8 20 9 21 12 24 13 25 14 26
REMARK SMILES IDX 15 27 20 28 21 29 22 30 29 32 30 33 31 34 32 35 33 36 34 37
REMARK SMILES IDX 35 38 57 43 58 44 59 45 60 46 61 47 62 49 66 50 67 51 68 52
REMARK SMILES IDX 69 53 70 54 71 55 2 56 1 57 3 58 4 59 5 60 6 62 7 63 63 65
REMARK SMILES IDX 64 66 65 67 40 69 41 70 42 71 44 72 43 73 45 74 46 75 47 76
REMARK SMILES IDX 55 77 56 78 48 79 49 80 50 81 54 82 51 83 53 84 52 85
REMARK H PARENT 38 5 27 10 18 17 10 22 22 31 34 39 34 40 35 41 35 42 61 48
REMARK H PARENT 5 61 65 68
REMARK Flexibility Score:  369.900
ROOT
ATOM      1  C   UNL     1      -8.973   1.061  -6.090  1.00  0.00     0.117 C 
ENDROOT
BRANCH   1   2
ATOM      2  N   UNL     1      -9.219   0.213  -4.923  1.00  0.00    -0.347 N 
ATOM      3  O   UNL     1     -10.856  -1.111  -5.839  1.00  0.00    -0.273 OA
ATOM      4  C   UNL     1     -10.080  -0.868  -4.921  1.00  0.00     0.243 C 
ATOM      5  H   UNL     1      -8.703   0.380  -4.073  1.00  0.00     0.164 HD
BRANCH   4   6
ATOM      6  C   UNL     1     -10.093  -1.651  -3.584  1.00  0.00     0.171 C 
BRANCH   6   7
ATOM      7  N   UNL     1      -9.892  -3.088  -3.827  1.00  0.00    -0.344 N 
ATOM      8  C   UNL     1     -10.859  -4.003  -3.470  1.00  0.00     0.226 C 
ATOM      9  O   UNL     1     -11.905  -3.678  -2.921  1.00  0.00    -0.275 OA
ATOM     10  H   UNL     1      -9.012  -3.402  -4.217  1.00  0.00     0.164 HD
BRANCH   8  11
ATOM     11  C   UNL     1     -10.527  -5.439  -3.836  1.00  0.00     0.109 C 
ATOM     12  C   UNL     1     -10.050  -5.515  -5.287  1.00  0.00     0.021 C 
BRANCH  11  13
ATOM     13  C   UNL     1      -9.549  -6.029  -2.800  1.00  0.00     0.204 C 
BRANCH  13  14
ATOM     14  N   UNL     1      -9.807  -5.524  -1.449  1.00  0.00    -0.340 N 
ATOM     15  C   UNL     1     -10.916  -5.884  -0.714  1.00  0.00     0.243 C 
ATOM     16  O   UNL     1     -11.738  -6.704  -1.118  1.00  0.00    -0.273 OA
ATOM     17  H   UNL     1      -9.250  -4.731  -1.118  1.00  0.00     0.164 HD
BRANCH  15  18
ATOM     18  C   UNL     1     -11.084  -5.069   0.592  1.00  0.00     0.171 C 
BRANCH  18  19
ATOM     19  N   UNL     1     -10.558  -5.899   1.674  1.00  0.00    -0.343 N 
ATOM     20  C   UNL     1     -11.368  -6.759   2.392  1.00  0.00     0.242 CG0
ATOM     21  O   UNL     1     -12.587  -6.768   2.244  1.00  0.00    -0.273 OA
ATOM     22  H   UNL     1      -9.575  -5.842   1.912  1.00  0.00     0.164 HD
ATOM     23  G   UNL     1     -10.621  -7.610   3.440  1.00  0.00     0.000 G0
ENDBRANCH  18  19
BRANCH  18  24
ATOM     24  C   UNL     1     -10.338  -3.733   0.496  1.00  0.00     0.038 C 
BRANCH  24  25
ATOM     25  C   UNL     1     -10.901  -2.614   1.398  1.00  0.00    -0.015 C 
ATOM     26  C   UNL     1     -10.156  -2.503   2.728  1.00  0.00     0.007 C 
ATOM     27  C   UNL     1     -12.389  -2.864   1.660  1.00  0.00     0.007 C 
ENDBRANCH  24  25
ENDBRANCH  18  24
ENDBRANCH  15  18
ENDBRANCH  13  14
BRANCH  13  28
ATOM     28  C   UNL     1      -9.596  -7.559  -2.730  1.00  0.00     0.327 C 
ATOM     29  O   UNL     1     -10.306  -8.292  -3.400  1.00  0.00    -0.250 OA
BRANCH  28  30
ATOM     30  O   UNL     1      -8.833  -8.065  -1.739  1.00  0.00    -0.480 OA
ATOM     31  H   UNL     1      -8.523  -7.277  -1.247  1.00  0.00     0.296 HD
ENDBRANCH  28  30
ENDBRANCH  13  28
ENDBRANCH  11  13
ENDBRANCH   8  11
ENDBRANCH   6   7
BRANCH   6  32
ATOM     32  C   UNL     1      -9.001  -1.094  -2.663  1.00  0.00     0.037 C 
BRANCH  32  33
ATOM     33  C   UNL     1      -9.585  -0.310  -1.480  1.00  0.00     0.026 C 
BRANCH  33  34
ATOM     34  C   UNL     1      -8.957   1.076  -1.329  1.00  0.00     0.146 C 
BRANCH  34  35
ATOM     35  N   UNL     1      -7.971   1.262  -2.385  1.00  0.00    -0.254 NA
ATOM     36  C   UNL     1      -6.765   1.543  -2.057  1.00  0.00     0.185 C 
ATOM     37  N   UNL     1      -5.847   1.712  -3.022  1.00  0.00    -0.370 N 
ATOM     38  N   UNL     1      -6.239   1.704  -0.830  1.00  0.00    -0.370 N 
ATOM     39  H   UNL     1      -6.165   1.596  -3.976  1.00  0.00     0.159 HD
ATOM     40  H   UNL     1      -4.858   1.760  -2.847  1.00  0.00     0.159 HD
ATOM     41  H   UNL     1      -5.306   2.062  -0.707  1.00  0.00     0.159 HD
ATOM     42  H   UNL     1      -6.818   1.622  -0.009  1.00  0.00     0.159 HD
ENDBRANCH  34  35
ENDBRANCH  33  34
ENDBRANCH  32  33
ENDBRANCH   6  32
ENDBRANCH   4   6
ENDBRANCH   1   2
BRANCH   1  43
ATOM     43  C   UNL     1      -7.452   1.024  -6.417  1.00  0.00     0.102 C 
ATOM     44  C   UNL     1      -7.114   1.564  -7.817  1.00  0.00     0.020 C 
BRANCH  43  45
ATOM     45  C   UNL     1      -6.860  -0.358  -6.124  1.00  0.00     0.225 C 
ATOM     46  O   UNL     1      -6.309  -0.641  -5.065  1.00  0.00    -0.275 OA
ATOM     47  N   UNL     1      -6.899  -1.252  -7.170  1.00  0.00    -0.342 N 
ATOM     48  H   UNL     1      -7.484  -1.060  -7.971  1.00  0.00     0.164 HD
BRANCH  47  49
ATOM     49  C   UNL     1      -6.402  -2.624  -7.024  1.00  0.00     0.192 C 
BRANCH  49  50
ATOM     50  C   UNL     1      -4.991  -2.724  -7.609  1.00  0.00     0.047 C 
BRANCH  50  51
ATOM     51  C   UNL     1      -4.781  -1.765  -8.788  1.00  0.00     0.103 C 
BRANCH  51  52
ATOM     52  C   UNL     1      -3.386  -1.143  -8.780  1.00  0.00     0.226 C 
ATOM     53  O   UNL     1      -2.531  -1.572  -8.002  1.00  0.00    -0.275 OA
BRANCH  52  54
ATOM     54  N   UNL     1      -3.139  -0.142  -9.738  1.00  0.00    -0.311 N 
ATOM     55  C   UNL     1      -3.637  -0.275 -11.114  1.00  0.00     0.153 C 
BRANCH  54  56
ATOM     56  C   UNL     1      -2.417   1.019  -9.416  1.00  0.00     0.102 C 
ATOM     57  C   UNL     1      -2.912   2.070  -8.744  1.00  0.00     0.043 C 
BRANCH  56  58
ATOM     58  C   UNL     1      -0.957   1.149  -9.782  1.00  0.00     0.268 C 
ATOM     59  O   UNL     1      -0.297   0.227 -10.242  1.00  0.00    -0.268 OA
ATOM     60  N   UNL     1      -0.468   2.422  -9.609  1.00  0.00    -0.339 N 
ATOM     61  H   UNL     1      -1.077   3.128  -9.213  1.00  0.00     0.164 HD
BRANCH  60  62
ATOM     62  C   UNL     1       0.904   2.784  -9.961  1.00  0.00     0.168 CG0
ATOM     63  C   UNL     1       1.658   3.316  -8.748  1.00  0.00     0.041 C 
ATOM     64  G   UNL     1       0.888   3.830 -11.095  1.00  0.00     0.000 G0
ENDBRANCH  60  62
ENDBRANCH  56  58
ENDBRANCH  54  56
ENDBRANCH  52  54
ENDBRANCH  51  52
ENDBRANCH  50  51
ENDBRANCH  49  50
BRANCH  49  65
ATOM     65  C   UNL     1      -7.318  -3.637  -7.727  1.00  0.00     0.326 C 
ATOM     66  O   UNL     1      -6.944  -4.612  -8.362  1.00  0.00    -0.250 OA
BRANCH  65  67
ATOM     67  O   UNL     1      -8.637  -3.350  -7.654  1.00  0.00    -0.480 OA
ATOM     68  H   UNL     1      -8.916  -3.758  -6.806  1.00  0.00     0.296 HD
ENDBRANCH  65  67
ENDBRANCH  49  65
ENDBRANCH  47  49
ENDBRANCH  43  45
ENDBRANCH   1  43
BRANCH   1  69
ATOM     69  C   UNL     1      -9.626   2.398  -5.788  1.00  0.00    -0.001 C 
ATOM     70  C   UNL     1     -10.763   2.889  -6.311  1.00  0.00     0.001 C 
BRANCH  70  71
ATOM     71  C   UNL     1     -11.395   4.172  -5.996  1.00  0.00    -0.055 C 
ATOM     72  C   UNL     1     -11.831   4.927  -7.026  1.00  0.00    -0.018 C 
ATOM     73  C   UNL     1     -11.521   4.554  -4.544  1.00  0.00     0.044 C 
BRANCH  72  74
ATOM     74  C   UNL     1     -12.519   6.284  -7.002  1.00  0.00     0.038 C 
ATOM     75  C   UNL     1     -13.813   6.150  -7.813  1.00  0.00     0.015 C 
BRANCH  74  76
ATOM     76  C   UNL     1     -11.525   7.359  -7.532  1.00  0.00     0.128 C 
BRANCH  76  77
ATOM     77  O   UNL     1     -10.933   8.066  -6.429  1.00  0.00    -0.381 OA
ATOM     78  C   UNL     1     -11.831   8.298  -5.351  1.00  0.00     0.195 C 
ENDBRANCH  76  77
BRANCH  76  79
ATOM     79  C   UNL     1     -10.471   6.807  -8.524  1.00  0.00     0.068 C 
BRANCH  79  80
ATOM     80  C   UNL     1     -10.061   7.686  -9.681  1.00  0.00    -0.045 A 
ATOM     81  C   UNL     1      -9.212   7.206 -10.687  1.00  0.00     0.004 A 
ATOM     82  C   UNL     1     -10.505   9.015  -9.751  1.00  0.00     0.004 A 
ATOM     83  C   UNL     1      -8.826   8.030 -11.746  1.00  0.00     0.000 A 
ATOM     84  C   UNL     1     -10.118   9.839 -10.811  1.00  0.00     0.000 A 
ATOM     85  C   UNL     1      -9.280   9.346 -11.809  1.00  0.00     0.000 A 
ENDBRANCH  79  80
ENDBRANCH  76  79
ENDBRANCH  74  76
ENDBRANCH  72  74
ENDBRANCH  70  71
ENDBRANCH   1  69
TORSDOF 17
ENDMDL
MODEL 15
REMARK VINA RESULT:    -7.047      3.412      8.055
REMARK INTER + INTRA:         -27.361
REMARK INTER:                 -20.487
REMARK INTRA:                  -6.874
REMARK UNBOUND:                -6.307
REMARK SMILES C=C1C(=O)N[C@H](C)C(=O)N[C@@H](CC(C)C)C(=O)N[C@@H](C(=O)O)[C@H](C)C(=O)N[C@@H](CCCN=C(N)N)C(=O)N[C@@H](/C=C/C(C)=C/[C@H](C)[C@H](Cc2ccccc2)OC)[C@H](C)C(=O)N[C@@H](C(=O)O)CCC(=O)N1C
REMARK SMILES IDX 39 1 38 2 37 3 36 4 28 6 27 7 25 8 26 9 23 11 24 12 19 13
REMARK SMILES IDX 18 14 16 15 17 16 11 18 10 19 8 20 9 21 12 24 13 25 14 26
REMARK SMILES IDX 15 27 20 28 21 29 22 30 29 32 30 33 31 34 32 35 33 36 34 37
REMARK SMILES IDX 35 38 57 43 58 44 59 45 60 46 61 47 62 49 66 50 67 51 68 52
REMARK SMILES IDX 69 53 70 54 71 55 2 56 1 57 3 58 4 59 5 60 6 62 7 63 63 65
REMARK SMILES IDX 64 66 65 67 40 69 41 70 42 71 44 72 43 73 45 74 46 75 47 76
REMARK SMILES IDX 55 77 56 78 48 79 49 80 50 81 54 82 51 83 53 84 52 85
REMARK H PARENT 38 5 27 10 18 17 10 22 22 31 34 39 34 40 35 41 35 42 61 48
REMARK H PARENT 5 61 65 68
REMARK Flexibility Score:  369.900
ROOT
ATOM      1  C   UNL     1      -5.550   3.419  -4.338  1.00  0.00     0.117 C 
ENDROOT
BRANCH   1   2
ATOM      2  N   UNL     1      -6.585   2.417  -4.595  1.00  0.00    -0.347 N 
ATOM      3  O   UNL     1      -6.224   1.112  -2.741  1.00  0.00    -0.273 OA
ATOM      4  C   UNL     1      -6.901   1.392  -3.725  1.00  0.00     0.243 C 
ATOM      5  H   UNL     1      -7.148   2.490  -5.429  1.00  0.00     0.164 HD
BRANCH   4   6
ATOM      6  C   UNL     1      -8.095   0.522  -4.194  1.00  0.00     0.171 C 
BRANCH   6   7
ATOM      7  N   UNL     1      -8.977   0.202  -3.060  1.00  0.00    -0.344 N 
ATOM      8  C   UNL     1      -9.209  -1.107  -2.697  1.00  0.00     0.226 C 
ATOM      9  O   UNL     1      -8.722  -2.055  -3.301  1.00  0.00    -0.275 OA
ATOM     10  H   UNL     1      -9.450   0.957  -2.579  1.00  0.00     0.164 HD
BRANCH   8  11
ATOM     11  C   UNL     1     -10.095  -1.269  -1.475  1.00  0.00     0.109 C 
ATOM     12  C   UNL     1     -10.490   0.102  -0.926  1.00  0.00     0.021 C 
BRANCH  11  13
ATOM     13  C   UNL     1     -11.279  -2.199  -1.809  1.00  0.00     0.204 C 
BRANCH  13  14
ATOM     14  N   UNL     1     -10.948  -3.611  -1.596  1.00  0.00    -0.340 N 
ATOM     15  C   UNL     1     -11.588  -4.637  -2.256  1.00  0.00     0.243 C 
ATOM     16  O   UNL     1     -12.443  -4.437  -3.117  1.00  0.00    -0.273 OA
ATOM     17  H   UNL     1     -10.361  -3.851  -0.793  1.00  0.00     0.164 HD
BRANCH  15  18
ATOM     18  C   UNL     1     -11.220  -6.043  -1.720  1.00  0.00     0.171 C 
BRANCH  18  19
ATOM     19  N   UNL     1     -12.148  -6.331  -0.629  1.00  0.00    -0.343 N 
ATOM     20  C   UNL     1     -11.838  -6.046   0.686  1.00  0.00     0.242 CG0
ATOM     21  O   UNL     1     -10.718  -5.660   1.014  1.00  0.00    -0.273 OA
ATOM     22  H   UNL     1     -13.043  -6.759  -0.838  1.00  0.00     0.164 HD
ATOM     23  G   UNL     1     -12.972  -6.347   1.688  1.00  0.00     0.000 G0
ENDBRANCH  18  19
BRANCH  18  24
ATOM     24  C   UNL     1     -11.320  -7.091  -2.836  1.00  0.00     0.038 C 
BRANCH  24  25
ATOM     25  C   UNL     1      -9.963  -7.560  -3.402  1.00  0.00    -0.015 C 
ATOM     26  C   UNL     1      -8.843  -7.502  -2.363  1.00  0.00     0.007 C 
ATOM     27  C   UNL     1      -9.587  -6.703  -4.614  1.00  0.00     0.007 C 
ENDBRANCH  24  25
ENDBRANCH  18  24
ENDBRANCH  15  18
ENDBRANCH  13  14
BRANCH  13  28
ATOM     28  C   UNL     1     -12.534  -1.898  -0.985  1.00  0.00     0.327 C 
ATOM     29  O   UNL     1     -13.495  -1.236  -1.347  1.00  0.00    -0.250 OA
BRANCH  28  30
ATOM     30  O   UNL     1     -12.454  -2.346   0.284  1.00  0.00    -0.480 OA
ATOM     31  H   UNL     1     -12.975  -3.176   0.280  1.00  0.00     0.296 HD
ENDBRANCH  28  30
ENDBRANCH  13  28
ENDBRANCH  11  13
ENDBRANCH   8  11
ENDBRANCH   6   7
BRANCH   6  32
ATOM     32  C   UNL     1      -8.862   1.269  -5.291  1.00  0.00     0.037 C 
BRANCH  32  33
ATOM     33  C   UNL     1      -8.640   0.651  -6.678  1.00  0.00     0.026 C 
BRANCH  33  34
ATOM     34  C   UNL     1      -8.257  -0.828  -6.605  1.00  0.00     0.146 C 
BRANCH  34  35
ATOM     35  N   UNL     1      -9.278  -1.612  -7.286  1.00  0.00    -0.254 NA
ATOM     36  C   UNL     1      -9.397  -2.853  -6.993  1.00  0.00     0.185 C 
ATOM     37  N   UNL     1     -10.338  -3.583  -7.611  1.00  0.00    -0.370 N 
ATOM     38  N   UNL     1      -8.690  -3.585  -6.113  1.00  0.00    -0.370 N 
ATOM     39  H   UNL     1     -10.921  -3.100  -8.282  1.00  0.00     0.159 HD
ATOM     40  H   UNL     1     -10.609  -4.506  -7.316  1.00  0.00     0.159 HD
ATOM     41  H   UNL     1      -8.786  -4.586  -6.073  1.00  0.00     0.159 HD
ATOM     42  H   UNL     1      -7.938  -3.168  -5.587  1.00  0.00     0.159 HD
ENDBRANCH  34  35
ENDBRANCH  33  34
ENDBRANCH  32  33
ENDBRANCH   6  32
ENDBRANCH   4   6
ENDBRANCH   1   2
BRANCH   1  43
ATOM     43  C   UNL     1      -6.208   4.829  -4.361  1.00  0.00     0.102 C 
ATOM     44  C   UNL     1      -6.117   5.568  -3.016  1.00  0.00     0.020 C 
BRANCH  43  45
ATOM     45  C   UNL     1      -7.624   4.765  -4.942  1.00  0.00     0.225 C 
ATOM     46  O   UNL     1      -7.854   4.531  -6.125  1.00  0.00    -0.275 OA
ATOM     47  N   UNL     1      -8.637   5.083  -4.067  1.00  0.00    -0.342 N 
ATOM     48  H   UNL     1      -8.448   5.123  -3.075  1.00  0.00     0.164 HD
BRANCH  47  49
ATOM     49  C   UNL     1     -10.045   5.030  -4.473  1.00  0.00     0.192 C 
BRANCH  49  50
ATOM     50  C   UNL     1     -10.593   6.452  -4.615  1.00  0.00     0.047 C 
BRANCH  50  51
ATOM     51  C   UNL     1     -10.350   7.033  -6.014  1.00  0.00     0.103 C 
BRANCH  51  52
ATOM     52  C   UNL     1     -11.640   7.141  -6.823  1.00  0.00     0.226 C 
ATOM     53  O   UNL     1     -12.457   8.024  -6.556  1.00  0.00    -0.275 OA
BRANCH  52  54
ATOM     54  N   UNL     1     -11.782   6.245  -7.899  1.00  0.00    -0.311 N 
ATOM     55  C   UNL     1     -11.806   4.793  -7.677  1.00  0.00     0.153 C 
BRANCH  54  56
ATOM     56  C   UNL     1     -11.910   6.702  -9.221  1.00  0.00     0.102 C 
ATOM     57  C   UNL     1     -12.944   6.425 -10.033  1.00  0.00     0.043 C 
BRANCH  56  58
ATOM     58  C   UNL     1     -10.872   7.615  -9.830  1.00  0.00     0.268 C 
ATOM     59  O   UNL     1      -9.677   7.349  -9.851  1.00  0.00    -0.268 OA
ATOM     60  N   UNL     1     -11.412   8.735 -10.414  1.00  0.00    -0.339 N 
ATOM     61  H   UNL     1     -12.411   8.887 -10.344  1.00  0.00     0.164 HD
BRANCH  60  62
ATOM     62  C   UNL     1     -10.592   9.721 -11.116  1.00  0.00     0.168 CG0
ATOM     63  C   UNL     1     -10.336  10.943 -10.242  1.00  0.00     0.041 C 
ATOM     64  G   UNL     1     -11.285  10.127 -12.433  1.00  0.00     0.000 G0
ENDBRANCH  60  62
ENDBRANCH  56  58
ENDBRANCH  54  56
ENDBRANCH  52  54
ENDBRANCH  51  52
ENDBRANCH  50  51
ENDBRANCH  49  50
BRANCH  49  65
ATOM     65  C   UNL     1     -10.899   4.254  -3.458  1.00  0.00     0.326 C 
ATOM     66  O   UNL     1     -12.047   4.527  -3.139  1.00  0.00    -0.250 OA
BRANCH  65  67
ATOM     67  O   UNL     1     -10.262   3.226  -2.855  1.00  0.00    -0.480 OA
ATOM     68  H   UNL     1     -10.704   2.431  -3.224  1.00  0.00     0.296 HD
ENDBRANCH  65  67
ENDBRANCH  49  65
ENDBRANCH  47  49
ENDBRANCH  43  45
ENDBRANCH   1  43
BRANCH   1  69
ATOM     69  C   UNL     1      -4.422   3.120  -5.309  1.00  0.00    -0.001 C 
ATOM     70  C   UNL     1      -4.221   1.987  -6.005  1.00  0.00     0.001 C 
BRANCH  70  71
ATOM     71  C   UNL     1      -3.140   1.718  -6.955  1.00  0.00    -0.055 C 
ATOM     72  C   UNL     1      -2.834   2.683  -7.847  1.00  0.00    -0.018 C 
ATOM     73  C   UNL     1      -2.440   0.387  -6.864  1.00  0.00     0.044 C 
BRANCH  72  74
ATOM     74  C   UNL     1      -1.772   2.686  -8.937  1.00  0.00     0.038 C 
ATOM     75  C   UNL     1      -2.056   1.487  -9.849  1.00  0.00     0.015 C 
BRANCH  74  76
ATOM     76  C   UNL     1      -0.366   2.678  -8.266  1.00  0.00     0.128 C 
BRANCH  76  77
ATOM     77  O   UNL     1       0.633   2.294  -9.225  1.00  0.00    -0.381 OA
ATOM     78  C   UNL     1       1.712   3.214  -9.324  1.00  0.00     0.195 C 
ENDBRANCH  76  77
BRANCH  76  79
ATOM     79  C   UNL     1      -0.014   3.993  -7.526  1.00  0.00     0.068 C 
BRANCH  79  80
ATOM     80  C   UNL     1      -0.592   4.206  -6.148  1.00  0.00    -0.045 A 
ATOM     81  C   UNL     1      -1.273   5.387  -5.825  1.00  0.00     0.004 A 
ATOM     82  C   UNL     1      -0.431   3.228  -5.155  1.00  0.00     0.004 A 
ATOM     83  C   UNL     1      -1.793   5.582  -4.544  1.00  0.00     0.000 A 
ATOM     84  C   UNL     1      -0.950   3.425  -3.873  1.00  0.00     0.000 A 
ATOM     85  C   UNL     1      -1.632   4.600  -3.569  1.00  0.00     0.000 A 
ENDBRANCH  79  80
ENDBRANCH  76  79
ENDBRANCH  74  76
ENDBRANCH  72  74
ENDBRANCH  70  71
ENDBRANCH   1  69
TORSDOF 17
ENDMDL
MODEL 16
REMARK VINA RESULT:    -6.994      2.961      6.581
REMARK INTER + INTRA:         -27.203
REMARK INTER:                 -20.242
REMARK INTRA:                  -6.960
REMARK UNBOUND:                -6.307
REMARK SMILES C=C1C(=O)N[C@H](C)C(=O)N[C@@H](CC(C)C)C(=O)N[C@@H](C(=O)O)[C@H](C)C(=O)N[C@@H](CCCN=C(N)N)C(=O)N[C@@H](/C=C/C(C)=C/[C@H](C)[C@H](Cc2ccccc2)OC)[C@H](C)C(=O)N[C@@H](C(=O)O)CCC(=O)N1C
REMARK SMILES IDX 39 1 38 2 37 3 36 4 28 6 27 7 25 8 26 9 23 11 24 12 19 13
REMARK SMILES IDX 18 14 16 15 17 16 11 18 10 19 8 20 9 21 12 24 13 25 14 26
REMARK SMILES IDX 15 27 20 28 21 29 22 30 29 32 30 33 31 34 32 35 33 36 34 37
REMARK SMILES IDX 35 38 57 43 58 44 59 45 60 46 61 47 62 49 66 50 67 51 68 52
REMARK SMILES IDX 69 53 70 54 71 55 2 56 1 57 3 58 4 59 5 60 6 62 7 63 63 65
REMARK SMILES IDX 64 66 65 67 40 69 41 70 42 71 44 72 43 73 45 74 46 75 47 76
REMARK SMILES IDX 55 77 56 78 48 79 49 80 50 81 54 82 51 83 53 84 52 85
REMARK H PARENT 38 5 27 10 18 17 10 22 22 31 34 39 34 40 35 41 35 42 61 48
REMARK H PARENT 5 61 65 68
REMARK Flexibility Score:  369.900
ROOT
ATOM      1  C   UNL     1     -10.432  -1.990  -6.762  1.00  0.00     0.117 C 
ENDROOT
BRANCH   1   2
ATOM      2  N   UNL     1     -10.683  -2.370  -5.371  1.00  0.00    -0.347 N 
ATOM      3  O   UNL     1     -12.923  -1.874  -5.310  1.00  0.00    -0.273 OA
ATOM      4  C   UNL     1     -11.933  -2.368  -4.782  1.00  0.00     0.243 C 
ATOM      5  H   UNL     1      -9.918  -2.704  -4.804  1.00  0.00     0.164 HD
BRANCH   4   6
ATOM      6  C   UNL     1     -11.936  -2.897  -3.325  1.00  0.00     0.171 C 
BRANCH   6   7
ATOM      7  N   UNL     1     -10.710  -3.664  -3.054  1.00  0.00    -0.344 N 
ATOM      8  C   UNL     1     -10.757  -5.033  -2.901  1.00  0.00     0.226 C 
ATOM      9  O   UNL     1     -11.803  -5.668  -2.959  1.00  0.00    -0.275 OA
ATOM     10  H   UNL     1      -9.836  -3.167  -2.933  1.00  0.00     0.164 HD
BRANCH   8  11
ATOM     11  C   UNL     1      -9.403  -5.685  -2.681  1.00  0.00     0.109 C 
ATOM     12  C   UNL     1      -8.300  -4.829  -3.304  1.00  0.00     0.021 C 
BRANCH  11  13
ATOM     13  C   UNL     1      -9.212  -5.998  -1.184  1.00  0.00     0.204 C 
BRANCH  13  14
ATOM     14  N   UNL     1     -10.419  -5.710  -0.402  1.00  0.00    -0.340 N 
ATOM     15  C   UNL     1     -10.386  -5.057   0.811  1.00  0.00     0.243 C 
ATOM     16  O   UNL     1      -9.346  -4.615   1.295  1.00  0.00    -0.273 OA
ATOM     17  H   UNL     1     -11.288  -6.179  -0.670  1.00  0.00     0.164 HD
BRANCH  15  18
ATOM     18  C   UNL     1     -11.748  -5.050   1.547  1.00  0.00     0.171 C 
BRANCH  18  19
ATOM     19  N   UNL     1     -11.539  -5.738   2.820  1.00  0.00    -0.343 N 
ATOM     20  C   UNL     1     -11.340  -7.104   2.887  1.00  0.00     0.242 CG0
ATOM     21  O   UNL     1     -11.461  -7.820   1.896  1.00  0.00    -0.273 OA
ATOM     22  H   UNL     1     -11.546  -5.203   3.681  1.00  0.00     0.164 HD
ATOM     23  G   UNL     1     -11.059  -7.638   4.306  1.00  0.00     0.000 G0
ENDBRANCH  18  19
BRANCH  18  24
ATOM     24  C   UNL     1     -12.243  -3.614   1.759  1.00  0.00     0.038 C 
BRANCH  24  25
ATOM     25  C   UNL     1     -11.849  -2.990   3.115  1.00  0.00    -0.015 C 
ATOM     26  C   UNL     1     -13.061  -2.499   3.907  1.00  0.00     0.007 C 
ATOM     27  C   UNL     1     -10.879  -1.828   2.884  1.00  0.00     0.007 C 
ENDBRANCH  24  25
ENDBRANCH  18  24
ENDBRANCH  15  18
ENDBRANCH  13  14
BRANCH  13  28
ATOM     28  C   UNL     1      -8.836  -7.458  -0.916  1.00  0.00     0.327 C 
ATOM     29  O   UNL     1      -8.679  -8.330  -1.757  1.00  0.00    -0.250 OA
BRANCH  28  30
ATOM     30  O   UNL     1      -8.796  -7.762   0.398  1.00  0.00    -0.480 OA
ATOM     31  H   UNL     1      -9.192  -6.981   0.838  1.00  0.00     0.296 HD
ENDBRANCH  28  30
ENDBRANCH  13  28
ENDBRANCH  11  13
ENDBRANCH   8  11
ENDBRANCH   6   7
BRANCH   6  32
ATOM     32  C   UNL     1     -12.066  -1.713  -2.360  1.00  0.00     0.037 C 
BRANCH  32  33
ATOM     33  C   UNL     1     -10.880  -1.625  -1.389  1.00  0.00     0.026 C 
BRANCH  33  34
ATOM     34  C   UNL     1     -11.000  -0.445  -0.424  1.00  0.00     0.146 C 
BRANCH  34  35
ATOM     35  N   UNL     1     -10.643   0.778  -1.130  1.00  0.00    -0.254 NA
ATOM     36  C   UNL     1      -9.468   1.261  -0.966  1.00  0.00     0.185 C 
ATOM     37  N   UNL     1      -9.126   2.384  -1.615  1.00  0.00    -0.370 N 
ATOM     38  N   UNL     1      -8.463   0.797  -0.202  1.00  0.00    -0.370 N 
ATOM     39  H   UNL     1      -9.829   2.791  -2.220  1.00  0.00     0.159 HD
ATOM     40  H   UNL     1      -8.183   2.726  -1.677  1.00  0.00     0.159 HD
ATOM     41  H   UNL     1      -7.631   1.343  -0.047  1.00  0.00     0.159 HD
ATOM     42  H   UNL     1      -8.584  -0.034   0.356  1.00  0.00     0.159 HD
ENDBRANCH  34  35
ENDBRANCH  33  34
ENDBRANCH  32  33
ENDBRANCH   6  32
ENDBRANCH   4   6
ENDBRANCH   1   2
BRANCH   1  43
ATOM     43  C   UNL     1     -10.206  -3.283  -7.596  1.00  0.00     0.102 C 
ATOM     44  C   UNL     1     -10.589  -4.570  -6.845  1.00  0.00     0.020 C 
BRANCH  43  45
ATOM     45  C   UNL     1      -8.797  -3.311  -8.197  1.00  0.00     0.225 C 
ATOM     46  O   UNL     1      -7.810  -3.692  -7.575  1.00  0.00    -0.275 OA
ATOM     47  N   UNL     1      -8.684  -2.787  -9.465  1.00  0.00    -0.342 N 
ATOM     48  H   UNL     1      -9.516  -2.621 -10.013  1.00  0.00     0.164 HD
BRANCH  47  49
ATOM     49  C   UNL     1      -7.404  -2.780 -10.179  1.00  0.00     0.192 C 
BRANCH  49  50
ATOM     50  C   UNL     1      -6.643  -1.490  -9.859  1.00  0.00     0.047 C 
BRANCH  50  51
ATOM     51  C   UNL     1      -5.292  -1.764  -9.183  1.00  0.00     0.103 C 
BRANCH  51  52
ATOM     52  C   UNL     1      -4.139  -1.073  -9.908  1.00  0.00     0.226 C 
ATOM     53  O   UNL     1      -4.303  -0.652 -11.054  1.00  0.00    -0.275 OA
BRANCH  52  54
ATOM     54  N   UNL     1      -2.954  -0.892  -9.170  1.00  0.00    -0.311 N 
ATOM     55  C   UNL     1      -2.979  -0.831  -7.703  1.00  0.00     0.153 C 
BRANCH  54  56
ATOM     56  C   UNL     1      -1.707  -0.770  -9.806  1.00  0.00     0.102 C 
ATOM     57  C   UNL     1      -0.963  -1.800 -10.242  1.00  0.00     0.043 C 
BRANCH  56  58
ATOM     58  C   UNL     1      -1.114   0.589 -10.095  1.00  0.00     0.268 C 
ATOM     59  O   UNL     1       0.086   0.779 -10.241  1.00  0.00    -0.268 OA
ATOM     60  N   UNL     1      -2.063   1.572 -10.240  1.00  0.00    -0.339 N 
ATOM     61  H   UNL     1      -3.037   1.335 -10.093  1.00  0.00     0.164 HD
BRANCH  60  62
ATOM     62  C   UNL     1      -1.712   2.949 -10.585  1.00  0.00     0.168 CG0
ATOM     63  C   UNL     1      -2.346   3.361 -11.908  1.00  0.00     0.041 C 
ATOM     64  G   UNL     1      -0.177   3.091 -10.647  1.00  0.00     0.000 G0
ENDBRANCH  60  62
ENDBRANCH  56  58
ENDBRANCH  54  56
ENDBRANCH  52  54
ENDBRANCH  51  52
ENDBRANCH  50  51
ENDBRANCH  49  50
BRANCH  49  65
ATOM     65  C   UNL     1      -7.603  -2.889 -11.699  1.00  0.00     0.326 C 
ATOM     66  O   UNL     1      -8.088  -2.026 -12.416  1.00  0.00    -0.250 OA
BRANCH  65  67
ATOM     67  O   UNL     1      -7.245  -4.079 -12.230  1.00  0.00    -0.480 OA
ATOM     68  H   UNL     1      -6.265  -4.036 -12.256  1.00  0.00     0.296 HD
ENDBRANCH  65  67
ENDBRANCH  49  65
ENDBRANCH  47  49
ENDBRANCH  43  45
ENDBRANCH   1  43
BRANCH   1  69
ATOM     69  C   UNL     1      -9.336  -0.940  -6.723  1.00  0.00    -0.001 C 
ATOM     70  C   UNL     1      -8.494  -0.675  -5.709  1.00  0.00     0.001 C 
BRANCH  70  71
ATOM     71  C   UNL     1      -7.426   0.326  -5.691  1.00  0.00    -0.055 C 
ATOM     72  C   UNL     1      -7.120   0.897  -4.507  1.00  0.00    -0.018 C 
ATOM     73  C   UNL     1      -6.738   0.642  -6.994  1.00  0.00     0.044 C 
BRANCH  72  74
ATOM     74  C   UNL     1      -6.069   1.950  -4.189  1.00  0.00     0.038 C 
ATOM     75  C   UNL     1      -5.846   1.924  -2.672  1.00  0.00     0.015 C 
BRANCH  74  76
ATOM     76  C   UNL     1      -6.545   3.320  -4.755  1.00  0.00     0.128 C 
BRANCH  76  77
ATOM     77  O   UNL     1      -7.637   3.824  -3.968  1.00  0.00    -0.381 OA
ATOM     78  C   UNL     1      -7.428   5.143  -3.480  1.00  0.00     0.195 C 
ENDBRANCH  76  77
BRANCH  76  79
ATOM     79  C   UNL     1      -5.407   4.357  -4.935  1.00  0.00     0.068 C 
BRANCH  79  80
ATOM     80  C   UNL     1      -4.020   3.840  -5.232  1.00  0.00    -0.045 A 
ATOM     81  C   UNL     1      -3.717   3.256  -6.469  1.00  0.00     0.004 A 
ATOM     82  C   UNL     1      -3.015   3.911  -4.256  1.00  0.00     0.004 A 
ATOM     83  C   UNL     1      -2.436   2.768  -6.731  1.00  0.00     0.000 A 
ATOM     84  C   UNL     1      -1.733   3.422  -4.519  1.00  0.00     0.000 A 
ATOM     85  C   UNL     1      -1.444   2.852  -5.757  1.00  0.00     0.000 A 
ENDBRANCH  79  80
ENDBRANCH  76  79
ENDBRANCH  74  76
ENDBRANCH  72  74
ENDBRANCH  70  71
ENDBRANCH   1  69
TORSDOF 17
ENDMDL
MODEL 17
REMARK VINA RESULT:    -6.992      3.442      6.322
REMARK INTER + INTRA:         -27.196
REMARK INTER:                 -19.951
REMARK INTRA:                  -7.245
REMARK UNBOUND:                -6.307
REMARK SMILES C=C1C(=O)N[C@H](C)C(=O)N[C@@H](CC(C)C)C(=O)N[C@@H](C(=O)O)[C@H](C)C(=O)N[C@@H](CCCN=C(N)N)C(=O)N[C@@H](/C=C/C(C)=C/[C@H](C)[C@H](Cc2ccccc2)OC)[C@H](C)C(=O)N[C@@H](C(=O)O)CCC(=O)N1C
REMARK SMILES IDX 39 1 38 2 37 3 36 4 28 6 27 7 25 8 26 9 23 11 24 12 19 13
REMARK SMILES IDX 18 14 16 15 17 16 11 18 10 19 8 20 9 21 12 24 13 25 14 26
REMARK SMILES IDX 15 27 20 28 21 29 22 30 29 32 30 33 31 34 32 35 33 36 34 37
REMARK SMILES IDX 35 38 57 43 58 44 59 45 60 46 61 47 62 49 66 50 67 51 68 52
REMARK SMILES IDX 69 53 70 54 71 55 2 56 1 57 3 58 4 59 5 60 6 62 7 63 63 65
REMARK SMILES IDX 64 66 65 67 40 69 41 70 42 71 44 72 43 73 45 74 46 75 47 76
REMARK SMILES IDX 55 77 56 78 48 79 49 80 50 81 54 82 51 83 53 84 52 85
REMARK H PARENT 38 5 27 10 18 17 10 22 22 31 34 39 34 40 35 41 35 42 61 48
REMARK H PARENT 5 61 65 68
REMARK Flexibility Score:  369.900
ROOT
ATOM      1  C   UNL     1      -8.402  -3.439  -7.518  1.00  0.00     0.117 C 
ENDROOT
BRANCH   1   2
ATOM      2  N   UNL     1      -8.549  -3.963  -6.160  1.00  0.00    -0.347 N 
ATOM      3  O   UNL     1     -10.680  -4.791  -6.373  1.00  0.00    -0.273 OA
ATOM      4  C   UNL     1      -9.646  -4.681  -5.722  1.00  0.00     0.243 C 
ATOM      5  H   UNL     1      -7.794  -3.847  -5.500  1.00  0.00     0.164 HD
BRANCH   4   6
ATOM      6  C   UNL     1      -9.513  -5.196  -4.267  1.00  0.00     0.171 C 
BRANCH   6   7
ATOM      7  N   UNL     1      -9.960  -4.167  -3.314  1.00  0.00    -0.344 N 
ATOM      8  C   UNL     1      -9.118  -3.143  -2.939  1.00  0.00     0.226 C 
ATOM      9  O   UNL     1      -7.968  -3.050  -3.351  1.00  0.00    -0.275 OA
ATOM     10  H   UNL     1     -10.881  -4.248  -2.900  1.00  0.00     0.164 HD
BRANCH   8  11
ATOM     11  C   UNL     1      -9.743  -2.133  -1.994  1.00  0.00     0.109 C 
ATOM     12  C   UNL     1     -10.096  -0.852  -2.751  1.00  0.00     0.021 C 
BRANCH  11  13
ATOM     13  C   UNL     1     -10.919  -2.783  -1.238  1.00  0.00     0.204 C 
BRANCH  13  14
ATOM     14  N   UNL     1     -10.471  -3.528  -0.057  1.00  0.00    -0.340 N 
ATOM     15  C   UNL     1     -10.996  -4.751   0.299  1.00  0.00     0.243 C 
ATOM     16  O   UNL     1     -11.837  -5.334  -0.383  1.00  0.00    -0.273 OA
ATOM     17  H   UNL     1      -9.892  -3.037   0.629  1.00  0.00     0.164 HD
BRANCH  15  18
ATOM     18  C   UNL     1     -10.522  -5.247   1.688  1.00  0.00     0.171 C 
BRANCH  18  19
ATOM     19  N   UNL     1     -10.363  -6.696   1.583  1.00  0.00    -0.343 N 
ATOM     20  C   UNL     1     -11.105  -7.569   2.355  1.00  0.00     0.242 CG0
ATOM     21  O   UNL     1     -11.836  -7.167   3.258  1.00  0.00    -0.273 OA
ATOM     22  H   UNL     1      -9.685  -7.076   0.932  1.00  0.00     0.164 HD
ATOM     23  G   UNL     1     -10.856  -9.060   2.049  1.00  0.00     0.000 G0
ENDBRANCH  18  19
BRANCH  18  24
ATOM     24  C   UNL     1      -9.208  -4.564   2.087  1.00  0.00     0.038 C 
BRANCH  24  25
ATOM     25  C   UNL     1      -8.556  -5.122   3.369  1.00  0.00    -0.015 C 
ATOM     26  C   UNL     1      -8.465  -4.077   4.482  1.00  0.00     0.007 C 
ATOM     27  C   UNL     1      -7.157  -5.653   3.046  1.00  0.00     0.007 C 
ENDBRANCH  24  25
ENDBRANCH  18  24
ENDBRANCH  15  18
ENDBRANCH  13  14
BRANCH  13  28
ATOM     28  C   UNL     1     -11.967  -1.771  -0.766  1.00  0.00     0.327 C 
ATOM     29  O   UNL     1     -11.860  -1.008   0.182  1.00  0.00    -0.250 OA
BRANCH  28  30
ATOM     30  O   UNL     1     -13.132  -1.863  -1.439  1.00  0.00    -0.480 OA
ATOM     31  H   UNL     1     -13.751  -1.302  -0.928  1.00  0.00     0.296 HD
ENDBRANCH  28  30
ENDBRANCH  13  28
ENDBRANCH  11  13
ENDBRANCH   8  11
ENDBRANCH   6   7
BRANCH   6  32
ATOM     32  C   UNL     1     -10.335  -6.480  -4.111  1.00  0.00     0.037 C 
BRANCH  32  33
ATOM     33  C   UNL     1      -9.550  -7.587  -3.393  1.00  0.00     0.026 C 
BRANCH  33  34
ATOM     34  C   UNL     1      -9.411  -7.327  -1.892  1.00  0.00     0.146 C 
BRANCH  34  35
ATOM     35  N   UNL     1      -8.188  -6.573  -1.657  1.00  0.00    -0.254 NA
ATOM     36  C   UNL     1      -7.351  -7.014  -0.793  1.00  0.00     0.185 C 
ATOM     37  N   UNL     1      -6.218  -6.329  -0.572  1.00  0.00    -0.370 N 
ATOM     38  N   UNL     1      -7.429  -8.117  -0.028  1.00  0.00    -0.370 N 
ATOM     39  H   UNL     1      -6.081  -5.489  -1.119  1.00  0.00     0.159 HD
ATOM     40  H   UNL     1      -5.441  -6.694  -0.047  1.00  0.00     0.159 HD
ATOM     41  H   UNL     1      -6.770  -8.282   0.716  1.00  0.00     0.159 HD
ATOM     42  H   UNL     1      -8.235  -8.719  -0.078  1.00  0.00     0.159 HD
ENDBRANCH  34  35
ENDBRANCH  33  34
ENDBRANCH  32  33
ENDBRANCH   6  32
ENDBRANCH   4   6
ENDBRANCH   1   2
BRANCH   1  43
ATOM     43  C   UNL     1      -7.129  -4.066  -8.156  1.00  0.00     0.102 C 
ATOM     44  C   UNL     1      -6.519  -5.201  -7.315  1.00  0.00     0.020 C 
BRANCH  43  45
ATOM     45  C   UNL     1      -6.124  -2.982  -8.558  1.00  0.00     0.225 C 
ATOM     46  O   UNL     1      -5.126  -2.713  -7.895  1.00  0.00    -0.275 OA
ATOM     47  N   UNL     1      -6.457  -2.251  -9.675  1.00  0.00    -0.342 N 
ATOM     48  H   UNL     1      -7.191  -2.579 -10.288  1.00  0.00     0.164 HD
BRANCH  47  49
ATOM     49  C   UNL     1      -5.573  -1.205 -10.198  1.00  0.00     0.192 C 
BRANCH  49  50
ATOM     50  C   UNL     1      -5.815   0.101  -9.437  1.00  0.00     0.047 C 
BRANCH  50  51
ATOM     51  C   UNL     1      -4.579   0.550  -8.645  1.00  0.00     0.103 C 
BRANCH  51  52
ATOM     52  C   UNL     1      -3.485   1.105  -9.554  1.00  0.00     0.226 C 
ATOM     53  O   UNL     1      -3.775   1.925 -10.427  1.00  0.00    -0.275 OA
BRANCH  52  54
ATOM     54  N   UNL     1      -2.170   0.687  -9.279  1.00  0.00    -0.311 N 
ATOM     55  C   UNL     1      -1.747  -0.697  -9.534  1.00  0.00     0.153 C 
BRANCH  54  56
ATOM     56  C   UNL     1      -1.213   1.574  -8.758  1.00  0.00     0.102 C 
ATOM     57  C   UNL     1      -1.048   1.846  -7.453  1.00  0.00     0.043 C 
BRANCH  56  58
ATOM     58  C   UNL     1      -0.234   2.280  -9.667  1.00  0.00     0.268 C 
ATOM     59  O   UNL     1       0.973   2.297  -9.466  1.00  0.00    -0.268 OA
ATOM     60  N   UNL     1      -0.830   2.840 -10.771  1.00  0.00    -0.339 N 
ATOM     61  H   UNL     1      -1.838   2.791 -10.859  1.00  0.00     0.164 HD
BRANCH  60  62
ATOM     62  C   UNL     1      -0.058   3.518 -11.813  1.00  0.00     0.168 CG0
ATOM     63  C   UNL     1      -0.248   5.028 -11.739  1.00  0.00     0.041 C 
ATOM     64  G   UNL     1      -0.477   2.982 -13.197  1.00  0.00     0.000 G0
ENDBRANCH  60  62
ENDBRANCH  56  58
ENDBRANCH  54  56
ENDBRANCH  52  54
ENDBRANCH  51  52
ENDBRANCH  50  51
ENDBRANCH  49  50
BRANCH  49  65
ATOM     65  C   UNL     1      -5.801  -0.969 -11.699  1.00  0.00     0.326 C 
ATOM     66  O   UNL     1      -6.077  -1.831 -12.521  1.00  0.00    -0.250 OA
BRANCH  65  67
ATOM     67  O   UNL     1      -5.615   0.307 -12.104  1.00  0.00    -0.480 OA
ATOM     68  H   UNL     1      -4.702   0.306 -12.462  1.00  0.00     0.296 HD
ENDBRANCH  65  67
ENDBRANCH  49  65
ENDBRANCH  47  49
ENDBRANCH  43  45
ENDBRANCH   1  43
BRANCH   1  69
ATOM     69  C   UNL     1      -8.496  -1.928  -7.402  1.00  0.00    -0.001 C 
ATOM     70  C   UNL     1      -8.429  -1.189  -6.280  1.00  0.00     0.001 C 
BRANCH  70  71
ATOM     71  C   UNL     1      -8.500   0.270  -6.182  1.00  0.00    -0.055 C 
ATOM     72  C   UNL     1      -7.360   0.936  -5.900  1.00  0.00    -0.018 C 
ATOM     73  C   UNL     1      -9.837   0.925  -6.412  1.00  0.00     0.044 C 
BRANCH  72  74
ATOM     74  C   UNL     1      -7.133   2.432  -5.742  1.00  0.00     0.038 C 
ATOM     75  C   UNL     1      -7.097   3.036  -7.152  1.00  0.00     0.015 C 
BRANCH  74  76
ATOM     76  C   UNL     1      -5.841   2.657  -4.902  1.00  0.00     0.128 C 
BRANCH  76  77
ATOM     77  O   UNL     1      -5.772   1.691  -3.840  1.00  0.00    -0.381 OA
ATOM     78  C   UNL     1      -6.219   2.188  -2.586  1.00  0.00     0.195 C 
ENDBRANCH  76  77
BRANCH  76  79
ATOM     79  C   UNL     1      -4.543   2.714  -5.747  1.00  0.00     0.068 C 
BRANCH  79  80
ATOM     80  C   UNL     1      -3.398   3.548  -5.227  1.00  0.00    -0.045 A 
ATOM     81  C   UNL     1      -2.468   3.016  -4.324  1.00  0.00     0.004 A 
ATOM     82  C   UNL     1      -3.262   4.888  -5.622  1.00  0.00     0.004 A 
ATOM     83  C   UNL     1      -1.419   3.799  -3.837  1.00  0.00     0.000 A 
ATOM     84  C   UNL     1      -2.214   5.670  -5.134  1.00  0.00     0.000 A 
ATOM     85  C   UNL     1      -1.292   5.125  -4.243  1.00  0.00     0.000 A 
ENDBRANCH  79  80
ENDBRANCH  76  79
ENDBRANCH  74  76
ENDBRANCH  72  74
ENDBRANCH  70  71
ENDBRANCH   1  69
TORSDOF 17
ENDMDL
MODEL 18
REMARK VINA RESULT:    -6.979      3.567      8.311
REMARK INTER + INTRA:         -27.159
REMARK INTER:                 -20.377
REMARK INTRA:                  -6.782
REMARK UNBOUND:                -6.307
REMARK SMILES C=C1C(=O)N[C@H](C)C(=O)N[C@@H](CC(C)C)C(=O)N[C@@H](C(=O)O)[C@H](C)C(=O)N[C@@H](CCCN=C(N)N)C(=O)N[C@@H](/C=C/C(C)=C/[C@H](C)[C@H](Cc2ccccc2)OC)[C@H](C)C(=O)N[C@@H](C(=O)O)CCC(=O)N1C
REMARK SMILES IDX 39 1 38 2 37 3 36 4 28 6 27 7 25 8 26 9 23 11 24 12 19 13
REMARK SMILES IDX 18 14 16 15 17 16 11 18 10 19 8 20 9 21 12 24 13 25 14 26
REMARK SMILES IDX 15 27 20 28 21 29 22 30 29 32 30 33 31 34 32 35 33 36 34 37
REMARK SMILES IDX 35 38 57 43 58 44 59 45 60 46 61 47 62 49 66 50 67 51 68 52
REMARK SMILES IDX 69 53 70 54 71 55 2 56 1 57 3 58 4 59 5 60 6 62 7 63 63 65
REMARK SMILES IDX 64 66 65 67 40 69 41 70 42 71 44 72 43 73 45 74 46 75 47 76
REMARK SMILES IDX 55 77 56 78 48 79 49 80 50 81 54 82 51 83 53 84 52 85
REMARK H PARENT 38 5 27 10 18 17 10 22 22 31 34 39 34 40 35 41 35 42 61 48
REMARK H PARENT 5 61 65 68
REMARK Flexibility Score:  369.900
ROOT
ATOM      1  C   UNL     1      -4.961   3.766  -3.901  1.00  0.00     0.117 C 
ENDROOT
BRANCH   1   2
ATOM      2  N   UNL     1      -5.849   2.750  -4.467  1.00  0.00    -0.347 N 
ATOM      3  O   UNL     1      -5.753   1.248  -2.734  1.00  0.00    -0.273 OA
ATOM      4  C   UNL     1      -6.248   1.611  -3.796  1.00  0.00     0.243 C 
ATOM      5  H   UNL     1      -6.245   2.896  -5.384  1.00  0.00     0.164 HD
BRANCH   4   6
ATOM      6  C   UNL     1      -7.260   0.744  -4.588  1.00  0.00     0.171 C 
BRANCH   6   7
ATOM      7  N   UNL     1      -8.626   0.958  -4.084  1.00  0.00    -0.344 N 
ATOM      8  C   UNL     1      -9.603   0.006  -4.276  1.00  0.00     0.226 C 
ATOM      9  O   UNL     1      -9.398  -1.038  -4.884  1.00  0.00    -0.275 OA
ATOM     10  H   UNL     1      -8.851   1.838  -3.636  1.00  0.00     0.164 HD
BRANCH   8  11
ATOM     11  C   UNL     1     -10.943   0.350  -3.651  1.00  0.00     0.109 C 
ATOM     12  C   UNL     1     -12.040   0.334  -4.715  1.00  0.00     0.021 C 
BRANCH  11  13
ATOM     13  C   UNL     1     -11.203  -0.565  -2.438  1.00  0.00     0.204 C 
BRANCH  13  14
ATOM     14  N   UNL     1     -10.861  -1.963  -2.718  1.00  0.00    -0.340 N 
ATOM     15  C   UNL     1     -11.808  -2.958  -2.826  1.00  0.00     0.243 C 
ATOM     16  O   UNL     1     -13.014  -2.732  -2.754  1.00  0.00    -0.273 OA
ATOM     17  H   UNL     1      -9.880  -2.242  -2.638  1.00  0.00     0.164 HD
BRANCH  15  18
ATOM     18  C   UNL     1     -11.203  -4.381  -2.916  1.00  0.00     0.171 C 
BRANCH  18  19
ATOM     19  N   UNL     1     -12.201  -5.296  -2.366  1.00  0.00    -0.343 N 
ATOM     20  C   UNL     1     -11.843  -6.409  -1.630  1.00  0.00     0.242 CG0
ATOM     21  O   UNL     1     -10.669  -6.754  -1.516  1.00  0.00    -0.273 OA
ATOM     22  H   UNL     1     -13.185  -5.117  -2.532  1.00  0.00     0.164 HD
ATOM     23  G   UNL     1     -13.034  -7.210  -1.067  1.00  0.00     0.000 G0
ENDBRANCH  18  19
BRANCH  18  24
ATOM     24  C   UNL     1     -10.858  -4.731  -4.368  1.00  0.00     0.038 C 
BRANCH  24  25
ATOM     25  C   UNL     1      -9.386  -5.135  -4.601  1.00  0.00    -0.015 C 
ATOM     26  C   UNL     1      -9.215  -6.644  -4.782  1.00  0.00     0.007 C 
ATOM     27  C   UNL     1      -8.529  -4.657  -3.427  1.00  0.00     0.007 C 
ENDBRANCH  24  25
ENDBRANCH  18  24
ENDBRANCH  15  18
ENDBRANCH  13  14
BRANCH  13  28
ATOM     28  C   UNL     1     -10.422  -0.148  -1.188  1.00  0.00     0.327 C 
ATOM     29  O   UNL     1     -10.111  -0.872  -0.255  1.00  0.00    -0.250 OA
BRANCH  28  30
ATOM     30  O   UNL     1     -10.183   1.178  -1.132  1.00  0.00    -0.480 OA
ATOM     31  H   UNL     1     -11.071   1.586  -1.198  1.00  0.00     0.296 HD
ENDBRANCH  28  30
ENDBRANCH  13  28
ENDBRANCH  11  13
ENDBRANCH   8  11
ENDBRANCH   6   7
BRANCH   6  32
ATOM     32  C   UNL     1      -7.165   1.092  -6.077  1.00  0.00     0.037 C 
BRANCH  32  33
ATOM     33  C   UNL     1      -6.974  -0.154  -6.953  1.00  0.00     0.026 C 
BRANCH  33  34
ATOM     34  C   UNL     1      -5.683  -0.906  -6.627  1.00  0.00     0.146 C 
BRANCH  34  35
ATOM     35  N   UNL     1      -6.026  -2.202  -6.057  1.00  0.00    -0.254 NA
ATOM     36  C   UNL     1      -5.895  -3.247  -6.786  1.00  0.00     0.185 C 
ATOM     37  N   UNL     1      -6.203  -4.447  -6.270  1.00  0.00    -0.370 N 
ATOM     38  N   UNL     1      -5.472  -3.342  -8.060  1.00  0.00    -0.370 N 
ATOM     39  H   UNL     1      -6.520  -4.460  -5.309  1.00  0.00     0.159 HD
ATOM     40  H   UNL     1      -5.966  -5.319  -6.710  1.00  0.00     0.159 HD
ATOM     41  H   UNL     1      -5.546  -4.207  -8.570  1.00  0.00     0.159 HD
ATOM     42  H   UNL     1      -5.221  -2.515  -8.579  1.00  0.00     0.159 HD
ENDBRANCH  34  35
ENDBRANCH  33  34
ENDBRANCH  32  33
ENDBRANCH   6  32
ENDBRANCH   4   6
ENDBRANCH   1   2
BRANCH   1  43
ATOM     43  C   UNL     1      -5.790   5.054  -3.628  1.00  0.00     0.102 C 
ATOM     44  C   UNL     1      -6.006   5.337  -2.132  1.00  0.00     0.020 C 
BRANCH  43  45
ATOM     45  C   UNL     1      -7.080   5.062  -4.455  1.00  0.00     0.225 C 
ATOM     46  O   UNL     1      -7.095   4.930  -5.675  1.00  0.00    -0.275 OA
ATOM     47  N   UNL     1      -8.233   5.324  -3.751  1.00  0.00    -0.342 N 
ATOM     48  H   UNL     1      -8.224   5.279  -2.742  1.00  0.00     0.164 HD
BRANCH  47  49
ATOM     49  C   UNL     1      -9.545   5.328  -4.404  1.00  0.00     0.192 C 
BRANCH  49  50
ATOM     50  C   UNL     1      -9.798   6.697  -5.041  1.00  0.00     0.047 C 
BRANCH  50  51
ATOM     51  C   UNL     1     -10.953   6.665  -6.051  1.00  0.00     0.103 C 
BRANCH  51  52
ATOM     52  C   UNL     1     -11.183   8.027  -6.703  1.00  0.00     0.226 C 
ATOM     53  O   UNL     1     -10.706   9.039  -6.187  1.00  0.00    -0.275 OA
BRANCH  52  54
ATOM     54  N   UNL     1     -11.881   8.027  -7.925  1.00  0.00    -0.311 N 
ATOM     55  C   UNL     1     -13.324   8.300  -7.972  1.00  0.00     0.153 C 
BRANCH  54  56
ATOM     56  C   UNL     1     -11.227   7.773  -9.142  1.00  0.00     0.102 C 
ATOM     57  C   UNL     1     -11.109   6.563  -9.713  1.00  0.00     0.043 C 
BRANCH  56  58
ATOM     58  C   UNL     1     -10.626   8.899  -9.949  1.00  0.00     0.268 C 
ATOM     59  O   UNL     1     -10.421  10.016  -9.492  1.00  0.00    -0.268 OA
ATOM     60  N   UNL     1     -10.274   8.523 -11.223  1.00  0.00    -0.339 N 
ATOM     61  H   UNL     1     -10.487   7.581 -11.530  1.00  0.00     0.164 HD
BRANCH  60  62
ATOM     62  C   UNL     1      -9.619   9.441 -12.154  1.00  0.00     0.168 CG0
ATOM     63  C   UNL     1      -8.203   8.977 -12.474  1.00  0.00     0.041 C 
ATOM     64  G   UNL     1      -9.605  10.862 -11.553  1.00  0.00     0.000 G0
ENDBRANCH  60  62
ENDBRANCH  56  58
ENDBRANCH  54  56
ENDBRANCH  52  54
ENDBRANCH  51  52
ENDBRANCH  50  51
ENDBRANCH  49  50
BRANCH  49  65
ATOM     65  C   UNL     1     -10.674   5.012  -3.411  1.00  0.00     0.326 C 
ATOM     66  O   UNL     1     -10.969   5.684  -2.433  1.00  0.00    -0.250 OA
BRANCH  65  67
ATOM     67  O   UNL     1     -11.330   3.855  -3.651  1.00  0.00    -0.480 OA
ATOM     68  H   UNL     1     -10.695   3.165  -3.361  1.00  0.00     0.296 HD
ENDBRANCH  65  67
ENDBRANCH  49  65
ENDBRANCH  47  49
ENDBRANCH  43  45
ENDBRANCH   1  43
BRANCH   1  69
ATOM     69  C   UNL     1      -3.763   3.848  -4.830  1.00  0.00    -0.001 C 
ATOM     70  C   UNL     1      -2.839   4.823  -4.888  1.00  0.00     0.001 C 
BRANCH  70  71
ATOM     71  C   UNL     1      -1.675   4.881  -5.774  1.00  0.00    -0.055 C 
ATOM     72  C   UNL     1      -1.775   4.283  -6.981  1.00  0.00    -0.018 C 
ATOM     73  C   UNL     1      -0.452   5.609  -5.282  1.00  0.00     0.044 C 
BRANCH  72  74
ATOM     74  C   UNL     1      -0.744   4.186  -8.096  1.00  0.00     0.038 C 
ATOM     75  C   UNL     1      -1.020   5.337  -9.070  1.00  0.00     0.015 C 
BRANCH  74  76
ATOM     76  C   UNL     1      -0.821   2.764  -8.726  1.00  0.00     0.128 C 
BRANCH  76  77
ATOM     77  O   UNL     1       0.504   2.248  -8.936  1.00  0.00    -0.381 OA
ATOM     78  C   UNL     1       1.528   3.058  -8.374  1.00  0.00     0.195 C 
ENDBRANCH  76  77
BRANCH  76  79
ATOM     79  C   UNL     1      -1.732   1.780  -7.951  1.00  0.00     0.068 C 
BRANCH  79  80
ATOM     80  C   UNL     1      -2.729   0.967  -8.742  1.00  0.00    -0.045 A 
ATOM     81  C   UNL     1      -2.461  -0.364  -9.089  1.00  0.00     0.004 A 
ATOM     82  C   UNL     1      -3.934   1.545  -9.168  1.00  0.00     0.004 A 
ATOM     83  C   UNL     1      -3.381  -1.105  -9.832  1.00  0.00     0.000 A 
ATOM     84  C   UNL     1      -4.854   0.803  -9.912  1.00  0.00     0.000 A 
ATOM     85  C   UNL     1      -4.578  -0.522 -10.243  1.00  0.00     0.000 A 
ENDBRANCH  79  80
ENDBRANCH  76  79
ENDBRANCH  74  76
ENDBRANCH  72  74
ENDBRANCH  70  71
ENDBRANCH   1  69
TORSDOF 17
ENDMDL
MODEL 19
REMARK VINA RESULT:    -6.979      3.327      8.090
REMARK INTER + INTRA:         -27.159
REMARK INTER:                 -19.441
REMARK INTRA:                  -7.718
REMARK UNBOUND:                -6.307
REMARK SMILES C=C1C(=O)N[C@H](C)C(=O)N[C@@H](CC(C)C)C(=O)N[C@@H](C(=O)O)[C@H](C)C(=O)N[C@@H](CCCN=C(N)N)C(=O)N[C@@H](/C=C/C(C)=C/[C@H](C)[C@H](Cc2ccccc2)OC)[C@H](C)C(=O)N[C@@H](C(=O)O)CCC(=O)N1C
REMARK SMILES IDX 39 1 38 2 37 3 36 4 28 6 27 7 25 8 26 9 23 11 24 12 19 13
REMARK SMILES IDX 18 14 16 15 17 16 11 18 10 19 8 20 9 21 12 24 13 25 14 26
REMARK SMILES IDX 15 27 20 28 21 29 22 30 29 32 30 33 31 34 32 35 33 36 34 37
REMARK SMILES IDX 35 38 57 43 58 44 59 45 60 46 61 47 62 49 66 50 67 51 68 52
REMARK SMILES IDX 69 53 70 54 71 55 2 56 1 57 3 58 4 59 5 60 6 62 7 63 63 65
REMARK SMILES IDX 64 66 65 67 40 69 41 70 42 71 44 72 43 73 45 74 46 75 47 76
REMARK SMILES IDX 55 77 56 78 48 79 49 80 50 81 54 82 51 83 53 84 52 85
REMARK H PARENT 38 5 27 10 18 17 10 22 22 31 34 39 34 40 35 41 35 42 61 48
REMARK H PARENT 5 61 65 68
REMARK Flexibility Score:  369.900
ROOT
ATOM      1  C   UNL     1      -5.870   2.992  -4.752  1.00  0.00     0.117 C 
ENDROOT
BRANCH   1   2
ATOM      2  N   UNL     1      -6.611   1.730  -4.745  1.00  0.00    -0.347 N 
ATOM      3  O   UNL     1      -6.257   1.172  -2.546  1.00  0.00    -0.273 OA
ATOM      4  C   UNL     1      -6.823   0.964  -3.615  1.00  0.00     0.243 C 
ATOM      5  H   UNL     1      -7.044   1.406  -5.596  1.00  0.00     0.164 HD
BRANCH   4   6
ATOM      6  C   UNL     1      -7.713  -0.280  -3.863  1.00  0.00     0.171 C 
BRANCH   6   7
ATOM      7  N   UNL     1      -8.970  -0.173  -3.105  1.00  0.00    -0.344 N 
ATOM      8  C   UNL     1      -9.638  -1.304  -2.688  1.00  0.00     0.226 C 
ATOM      9  O   UNL     1      -9.241  -2.436  -2.941  1.00  0.00    -0.275 OA
ATOM     10  H   UNL     1      -9.364   0.744  -2.935  1.00  0.00     0.164 HD
BRANCH   8  11
ATOM     11  C   UNL     1     -10.888  -1.027  -1.872  1.00  0.00     0.109 C 
ATOM     12  C   UNL     1     -12.097  -1.704  -2.516  1.00  0.00     0.021 C 
BRANCH  11  13
ATOM     13  C   UNL     1     -10.642  -1.406  -0.397  1.00  0.00     0.204 C 
BRANCH  13  14
ATOM     14  N   UNL     1      -9.962  -2.698  -0.266  1.00  0.00    -0.340 N 
ATOM     15  C   UNL     1     -10.610  -3.848   0.132  1.00  0.00     0.243 C 
ATOM     16  O   UNL     1     -11.821  -3.883   0.346  1.00  0.00    -0.273 OA
ATOM     17  H   UNL     1      -8.938  -2.706  -0.280  1.00  0.00     0.164 HD
BRANCH  15  18
ATOM     18  C   UNL     1      -9.654  -5.036   0.400  1.00  0.00     0.171 C 
BRANCH  18  19
ATOM     19  N   UNL     1      -9.772  -5.355   1.821  1.00  0.00    -0.343 N 
ATOM     20  C   UNL     1      -8.661  -5.568   2.615  1.00  0.00     0.242 CG0
ATOM     21  O   UNL     1      -7.531  -5.630   2.137  1.00  0.00    -0.273 OA
ATOM     22  H   UNL     1     -10.692  -5.429   2.240  1.00  0.00     0.164 HD
ATOM     23  G   UNL     1      -8.980  -5.814   4.104  1.00  0.00     0.000 G0
ENDBRANCH  18  19
BRANCH  18  24
ATOM     24  C   UNL     1     -10.024  -6.237  -0.478  1.00  0.00     0.038 C 
BRANCH  24  25
ATOM     25  C   UNL     1      -8.948  -6.636  -1.511  1.00  0.00    -0.015 C 
ATOM     26  C   UNL     1      -9.547  -7.286  -2.758  1.00  0.00     0.007 C 
ATOM     27  C   UNL     1      -7.943  -7.592  -0.864  1.00  0.00     0.007 C 
ENDBRANCH  24  25
ENDBRANCH  18  24
ENDBRANCH  15  18
ENDBRANCH  13  14
BRANCH  13  28
ATOM     28  C   UNL     1      -9.802  -0.372   0.359  1.00  0.00     0.327 C 
ATOM     29  O   UNL     1      -9.210   0.578  -0.132  1.00  0.00    -0.250 OA
BRANCH  28  30
ATOM     30  O   UNL     1      -9.658  -0.663   1.668  1.00  0.00    -0.480 OA
ATOM     31  H   UNL     1      -8.755  -0.352   1.887  1.00  0.00     0.296 HD
ENDBRANCH  28  30
ENDBRANCH  13  28
ENDBRANCH  11  13
ENDBRANCH   8  11
ENDBRANCH   6   7
BRANCH   6  32
ATOM     32  C   UNL     1      -7.989  -0.410  -5.365  1.00  0.00     0.037 C 
BRANCH  32  33
ATOM     33  C   UNL     1      -7.021  -1.385  -6.050  1.00  0.00     0.026 C 
BRANCH  33  34
ATOM     34  C   UNL     1      -7.462  -2.843  -5.909  1.00  0.00     0.146 C 
BRANCH  34  35
ATOM     35  N   UNL     1      -8.564  -3.091  -6.828  1.00  0.00    -0.254 NA
ATOM     36  C   UNL     1      -9.584  -3.740  -6.404  1.00  0.00     0.185 C 
ATOM     37  N   UNL     1     -10.607  -3.970  -7.241  1.00  0.00    -0.370 N 
ATOM     38  N   UNL     1      -9.808  -4.257  -5.182  1.00  0.00    -0.370 N 
ATOM     39  H   UNL     1     -10.518  -3.602  -8.179  1.00  0.00     0.159 HD
ATOM     40  H   UNL     1     -11.504  -4.313  -6.941  1.00  0.00     0.159 HD
ATOM     41  H   UNL     1     -10.590  -4.868  -5.011  1.00  0.00     0.159 HD
ATOM     42  H   UNL     1      -9.115  -4.173  -4.455  1.00  0.00     0.159 HD
ENDBRANCH  34  35
ENDBRANCH  33  34
ENDBRANCH  32  33
ENDBRANCH   6  32
ENDBRANCH   4   6
ENDBRANCH   1   2
BRANCH   1  43
ATOM     43  C   UNL     1      -6.817   4.120  -5.255  1.00  0.00     0.102 C 
ATOM     44  C   UNL     1      -6.999   5.262  -4.242  1.00  0.00     0.020 C 
BRANCH  43  45
ATOM     45  C   UNL     1      -8.133   3.539  -5.780  1.00  0.00     0.225 C 
ATOM     46  O   UNL     1      -8.235   2.990  -6.874  1.00  0.00    -0.275 OA
ATOM     47  N   UNL     1      -9.235   3.754  -4.985  1.00  0.00    -0.342 N 
ATOM     48  H   UNL     1      -9.111   4.067  -4.032  1.00  0.00     0.164 HD
BRANCH  47  49
ATOM     49  C   UNL     1     -10.554   3.224  -5.343  1.00  0.00     0.192 C 
BRANCH  49  50
ATOM     50  C   UNL     1     -11.576   4.364  -5.371  1.00  0.00     0.047 C 
BRANCH  50  51
ATOM     51  C   UNL     1     -11.458   5.221  -6.639  1.00  0.00     0.103 C 
BRANCH  51  52
ATOM     52  C   UNL     1     -10.867   6.599  -6.348  1.00  0.00     0.226 C 
ATOM     53  O   UNL     1      -9.659   6.711  -6.132  1.00  0.00    -0.275 OA
BRANCH  52  54
ATOM     54  N   UNL     1     -11.754   7.689  -6.421  1.00  0.00    -0.311 N 
ATOM     55  C   UNL     1     -11.837   8.670  -5.331  1.00  0.00     0.153 C 
BRANCH  54  56
ATOM     56  C   UNL     1     -12.585   7.884  -7.536  1.00  0.00     0.102 C 
ATOM     57  C   UNL     1     -13.927   7.901  -7.501  1.00  0.00     0.043 C 
BRANCH  56  58
ATOM     58  C   UNL     1     -11.998   8.142  -8.904  1.00  0.00     0.268 C 
ATOM     59  O   UNL     1     -12.443   7.643  -9.929  1.00  0.00    -0.268 OA
ATOM     60  N   UNL     1     -10.960   9.043  -8.885  1.00  0.00    -0.339 N 
ATOM     61  H   UNL     1     -10.644   9.404  -7.993  1.00  0.00     0.164 HD
BRANCH  60  62
ATOM     62  C   UNL     1     -10.289   9.484 -10.107  1.00  0.00     0.168 CG0
ATOM     63  C   UNL     1     -10.337  11.001 -10.241  1.00  0.00     0.041 C 
ATOM     64  G   UNL     1     -10.943   8.807 -11.329  1.00  0.00     0.000 G0
ENDBRANCH  60  62
ENDBRANCH  56  58
ENDBRANCH  54  56
ENDBRANCH  52  54
ENDBRANCH  51  52
ENDBRANCH  50  51
ENDBRANCH  49  50
BRANCH  49  65
ATOM     65  C   UNL     1     -11.021   2.146  -4.353  1.00  0.00     0.326 C 
ATOM     66  O   UNL     1     -11.049   2.264  -3.136  1.00  0.00    -0.250 OA
BRANCH  65  67
ATOM     67  O   UNL     1     -11.366   0.970  -4.921  1.00  0.00    -0.480 OA
ATOM     68  H   UNL     1     -10.860   0.306  -4.404  1.00  0.00     0.296 HD
ENDBRANCH  65  67
ENDBRANCH  49  65
ENDBRANCH  47  49
ENDBRANCH  43  45
ENDBRANCH   1  43
BRANCH   1  69
ATOM     69  C   UNL     1      -4.582   2.723  -5.509  1.00  0.00    -0.001 C 
ATOM     70  C   UNL     1      -4.431   1.995  -6.630  1.00  0.00     0.001 C 
BRANCH  70  71
ATOM     71  C   UNL     1      -3.186   1.760  -7.364  1.00  0.00    -0.055 C 
ATOM     72  C   UNL     1      -2.936   2.536  -8.440  1.00  0.00    -0.018 C 
ATOM     73  C   UNL     1      -2.268   0.676  -6.863  1.00  0.00     0.044 C 
BRANCH  72  74
ATOM     74  C   UNL     1      -1.739   2.522  -9.381  1.00  0.00     0.038 C 
ATOM     75  C   UNL     1      -1.547   1.074  -9.847  1.00  0.00     0.015 C 
BRANCH  74  76
ATOM     76  C   UNL     1      -0.515   3.139  -8.642  1.00  0.00     0.128 C 
BRANCH  76  77
ATOM     77  O   UNL     1       0.612   3.208  -9.532  1.00  0.00    -0.381 OA
ATOM     78  C   UNL     1       1.866   3.063  -8.879  1.00  0.00     0.195 C 
ENDBRANCH  76  77
BRANCH  76  79
ATOM     79  C   UNL     1      -0.814   4.491  -7.948  1.00  0.00     0.068 C 
BRANCH  79  80
ATOM     80  C   UNL     1      -1.142   4.472  -6.474  1.00  0.00    -0.045 A 
ATOM     81  C   UNL     1      -2.120   5.322  -5.941  1.00  0.00     0.004 A 
ATOM     82  C   UNL     1      -0.447   3.617  -5.606  1.00  0.00     0.004 A 
ATOM     83  C   UNL     1      -2.408   5.308  -4.575  1.00  0.00     0.000 A 
ATOM     84  C   UNL     1      -0.735   3.604  -4.240  1.00  0.00     0.000 A 
ATOM     85  C   UNL     1      -1.716   4.449  -3.725  1.00  0.00     0.000 A 
ENDBRANCH  79  80
ENDBRANCH  76  79
ENDBRANCH  74  76
ENDBRANCH  72  74
ENDBRANCH  70  71
ENDBRANCH   1  69
TORSDOF 17
ENDMDL
MODEL 20
REMARK VINA RESULT:    -6.975      3.815     12.541
REMARK INTER + INTRA:         -27.145
REMARK INTER:                 -20.392
REMARK INTRA:                  -6.753
REMARK UNBOUND:                -6.307
REMARK SMILES C=C1C(=O)N[C@H](C)C(=O)N[C@@H](CC(C)C)C(=O)N[C@@H](C(=O)O)[C@H](C)C(=O)N[C@@H](CCCN=C(N)N)C(=O)N[C@@H](/C=C/C(C)=C/[C@H](C)[C@H](Cc2ccccc2)OC)[C@H](C)C(=O)N[C@@H](C(=O)O)CCC(=O)N1C
REMARK SMILES IDX 39 1 38 2 37 3 36 4 28 6 27 7 25 8 26 9 23 11 24 12 19 13
REMARK SMILES IDX 18 14 16 15 17 16 11 18 10 19 8 20 9 21 12 24 13 25 14 26
REMARK SMILES IDX 15 27 20 28 21 29 22 30 29 32 30 33 31 34 32 35 33 36 34 37
REMARK SMILES IDX 35 38 57 43 58 44 59 45 60 46 61 47 62 49 66 50 67 51 68 52
REMARK SMILES IDX 69 53 70 54 71 55 2 56 1 57 3 58 4 59 5 60 6 62 7 63 63 65
REMARK SMILES IDX 64 66 65 67 40 69 41 70 42 71 44 72 43 73 45 74 46 75 47 76
REMARK SMILES IDX 55 77 56 78 48 79 49 80 50 81 54 82 51 83 53 84 52 85
REMARK H PARENT 38 5 27 10 18 17 10 22 22 31 34 39 34 40 35 41 35 42 61 48
REMARK H PARENT 5 61 65 68
REMARK Flexibility Score:  369.900
ROOT
ATOM      1  C   UNL     1      -9.025  -4.299  -4.807  1.00  0.00     0.117 C 
ENDROOT
BRANCH   1   2
ATOM      2  N   UNL     1      -8.377  -3.006  -5.024  1.00  0.00    -0.347 N 
ATOM      3  O   UNL     1      -6.313  -3.792  -5.650  1.00  0.00    -0.273 OA
ATOM      4  C   UNL     1      -7.095  -2.857  -5.519  1.00  0.00     0.243 C 
ATOM      5  H   UNL     1      -8.896  -2.157  -4.857  1.00  0.00     0.164 HD
BRANCH   4   6
ATOM      6  C   UNL     1      -6.679  -1.380  -5.737  1.00  0.00     0.171 C 
BRANCH   6   7
ATOM      7  N   UNL     1      -5.735  -1.273  -6.861  1.00  0.00    -0.344 N 
ATOM      8  C   UNL     1      -4.716  -0.345  -6.837  1.00  0.00     0.226 C 
ATOM      9  O   UNL     1      -4.559   0.439  -5.908  1.00  0.00    -0.275 OA
ATOM     10  H   UNL     1      -5.874  -1.857  -7.676  1.00  0.00     0.164 HD
BRANCH   8  11
ATOM     11  C   UNL     1      -3.796  -0.395  -8.044  1.00  0.00     0.109 C 
ATOM     12  C   UNL     1      -4.344  -1.374  -9.083  1.00  0.00     0.021 C 
BRANCH  11  13
ATOM     13  C   UNL     1      -3.544   1.033  -8.567  1.00  0.00     0.204 C 
BRANCH  13  14
ATOM     14  N   UNL     1      -2.435   1.689  -7.868  1.00  0.00    -0.340 N 
ATOM     15  C   UNL     1      -2.583   2.869  -7.171  1.00  0.00     0.243 C 
ATOM     16  O   UNL     1      -3.672   3.424  -7.036  1.00  0.00    -0.273 OA
ATOM     17  H   UNL     1      -1.484   1.366  -8.065  1.00  0.00     0.164 HD
BRANCH  15  18
ATOM     18  C   UNL     1      -1.242   3.479  -6.695  1.00  0.00     0.171 C 
BRANCH  18  19
ATOM     19  N   UNL     1      -0.380   3.566  -7.872  1.00  0.00    -0.343 N 
ATOM     20  C   UNL     1       0.824   2.892  -7.945  1.00  0.00     0.242 CG0
ATOM     21  O   UNL     1       1.288   2.297  -6.976  1.00  0.00    -0.273 OA
ATOM     22  H   UNL     1      -0.667   4.140  -8.656  1.00  0.00     0.164 HD
ATOM     23  G   UNL     1       1.556   3.042  -9.295  1.00  0.00     0.000 G0
ENDBRANCH  18  19
BRANCH  18  24
ATOM     24  C   UNL     1      -1.469   4.856  -6.060  1.00  0.00     0.038 C 
BRANCH  24  25
ATOM     25  C   UNL     1      -0.925   5.002  -4.623  1.00  0.00    -0.015 C 
ATOM     26  C   UNL     1      -0.961   3.685  -3.848  1.00  0.00     0.007 C 
ATOM     27  C   UNL     1      -1.732   6.064  -3.873  1.00  0.00     0.007 C 
ENDBRANCH  24  25
ENDBRANCH  18  24
ENDBRANCH  15  18
ENDBRANCH  13  14
BRANCH  13  28
ATOM     28  C   UNL     1      -3.227   1.079 -10.065  1.00  0.00     0.327 C 
ATOM     29  O   UNL     1      -2.162   0.786 -10.588  1.00  0.00    -0.250 OA
BRANCH  28  30
ATOM     30  O   UNL     1      -4.227   1.604 -10.801  1.00  0.00    -0.480 OA
ATOM     31  H   UNL     1      -4.937   1.783 -10.151  1.00  0.00     0.296 HD
ENDBRANCH  28  30
ENDBRANCH  13  28
ENDBRANCH  11  13
ENDBRANCH   8  11
ENDBRANCH   6   7
BRANCH   6  32
ATOM     32  C   UNL     1      -7.933  -0.536  -5.992  1.00  0.00     0.037 C 
BRANCH  32  33
ATOM     33  C   UNL     1      -7.954   0.742  -5.142  1.00  0.00     0.026 C 
BRANCH  33  34
ATOM     34  C   UNL     1      -7.833   0.451  -3.645  1.00  0.00     0.146 C 
BRANCH  34  35
ATOM     35  N   UNL     1      -6.930   1.425  -3.049  1.00  0.00    -0.254 NA
ATOM     36  C   UNL     1      -7.042   1.682  -1.799  1.00  0.00     0.185 C 
ATOM     37  N   UNL     1      -6.211   2.575  -1.238  1.00  0.00    -0.370 N 
ATOM     38  N   UNL     1      -7.908   1.171  -0.906  1.00  0.00    -0.370 N 
ATOM     39  H   UNL     1      -5.521   2.997  -1.845  1.00  0.00     0.159 HD
ATOM     40  H   UNL     1      -6.120   2.701  -0.244  1.00  0.00     0.159 HD
ATOM     41  H   UNL     1      -7.988   1.557   0.021  1.00  0.00     0.159 HD
ATOM     42  H   UNL     1      -8.602   0.499  -1.192  1.00  0.00     0.159 HD
ENDBRANCH  34  35
ENDBRANCH  33  34
ENDBRANCH  32  33
ENDBRANCH   6  32
ENDBRANCH   4   6
ENDBRANCH   1   2
BRANCH   1  43
ATOM     43  C   UNL     1     -10.422  -4.275  -5.493  1.00  0.00     0.102 C 
ATOM     44  C   UNL     1     -10.355  -4.435  -7.022  1.00  0.00     0.020 C 
BRANCH  43  45
ATOM     45  C   UNL     1     -11.241  -3.067  -5.030  1.00  0.00     0.225 C 
ATOM     46  O   UNL     1     -11.018  -1.920  -5.408  1.00  0.00    -0.275 OA
ATOM     47  N   UNL     1     -12.199  -3.331  -4.078  1.00  0.00    -0.342 N 
ATOM     48  H   UNL     1     -12.471  -4.286  -3.893  1.00  0.00     0.164 HD
BRANCH  47  49
ATOM     49  C   UNL     1     -13.083  -2.278  -3.568  1.00  0.00     0.192 C 
BRANCH  49  50
ATOM     50  C   UNL     1     -12.684  -1.922  -2.134  1.00  0.00     0.047 C 
BRANCH  50  51
ATOM     51  C   UNL     1     -11.938  -0.583  -2.053  1.00  0.00     0.103 C 
BRANCH  51  52
ATOM     52  C   UNL     1     -12.861   0.565  -1.650  1.00  0.00     0.226 C 
ATOM     53  O   UNL     1     -13.548   1.125  -2.506  1.00  0.00    -0.275 OA
BRANCH  52  54
ATOM     54  N   UNL     1     -12.925   0.866  -0.276  1.00  0.00    -0.311 N 
ATOM     55  C   UNL     1     -11.725   1.282   0.463  1.00  0.00     0.153 C 
BRANCH  54  56
ATOM     56  C   UNL     1     -14.133   0.785   0.436  1.00  0.00     0.102 C 
ATOM     57  C   UNL     1     -14.960   1.818   0.665  1.00  0.00     0.043 C 
BRANCH  56  58
ATOM     58  C   UNL     1     -14.627  -0.535   0.978  1.00  0.00     0.268 C 
ATOM     59  O   UNL     1     -15.031  -1.443   0.263  1.00  0.00    -0.268 OA
ATOM     60  N   UNL     1     -14.514  -0.635   2.344  1.00  0.00    -0.339 N 
ATOM     61  H   UNL     1     -14.179   0.167   2.865  1.00  0.00     0.164 HD
BRANCH  60  62
ATOM     62  C   UNL     1     -14.876  -1.852   3.069  1.00  0.00     0.168 CG0
ATOM     63  C   UNL     1     -13.656  -2.475   3.736  1.00  0.00     0.041 C 
ATOM     64  G   UNL     1     -15.539  -2.853   2.100  1.00  0.00     0.000 G0
ENDBRANCH  60  62
ENDBRANCH  56  58
ENDBRANCH  54  56
ENDBRANCH  52  54
ENDBRANCH  51  52
ENDBRANCH  50  51
ENDBRANCH  49  50
BRANCH  49  65
ATOM     65  C   UNL     1     -14.557  -2.713  -3.594  1.00  0.00     0.326 C 
ATOM     66  O   UNL     1     -15.439  -2.276  -2.870  1.00  0.00    -0.250 OA
BRANCH  65  67
ATOM     67  O   UNL     1     -14.837  -3.704  -4.469  1.00  0.00    -0.480 OA
ATOM     68  H   UNL     1     -14.427  -4.497  -4.060  1.00  0.00     0.296 HD
ENDBRANCH  65  67
ENDBRANCH  49  65
ENDBRANCH  47  49
ENDBRANCH  43  45
ENDBRANCH   1  43
BRANCH   1  69
ATOM     69  C   UNL     1      -8.947  -4.567  -3.315  1.00  0.00    -0.001 C 
ATOM     70  C   UNL     1      -9.673  -5.447  -2.603  1.00  0.00     0.001 C 
BRANCH  70  71
ATOM     71  C   UNL     1      -9.573  -5.712  -1.166  1.00  0.00    -0.055 C 
ATOM     72  C   UNL     1     -10.385  -5.017  -0.342  1.00  0.00    -0.018 C 
ATOM     73  C   UNL     1      -8.577  -6.746  -0.711  1.00  0.00     0.044 C 
BRANCH  72  74
ATOM     74  C   UNL     1     -10.503  -5.083   1.174  1.00  0.00     0.038 C 
ATOM     75  C   UNL     1     -11.990  -5.265   1.505  1.00  0.00     0.015 C 
BRANCH  74  76
ATOM     76  C   UNL     1      -9.850  -3.807   1.783  1.00  0.00     0.128 C 
BRANCH  76  77
ATOM     77  O   UNL     1     -10.787  -2.717   1.758  1.00  0.00    -0.381 OA
ATOM     78  C   UNL     1     -10.340  -1.564   2.460  1.00  0.00     0.195 C 
ENDBRANCH  76  77
BRANCH  76  79
ATOM     79  C   UNL     1      -9.225  -4.028   3.184  1.00  0.00     0.068 C 
BRANCH  79  80
ATOM     80  C   UNL     1      -8.497  -5.326   3.436  1.00  0.00    -0.045 A 
ATOM     81  C   UNL     1      -7.248  -5.578   2.854  1.00  0.00     0.004 A 
ATOM     82  C   UNL     1      -9.078  -6.317   4.241  1.00  0.00     0.004 A 
ATOM     83  C   UNL     1      -6.587  -6.788   3.081  1.00  0.00     0.000 A 
ATOM     84  C   UNL     1      -8.417  -7.527   4.467  1.00  0.00     0.000 A 
ATOM     85  C   UNL     1      -7.171  -7.761   3.889  1.00  0.00     0.000 A 
ENDBRANCH  79  80
ENDBRANCH  76  79
ENDBRANCH  74  76
ENDBRANCH  72  74
ENDBRANCH  70  71
ENDBRANCH   1  69
TORSDOF 17
ENDMDL
MODEL 21
REMARK VINA RESULT:    -6.954      4.221     12.715
REMARK INTER + INTRA:         -27.085
REMARK INTER:                 -17.413
REMARK INTRA:                  -9.671
REMARK UNBOUND:                -6.307
REMARK SMILES C=C1C(=O)N[C@H](C)C(=O)N[C@@H](CC(C)C)C(=O)N[C@@H](C(=O)O)[C@H](C)C(=O)N[C@@H](CCCN=C(N)N)C(=O)N[C@@H](/C=C/C(C)=C/[C@H](C)[C@H](Cc2ccccc2)OC)[C@H](C)C(=O)N[C@@H](C(=O)O)CCC(=O)N1C
REMARK SMILES IDX 39 1 38 2 37 3 36 4 28 6 27 7 25 8 26 9 23 11 24 12 19 13
REMARK SMILES IDX 18 14 16 15 17 16 11 18 10 19 8 20 9 21 12 24 13 25 14 26
REMARK SMILES IDX 15 27 20 28 21 29 22 30 29 32 30 33 31 34 32 35 33 36 34 37
REMARK SMILES IDX 35 38 57 43 58 44 59 45 60 46 61 47 62 49 66 50 67 51 68 52
REMARK SMILES IDX 69 53 70 54 71 55 2 56 1 57 3 58 4 59 5 60 6 62 7 63 63 65
REMARK SMILES IDX 64 66 65 67 40 69 41 70 42 71 44 72 43 73 45 74 46 75 47 76
REMARK SMILES IDX 55 77 56 78 48 79 49 80 50 81 54 82 51 83 53 84 52 85
REMARK H PARENT 38 5 27 10 18 17 10 22 22 31 34 39 34 40 35 41 35 42 61 48
REMARK H PARENT 5 61 65 68
REMARK Flexibility Score:  369.900
ROOT
ATOM      1  C   UNL     1     -10.257   0.744  -4.340  1.00  0.00     0.117 C 
ENDROOT
BRANCH   1   2
ATOM      2  N   UNL     1     -10.691   1.396  -5.576  1.00  0.00    -0.347 N 
ATOM      3  O   UNL     1     -12.230   2.826  -4.652  1.00  0.00    -0.273 OA
ATOM      4  C   UNL     1     -11.580   2.453  -5.622  1.00  0.00     0.243 C 
ATOM      5  H   UNL     1     -10.292   1.104  -6.456  1.00  0.00     0.164 HD
BRANCH   4   6
ATOM      6  C   UNL     1     -11.804   3.017  -7.048  1.00  0.00     0.171 C 
BRANCH   6   7
ATOM      7  N   UNL     1     -11.902   4.484  -7.011  1.00  0.00    -0.344 N 
ATOM      8  C   UNL     1     -13.131   5.105  -6.940  1.00  0.00     0.226 C 
ATOM      9  O   UNL     1     -14.186   4.482  -6.926  1.00  0.00    -0.275 OA
ATOM     10  H   UNL     1     -11.056   5.035  -7.089  1.00  0.00     0.164 HD
BRANCH   8  11
ATOM     11  C   UNL     1     -13.062   6.620  -6.854  1.00  0.00     0.109 C 
ATOM     12  C   UNL     1     -13.661   7.099  -5.532  1.00  0.00     0.021 C 
BRANCH  11  13
ATOM     13  C   UNL     1     -11.619   7.092  -7.121  1.00  0.00     0.204 C 
BRANCH  13  14
ATOM     14  N   UNL     1     -11.538   7.991  -8.277  1.00  0.00    -0.340 N 
ATOM     15  C   UNL     1     -11.484   7.536  -9.577  1.00  0.00     0.243 C 
ATOM     16  O   UNL     1     -11.561   6.342  -9.862  1.00  0.00    -0.273 OA
ATOM     17  H   UNL     1     -11.319   8.976  -8.105  1.00  0.00     0.164 HD
BRANCH  15  18
ATOM     18  C   UNL     1     -11.192   8.650 -10.611  1.00  0.00     0.171 C 
BRANCH  18  19
ATOM     19  N   UNL     1     -10.446   9.691  -9.906  1.00  0.00    -0.343 N 
ATOM     20  C   UNL     1     -10.408  10.995 -10.360  1.00  0.00     0.242 CG0
ATOM     21  O   UNL     1     -10.887  11.312 -11.446  1.00  0.00    -0.273 OA
ATOM     22  H   UNL     1      -9.936   9.453  -9.063  1.00  0.00     0.164 HD
ATOM     23  G   UNL     1      -9.637  11.967  -9.443  1.00  0.00     0.000 G0
ENDBRANCH  18  19
BRANCH  18  24
ATOM     24  C   UNL     1     -10.395   8.093 -11.797  1.00  0.00     0.038 C 
BRANCH  24  25
ATOM     25  C   UNL     1      -8.879   7.951 -11.544  1.00  0.00    -0.015 C 
ATOM     26  C   UNL     1      -8.044   8.824 -12.481  1.00  0.00     0.007 C 
ATOM     27  C   UNL     1      -8.466   6.485 -11.702  1.00  0.00     0.007 C 
ENDBRANCH  24  25
ENDBRANCH  18  24
ENDBRANCH  15  18
ENDBRANCH  13  14
BRANCH  13  28
ATOM     28  C   UNL     1     -10.994   7.826  -5.931  1.00  0.00     0.327 C 
ATOM     29  O   UNL     1     -10.861   9.035  -5.816  1.00  0.00    -0.250 OA
BRANCH  28  30
ATOM     30  O   UNL     1     -10.468   6.992  -5.012  1.00  0.00    -0.480 OA
ATOM     31  H   UNL     1     -11.247   6.581  -4.585  1.00  0.00     0.296 HD
ENDBRANCH  28  30
ENDBRANCH  13  28
ENDBRANCH  11  13
ENDBRANCH   8  11
ENDBRANCH   6   7
BRANCH   6  32
ATOM     32  C   UNL     1     -10.652   2.568  -7.954  1.00  0.00     0.037 C 
BRANCH  32  33
ATOM     33  C   UNL     1      -9.709   3.726  -8.309  1.00  0.00     0.026 C 
BRANCH  33  34
ATOM     34  C   UNL     1      -8.469   3.766  -7.416  1.00  0.00     0.146 C 
BRANCH  34  35
ATOM     35  N   UNL     1      -8.739   4.632  -6.276  1.00  0.00    -0.254 NA
ATOM     36  C   UNL     1      -7.888   4.672  -5.319  1.00  0.00     0.185 C 
ATOM     37  N   UNL     1      -8.125   5.470  -4.267  1.00  0.00    -0.370 N 
ATOM     38  N   UNL     1      -6.728   4.004  -5.193  1.00  0.00    -0.370 N 
ATOM     39  H   UNL     1      -8.977   6.015  -4.293  1.00  0.00     0.159 HD
ATOM     40  H   UNL     1      -7.435   5.688  -3.568  1.00  0.00     0.159 HD
ATOM     41  H   UNL     1      -6.213   4.014  -4.328  1.00  0.00     0.159 HD
ATOM     42  H   UNL     1      -6.430   3.354  -5.904  1.00  0.00     0.159 HD
ENDBRANCH  34  35
ENDBRANCH  33  34
ENDBRANCH  32  33
ENDBRANCH   6  32
ENDBRANCH   4   6
ENDBRANCH   1   2
BRANCH   1  43
ATOM     43  C   UNL     1      -8.851   1.290  -3.959  1.00  0.00     0.102 C 
ATOM     44  C   UNL     1      -7.807   0.185  -3.726  1.00  0.00     0.020 C 
BRANCH  43  45
ATOM     45  C   UNL     1      -8.947   2.305  -2.816  1.00  0.00     0.225 C 
ATOM     46  O   UNL     1      -7.971   2.894  -2.358  1.00  0.00    -0.275 OA
ATOM     47  N   UNL     1     -10.197   2.455  -2.260  1.00  0.00    -0.342 N 
ATOM     48  H   UNL     1     -11.005   2.086  -2.740  1.00  0.00     0.164 HD
BRANCH  47  49
ATOM     49  C   UNL     1     -10.445   3.417  -1.182  1.00  0.00     0.192 C 
BRANCH  49  50
ATOM     50  C   UNL     1     -11.527   2.873  -0.246  1.00  0.00     0.047 C 
BRANCH  50  51
ATOM     51  C   UNL     1     -12.344   1.746  -0.893  1.00  0.00     0.103 C 
BRANCH  51  52
ATOM     52  C   UNL     1     -12.628   0.608   0.085  1.00  0.00     0.226 C 
ATOM     53  O   UNL     1     -13.777   0.182   0.208  1.00  0.00    -0.275 OA
BRANCH  52  54
ATOM     54  N   UNL     1     -11.513   0.056   0.744  1.00  0.00    -0.311 N 
ATOM     55  C   UNL     1     -10.975   0.671   1.964  1.00  0.00     0.153 C 
BRANCH  54  56
ATOM     56  C   UNL     1     -10.880  -1.103   0.265  1.00  0.00     0.102 C 
ATOM     57  C   UNL     1      -9.911  -1.122  -0.664  1.00  0.00     0.043 C 
BRANCH  56  58
ATOM     58  C   UNL     1     -11.231  -2.464   0.821  1.00  0.00     0.268 C 
ATOM     59  O   UNL     1     -12.295  -3.025   0.594  1.00  0.00    -0.268 OA
ATOM     60  N   UNL     1     -10.212  -3.030   1.548  1.00  0.00    -0.339 N 
ATOM     61  H   UNL     1      -9.365  -2.495   1.699  1.00  0.00     0.164 HD
BRANCH  60  62
ATOM     62  C   UNL     1     -10.317  -4.370   2.123  1.00  0.00     0.168 CG0
ATOM     63  C   UNL     1      -9.238  -5.291   1.565  1.00  0.00     0.041 C 
ATOM     64  G   UNL     1     -11.722  -4.944   1.846  1.00  0.00     0.000 G0
ENDBRANCH  60  62
ENDBRANCH  56  58
ENDBRANCH  54  56
ENDBRANCH  52  54
ENDBRANCH  51  52
ENDBRANCH  50  51
ENDBRANCH  49  50
BRANCH  49  65
ATOM     65  C   UNL     1     -10.888   4.782  -1.732  1.00  0.00     0.326 C 
ATOM     66  O   UNL     1     -10.710   5.180  -2.874  1.00  0.00    -0.250 OA
BRANCH  65  67
ATOM     67  O   UNL     1     -11.469   5.595  -0.822  1.00  0.00    -0.480 OA
ATOM     68  H   UNL     1     -11.418   5.082   0.013  1.00  0.00     0.296 HD
ENDBRANCH  65  67
ENDBRANCH  49  65
ENDBRANCH  47  49
ENDBRANCH  43  45
ENDBRANCH   1  43
BRANCH   1  69
ATOM     69  C   UNL     1     -10.428  -0.747  -4.565  1.00  0.00    -0.001 C 
ATOM     70  C   UNL     1     -11.266  -1.580  -3.922  1.00  0.00     0.001 C 
BRANCH  70  71
ATOM     71  C   UNL     1     -11.437  -3.014  -4.162  1.00  0.00    -0.055 C 
ATOM     72  C   UNL     1     -10.954  -3.868  -3.236  1.00  0.00    -0.018 C 
ATOM     73  C   UNL     1     -12.148  -3.435  -5.423  1.00  0.00     0.044 C 
BRANCH  72  74
ATOM     74  C   UNL     1     -10.990  -5.390  -3.217  1.00  0.00     0.038 C 
ATOM     75  C   UNL     1     -11.595  -5.812  -1.872  1.00  0.00     0.015 C 
BRANCH  74  76
ATOM     76  C   UNL     1      -9.553  -5.928  -3.484  1.00  0.00     0.128 C 
BRANCH  76  77
ATOM     77  O   UNL     1      -9.377  -7.199  -2.836  1.00  0.00    -0.381 OA
ATOM     78  C   UNL     1      -8.561  -7.139  -1.673  1.00  0.00     0.195 C 
ENDBRANCH  76  77
BRANCH  76  79
ATOM     79  C   UNL     1      -9.161  -5.959  -4.982  1.00  0.00     0.068 C 
BRANCH  79  80
ATOM     80  C   UNL     1      -8.516  -4.727  -5.570  1.00  0.00    -0.045 A 
ATOM     81  C   UNL     1      -8.824  -4.301  -6.869  1.00  0.00     0.004 A 
ATOM     82  C   UNL     1      -7.570  -4.002  -4.830  1.00  0.00     0.004 A 
ATOM     83  C   UNL     1      -8.213  -3.168  -7.411  1.00  0.00     0.000 A 
ATOM     84  C   UNL     1      -6.959  -2.870  -5.373  1.00  0.00     0.000 A 
ATOM     85  C   UNL     1      -7.281  -2.452  -6.662  1.00  0.00     0.000 A 
ENDBRANCH  79  80
ENDBRANCH  76  79
ENDBRANCH  74  76
ENDBRANCH  72  74
ENDBRANCH  70  71
ENDBRANCH   1  69
TORSDOF 17
ENDMDL
MODEL 22
REMARK VINA RESULT:    -6.946      2.691      6.880
REMARK INTER + INTRA:         -27.060
REMARK INTER:                 -21.267
REMARK INTRA:                  -5.792
REMARK UNBOUND:                -6.307
REMARK SMILES C=C1C(=O)N[C@H](C)C(=O)N[C@@H](CC(C)C)C(=O)N[C@@H](C(=O)O)[C@H](C)C(=O)N[C@@H](CCCN=C(N)N)C(=O)N[C@@H](/C=C/C(C)=C/[C@H](C)[C@H](Cc2ccccc2)OC)[C@H](C)C(=O)N[C@@H](C(=O)O)CCC(=O)N1C
REMARK SMILES IDX 39 1 38 2 37 3 36 4 28 6 27 7 25 8 26 9 23 11 24 12 19 13
REMARK SMILES IDX 18 14 16 15 17 16 11 18 10 19 8 20 9 21 12 24 13 25 14 26
REMARK SMILES IDX 15 27 20 28 21 29 22 30 29 32 30 33 31 34 32 35 33 36 34 37
REMARK SMILES IDX 35 38 57 43 58 44 59 45 60 46 61 47 62 49 66 50 67 51 68 52
REMARK SMILES IDX 69 53 70 54 71 55 2 56 1 57 3 58 4 59 5 60 6 62 7 63 63 65
REMARK SMILES IDX 64 66 65 67 40 69 41 70 42 71 44 72 43 73 45 74 46 75 47 76
REMARK SMILES IDX 55 77 56 78 48 79 49 80 50 81 54 82 51 83 53 84 52 85
REMARK H PARENT 38 5 27 10 18 17 10 22 22 31 34 39 34 40 35 41 35 42 61 48
REMARK H PARENT 5 61 65 68
REMARK Flexibility Score:  369.900
ROOT
ATOM      1  C   UNL     1      -7.490   1.812  -4.178  1.00  0.00     0.117 C 
ENDROOT
BRANCH   1   2
ATOM      2  N   UNL     1      -8.553   1.909  -3.177  1.00  0.00    -0.347 N 
ATOM      3  O   UNL     1     -10.340   1.648  -4.594  1.00  0.00    -0.273 OA
ATOM      4  C   UNL     1      -9.894   1.728  -3.455  1.00  0.00     0.243 C 
ATOM      5  H   UNL     1      -8.310   2.070  -2.212  1.00  0.00     0.164 HD
BRANCH   4   6
ATOM      6  C   UNL     1     -10.805   1.799  -2.202  1.00  0.00     0.171 C 
BRANCH   6   7
ATOM      7  N   UNL     1     -10.355   0.837  -1.184  1.00  0.00    -0.344 N 
ATOM      8  C   UNL     1     -10.828  -0.458  -1.183  1.00  0.00     0.226 C 
ATOM      9  O   UNL     1     -11.648  -0.862  -1.998  1.00  0.00    -0.275 OA
ATOM     10  H   UNL     1      -9.729   1.152  -0.453  1.00  0.00     0.164 HD
BRANCH   8  11
ATOM     11  C   UNL     1     -10.228  -1.342  -0.104  1.00  0.00     0.109 C 
ATOM     12  C   UNL     1      -9.932  -0.517   1.149  1.00  0.00     0.021 C 
BRANCH  11  13
ATOM     13  C   UNL     1     -11.132  -2.570   0.127  1.00  0.00     0.204 C 
BRANCH  13  14
ATOM     14  N   UNL     1     -10.382  -3.716   0.650  1.00  0.00    -0.340 N 
ATOM     15  C   UNL     1     -10.817  -5.017   0.518  1.00  0.00     0.243 C 
ATOM     16  O   UNL     1     -11.836  -5.313  -0.103  1.00  0.00    -0.273 OA
ATOM     17  H   UNL     1      -9.614  -3.532   1.300  1.00  0.00     0.164 HD
BRANCH  15  18
ATOM     18  C   UNL     1      -9.974  -6.036   1.324  1.00  0.00     0.171 C 
BRANCH  18  19
ATOM     19  N   UNL     1     -10.905  -6.754   2.193  1.00  0.00    -0.343 N 
ATOM     20  C   UNL     1     -10.694  -6.865   3.554  1.00  0.00     0.242 CG0
ATOM     21  O   UNL     1      -9.651  -6.481   4.076  1.00  0.00    -0.273 OA
ATOM     22  H   UNL     1     -11.727  -7.190   1.789  1.00  0.00     0.164 HD
ATOM     23  G   UNL     1     -11.823  -7.589   4.316  1.00  0.00     0.000 G0
ENDBRANCH  18  19
BRANCH  18  24
ATOM     24  C   UNL     1      -9.233  -6.992   0.382  1.00  0.00     0.038 C 
BRANCH  24  25
ATOM     25  C   UNL     1      -7.723  -6.708   0.233  1.00  0.00    -0.015 C 
ATOM     26  C   UNL     1      -6.984  -7.835  -0.488  1.00  0.00     0.007 C 
ATOM     27  C   UNL     1      -7.102  -6.487   1.615  1.00  0.00     0.007 C 
ENDBRANCH  24  25
ENDBRANCH  18  24
ENDBRANCH  15  18
ENDBRANCH  13  14
BRANCH  13  28
ATOM     28  C   UNL     1     -12.282  -2.297   1.101  1.00  0.00     0.327 C 
ATOM     29  O   UNL     1     -12.290  -2.543   2.297  1.00  0.00    -0.250 OA
BRANCH  28  30
ATOM     30  O   UNL     1     -13.395  -1.843   0.490  1.00  0.00    -0.480 OA
ATOM     31  H   UNL     1     -13.502  -2.432  -0.285  1.00  0.00     0.296 HD
ENDBRANCH  28  30
ENDBRANCH  13  28
ENDBRANCH  11  13
ENDBRANCH   8  11
ENDBRANCH   6   7
BRANCH   6  32
ATOM     32  C   UNL     1     -10.789   3.228  -1.649  1.00  0.00     0.037 C 
BRANCH  32  33
ATOM     33  C   UNL     1     -10.927   4.280  -2.759  1.00  0.00     0.026 C 
BRANCH  33  34
ATOM     34  C   UNL     1     -11.842   5.438  -2.357  1.00  0.00     0.146 C 
BRANCH  34  35
ATOM     35  N   UNL     1     -11.463   6.621  -3.117  1.00  0.00    -0.254 NA
ATOM     36  C   UNL     1     -12.307   7.116  -3.944  1.00  0.00     0.185 C 
ATOM     37  N   UNL     1     -11.970   8.210  -4.646  1.00  0.00    -0.370 N 
ATOM     38  N   UNL     1     -13.549   6.693  -4.239  1.00  0.00    -0.370 N 
ATOM     39  H   UNL     1     -11.051   8.596  -4.472  1.00  0.00     0.159 HD
ATOM     40  H   UNL     1     -12.628   8.754  -5.177  1.00  0.00     0.159 HD
ATOM     41  H   UNL     1     -14.063   7.085  -5.010  1.00  0.00     0.159 HD
ATOM     42  H   UNL     1     -13.928   5.870  -3.797  1.00  0.00     0.159 HD
ENDBRANCH  34  35
ENDBRANCH  33  34
ENDBRANCH  32  33
ENDBRANCH   6  32
ENDBRANCH   4   6
ENDBRANCH   1   2
BRANCH   1  43
ATOM     43  C   UNL     1      -7.574   3.052  -5.113  1.00  0.00     0.102 C 
ATOM     44  C   UNL     1      -6.922   2.827  -6.488  1.00  0.00     0.020 C 
BRANCH  43  45
ATOM     45  C   UNL     1      -7.091   4.316  -4.396  1.00  0.00     0.225 C 
ATOM     46  O   UNL     1      -7.560   5.430  -4.611  1.00  0.00    -0.275 OA
ATOM     47  N   UNL     1      -6.020   4.144  -3.550  1.00  0.00    -0.342 N 
ATOM     48  H   UNL     1      -5.748   3.212  -3.270  1.00  0.00     0.164 HD
BRANCH  47  49
ATOM     49  C   UNL     1      -5.474   5.258  -2.769  1.00  0.00     0.192 C 
BRANCH  49  50
ATOM     50  C   UNL     1      -3.945   5.231  -2.833  1.00  0.00     0.047 C 
BRANCH  50  51
ATOM     51  C   UNL     1      -3.424   4.224  -3.868  1.00  0.00     0.103 C 
BRANCH  51  52
ATOM     52  C   UNL     1      -2.854   4.916  -5.105  1.00  0.00     0.226 C 
ATOM     53  O   UNL     1      -3.588   5.618  -5.803  1.00  0.00    -0.275 OA
BRANCH  52  54
ATOM     54  N   UNL     1      -1.473   4.762  -5.329  1.00  0.00    -0.311 N 
ATOM     55  C   UNL     1      -0.496   5.620  -4.645  1.00  0.00     0.153 C 
BRANCH  54  56
ATOM     56  C   UNL     1      -0.978   3.784  -6.206  1.00  0.00     0.102 C 
ATOM     57  C   UNL     1      -1.236   2.469  -6.115  1.00  0.00     0.043 C 
BRANCH  56  58
ATOM     58  C   UNL     1      -0.122   4.166  -7.391  1.00  0.00     0.268 C 
ATOM     59  O   UNL     1      -0.232   5.233  -7.980  1.00  0.00    -0.268 OA
ATOM     60  N   UNL     1       0.833   3.225  -7.694  1.00  0.00    -0.339 N 
ATOM     61  H   UNL     1       0.851   2.361  -7.164  1.00  0.00     0.164 HD
BRANCH  60  62
ATOM     62  C   UNL     1       1.808   3.421  -8.765  1.00  0.00     0.168 CG0
ATOM     63  C   UNL     1       1.289   2.868 -10.086  1.00  0.00     0.041 C 
ATOM     64  G   UNL     1       3.142   2.750  -8.378  1.00  0.00     0.000 G0
ENDBRANCH  60  62
ENDBRANCH  56  58
ENDBRANCH  54  56
ENDBRANCH  52  54
ENDBRANCH  51  52
ENDBRANCH  50  51
ENDBRANCH  49  50
BRANCH  49  65
ATOM     65  C   UNL     1      -5.923   5.195  -1.301  1.00  0.00     0.326 C 
ATOM     66  O   UNL     1      -6.586   6.045  -0.723  1.00  0.00    -0.250 OA
BRANCH  65  67
ATOM     67  O   UNL     1      -5.476   4.117  -0.620  1.00  0.00    -0.480 OA
ATOM     68  H   UNL     1      -5.905   4.203   0.258  1.00  0.00     0.296 HD
ENDBRANCH  65  67
ENDBRANCH  49  65
ENDBRANCH  47  49
ENDBRANCH  43  45
ENDBRANCH   1  43
BRANCH   1  69
ATOM     69  C   UNL     1      -7.605   0.425  -4.785  1.00  0.00    -0.001 C 
ATOM     70  C   UNL     1      -7.355  -0.752  -4.186  1.00  0.00     0.001 C 
BRANCH  70  71
ATOM     71  C   UNL     1      -7.490  -2.086  -4.777  1.00  0.00    -0.055 C 
ATOM     72  C   UNL     1      -7.737  -2.163  -6.101  1.00  0.00    -0.018 C 
ATOM     73  C   UNL     1      -7.337  -3.276  -3.866  1.00  0.00     0.044 C 
BRANCH  72  74
ATOM     74  C   UNL     1      -7.920  -3.395  -6.976  1.00  0.00     0.038 C 
ATOM     75  C   UNL     1      -6.716  -3.461  -7.924  1.00  0.00     0.015 C 
BRANCH  74  76
ATOM     76  C   UNL     1      -9.304  -3.305  -7.685  1.00  0.00     0.128 C 
BRANCH  76  77
ATOM     77  O   UNL     1      -9.128  -3.327  -9.111  1.00  0.00    -0.381 OA
ATOM     78  C   UNL     1      -9.209  -2.044  -9.717  1.00  0.00     0.195 C 
ENDBRANCH  76  77
BRANCH  76  79
ATOM     79  C   UNL     1     -10.333  -4.353  -7.191  1.00  0.00     0.068 C 
BRANCH  79  80
ATOM     80  C   UNL     1     -10.272  -4.776  -5.744  1.00  0.00    -0.045 A 
ATOM     81  C   UNL     1      -9.625  -5.960  -5.364  1.00  0.00     0.004 A 
ATOM     82  C   UNL     1     -10.892  -4.000  -4.753  1.00  0.00     0.004 A 
ATOM     83  C   UNL     1      -9.585  -6.352  -4.024  1.00  0.00     0.000 A 
ATOM     84  C   UNL     1     -10.853  -4.393  -3.414  1.00  0.00     0.000 A 
ATOM     85  C   UNL     1     -10.198  -5.568  -3.049  1.00  0.00     0.000 A 
ENDBRANCH  79  80
ENDBRANCH  76  79
ENDBRANCH  74  76
ENDBRANCH  72  74
ENDBRANCH  70  71
ENDBRANCH   1  69
TORSDOF 17
ENDMDL
MODEL 23
REMARK VINA RESULT:    -6.936      3.499      7.405
REMARK INTER + INTRA:         -27.030
REMARK INTER:                 -19.525
REMARK INTRA:                  -7.505
REMARK UNBOUND:                -6.307
REMARK SMILES C=C1C(=O)N[C@H](C)C(=O)N[C@@H](CC(C)C)C(=O)N[C@@H](C(=O)O)[C@H](C)C(=O)N[C@@H](CCCN=C(N)N)C(=O)N[C@@H](/C=C/C(C)=C/[C@H](C)[C@H](Cc2ccccc2)OC)[C@H](C)C(=O)N[C@@H](C(=O)O)CCC(=O)N1C
REMARK SMILES IDX 39 1 38 2 37 3 36 4 28 6 27 7 25 8 26 9 23 11 24 12 19 13
REMARK SMILES IDX 18 14 16 15 17 16 11 18 10 19 8 20 9 21 12 24 13 25 14 26
REMARK SMILES IDX 15 27 20 28 21 29 22 30 29 32 30 33 31 34 32 35 33 36 34 37
REMARK SMILES IDX 35 38 57 43 58 44 59 45 60 46 61 47 62 49 66 50 67 51 68 52
REMARK SMILES IDX 69 53 70 54 71 55 2 56 1 57 3 58 4 59 5 60 6 62 7 63 63 65
REMARK SMILES IDX 64 66 65 67 40 69 41 70 42 71 44 72 43 73 45 74 46 75 47 76
REMARK SMILES IDX 55 77 56 78 48 79 49 80 50 81 54 82 51 83 53 84 52 85
REMARK H PARENT 38 5 27 10 18 17 10 22 22 31 34 39 34 40 35 41 35 42 61 48
REMARK H PARENT 5 61 65 68
REMARK Flexibility Score:  369.900
ROOT
ATOM      1  C   UNL     1      -7.750   2.025  -4.413  1.00  0.00     0.117 C 
ENDROOT
BRANCH   1   2
ATOM      2  N   UNL     1      -8.683   1.584  -3.375  1.00  0.00    -0.347 N 
ATOM      3  O   UNL     1      -7.294   1.856  -1.568  1.00  0.00    -0.273 OA
ATOM      4  C   UNL     1      -8.409   1.622  -2.022  1.00  0.00     0.243 C 
ATOM      5  H   UNL     1      -9.607   1.277  -3.640  1.00  0.00     0.164 HD
BRANCH   4   6
ATOM      6  C   UNL     1      -9.599   1.181  -1.132  1.00  0.00     0.171 C 
BRANCH   6   7
ATOM      7  N   UNL     1     -10.535   0.346  -1.902  1.00  0.00    -0.344 N 
ATOM      8  C   UNL     1     -11.670   0.895  -2.461  1.00  0.00     0.226 C 
ATOM      9  O   UNL     1     -11.965   2.077  -2.330  1.00  0.00    -0.275 OA
ATOM     10  H   UNL     1     -10.360  -0.648  -1.976  1.00  0.00     0.164 HD
BRANCH   8  11
ATOM     11  C   UNL     1     -12.504  -0.083  -3.270  1.00  0.00     0.109 C 
ATOM     12  C   UNL     1     -11.594  -1.017  -4.067  1.00  0.00     0.021 C 
BRANCH  11  13
ATOM     13  C   UNL     1     -13.514  -0.794  -2.348  1.00  0.00     0.204 C 
BRANCH  13  14
ATOM     14  N   UNL     1     -13.940   0.059  -1.234  1.00  0.00    -0.340 N 
ATOM     15  C   UNL     1     -13.944  -0.368   0.077  1.00  0.00     0.243 C 
ATOM     16  O   UNL     1     -13.532  -1.477   0.411  1.00  0.00    -0.273 OA
ATOM     17  H   UNL     1     -14.432   0.929  -1.456  1.00  0.00     0.164 HD
BRANCH  15  18
ATOM     18  C   UNL     1     -14.626   0.626   1.049  1.00  0.00     0.171 C 
BRANCH  18  19
ATOM     19  N   UNL     1     -15.697  -0.111   1.717  1.00  0.00    -0.343 N 
ATOM     20  C   UNL     1     -16.853  -0.477   1.054  1.00  0.00     0.242 CG0
ATOM     21  O   UNL     1     -17.093  -0.086  -0.086  1.00  0.00    -0.273 OA
ATOM     22  H   UNL     1     -15.596  -0.358   2.695  1.00  0.00     0.164 HD
ATOM     23  G   UNL     1     -17.833  -1.317   1.900  1.00  0.00     0.000 G0
ENDBRANCH  18  19
BRANCH  18  24
ATOM     24  C   UNL     1     -13.612   1.180   2.057  1.00  0.00     0.038 C 
BRANCH  24  25
ATOM     25  C   UNL     1     -12.591   2.173   1.463  1.00  0.00    -0.015 C 
ATOM     26  C   UNL     1     -11.582   2.666   2.501  1.00  0.00     0.007 C 
ATOM     27  C   UNL     1     -13.329   3.369   0.854  1.00  0.00     0.007 C 
ENDBRANCH  24  25
ENDBRANCH  18  24
ENDBRANCH  15  18
ENDBRANCH  13  14
BRANCH  13  28
ATOM     28  C   UNL     1     -14.780  -1.251  -3.078  1.00  0.00     0.327 C 
ATOM     29  O   UNL     1     -15.668  -0.530  -3.508  1.00  0.00    -0.250 OA
BRANCH  28  30
ATOM     30  O   UNL     1     -14.912  -2.593  -3.119  1.00  0.00    -0.480 OA
ATOM     31  H   UNL     1     -14.642  -2.834  -4.030  1.00  0.00     0.296 HD
ENDBRANCH  28  30
ENDBRANCH  13  28
ENDBRANCH  11  13
ENDBRANCH   8  11
ENDBRANCH   6   7
BRANCH   6  32
ATOM     32  C   UNL     1      -9.063   0.421   0.086  1.00  0.00     0.037 C 
BRANCH  32  33
ATOM     33  C   UNL     1     -10.170  -0.343   0.825  1.00  0.00     0.026 C 
BRANCH  33  34
ATOM     34  C   UNL     1      -9.963  -1.858   0.786  1.00  0.00     0.146 C 
BRANCH  34  35
ATOM     35  N   UNL     1     -10.336  -2.349  -0.533  1.00  0.00    -0.254 NA
ATOM     36  C   UNL     1     -11.145  -3.339  -0.614  1.00  0.00     0.185 C 
ATOM     37  N   UNL     1     -11.499  -3.797  -1.824  1.00  0.00    -0.370 N 
ATOM     38  N   UNL     1     -11.730  -4.035   0.378  1.00  0.00    -0.370 N 
ATOM     39  H   UNL     1     -11.107  -3.317  -2.624  1.00  0.00     0.159 HD
ATOM     40  H   UNL     1     -12.253  -4.446  -1.975  1.00  0.00     0.159 HD
ATOM     41  H   UNL     1     -12.238  -4.883   0.189  1.00  0.00     0.159 HD
ATOM     42  H   UNL     1     -11.541  -3.810   1.342  1.00  0.00     0.159 HD
ENDBRANCH  34  35
ENDBRANCH  33  34
ENDBRANCH  32  33
ENDBRANCH   6  32
ENDBRANCH   4   6
ENDBRANCH   1   2
BRANCH   1  43
ATOM     43  C   UNL     1      -8.177   3.441  -4.895  1.00  0.00     0.102 C 
ATOM     44  C   UNL     1      -8.571   3.489  -6.381  1.00  0.00     0.020 C 
BRANCH  43  45
ATOM     45  C   UNL     1      -7.141   4.495  -4.492  1.00  0.00     0.225 C 
ATOM     46  O   UNL     1      -7.177   5.656  -4.887  1.00  0.00    -0.275 OA
ATOM     47  N   UNL     1      -6.096   4.035  -3.723  1.00  0.00    -0.342 N 
ATOM     48  H   UNL     1      -6.160   3.127  -3.285  1.00  0.00     0.164 HD
BRANCH  47  49
ATOM     49  C   UNL     1      -5.050   4.938  -3.234  1.00  0.00     0.192 C 
BRANCH  49  50
ATOM     50  C   UNL     1      -3.696   4.515  -3.810  1.00  0.00     0.047 C 
BRANCH  50  51
ATOM     51  C   UNL     1      -3.360   5.257  -5.111  1.00  0.00     0.103 C 
BRANCH  51  52
ATOM     52  C   UNL     1      -1.958   4.923  -5.617  1.00  0.00     0.226 C 
ATOM     53  O   UNL     1      -0.992   5.571  -5.209  1.00  0.00    -0.275 OA
BRANCH  52  54
ATOM     54  N   UNL     1      -1.850   3.817  -6.481  1.00  0.00    -0.311 N 
ATOM     55  C   UNL     1      -3.038   3.049  -6.878  1.00  0.00     0.153 C 
BRANCH  54  56
ATOM     56  C   UNL     1      -0.609   3.411  -6.999  1.00  0.00     0.102 C 
ATOM     57  C   UNL     1       0.152   2.429  -6.489  1.00  0.00     0.043 C 
BRANCH  56  58
ATOM     58  C   UNL     1      -0.044   4.049  -8.246  1.00  0.00     0.268 C 
ATOM     59  O   UNL     1       1.126   3.933  -8.586  1.00  0.00    -0.268 OA
ATOM     60  N   UNL     1      -0.989   4.715  -8.988  1.00  0.00    -0.339 N 
ATOM     61  H   UNL     1      -1.936   4.775  -8.632  1.00  0.00     0.164 HD
BRANCH  60  62
ATOM     62  C   UNL     1      -0.670   5.353 -10.265  1.00  0.00     0.168 CG0
ATOM     63  C   UNL     1      -0.957   4.416 -11.431  1.00  0.00     0.041 C 
ATOM     64  G   UNL     1       0.809   5.792 -10.268  1.00  0.00     0.000 G0
ENDBRANCH  60  62
ENDBRANCH  56  58
ENDBRANCH  54  56
ENDBRANCH  52  54
ENDBRANCH  51  52
ENDBRANCH  50  51
ENDBRANCH  49  50
BRANCH  49  65
ATOM     65  C   UNL     1      -4.972   4.936  -1.699  1.00  0.00     0.326 C 
ATOM     66  O   UNL     1      -5.863   5.297  -0.943  1.00  0.00    -0.250 OA
BRANCH  65  67
ATOM     67  O   UNL     1      -3.780   4.548  -1.195  1.00  0.00    -0.480 OA
ATOM     68  H   UNL     1      -3.147   4.750  -1.917  1.00  0.00     0.296 HD
ENDBRANCH  65  67
ENDBRANCH  49  65
ENDBRANCH  47  49
ENDBRANCH  43  45
ENDBRANCH   1  43
BRANCH   1  69
ATOM     69  C   UNL     1      -7.678   0.896  -5.425  1.00  0.00    -0.001 C 
ATOM     70  C   UNL     1      -6.801  -0.123  -5.452  1.00  0.00     0.001 C 
BRANCH  70  71
ATOM     71  C   UNL     1      -6.755  -1.219  -6.422  1.00  0.00    -0.055 C 
ATOM     72  C   UNL     1      -7.930  -1.720  -6.859  1.00  0.00    -0.018 C 
ATOM     73  C   UNL     1      -5.401  -1.704  -6.870  1.00  0.00     0.044 C 
BRANCH  72  74
ATOM     74  C   UNL     1      -8.187  -2.841  -7.855  1.00  0.00     0.038 C 
ATOM     75  C   UNL     1      -9.213  -2.320  -8.869  1.00  0.00     0.015 C 
BRANCH  74  76
ATOM     76  C   UNL     1      -8.631  -4.113  -7.074  1.00  0.00     0.128 C 
BRANCH  76  77
ATOM     77  O   UNL     1      -7.512  -4.999  -6.902  1.00  0.00    -0.381 OA
ATOM     78  C   UNL     1      -6.588  -4.967  -7.981  1.00  0.00     0.195 C 
ENDBRANCH  76  77
BRANCH  76  79
ATOM     79  C   UNL     1      -9.366  -3.810  -5.744  1.00  0.00     0.068 C 
BRANCH  79  80
ATOM     80  C   UNL     1      -9.304  -4.848  -4.649  1.00  0.00    -0.045 A 
ATOM     81  C   UNL     1     -10.054  -6.029  -4.732  1.00  0.00     0.004 A 
ATOM     82  C   UNL     1      -8.511  -4.631  -3.512  1.00  0.00     0.004 A 
ATOM     83  C   UNL     1     -10.002  -6.978  -3.709  1.00  0.00     0.000 A 
ATOM     84  C   UNL     1      -8.461  -5.581  -2.489  1.00  0.00     0.000 A 
ATOM     85  C   UNL     1      -9.205  -6.754  -2.588  1.00  0.00     0.000 A 
ENDBRANCH  79  80
ENDBRANCH  76  79
ENDBRANCH  74  76
ENDBRANCH  72  74
ENDBRANCH  70  71
ENDBRANCH   1  69
TORSDOF 17
ENDMDL
MODEL 24
REMARK VINA RESULT:    -6.914      3.342      4.918
REMARK INTER + INTRA:         -26.965
REMARK INTER:                 -19.999
REMARK INTRA:                  -6.966
REMARK UNBOUND:                -6.307
REMARK SMILES C=C1C(=O)N[C@H](C)C(=O)N[C@@H](CC(C)C)C(=O)N[C@@H](C(=O)O)[C@H](C)C(=O)N[C@@H](CCCN=C(N)N)C(=O)N[C@@H](/C=C/C(C)=C/[C@H](C)[C@H](Cc2ccccc2)OC)[C@H](C)C(=O)N[C@@H](C(=O)O)CCC(=O)N1C
REMARK SMILES IDX 39 1 38 2 37 3 36 4 28 6 27 7 25 8 26 9 23 11 24 12 19 13
REMARK SMILES IDX 18 14 16 15 17 16 11 18 10 19 8 20 9 21 12 24 13 25 14 26
REMARK SMILES IDX 15 27 20 28 21 29 22 30 29 32 30 33 31 34 32 35 33 36 34 37
REMARK SMILES IDX 35 38 57 43 58 44 59 45 60 46 61 47 62 49 66 50 67 51 68 52
REMARK SMILES IDX 69 53 70 54 71 55 2 56 1 57 3 58 4 59 5 60 6 62 7 63 63 65
REMARK SMILES IDX 64 66 65 67 40 69 41 70 42 71 44 72 43 73 45 74 46 75 47 76
REMARK SMILES IDX 55 77 56 78 48 79 49 80 50 81 54 82 51 83 53 84 52 85
REMARK H PARENT 38 5 27 10 18 17 10 22 22 31 34 39 34 40 35 41 35 42 61 48
REMARK H PARENT 5 61 65 68
REMARK Flexibility Score:  369.900
ROOT
ATOM      1  C   UNL     1      -7.147   2.220  -4.958  1.00  0.00     0.117 C 
ENDROOT
BRANCH   1   2
ATOM      2  N   UNL     1      -7.716   0.888  -4.748  1.00  0.00    -0.347 N 
ATOM      3  O   UNL     1      -5.925  -0.339  -5.493  1.00  0.00    -0.273 OA
ATOM      4  C   UNL     1      -7.022  -0.290  -4.948  1.00  0.00     0.243 C 
ATOM      5  H   UNL     1      -8.655   0.803  -4.389  1.00  0.00     0.164 HD
BRANCH   4   6
ATOM      6  C   UNL     1      -7.827  -1.559  -4.570  1.00  0.00     0.171 C 
BRANCH   6   7
ATOM      7  N   UNL     1      -9.271  -1.317  -4.721  1.00  0.00    -0.344 N 
ATOM      8  C   UNL     1     -10.145  -1.620  -3.700  1.00  0.00     0.226 C 
ATOM      9  O   UNL     1      -9.777  -2.119  -2.643  1.00  0.00    -0.275 OA
ATOM     10  H   UNL     1      -9.620  -0.968  -5.605  1.00  0.00     0.164 HD
BRANCH   8  11
ATOM     11  C   UNL     1     -11.592  -1.261  -3.987  1.00  0.00     0.109 C 
ATOM     12  C   UNL     1     -11.936  -1.588  -5.441  1.00  0.00     0.021 C 
BRANCH  11  13
ATOM     13  C   UNL     1     -12.511  -1.920  -2.939  1.00  0.00     0.204 C 
BRANCH  13  14
ATOM     14  N   UNL     1     -12.665  -1.090  -1.741  1.00  0.00    -0.340 N 
ATOM     15  C   UNL     1     -12.476  -1.575  -0.465  1.00  0.00     0.243 C 
ATOM     16  O   UNL     1     -12.104  -2.726  -0.245  1.00  0.00    -0.273 OA
ATOM     17  H   UNL     1     -13.116  -0.177  -1.844  1.00  0.00     0.164 HD
BRANCH  15  18
ATOM     18  C   UNL     1     -12.896  -0.579   0.644  1.00  0.00     0.171 C 
BRANCH  18  19
ATOM     19  N   UNL     1     -14.105  -1.123   1.259  1.00  0.00    -0.343 N 
ATOM     20  C   UNL     1     -15.333  -1.065   0.628  1.00  0.00     0.242 CG0
ATOM     21  O   UNL     1     -15.490  -0.438  -0.417  1.00  0.00    -0.273 OA
ATOM     22  H   UNL     1     -14.048  -1.550   2.177  1.00  0.00     0.164 HD
ATOM     23  G   UNL     1     -16.476  -1.760   1.395  1.00  0.00     0.000 G0
ENDBRANCH  18  19
BRANCH  18  24
ATOM     24  C   UNL     1     -11.770  -0.408   1.672  1.00  0.00     0.038 C 
BRANCH  24  25
ATOM     25  C   UNL     1     -11.407   1.057   1.992  1.00  0.00    -0.015 C 
ATOM     26  C   UNL     1     -11.572   1.978   0.784  1.00  0.00     0.007 C 
ATOM     27  C   UNL     1      -9.966   1.130   2.503  1.00  0.00     0.007 C 
ENDBRANCH  24  25
ENDBRANCH  18  24
ENDBRANCH  15  18
ENDBRANCH  13  14
BRANCH  13  28
ATOM     28  C   UNL     1     -13.917  -2.216  -3.470  1.00  0.00     0.327 C 
ATOM     29  O   UNL     1     -14.785  -1.392  -3.715  1.00  0.00    -0.250 OA
BRANCH  28  30
ATOM     30  O   UNL     1     -14.186  -3.535  -3.548  1.00  0.00    -0.480 OA
ATOM     31  H   UNL     1     -15.160  -3.588  -3.457  1.00  0.00     0.296 HD
ENDBRANCH  28  30
ENDBRANCH  13  28
ENDBRANCH  11  13
ENDBRANCH   8  11
ENDBRANCH   6   7
BRANCH   6  32
ATOM     32  C   UNL     1      -7.373  -2.725  -5.455  1.00  0.00     0.037 C 
BRANCH  32  33
ATOM     33  C   UNL     1      -8.351  -2.993  -6.608  1.00  0.00     0.026 C 
BRANCH  33  34
ATOM     34  C   UNL     1      -8.941  -4.404  -6.558  1.00  0.00     0.146 C 
BRANCH  34  35
ATOM     35  N   UNL     1     -10.028  -4.425  -5.590  1.00  0.00    -0.254 NA
ATOM     36  C   UNL     1     -10.090  -5.397  -4.757  1.00  0.00     0.185 C 
ATOM     37  N   UNL     1     -11.085  -5.424  -3.857  1.00  0.00    -0.370 N 
ATOM     38  N   UNL     1      -9.271  -6.456  -4.633  1.00  0.00    -0.370 N 
ATOM     39  H   UNL     1     -11.739  -4.653  -3.880  1.00  0.00     0.159 HD
ATOM     40  H   UNL     1     -11.105  -6.048  -3.069  1.00  0.00     0.159 HD
ATOM     41  H   UNL     1      -9.505  -7.227  -4.029  1.00  0.00     0.159 HD
ATOM     42  H   UNL     1      -8.487  -6.574  -5.256  1.00  0.00     0.159 HD
ENDBRANCH  34  35
ENDBRANCH  33  34
ENDBRANCH  32  33
ENDBRANCH   6  32
ENDBRANCH   4   6
ENDBRANCH   1   2
BRANCH   1  43
ATOM     43  C   UNL     1      -7.162   2.984  -3.602  1.00  0.00     0.102 C 
ATOM     44  C   UNL     1      -8.570   3.413  -3.157  1.00  0.00     0.020 C 
BRANCH  43  45
ATOM     45  C   UNL     1      -6.136   4.121  -3.600  1.00  0.00     0.225 C 
ATOM     46  O   UNL     1      -6.375   5.239  -3.151  1.00  0.00    -0.275 OA
ATOM     47  N   UNL     1      -4.942   3.842  -4.225  1.00  0.00    -0.342 N 
ATOM     48  H   UNL     1      -4.706   2.886  -4.449  1.00  0.00     0.164 HD
BRANCH  47  49
ATOM     49  C   UNL     1      -3.853   4.823  -4.269  1.00  0.00     0.192 C 
BRANCH  49  50
ATOM     50  C   UNL     1      -3.063   4.657  -5.569  1.00  0.00     0.047 C 
BRANCH  50  51
ATOM     51  C   UNL     1      -3.579   3.487  -6.418  1.00  0.00     0.103 C 
BRANCH  51  52
ATOM     52  C   UNL     1      -2.880   2.174  -6.070  1.00  0.00     0.226 C 
ATOM     53  O   UNL     1      -3.229   1.543  -5.070  1.00  0.00    -0.275 OA
BRANCH  52  54
ATOM     54  N   UNL     1      -1.907   1.721  -6.980  1.00  0.00    -0.311 N 
ATOM     55  C   UNL     1      -2.145   0.535  -7.814  1.00  0.00     0.153 C 
BRANCH  54  56
ATOM     56  C   UNL     1      -0.679   2.386  -7.131  1.00  0.00     0.102 C 
ATOM     57  C   UNL     1       0.169   2.670  -6.129  1.00  0.00     0.043 C 
BRANCH  56  58
ATOM     58  C   UNL     1      -0.187   2.806  -8.496  1.00  0.00     0.268 C 
ATOM     59  O   UNL     1       0.796   2.315  -9.034  1.00  0.00    -0.268 OA
ATOM     60  N   UNL     1      -0.993   3.744  -9.096  1.00  0.00    -0.339 N 
ATOM     61  H   UNL     1      -1.784   4.109  -8.579  1.00  0.00     0.164 HD
BRANCH  60  62
ATOM     62  C   UNL     1      -0.736   4.244 -10.446  1.00  0.00     0.168 CG0
ATOM     63  C   UNL     1      -1.587   3.508 -11.473  1.00  0.00     0.041 C 
ATOM     64  G   UNL     1       0.764   4.097 -10.774  1.00  0.00     0.000 G0
ENDBRANCH  60  62
ENDBRANCH  56  58
ENDBRANCH  54  56
ENDBRANCH  52  54
ENDBRANCH  51  52
ENDBRANCH  50  51
ENDBRANCH  49  50
BRANCH  49  65
ATOM     65  C   UNL     1      -2.902   4.669  -3.072  1.00  0.00     0.326 C 
ATOM     66  O   UNL     1      -2.970   5.296  -2.025  1.00  0.00    -0.250 OA
BRANCH  65  67
ATOM     67  O   UNL     1      -1.891   3.793  -3.264  1.00  0.00    -0.480 OA
ATOM     68  H   UNL     1      -2.173   2.999  -2.760  1.00  0.00     0.296 HD
ENDBRANCH  65  67
ENDBRANCH  49  65
ENDBRANCH  47  49
ENDBRANCH  43  45
ENDBRANCH   1  43
BRANCH   1  69
ATOM     69  C   UNL     1      -7.886   2.815  -6.143  1.00  0.00    -0.001 C 
ATOM     70  C   UNL     1      -9.185   2.664  -6.456  1.00  0.00     0.001 C 
BRANCH  70  71
ATOM     71  C   UNL     1      -9.891   3.261  -7.591  1.00  0.00    -0.055 C 
ATOM     72  C   UNL     1      -9.244   4.204  -8.307  1.00  0.00    -0.018 C 
ATOM     73  C   UNL     1     -11.286   2.774  -7.884  1.00  0.00     0.044 C 
BRANCH  72  74
ATOM     74  C   UNL     1      -9.721   4.986  -9.523  1.00  0.00     0.038 C 
ATOM     75  C   UNL     1      -8.671   4.793 -10.624  1.00  0.00     0.015 C 
BRANCH  74  76
ATOM     76  C   UNL     1      -9.964   6.466  -9.104  1.00  0.00     0.128 C 
BRANCH  76  77
ATOM     77  O   UNL     1      -9.592   7.347 -10.177  1.00  0.00    -0.381 OA
ATOM     78  C   UNL     1     -10.674   8.116 -10.685  1.00  0.00     0.195 C 
ENDBRANCH  76  77
BRANCH  76  79
ATOM     79  C   UNL     1     -11.392   6.741  -8.569  1.00  0.00     0.068 C 
BRANCH  79  80
ATOM     80  C   UNL     1     -11.553   7.018  -7.094  1.00  0.00    -0.045 A 
ATOM     81  C   UNL     1     -10.586   6.598  -6.171  1.00  0.00     0.004 A 
ATOM     82  C   UNL     1     -12.696   7.680  -6.619  1.00  0.00     0.004 A 
ATOM     83  C   UNL     1     -10.750   6.846  -4.806  1.00  0.00     0.000 A 
ATOM     84  C   UNL     1     -12.859   7.926  -5.254  1.00  0.00     0.000 A 
ATOM     85  C   UNL     1     -11.885   7.511  -4.348  1.00  0.00     0.000 A 
ENDBRANCH  79  80
ENDBRANCH  76  79
ENDBRANCH  74  76
ENDBRANCH  72  74
ENDBRANCH  70  71
ENDBRANCH   1  69
TORSDOF 17
ENDMDL
MODEL 25
REMARK VINA RESULT:    -6.908      3.579     12.759
REMARK INTER + INTRA:         -26.947
REMARK INTER:                 -20.293
REMARK INTRA:                  -6.654
REMARK UNBOUND:                -6.307
REMARK SMILES C=C1C(=O)N[C@H](C)C(=O)N[C@@H](CC(C)C)C(=O)N[C@@H](C(=O)O)[C@H](C)C(=O)N[C@@H](CCCN=C(N)N)C(=O)N[C@@H](/C=C/C(C)=C/[C@H](C)[C@H](Cc2ccccc2)OC)[C@H](C)C(=O)N[C@@H](C(=O)O)CCC(=O)N1C
REMARK SMILES IDX 39 1 38 2 37 3 36 4 28 6 27 7 25 8 26 9 23 11 24 12 19 13
REMARK SMILES IDX 18 14 16 15 17 16 11 18 10 19 8 20 9 21 12 24 13 25 14 26
REMARK SMILES IDX 15 27 20 28 21 29 22 30 29 32 30 33 31 34 32 35 33 36 34 37
REMARK SMILES IDX 35 38 57 43 58 44 59 45 60 46 61 47 62 49 66 50 67 51 68 52
REMARK SMILES IDX 69 53 70 54 71 55 2 56 1 57 3 58 4 59 5 60 6 62 7 63 63 65
REMARK SMILES IDX 64 66 65 67 40 69 41 70 42 71 44 72 43 73 45 74 46 75 47 76
REMARK SMILES IDX 55 77 56 78 48 79 49 80 50 81 54 82 51 83 53 84 52 85
REMARK H PARENT 38 5 27 10 18 17 10 22 22 31 34 39 34 40 35 41 35 42 61 48
REMARK H PARENT 5 61 65 68
REMARK Flexibility Score:  369.900
ROOT
ATOM      1  C   UNL     1      -6.437  -1.398  -6.722  1.00  0.00     0.117 C 
ENDROOT
BRANCH   1   2
ATOM      2  N   UNL     1      -6.405  -0.163  -5.938  1.00  0.00    -0.347 N 
ATOM      3  O   UNL     1      -8.078   0.954  -7.044  1.00  0.00    -0.273 OA
ATOM      4  C   UNL     1      -7.293   0.882  -6.105  1.00  0.00     0.243 C 
ATOM      5  H   UNL     1      -5.732  -0.068  -5.193  1.00  0.00     0.164 HD
BRANCH   4   6
ATOM      6  C   UNL     1      -7.095   2.036  -5.089  1.00  0.00     0.171 C 
BRANCH   6   7
ATOM      7  N   UNL     1      -8.395   2.497  -4.575  1.00  0.00    -0.344 N 
ATOM      8  C   UNL     1      -8.897   3.728  -4.938  1.00  0.00     0.226 C 
ATOM      9  O   UNL     1      -8.292   4.497  -5.674  1.00  0.00    -0.275 OA
ATOM     10  H   UNL     1      -8.894   1.918  -3.911  1.00  0.00     0.164 HD
BRANCH   8  11
ATOM     11  C   UNL     1     -10.272   4.035  -4.369  1.00  0.00     0.109 C 
ATOM     12  C   UNL     1     -10.335   3.625  -2.897  1.00  0.00     0.021 C 
BRANCH  11  13
ATOM     13  C   UNL     1     -10.634   5.507  -4.648  1.00  0.00     0.204 C 
BRANCH  13  14
ATOM     14  N   UNL     1     -11.034   5.722  -6.042  1.00  0.00    -0.340 N 
ATOM     15  C   UNL     1     -10.909   6.939  -6.677  1.00  0.00     0.243 C 
ATOM     16  O   UNL     1     -10.396   7.917  -6.136  1.00  0.00    -0.273 OA
ATOM     17  H   UNL     1     -11.601   5.001  -6.496  1.00  0.00     0.164 HD
BRANCH  15  18
ATOM     18  C   UNL     1     -11.585   6.982  -8.070  1.00  0.00     0.171 C 
BRANCH  18  19
ATOM     19  N   UNL     1     -10.520   6.813  -9.057  1.00  0.00    -0.343 N 
ATOM     20  C   UNL     1      -9.964   7.890  -9.720  1.00  0.00     0.242 CG0
ATOM     21  O   UNL     1     -10.428   9.023  -9.610  1.00  0.00    -0.273 OA
ATOM     22  H   UNL     1     -10.181   5.882  -9.268  1.00  0.00     0.164 HD
ATOM     23  G   UNL     1      -8.801   7.525 -10.665  1.00  0.00     0.000 G0
ENDBRANCH  18  19
BRANCH  18  24
ATOM     24  C   UNL     1     -12.644   5.880  -8.192  1.00  0.00     0.038 C 
BRANCH  24  25
ATOM     25  C   UNL     1     -12.445   4.924  -9.388  1.00  0.00    -0.015 C 
ATOM     26  C   UNL     1     -13.275   5.331 -10.606  1.00  0.00     0.007 C 
ATOM     27  C   UNL     1     -12.807   3.496  -8.971  1.00  0.00     0.007 C 
ENDBRANCH  24  25
ENDBRANCH  18  24
ENDBRANCH  15  18
ENDBRANCH  13  14
BRANCH  13  28
ATOM     28  C   UNL     1     -11.773   6.026  -3.764  1.00  0.00     0.327 C 
ATOM     29  O   UNL     1     -12.901   5.561  -3.691  1.00  0.00    -0.250 OA
BRANCH  28  30
ATOM     30  O   UNL     1     -11.462   7.167  -3.117  1.00  0.00    -0.480 OA
ATOM     31  H   UNL     1     -11.402   7.839  -3.827  1.00  0.00     0.296 HD
ENDBRANCH  28  30
ENDBRANCH  13  28
ENDBRANCH  11  13
ENDBRANCH   8  11
ENDBRANCH   6   7
BRANCH   6  32
ATOM     32  C   UNL     1      -6.195   1.552  -3.946  1.00  0.00     0.037 C 
BRANCH  32  33
ATOM     33  C   UNL     1      -6.925   1.548  -2.596  1.00  0.00     0.026 C 
BRANCH  33  34
ATOM     34  C   UNL     1      -6.335   2.555  -1.609  1.00  0.00     0.146 C 
BRANCH  34  35
ATOM     35  N   UNL     1      -6.704   3.899  -2.032  1.00  0.00    -0.254 NA
ATOM     36  C   UNL     1      -5.773   4.729  -2.323  1.00  0.00     0.185 C 
ATOM     37  N   UNL     1      -6.102   5.968  -2.719  1.00  0.00    -0.370 N 
ATOM     38  N   UNL     1      -4.441   4.548  -2.295  1.00  0.00    -0.370 N 
ATOM     39  H   UNL     1      -7.090   6.180  -2.776  1.00  0.00     0.159 HD
ATOM     40  H   UNL     1      -5.447   6.614  -3.127  1.00  0.00     0.159 HD
ATOM     41  H   UNL     1      -3.807   5.321  -2.412  1.00  0.00     0.159 HD
ATOM     42  H   UNL     1      -4.049   3.667  -2.000  1.00  0.00     0.159 HD
ENDBRANCH  34  35
ENDBRANCH  33  34
ENDBRANCH  32  33
ENDBRANCH   6  32
ENDBRANCH   4   6
ENDBRANCH   1   2
BRANCH   1  43
ATOM     43  C   UNL     1      -6.466  -2.606  -5.742  1.00  0.00     0.102 C 
ATOM     44  C   UNL     1      -5.859  -3.889  -6.335  1.00  0.00     0.020 C 
BRANCH  43  45
ATOM     45  C   UNL     1      -7.863  -2.798  -5.146  1.00  0.00     0.225 C 
ATOM     46  O   UNL     1      -8.450  -1.922  -4.516  1.00  0.00    -0.275 OA
ATOM     47  N   UNL     1      -8.396  -4.060  -5.277  1.00  0.00    -0.342 N 
ATOM     48  H   UNL     1      -7.975  -4.716  -5.920  1.00  0.00     0.164 HD
BRANCH  47  49
ATOM     49  C   UNL     1      -9.739  -4.380  -4.786  1.00  0.00     0.192 C 
BRANCH  49  50
ATOM     50  C   UNL     1      -9.754  -5.801  -4.216  1.00  0.00     0.047 C 
BRANCH  50  51
ATOM     51  C   UNL     1      -9.803  -5.813  -2.682  1.00  0.00     0.103 C 
BRANCH  51  52
ATOM     52  C   UNL     1      -9.320  -7.141  -2.104  1.00  0.00     0.226 C 
ATOM     53  O   UNL     1      -9.489  -8.182  -2.741  1.00  0.00    -0.275 OA
BRANCH  52  54
ATOM     54  N   UNL     1      -8.627  -7.076  -0.880  1.00  0.00    -0.311 N 
ATOM     55  C   UNL     1      -9.278  -6.562   0.332  1.00  0.00     0.153 C 
BRANCH  54  56
ATOM     56  C   UNL     1      -7.293  -7.504  -0.771  1.00  0.00     0.102 C 
ATOM     57  C   UNL     1      -6.219  -6.704  -0.866  1.00  0.00     0.043 C 
BRANCH  56  58
ATOM     58  C   UNL     1      -6.965  -8.950  -0.480  1.00  0.00     0.268 C 
ATOM     59  O   UNL     1      -6.916  -9.411   0.653  1.00  0.00    -0.268 OA
ATOM     60  N   UNL     1      -6.794  -9.704  -1.616  1.00  0.00    -0.339 N 
ATOM     61  H   UNL     1      -6.840  -9.244  -2.518  1.00  0.00     0.164 HD
BRANCH  60  62
ATOM     62  C   UNL     1      -6.530 -11.141  -1.565  1.00  0.00     0.168 CG0
ATOM     63  C   UNL     1      -5.178 -11.472  -2.184  1.00  0.00     0.041 C 
ATOM     64  G   UNL     1      -7.662 -11.900  -2.288  1.00  0.00     0.000 G0
ENDBRANCH  60  62
ENDBRANCH  56  58
ENDBRANCH  54  56
ENDBRANCH  52  54
ENDBRANCH  51  52
ENDBRANCH  50  51
ENDBRANCH  49  50
BRANCH  49  65
ATOM     65  C   UNL     1     -10.792  -4.267  -5.900  1.00  0.00     0.326 C 
ATOM     66  O   UNL     1     -11.988  -4.078  -5.731  1.00  0.00    -0.250 OA
BRANCH  65  67
ATOM     67  O   UNL     1     -10.312  -4.453  -7.149  1.00  0.00    -0.480 OA
ATOM     68  H   UNL     1      -9.727  -5.236  -7.058  1.00  0.00     0.296 HD
ENDBRANCH  65  67
ENDBRANCH  49  65
ENDBRANCH  47  49
ENDBRANCH  43  45
ENDBRANCH   1  43
BRANCH   1  69
ATOM     69  C   UNL     1      -5.303  -1.294  -7.725  1.00  0.00    -0.001 C 
ATOM     70  C   UNL     1      -5.402  -1.170  -9.061  1.00  0.00     0.001 C 
BRANCH  70  71
ATOM     71  C   UNL     1      -4.299  -1.049 -10.017  1.00  0.00    -0.055 C 
ATOM     72  C   UNL     1      -3.042  -1.023  -9.525  1.00  0.00    -0.018 C 
ATOM     73  C   UNL     1      -4.645  -0.969 -11.481  1.00  0.00     0.044 C 
BRANCH  72  74
ATOM     74  C   UNL     1      -1.719  -0.909 -10.269  1.00  0.00     0.038 C 
ATOM     75  C   UNL     1      -0.962  -2.224 -10.049  1.00  0.00     0.015 C 
BRANCH  74  76
ATOM     76  C   UNL     1      -0.974   0.365  -9.774  1.00  0.00     0.128 C 
BRANCH  76  77
ATOM     77  O   UNL     1       0.160   0.629 -10.616  1.00  0.00    -0.381 OA
ATOM     78  C   UNL     1       0.569   1.990 -10.614  1.00  0.00     0.195 C 
ENDBRANCH  76  77
BRANCH  76  79
ATOM     79  C   UNL     1      -1.891   1.602  -9.597  1.00  0.00     0.068 C 
BRANCH  79  80
ATOM     80  C   UNL     1      -2.183   2.070  -8.192  1.00  0.00    -0.045 A 
ATOM     81  C   UNL     1      -3.500   2.262  -7.755  1.00  0.00     0.004 A 
ATOM     82  C   UNL     1      -1.131   2.349  -7.307  1.00  0.00     0.004 A 
ATOM     83  C   UNL     1      -3.762   2.710  -6.458  1.00  0.00     0.000 A 
ATOM     84  C   UNL     1      -1.394   2.797  -6.010  1.00  0.00     0.000 A 
ATOM     85  C   UNL     1      -2.708   2.976  -5.586  1.00  0.00     0.000 A 
ENDBRANCH  79  80
ENDBRANCH  76  79
ENDBRANCH  74  76
ENDBRANCH  72  74
ENDBRANCH  70  71
ENDBRANCH   1  69
TORSDOF 17
ENDMDL
MODEL 26
REMARK VINA RESULT:    -6.903      3.250      6.449
REMARK INTER + INTRA:         -26.930
REMARK INTER:                 -20.072
REMARK INTRA:                  -6.858
REMARK UNBOUND:                -6.307
REMARK SMILES C=C1C(=O)N[C@H](C)C(=O)N[C@@H](CC(C)C)C(=O)N[C@@H](C(=O)O)[C@H](C)C(=O)N[C@@H](CCCN=C(N)N)C(=O)N[C@@H](/C=C/C(C)=C/[C@H](C)[C@H](Cc2ccccc2)OC)[C@H](C)C(=O)N[C@@H](C(=O)O)CCC(=O)N1C
REMARK SMILES IDX 39 1 38 2 37 3 36 4 28 6 27 7 25 8 26 9 23 11 24 12 19 13
REMARK SMILES IDX 18 14 16 15 17 16 11 18 10 19 8 20 9 21 12 24 13 25 14 26
REMARK SMILES IDX 15 27 20 28 21 29 22 30 29 32 30 33 31 34 32 35 33 36 34 37
REMARK SMILES IDX 35 38 57 43 58 44 59 45 60 46 61 47 62 49 66 50 67 51 68 52
REMARK SMILES IDX 69 53 70 54 71 55 2 56 1 57 3 58 4 59 5 60 6 62 7 63 63 65
REMARK SMILES IDX 64 66 65 67 40 69 41 70 42 71 44 72 43 73 45 74 46 75 47 76
REMARK SMILES IDX 55 77 56 78 48 79 49 80 50 81 54 82 51 83 53 84 52 85
REMARK H PARENT 38 5 27 10 18 17 10 22 22 31 34 39 34 40 35 41 35 42 61 48
REMARK H PARENT 5 61 65 68
REMARK Flexibility Score:  369.900
ROOT
ATOM      1  C   UNL     1      -6.975   0.650  -3.649  1.00  0.00     0.117 C 
ENDROOT
BRANCH   1   2
ATOM      2  N   UNL     1      -8.215  -0.102  -3.453  1.00  0.00    -0.347 N 
ATOM      3  O   UNL     1      -7.351  -2.209  -3.741  1.00  0.00    -0.273 OA
ATOM      4  C   UNL     1      -8.286  -1.481  -3.424  1.00  0.00     0.243 C 
ATOM      5  H   UNL     1      -9.073   0.398  -3.278  1.00  0.00     0.164 HD
BRANCH   4   6
ATOM      6  C   UNL     1      -9.704  -2.025  -3.115  1.00  0.00     0.171 C 
BRANCH   6   7
ATOM      7  N   UNL     1     -10.070  -1.742  -1.718  1.00  0.00    -0.344 N 
ATOM      8  C   UNL     1     -10.954  -2.556  -1.045  1.00  0.00     0.226 C 
ATOM      9  O   UNL     1     -11.490  -3.526  -1.569  1.00  0.00    -0.275 OA
ATOM     10  H   UNL     1      -9.700  -0.912  -1.272  1.00  0.00     0.164 HD
BRANCH   8  11
ATOM     11  C   UNL     1     -11.187  -2.164   0.404  1.00  0.00     0.109 C 
ATOM     12  C   UNL     1     -11.589  -0.692   0.492  1.00  0.00     0.021 C 
BRANCH  11  13
ATOM     13  C   UNL     1     -12.179  -3.147   1.057  1.00  0.00     0.204 C 
BRANCH  13  14
ATOM     14  N   UNL     1     -11.634  -4.505   1.144  1.00  0.00    -0.340 N 
ATOM     15  C   UNL     1     -10.349  -4.770   1.565  1.00  0.00     0.243 C 
ATOM     16  O   UNL     1      -9.587  -3.888   1.957  1.00  0.00    -0.273 OA
ATOM     17  H   UNL     1     -12.156  -5.262   0.694  1.00  0.00     0.164 HD
BRANCH  15  18
ATOM     18  C   UNL     1      -9.928  -6.248   1.377  1.00  0.00     0.171 C 
BRANCH  18  19
ATOM     19  N   UNL     1     -10.879  -7.055   2.140  1.00  0.00    -0.343 N 
ATOM     20  C   UNL     1     -10.476  -8.147   2.883  1.00  0.00     0.242 CG0
ATOM     21  O   UNL     1      -9.323  -8.571   2.832  1.00  0.00    -0.273 OA
ATOM     22  H   UNL     1     -11.863  -6.813   2.121  1.00  0.00     0.164 HD
ATOM     23  G   UNL     1     -11.607  -8.825   3.683  1.00  0.00     0.000 G0
ENDBRANCH  18  19
BRANCH  18  24
ATOM     24  C   UNL     1      -9.935  -6.628  -0.109  1.00  0.00     0.038 C 
BRANCH  24  25
ATOM     25  C   UNL     1      -8.536  -6.756  -0.748  1.00  0.00    -0.015 C 
ATOM     26  C   UNL     1      -8.462  -7.890  -1.771  1.00  0.00     0.007 C 
ATOM     27  C   UNL     1      -7.489  -6.981   0.346  1.00  0.00     0.007 C 
ENDBRANCH  24  25
ENDBRANCH  18  24
ENDBRANCH  15  18
ENDBRANCH  13  14
BRANCH  13  28
ATOM     28  C   UNL     1     -12.595  -2.734   2.473  1.00  0.00     0.327 C 
ATOM     29  O   UNL     1     -13.738  -2.593   2.878  1.00  0.00    -0.250 OA
BRANCH  28  30
ATOM     30  O   UNL     1     -11.547  -2.407   3.257  1.00  0.00    -0.480 OA
ATOM     31  H   UNL     1     -11.942  -2.277   4.144  1.00  0.00     0.296 HD
ENDBRANCH  28  30
ENDBRANCH  13  28
ENDBRANCH  11  13
ENDBRANCH   8  11
ENDBRANCH   6   7
BRANCH   6  32
ATOM     32  C   UNL     1     -10.709  -1.392  -4.083  1.00  0.00     0.037 C 
BRANCH  32  33
ATOM     33  C   UNL     1     -10.719  -2.093  -5.448  1.00  0.00     0.026 C 
BRANCH  33  34
ATOM     34  C   UNL     1     -11.411  -3.456  -5.400  1.00  0.00     0.146 C 
BRANCH  34  35
ATOM     35  N   UNL     1     -10.422  -4.495  -5.651  1.00  0.00    -0.254 NA
ATOM     36  C   UNL     1     -10.252  -5.408  -4.768  1.00  0.00     0.185 C 
ATOM     37  N   UNL     1      -9.346  -6.372  -4.991  1.00  0.00    -0.370 N 
ATOM     38  N   UNL     1     -10.873  -5.565  -3.586  1.00  0.00    -0.370 N 
ATOM     39  H   UNL     1      -8.843  -6.329  -5.868  1.00  0.00     0.159 HD
ATOM     40  H   UNL     1      -9.278  -7.209  -4.438  1.00  0.00     0.159 HD
ATOM     41  H   UNL     1     -10.553  -6.245  -2.916  1.00  0.00     0.159 HD
ATOM     42  H   UNL     1     -11.569  -4.903  -3.280  1.00  0.00     0.159 HD
ENDBRANCH  34  35
ENDBRANCH  33  34
ENDBRANCH  32  33
ENDBRANCH   6  32
ENDBRANCH   4   6
ENDBRANCH   1   2
BRANCH   1  43
ATOM     43  C   UNL     1      -6.981   1.875  -2.688  1.00  0.00     0.102 C 
ATOM     44  C   UNL     1      -8.334   2.099  -1.992  1.00  0.00     0.020 C 
BRANCH  43  45
ATOM     45  C   UNL     1      -6.426   3.122  -3.383  1.00  0.00     0.225 C 
ATOM     46  O   UNL     1      -7.132   3.920  -3.994  1.00  0.00    -0.275 OA
ATOM     47  N   UNL     1      -5.056   3.251  -3.362  1.00  0.00    -0.342 N 
ATOM     48  H   UNL     1      -4.509   2.678  -2.735  1.00  0.00     0.164 HD
BRANCH  47  49
ATOM     49  C   UNL     1      -4.387   4.412  -3.956  1.00  0.00     0.192 C 
BRANCH  49  50
ATOM     50  C   UNL     1      -3.919   4.068  -5.372  1.00  0.00     0.047 C 
BRANCH  50  51
ATOM     51  C   UNL     1      -3.550   2.585  -5.519  1.00  0.00     0.103 C 
BRANCH  51  52
ATOM     52  C   UNL     1      -2.383   2.377  -6.483  1.00  0.00     0.226 C 
ATOM     53  O   UNL     1      -1.256   2.767  -6.170  1.00  0.00    -0.275 OA
BRANCH  52  54
ATOM     54  N   UNL     1      -2.665   1.668  -7.665  1.00  0.00    -0.311 N 
ATOM     55  C   UNL     1      -3.898   1.921  -8.422  1.00  0.00     0.153 C 
BRANCH  54  56
ATOM     56  C   UNL     1      -1.780   0.700  -8.167  1.00  0.00     0.102 C 
ATOM     57  C   UNL     1      -1.712  -0.573  -7.743  1.00  0.00     0.043 C 
BRANCH  56  58
ATOM     58  C   UNL     1      -0.834   1.027  -9.299  1.00  0.00     0.268 C 
ATOM     59  O   UNL     1      -0.630   0.271 -10.239  1.00  0.00    -0.268 OA
ATOM     60  N   UNL     1      -0.282   2.281  -9.196  1.00  0.00    -0.339 N 
ATOM     61  H   UNL     1      -0.494   2.841  -8.379  1.00  0.00     0.164 HD
BRANCH  60  62
ATOM     62  C   UNL     1       0.613   2.824 -10.216  1.00  0.00     0.168 CG0
ATOM     63  C   UNL     1      -0.106   3.846 -11.087  1.00  0.00     0.041 C 
ATOM     64  G   UNL     1       1.175   1.673 -11.077  1.00  0.00     0.000 G0
ENDBRANCH  60  62
ENDBRANCH  56  58
ENDBRANCH  54  56
ENDBRANCH  52  54
ENDBRANCH  51  52
ENDBRANCH  50  51
ENDBRANCH  49  50
BRANCH  49  65
ATOM     65  C   UNL     1      -3.181   4.862  -3.117  1.00  0.00     0.326 C 
ATOM     66  O   UNL     1      -2.065   5.108  -3.551  1.00  0.00    -0.250 OA
BRANCH  65  67
ATOM     67  O   UNL     1      -3.410   4.920  -1.786  1.00  0.00    -0.480 OA
ATOM     68  H   UNL     1      -4.202   5.496  -1.713  1.00  0.00     0.296 HD
ENDBRANCH  65  67
ENDBRANCH  49  65
ENDBRANCH  47  49
ENDBRANCH  43  45
ENDBRANCH   1  43
BRANCH   1  69
ATOM     69  C   UNL     1      -6.856   0.891  -5.143  1.00  0.00    -0.001 C 
ATOM     70  C   UNL     1      -7.856   0.987  -6.037  1.00  0.00     0.001 C 
BRANCH  70  71
ATOM     71  C   UNL     1      -7.730   1.241  -7.474  1.00  0.00    -0.055 C 
ATOM     72  C   UNL     1      -7.764   0.177  -8.304  1.00  0.00    -0.018 C 
ATOM     73  C   UNL     1      -7.579   2.670  -7.924  1.00  0.00     0.044 C 
BRANCH  72  74
ATOM     74  C   UNL     1      -7.661   0.137  -9.822  1.00  0.00     0.038 C 
ATOM     75  C   UNL     1      -9.091   0.053 -10.371  1.00  0.00     0.015 C 
BRANCH  74  76
ATOM     76  C   UNL     1      -6.735  -1.046 -10.230  1.00  0.00     0.128 C 
BRANCH  76  77
ATOM     77  O   UNL     1      -6.218  -0.830 -11.554  1.00  0.00    -0.381 OA
ATOM     78  C   UNL     1      -6.593  -1.836 -12.485  1.00  0.00     0.195 C 
ENDBRANCH  76  77
BRANCH  76  79
ATOM     79  C   UNL     1      -5.624  -1.361  -9.197  1.00  0.00     0.068 C 
BRANCH  79  80
ATOM     80  C   UNL     1      -5.762  -2.617  -8.371  1.00  0.00    -0.045 A 
ATOM     81  C   UNL     1      -4.960  -2.830  -7.242  1.00  0.00     0.004 A 
ATOM     82  C   UNL     1      -6.683  -3.609  -8.742  1.00  0.00     0.004 A 
ATOM     83  C   UNL     1      -5.085  -4.002  -6.492  1.00  0.00     0.000 A 
ATOM     84  C   UNL     1      -6.806  -4.780  -7.991  1.00  0.00     0.000 A 
ATOM     85  C   UNL     1      -6.008  -4.975  -6.866  1.00  0.00     0.000 A 
ENDBRANCH  79  80
ENDBRANCH  76  79
ENDBRANCH  74  76
ENDBRANCH  72  74
ENDBRANCH  70  71
ENDBRANCH   1  69
TORSDOF 17
ENDMDL
MODEL 27
REMARK VINA RESULT:    -6.897      3.265      5.408
REMARK INTER + INTRA:         -26.913
REMARK INTER:                 -21.654
REMARK INTRA:                  -5.259
REMARK UNBOUND:                -6.307
REMARK SMILES C=C1C(=O)N[C@H](C)C(=O)N[C@@H](CC(C)C)C(=O)N[C@@H](C(=O)O)[C@H](C)C(=O)N[C@@H](CCCN=C(N)N)C(=O)N[C@@H](/C=C/C(C)=C/[C@H](C)[C@H](Cc2ccccc2)OC)[C@H](C)C(=O)N[C@@H](C(=O)O)CCC(=O)N1C
REMARK SMILES IDX 39 1 38 2 37 3 36 4 28 6 27 7 25 8 26 9 23 11 24 12 19 13
REMARK SMILES IDX 18 14 16 15 17 16 11 18 10 19 8 20 9 21 12 24 13 25 14 26
REMARK SMILES IDX 15 27 20 28 21 29 22 30 29 32 30 33 31 34 32 35 33 36 34 37
REMARK SMILES IDX 35 38 57 43 58 44 59 45 60 46 61 47 62 49 66 50 67 51 68 52
REMARK SMILES IDX 69 53 70 54 71 55 2 56 1 57 3 58 4 59 5 60 6 62 7 63 63 65
REMARK SMILES IDX 64 66 65 67 40 69 41 70 42 71 44 72 43 73 45 74 46 75 47 76
REMARK SMILES IDX 55 77 56 78 48 79 49 80 50 81 54 82 51 83 53 84 52 85
REMARK H PARENT 38 5 27 10 18 17 10 22 22 31 34 39 34 40 35 41 35 42 61 48
REMARK H PARENT 5 61 65 68
REMARK Flexibility Score:  369.900
ROOT
ATOM      1  C   UNL     1      -8.936   3.396  -5.712  1.00  0.00     0.117 C 
ENDROOT
BRANCH   1   2
ATOM      2  N   UNL     1      -9.424   2.031  -5.509  1.00  0.00    -0.347 N 
ATOM      3  O   UNL     1      -7.645   1.239  -4.294  1.00  0.00    -0.273 OA
ATOM      4  C   UNL     1      -8.779   1.086  -4.736  1.00  0.00     0.243 C 
ATOM      5  H   UNL     1     -10.309   1.758  -5.910  1.00  0.00     0.164 HD
BRANCH   4   6
ATOM      6  C   UNL     1      -9.550  -0.253  -4.615  1.00  0.00     0.171 C 
BRANCH   6   7
ATOM      7  N   UNL     1     -10.048  -0.437  -3.243  1.00  0.00    -0.344 N 
ATOM      8  C   UNL     1      -9.619  -1.500  -2.477  1.00  0.00     0.226 C 
ATOM      9  O   UNL     1      -8.835  -2.343  -2.897  1.00  0.00    -0.275 OA
ATOM     10  H   UNL     1     -10.748   0.200  -2.884  1.00  0.00     0.164 HD
BRANCH   8  11
ATOM     11  C   UNL     1     -10.181  -1.521  -1.066  1.00  0.00     0.109 C 
ATOM     12  C   UNL     1      -9.973  -0.163  -0.397  1.00  0.00     0.021 C 
BRANCH  11  13
ATOM     13  C   UNL     1     -11.642  -2.014  -1.094  1.00  0.00     0.204 C 
BRANCH  13  14
ATOM     14  N   UNL     1     -11.732  -3.475  -1.024  1.00  0.00    -0.340 N 
ATOM     15  C   UNL     1     -10.853  -4.246  -0.295  1.00  0.00     0.243 C 
ATOM     16  O   UNL     1      -9.964  -3.756   0.399  1.00  0.00    -0.273 OA
ATOM     17  H   UNL     1     -12.346  -3.951  -1.691  1.00  0.00     0.164 HD
BRANCH  15  18
ATOM     18  C   UNL     1     -11.015  -5.767  -0.538  1.00  0.00     0.171 C 
BRANCH  18  19
ATOM     19  N   UNL     1     -12.216  -6.180   0.185  1.00  0.00    -0.343 N 
ATOM     20  C   UNL     1     -12.149  -6.941   1.336  1.00  0.00     0.242 CG0
ATOM     21  O   UNL     1     -11.088  -7.416   1.732  1.00  0.00    -0.273 OA
ATOM     22  H   UNL     1     -13.127  -5.908  -0.168  1.00  0.00     0.164 HD
ATOM     23  G   UNL     1     -13.514  -7.211   2.001  1.00  0.00     0.000 G0
ENDBRANCH  18  19
BRANCH  18  24
ATOM     24  C   UNL     1     -11.130  -6.067  -2.037  1.00  0.00     0.038 C 
BRANCH  24  25
ATOM     25  C   UNL     1      -9.780  -6.243  -2.764  1.00  0.00    -0.015 C 
ATOM     26  C   UNL     1      -9.936  -6.890  -4.141  1.00  0.00     0.007 C 
ATOM     27  C   UNL     1      -8.837  -7.087  -1.902  1.00  0.00     0.007 C 
ENDBRANCH  24  25
ENDBRANCH  18  24
ENDBRANCH  15  18
ENDBRANCH  13  14
BRANCH  13  28
ATOM     28  C   UNL     1     -12.490  -1.451   0.051  1.00  0.00     0.327 C 
ATOM     29  O   UNL     1     -12.347  -1.689   1.241  1.00  0.00    -0.250 OA
BRANCH  28  30
ATOM     30  O   UNL     1     -13.538  -0.720  -0.378  1.00  0.00    -0.480 OA
ATOM     31  H   UNL     1     -13.155  -0.122  -1.054  1.00  0.00     0.296 HD
ENDBRANCH  28  30
ENDBRANCH  13  28
ENDBRANCH  11  13
ENDBRANCH   8  11
ENDBRANCH   6   7
BRANCH   6  32
ATOM     32  C   UNL     1     -10.706  -0.260  -5.622  1.00  0.00     0.037 C 
BRANCH  32  33
ATOM     33  C   UNL     1     -12.067  -0.048  -4.943  1.00  0.00     0.026 C 
BRANCH  33  34
ATOM     34  C   UNL     1     -12.970  -1.277  -5.047  1.00  0.00     0.146 C 
BRANCH  34  35
ATOM     35  N   UNL     1     -14.001  -1.190  -4.021  1.00  0.00    -0.254 NA
ATOM     36  C   UNL     1     -14.431  -2.273  -3.490  1.00  0.00     0.185 C 
ATOM     37  N   UNL     1     -15.376  -2.205  -2.540  1.00  0.00    -0.370 N 
ATOM     38  N   UNL     1     -14.065  -3.542  -3.744  1.00  0.00    -0.370 N 
ATOM     39  H   UNL     1     -15.697  -1.280  -2.284  1.00  0.00     0.159 HD
ATOM     40  H   UNL     1     -15.638  -2.982  -1.958  1.00  0.00     0.159 HD
ATOM     41  H   UNL     1     -14.577  -4.319  -3.358  1.00  0.00     0.159 HD
ATOM     42  H   UNL     1     -13.373  -3.745  -4.448  1.00  0.00     0.159 HD
ENDBRANCH  34  35
ENDBRANCH  33  34
ENDBRANCH  32  33
ENDBRANCH   6  32
ENDBRANCH   4   6
ENDBRANCH   1   2
BRANCH   1  43
ATOM     43  C   UNL     1      -9.205   4.215  -4.416  1.00  0.00     0.102 C 
ATOM     44  C   UNL     1     -10.498   5.046  -4.475  1.00  0.00     0.020 C 
BRANCH  43  45
ATOM     45  C   UNL     1      -7.968   5.020  -4.007  1.00  0.00     0.225 C 
ATOM     46  O   UNL     1      -7.783   6.185  -4.347  1.00  0.00    -0.275 OA
ATOM     47  N   UNL     1      -7.013   4.322  -3.303  1.00  0.00    -0.342 N 
ATOM     48  H   UNL     1      -7.244   3.423  -2.905  1.00  0.00     0.164 HD
BRANCH  47  49
ATOM     49  C   UNL     1      -5.793   4.972  -2.815  1.00  0.00     0.192 C 
BRANCH  49  50
ATOM     50  C   UNL     1      -4.575   4.119  -3.177  1.00  0.00     0.047 C 
BRANCH  50  51
ATOM     51  C   UNL     1      -4.705   3.480  -4.567  1.00  0.00     0.103 C 
BRANCH  51  52
ATOM     52  C   UNL     1      -3.852   2.220  -4.701  1.00  0.00     0.226 C 
ATOM     53  O   UNL     1      -4.215   1.177  -4.154  1.00  0.00    -0.275 OA
BRANCH  52  54
ATOM     54  N   UNL     1      -2.716   2.316  -5.526  1.00  0.00    -0.311 N 
ATOM     55  C   UNL     1      -2.667   1.638  -6.828  1.00  0.00     0.153 C 
BRANCH  54  56
ATOM     56  C   UNL     1      -1.593   3.066  -5.140  1.00  0.00     0.102 C 
ATOM     57  C   UNL     1      -1.298   3.414  -3.876  1.00  0.00     0.043 C 
BRANCH  56  58
ATOM     58  C   UNL     1      -0.571   3.513  -6.159  1.00  0.00     0.268 C 
ATOM     59  O   UNL     1       0.515   2.969  -6.302  1.00  0.00    -0.268 OA
ATOM     60  N   UNL     1      -1.014   4.547  -6.950  1.00  0.00    -0.339 N 
ATOM     61  H   UNL     1      -1.924   4.950  -6.761  1.00  0.00     0.164 HD
BRANCH  60  62
ATOM     62  C   UNL     1      -0.209   5.092  -8.042  1.00  0.00     0.168 CG0
ATOM     63  C   UNL     1      -0.484   4.354  -9.346  1.00  0.00     0.041 C 
ATOM     64  G   UNL     1       1.287   5.009  -7.673  1.00  0.00     0.000 G0
ENDBRANCH  60  62
ENDBRANCH  56  58
ENDBRANCH  54  56
ENDBRANCH  52  54
ENDBRANCH  51  52
ENDBRANCH  50  51
ENDBRANCH  49  50
BRANCH  49  65
ATOM     65  C   UNL     1      -5.833   5.182  -1.293  1.00  0.00     0.326 C 
ATOM     66  O   UNL     1      -5.127   4.607  -0.478  1.00  0.00    -0.250 OA
BRANCH  65  67
ATOM     67  O   UNL     1      -6.783   6.044  -0.868  1.00  0.00    -0.480 OA
ATOM     68  H   UNL     1      -7.026   6.540  -1.679  1.00  0.00     0.296 HD
ENDBRANCH  65  67
ENDBRANCH  49  65
ENDBRANCH  47  49
ENDBRANCH  43  45
ENDBRANCH   1  43
BRANCH   1  69
ATOM     69  C   UNL     1      -9.540   3.873  -7.020  1.00  0.00    -0.001 C 
ATOM     70  C   UNL     1      -8.886   4.316  -8.108  1.00  0.00     0.001 C 
BRANCH  70  71
ATOM     71  C   UNL     1      -9.480   4.754  -9.373  1.00  0.00    -0.055 C 
ATOM     72  C   UNL     1      -9.496   6.078  -9.634  1.00  0.00    -0.018 C 
ATOM     73  C   UNL     1     -10.023   3.695 -10.297  1.00  0.00     0.044 C 
BRANCH  72  74
ATOM     74  C   UNL     1     -10.037   6.813 -10.852  1.00  0.00     0.038 C 
ATOM     75  C   UNL     1      -8.848   7.508 -11.526  1.00  0.00     0.015 C 
BRANCH  74  76
ATOM     76  C   UNL     1     -11.178   7.768 -10.394  1.00  0.00     0.128 C 
BRANCH  76  77
ATOM     77  O   UNL     1     -11.795   8.381 -11.540  1.00  0.00    -0.381 OA
ATOM     78  C   UNL     1     -12.388   7.450 -12.435  1.00  0.00     0.195 C 
ENDBRANCH  76  77
BRANCH  76  79
ATOM     79  C   UNL     1     -12.207   7.109  -9.441  1.00  0.00     0.068 C 
BRANCH  79  80
ATOM     80  C   UNL     1     -12.182   7.512  -7.987  1.00  0.00    -0.045 A 
ATOM     81  C   UNL     1     -13.235   7.173  -7.126  1.00  0.00     0.004 A 
ATOM     82  C   UNL     1     -11.111   8.261  -7.478  1.00  0.00     0.004 A 
ATOM     83  C   UNL     1     -13.211   7.562  -5.785  1.00  0.00     0.000 A 
ATOM     84  C   UNL     1     -11.088   8.650  -6.137  1.00  0.00     0.000 A 
ATOM     85  C   UNL     1     -12.137   8.299  -5.291  1.00  0.00     0.000 A 
ENDBRANCH  79  80
ENDBRANCH  76  79
ENDBRANCH  74  76
ENDBRANCH  72  74
ENDBRANCH  70  71
ENDBRANCH   1  69
TORSDOF 17
ENDMDL
MODEL 28
REMARK VINA RESULT:    -6.891      3.763      7.810
REMARK INTER + INTRA:         -26.895
REMARK INTER:                 -19.540
REMARK INTRA:                  -7.355
REMARK UNBOUND:                -6.307
REMARK SMILES C=C1C(=O)N[C@H](C)C(=O)N[C@@H](CC(C)C)C(=O)N[C@@H](C(=O)O)[C@H](C)C(=O)N[C@@H](CCCN=C(N)N)C(=O)N[C@@H](/C=C/C(C)=C/[C@H](C)[C@H](Cc2ccccc2)OC)[C@H](C)C(=O)N[C@@H](C(=O)O)CCC(=O)N1C
REMARK SMILES IDX 39 1 38 2 37 3 36 4 28 6 27 7 25 8 26 9 23 11 24 12 19 13
REMARK SMILES IDX 18 14 16 15 17 16 11 18 10 19 8 20 9 21 12 24 13 25 14 26
REMARK SMILES IDX 15 27 20 28 21 29 22 30 29 32 30 33 31 34 32 35 33 36 34 37
REMARK SMILES IDX 35 38 57 43 58 44 59 45 60 46 61 47 62 49 66 50 67 51 68 52
REMARK SMILES IDX 69 53 70 54 71 55 2 56 1 57 3 58 4 59 5 60 6 62 7 63 63 65
REMARK SMILES IDX 64 66 65 67 40 69 41 70 42 71 44 72 43 73 45 74 46 75 47 76
REMARK SMILES IDX 55 77 56 78 48 79 49 80 50 81 54 82 51 83 53 84 52 85
REMARK H PARENT 38 5 27 10 18 17 10 22 22 31 34 39 34 40 35 41 35 42 61 48
REMARK H PARENT 5 61 65 68
REMARK Flexibility Score:  369.900
ROOT
ATOM      1  C   UNL     1      -8.138   2.273  -4.706  1.00  0.00     0.117 C 
ENDROOT
BRANCH   1   2
ATOM      2  N   UNL     1      -9.353   1.935  -3.963  1.00  0.00    -0.347 N 
ATOM      3  O   UNL     1      -8.815   2.981  -1.992  1.00  0.00    -0.273 OA
ATOM      4  C   UNL     1      -9.635   2.395  -2.691  1.00  0.00     0.243 C 
ATOM      5  H   UNL     1     -10.064   1.373  -4.406  1.00  0.00     0.164 HD
BRANCH   4   6
ATOM      6  C   UNL     1     -11.026   1.961  -2.165  1.00  0.00     0.171 C 
BRANCH   6   7
ATOM      7  N   UNL     1     -11.158   0.496  -2.208  1.00  0.00    -0.344 N 
ATOM      8  C   UNL     1     -11.683  -0.131  -3.318  1.00  0.00     0.226 C 
ATOM      9  O   UNL     1     -12.081   0.487  -4.298  1.00  0.00    -0.275 OA
ATOM     10  H   UNL     1     -10.902  -0.044  -1.391  1.00  0.00     0.164 HD
BRANCH   8  11
ATOM     11  C   UNL     1     -11.701  -1.647  -3.230  1.00  0.00     0.109 C 
ATOM     12  C   UNL     1     -10.683  -2.126  -2.196  1.00  0.00     0.021 C 
BRANCH  11  13
ATOM     13  C   UNL     1     -13.144  -2.138  -2.996  1.00  0.00     0.204 C 
BRANCH  13  14
ATOM     14  N   UNL     1     -14.073  -1.028  -2.761  1.00  0.00    -0.340 N 
ATOM     15  C   UNL     1     -14.658  -0.788  -1.537  1.00  0.00     0.243 C 
ATOM     16  O   UNL     1     -14.394  -1.454  -0.537  1.00  0.00    -0.273 OA
ATOM     17  H   UNL     1     -14.449  -0.536  -3.576  1.00  0.00     0.164 HD
BRANCH  15  18
ATOM     18  C   UNL     1     -15.757   0.302  -1.579  1.00  0.00     0.171 C 
BRANCH  18  19
ATOM     19  N   UNL     1     -16.896  -0.279  -2.287  1.00  0.00    -0.343 N 
ATOM     20  C   UNL     1     -17.779  -1.140  -1.665  1.00  0.00     0.242 CG0
ATOM     21  O   UNL     1     -17.574  -1.561  -0.529  1.00  0.00    -0.273 OA
ATOM     22  H   UNL     1     -17.043  -0.051  -3.264  1.00  0.00     0.164 HD
ATOM     23  G   UNL     1     -18.961  -1.587  -2.548  1.00  0.00     0.000 G0
ENDBRANCH  18  19
BRANCH  18  24
ATOM     24  C   UNL     1     -16.141   0.740  -0.160  1.00  0.00     0.038 C 
BRANCH  24  25
ATOM     25  C   UNL     1     -16.304   2.263   0.023  1.00  0.00    -0.015 C 
ATOM     26  C   UNL     1     -15.637   3.062  -1.098  1.00  0.00     0.007 C 
ATOM     27  C   UNL     1     -15.721   2.685   1.374  1.00  0.00     0.007 C 
ENDBRANCH  24  25
ENDBRANCH  18  24
ENDBRANCH  15  18
ENDBRANCH  13  14
BRANCH  13  28
ATOM     28  C   UNL     1     -13.700  -2.956  -4.165  1.00  0.00     0.327 C 
ATOM     29  O   UNL     1     -14.806  -3.472  -4.224  1.00  0.00    -0.250 OA
BRANCH  28  30
ATOM     30  O   UNL     1     -12.791  -3.176  -5.136  1.00  0.00    -0.480 OA
ATOM     31  H   UNL     1     -11.986  -2.714  -4.822  1.00  0.00     0.296 HD
ENDBRANCH  28  30
ENDBRANCH  13  28
ENDBRANCH  11  13
ENDBRANCH   8  11
ENDBRANCH   6   7
BRANCH   6  32
ATOM     32  C   UNL     1     -11.211   2.485  -0.737  1.00  0.00     0.037 C 
BRANCH  32  33
ATOM     33  C   UNL     1     -12.354   1.772  -0.001  1.00  0.00     0.026 C 
BRANCH  33  34
ATOM     34  C   UNL     1     -12.120   1.695   1.508  1.00  0.00     0.146 C 
BRANCH  34  35
ATOM     35  N   UNL     1     -11.635   0.363   1.841  1.00  0.00    -0.254 NA
ATOM     36  C   UNL     1     -10.418   0.229   2.219  1.00  0.00     0.185 C 
ATOM     37  N   UNL     1      -9.962  -0.994   2.532  1.00  0.00    -0.370 N 
ATOM     38  N   UNL     1      -9.469   1.171   2.361  1.00  0.00    -0.370 N 
ATOM     39  H   UNL     1     -10.622  -1.757   2.461  1.00  0.00     0.159 HD
ATOM     40  H   UNL     1      -9.085  -1.158   2.998  1.00  0.00     0.159 HD
ATOM     41  H   UNL     1      -8.508   0.921   2.531  1.00  0.00     0.159 HD
ATOM     42  H   UNL     1      -9.667   2.135   2.144  1.00  0.00     0.159 HD
ENDBRANCH  34  35
ENDBRANCH  33  34
ENDBRANCH  32  33
ENDBRANCH   6  32
ENDBRANCH   4   6
ENDBRANCH   1   2
BRANCH   1  43
ATOM     43  C   UNL     1      -8.364   3.630  -5.433  1.00  0.00     0.102 C 
ATOM     44  C   UNL     1      -8.087   3.568  -6.945  1.00  0.00     0.020 C 
BRANCH  43  45
ATOM     45  C   UNL     1      -7.633   4.767  -4.714  1.00  0.00     0.225 C 
ATOM     46  O   UNL     1      -7.865   5.954  -4.925  1.00  0.00    -0.275 OA
ATOM     47  N   UNL     1      -6.617   4.379  -3.870  1.00  0.00    -0.342 N 
ATOM     48  H   UNL     1      -6.540   3.410  -3.593  1.00  0.00     0.164 HD
BRANCH  47  49
ATOM     49  C   UNL     1      -5.854   5.356  -3.088  1.00  0.00     0.192 C 
BRANCH  49  50
ATOM     50  C   UNL     1      -4.357   5.166  -3.347  1.00  0.00     0.047 C 
BRANCH  50  51
ATOM     51  C   UNL     1      -4.011   3.719  -3.722  1.00  0.00     0.103 C 
BRANCH  51  52
ATOM     52  C   UNL     1      -3.405   3.619  -5.121  1.00  0.00     0.226 C 
ATOM     53  O   UNL     1      -4.119   3.804  -6.109  1.00  0.00    -0.275 OA
BRANCH  52  54
ATOM     54  N   UNL     1      -2.019   3.390  -5.189  1.00  0.00    -0.311 N 
ATOM     55  C   UNL     1      -1.172   3.513  -3.995  1.00  0.00     0.153 C 
BRANCH  54  56
ATOM     56  C   UNL     1      -1.394   3.030  -6.395  1.00  0.00     0.102 C 
ATOM     57  C   UNL     1      -1.298   1.776  -6.866  1.00  0.00     0.043 C 
BRANCH  56  58
ATOM     58  C   UNL     1      -0.802   4.080  -7.305  1.00  0.00     0.268 C 
ATOM     59  O   UNL     1       0.162   4.767  -6.997  1.00  0.00    -0.268 OA
ATOM     60  N   UNL     1      -1.415   4.138  -8.534  1.00  0.00    -0.339 N 
ATOM     61  H   UNL     1      -2.216   3.542  -8.707  1.00  0.00     0.164 HD
BRANCH  60  62
ATOM     62  C   UNL     1      -0.961   5.042  -9.590  1.00  0.00     0.168 CG0
ATOM     63  C   UNL     1      -0.205   4.281 -10.673  1.00  0.00     0.041 C 
ATOM     64  G   UNL     1      -0.074   6.146  -8.978  1.00  0.00     0.000 G0
ENDBRANCH  60  62
ENDBRANCH  56  58
ENDBRANCH  54  56
ENDBRANCH  52  54
ENDBRANCH  51  52
ENDBRANCH  50  51
ENDBRANCH  49  50
BRANCH  49  65
ATOM     65  C   UNL     1      -6.132   5.219  -1.583  1.00  0.00     0.326 C 
ATOM     66  O   UNL     1      -5.292   5.002  -0.722  1.00  0.00    -0.250 OA
BRANCH  65  67
ATOM     67  O   UNL     1      -7.437   5.299  -1.241  1.00  0.00    -0.480 OA
ATOM     68  H   UNL     1      -7.555   4.563  -0.603  1.00  0.00     0.296 HD
ENDBRANCH  65  67
ENDBRANCH  49  65
ENDBRANCH  47  49
ENDBRANCH  43  45
ENDBRANCH   1  43
BRANCH   1  69
ATOM     69  C   UNL     1      -7.792   1.047  -5.531  1.00  0.00    -0.001 C 
ATOM     70  C   UNL     1      -8.452  -0.124  -5.572  1.00  0.00     0.001 C 
BRANCH  70  71
ATOM     71  C   UNL     1      -8.120  -1.293  -6.389  1.00  0.00    -0.055 C 
ATOM     72  C   UNL     1      -8.877  -2.400  -6.238  1.00  0.00    -0.018 C 
ATOM     73  C   UNL     1      -6.963  -1.174  -7.347  1.00  0.00     0.044 C 
BRANCH  72  74
ATOM     74  C   UNL     1      -8.770  -3.744  -6.944  1.00  0.00     0.038 C 
ATOM     75  C   UNL     1     -10.197  -4.197  -7.274  1.00  0.00     0.015 C 
BRANCH  74  76
ATOM     76  C   UNL     1      -7.967  -4.723  -6.039  1.00  0.00     0.128 C 
BRANCH  76  77
ATOM     77  O   UNL     1      -6.646  -4.916  -6.574  1.00  0.00    -0.381 OA
ATOM     78  C   UNL     1      -6.587  -4.830  -7.991  1.00  0.00     0.195 C 
ENDBRANCH  76  77
BRANCH  76  79
ATOM     79  C   UNL     1      -7.954  -4.329  -4.540  1.00  0.00     0.068 C 
BRANCH  79  80
ATOM     80  C   UNL     1      -8.878  -5.071  -3.606  1.00  0.00    -0.045 A 
ATOM     81  C   UNL     1     -10.235  -5.239  -3.915  1.00  0.00     0.004 A 
ATOM     82  C   UNL     1      -8.395  -5.583  -2.392  1.00  0.00     0.004 A 
ATOM     83  C   UNL     1     -11.086  -5.915  -3.038  1.00  0.00     0.000 A 
ATOM     84  C   UNL     1      -9.248  -6.259  -1.516  1.00  0.00     0.000 A 
ATOM     85  C   UNL     1     -10.592  -6.426  -1.840  1.00  0.00     0.000 A 
ENDBRANCH  79  80
ENDBRANCH  76  79
ENDBRANCH  74  76
ENDBRANCH  72  74
ENDBRANCH  70  71
ENDBRANCH   1  69
TORSDOF 17
ENDMDL
MODEL 29
REMARK VINA RESULT:    -6.881      3.694      7.797
REMARK INTER + INTRA:         -26.866
REMARK INTER:                 -20.127
REMARK INTRA:                  -6.740
REMARK UNBOUND:                -6.307
REMARK SMILES C=C1C(=O)N[C@H](C)C(=O)N[C@@H](CC(C)C)C(=O)N[C@@H](C(=O)O)[C@H](C)C(=O)N[C@@H](CCCN=C(N)N)C(=O)N[C@@H](/C=C/C(C)=C/[C@H](C)[C@H](Cc2ccccc2)OC)[C@H](C)C(=O)N[C@@H](C(=O)O)CCC(=O)N1C
REMARK SMILES IDX 39 1 38 2 37 3 36 4 28 6 27 7 25 8 26 9 23 11 24 12 19 13
REMARK SMILES IDX 18 14 16 15 17 16 11 18 10 19 8 20 9 21 12 24 13 25 14 26
REMARK SMILES IDX 15 27 20 28 21 29 22 30 29 32 30 33 31 34 32 35 33 36 34 37
REMARK SMILES IDX 35 38 57 43 58 44 59 45 60 46 61 47 62 49 66 50 67 51 68 52
REMARK SMILES IDX 69 53 70 54 71 55 2 56 1 57 3 58 4 59 5 60 6 62 7 63 63 65
REMARK SMILES IDX 64 66 65 67 40 69 41 70 42 71 44 72 43 73 45 74 46 75 47 76
REMARK SMILES IDX 55 77 56 78 48 79 49 80 50 81 54 82 51 83 53 84 52 85
REMARK H PARENT 38 5 27 10 18 17 10 22 22 31 34 39 34 40 35 41 35 42 61 48
REMARK H PARENT 5 61 65 68
REMARK Flexibility Score:  369.900
ROOT
ATOM      1  C   UNL     1      -9.221   1.549  -2.756  1.00  0.00     0.117 C 
ENDROOT
BRANCH   1   2
ATOM      2  N   UNL     1     -10.250   0.851  -1.985  1.00  0.00    -0.347 N 
ATOM      3  O   UNL     1      -9.004   0.438  -0.102  1.00  0.00    -0.273 OA
ATOM      4  C   UNL     1     -10.086   0.431  -0.679  1.00  0.00     0.243 C 
ATOM      5  H   UNL     1     -11.159   0.701  -2.395  1.00  0.00     0.164 HD
BRANCH   4   6
ATOM      6  C   UNL     1     -11.359  -0.205  -0.064  1.00  0.00     0.171 C 
BRANCH   6   7
ATOM      7  N   UNL     1     -10.995  -1.284   0.869  1.00  0.00    -0.344 N 
ATOM      8  C   UNL     1     -11.367  -2.587   0.616  1.00  0.00     0.226 C 
ATOM      9  O   UNL     1     -12.026  -2.906  -0.366  1.00  0.00    -0.275 OA
ATOM     10  H   UNL     1     -10.510  -1.049   1.725  1.00  0.00     0.164 HD
BRANCH   8  11
ATOM     11  C   UNL     1     -10.870  -3.589   1.643  1.00  0.00     0.109 C 
ATOM     12  C   UNL     1      -9.963  -2.896   2.659  1.00  0.00     0.021 C 
BRANCH  11  13
ATOM     13  C   UNL     1     -12.067  -4.347   2.252  1.00  0.00     0.204 C 
BRANCH  13  14
ATOM     14  N   UNL     1     -13.317  -3.590   2.136  1.00  0.00    -0.340 N 
ATOM     15  C   UNL     1     -13.750  -2.708   3.102  1.00  0.00     0.243 C 
ATOM     16  O   UNL     1     -13.086  -2.447   4.104  1.00  0.00    -0.273 OA
ATOM     17  H   UNL     1     -13.982  -3.870   1.410  1.00  0.00     0.164 HD
BRANCH  15  18
ATOM     18  C   UNL     1     -15.188  -2.186   2.863  1.00  0.00     0.171 C 
BRANCH  18  19
ATOM     19  N   UNL     1     -15.872  -2.240   4.154  1.00  0.00    -0.343 N 
ATOM     20  C   UNL     1     -17.219  -2.532   4.253  1.00  0.00     0.242 CG0
ATOM     21  O   UNL     1     -17.932  -2.627   3.256  1.00  0.00    -0.273 OA
ATOM     22  H   UNL     1     -15.350  -2.054   5.002  1.00  0.00     0.164 HD
ATOM     23  G   UNL     1     -17.747  -2.621   5.700  1.00  0.00     0.000 G0
ENDBRANCH  18  19
BRANCH  18  24
ATOM     24  C   UNL     1     -15.160  -0.760   2.301  1.00  0.00     0.038 C 
BRANCH  24  25
ATOM     25  C   UNL     1     -15.945  -0.571   0.985  1.00  0.00    -0.015 C 
ATOM     26  C   UNL     1     -15.174  -1.079  -0.234  1.00  0.00     0.007 C 
ATOM     27  C   UNL     1     -16.286   0.910   0.798  1.00  0.00     0.007 C 
ENDBRANCH  24  25
ENDBRANCH  18  24
ENDBRANCH  15  18
ENDBRANCH  13  14
BRANCH  13  28
ATOM     28  C   UNL     1     -12.304  -5.717   1.609  1.00  0.00     0.327 C 
ATOM     29  O   UNL     1     -12.351  -5.955   0.412  1.00  0.00    -0.250 OA
BRANCH  28  30
ATOM     30  O   UNL     1     -12.586  -6.682   2.508  1.00  0.00    -0.480 OA
ATOM     31  H   UNL     1     -12.187  -6.358   3.343  1.00  0.00     0.296 HD
ENDBRANCH  28  30
ENDBRANCH  13  28
ENDBRANCH  11  13
ENDBRANCH   8  11
ENDBRANCH   6   7
BRANCH   6  32
ATOM     32  C   UNL     1     -12.172   0.882   0.647  1.00  0.00     0.037 C 
BRANCH  32  33
ATOM     33  C   UNL     1     -11.415   1.485   1.839  1.00  0.00     0.026 C 
BRANCH  33  34
ATOM     34  C   UNL     1     -11.836   2.926   2.130  1.00  0.00     0.146 C 
BRANCH  34  35
ATOM     35  N   UNL     1     -11.602   3.734   0.941  1.00  0.00    -0.254 NA
ATOM     36  C   UNL     1     -12.474   4.614   0.615  1.00  0.00     0.185 C 
ATOM     37  N   UNL     1     -12.266   5.367  -0.476  1.00  0.00    -0.370 N 
ATOM     38  N   UNL     1     -13.631   4.923   1.226  1.00  0.00    -0.370 N 
ATOM     39  H   UNL     1     -11.408   5.200  -0.987  1.00  0.00     0.159 HD
ATOM     40  H   UNL     1     -12.806   6.185  -0.698  1.00  0.00     0.159 HD
ATOM     41  H   UNL     1     -14.299   5.540   0.793  1.00  0.00     0.159 HD
ATOM     42  H   UNL     1     -13.924   4.425   2.052  1.00  0.00     0.159 HD
ENDBRANCH  34  35
ENDBRANCH  33  34
ENDBRANCH  32  33
ENDBRANCH   6  32
ENDBRANCH   4   6
ENDBRANCH   1   2
BRANCH   1  43
ATOM     43  C   UNL     1      -9.738   2.978  -3.091  1.00  0.00     0.102 C 
ATOM     44  C   UNL     1      -9.900   3.233  -4.599  1.00  0.00     0.020 C 
BRANCH  43  45
ATOM     45  C   UNL     1      -8.913   4.046  -2.366  1.00  0.00     0.225 C 
ATOM     46  O   UNL     1      -9.414   4.920  -1.664  1.00  0.00    -0.275 OA
ATOM     47  N   UNL     1      -7.561   4.026  -2.624  1.00  0.00    -0.342 N 
ATOM     48  H   UNL     1      -7.150   3.220  -3.073  1.00  0.00     0.164 HD
BRANCH  47  49
ATOM     49  C   UNL     1      -6.643   4.965  -1.973  1.00  0.00     0.192 C 
BRANCH  49  50
ATOM     50  C   UNL     1      -5.786   5.664  -3.031  1.00  0.00     0.047 C 
BRANCH  50  51
ATOM     51  C   UNL     1      -5.855   4.960  -4.393  1.00  0.00     0.103 C 
BRANCH  51  52
ATOM     52  C   UNL     1      -4.469   4.732  -4.992  1.00  0.00     0.226 C 
ATOM     53  O   UNL     1      -3.911   5.644  -5.605  1.00  0.00    -0.275 OA
BRANCH  52  54
ATOM     54  N   UNL     1      -3.872   3.484  -4.733  1.00  0.00    -0.311 N 
ATOM     55  C   UNL     1      -4.674   2.343  -4.272  1.00  0.00     0.153 C 
BRANCH  54  56
ATOM     56  C   UNL     1      -2.493   3.281  -4.910  1.00  0.00     0.102 C 
ATOM     57  C   UNL     1      -1.566   3.420  -3.948  1.00  0.00     0.043 C 
BRANCH  56  58
ATOM     58  C   UNL     1      -1.941   2.828  -6.241  1.00  0.00     0.268 C 
ATOM     59  O   UNL     1      -1.678   1.660  -6.494  1.00  0.00    -0.268 OA
ATOM     60  N   UNL     1      -1.828   3.848  -7.154  1.00  0.00    -0.339 N 
ATOM     61  H   UNL     1      -2.056   4.791  -6.862  1.00  0.00     0.164 HD
BRANCH  60  62
ATOM     62  C   UNL     1      -1.373   3.620  -8.525  1.00  0.00     0.168 CG0
ATOM     63  C   UNL     1      -0.958   4.927  -9.189  1.00  0.00     0.041 C 
ATOM     64  G   UNL     1      -2.491   2.929  -9.332  1.00  0.00     0.000 G0
ENDBRANCH  60  62
ENDBRANCH  56  58
ENDBRANCH  54  56
ENDBRANCH  52  54
ENDBRANCH  51  52
ENDBRANCH  50  51
ENDBRANCH  49  50
BRANCH  49  65
ATOM     65  C   UNL     1      -5.727   4.255  -0.964  1.00  0.00     0.326 C 
ATOM     66  O   UNL     1      -4.904   4.801  -0.244  1.00  0.00    -0.250 OA
BRANCH  65  67
ATOM     67  O   UNL     1      -5.841   2.908  -0.949  1.00  0.00    -0.480 OA
ATOM     68  H   UNL     1      -6.365   2.729  -0.139  1.00  0.00     0.296 HD
ENDBRANCH  65  67
ENDBRANCH  49  65
ENDBRANCH  47  49
ENDBRANCH  43  45
ENDBRANCH   1  43
BRANCH   1  69
ATOM     69  C   UNL     1      -8.842   0.621  -3.895  1.00  0.00    -0.001 C 
ATOM     70  C   UNL     1      -9.576  -0.381  -4.411  1.00  0.00     0.001 C 
BRANCH  70  71
ATOM     71  C   UNL     1      -9.208  -1.257  -5.525  1.00  0.00    -0.055 C 
ATOM     72  C   UNL     1      -9.693  -2.517  -5.520  1.00  0.00    -0.018 C 
ATOM     73  C   UNL     1      -8.322  -0.688  -6.603  1.00  0.00     0.044 C 
BRANCH  72  74
ATOM     74  C   UNL     1      -9.484  -3.633  -6.533  1.00  0.00     0.038 C 
ATOM     75  C   UNL     1     -10.874  -4.118  -6.965  1.00  0.00     0.015 C 
BRANCH  74  76
ATOM     76  C   UNL     1      -8.581  -4.728  -5.893  1.00  0.00     0.128 C 
BRANCH  76  77
ATOM     77  O   UNL     1      -7.604  -4.118  -5.032  1.00  0.00    -0.381 OA
ATOM     78  C   UNL     1      -6.298  -4.074  -5.592  1.00  0.00     0.195 C 
ENDBRANCH  76  77
BRANCH  76  79
ATOM     79  C   UNL     1      -9.369  -5.865  -5.194  1.00  0.00     0.068 C 
BRANCH  79  80
ATOM     80  C   UNL     1      -9.319  -5.936  -3.687  1.00  0.00    -0.045 A 
ATOM     81  C   UNL     1      -9.658  -4.828  -2.900  1.00  0.00     0.004 A 
ATOM     82  C   UNL     1      -8.902  -7.114  -3.048  1.00  0.00     0.004 A 
ATOM     83  C   UNL     1      -9.596  -4.898  -1.506  1.00  0.00     0.000 A 
ATOM     84  C   UNL     1      -8.839  -7.183  -1.654  1.00  0.00     0.000 A 
ATOM     85  C   UNL     1      -9.188  -6.076  -0.884  1.00  0.00     0.000 A 
ENDBRANCH  79  80
ENDBRANCH  76  79
ENDBRANCH  74  76
ENDBRANCH  72  74
ENDBRANCH  70  71
ENDBRANCH   1  69
TORSDOF 17
ENDMDL
MODEL 30
REMARK VINA RESULT:    -6.871      4.164      7.462
REMARK INTER + INTRA:         -26.835
REMARK INTER:                 -19.690
REMARK INTRA:                  -7.145
REMARK UNBOUND:                -6.307
REMARK SMILES C=C1C(=O)N[C@H](C)C(=O)N[C@@H](CC(C)C)C(=O)N[C@@H](C(=O)O)[C@H](C)C(=O)N[C@@H](CCCN=C(N)N)C(=O)N[C@@H](/C=C/C(C)=C/[C@H](C)[C@H](Cc2ccccc2)OC)[C@H](C)C(=O)N[C@@H](C(=O)O)CCC(=O)N1C
REMARK SMILES IDX 39 1 38 2 37 3 36 4 28 6 27 7 25 8 26 9 23 11 24 12 19 13
REMARK SMILES IDX 18 14 16 15 17 16 11 18 10 19 8 20 9 21 12 24 13 25 14 26
REMARK SMILES IDX 15 27 20 28 21 29 22 30 29 32 30 33 31 34 32 35 33 36 34 37
REMARK SMILES IDX 35 38 57 43 58 44 59 45 60 46 61 47 62 49 66 50 67 51 68 52
REMARK SMILES IDX 69 53 70 54 71 55 2 56 1 57 3 58 4 59 5 60 6 62 7 63 63 65
REMARK SMILES IDX 64 66 65 67 40 69 41 70 42 71 44 72 43 73 45 74 46 75 47 76
REMARK SMILES IDX 55 77 56 78 48 79 49 80 50 81 54 82 51 83 53 84 52 85
REMARK H PARENT 38 5 27 10 18 17 10 22 22 31 34 39 34 40 35 41 35 42 61 48
REMARK H PARENT 5 61 65 68
REMARK Flexibility Score:  369.900
ROOT
ATOM      1  C   UNL     1     -10.890  -4.131  -3.806  1.00  0.00     0.117 C 
ENDROOT
BRANCH   1   2
ATOM      2  N   UNL     1      -9.942  -4.591  -2.790  1.00  0.00    -0.347 N 
ATOM      3  O   UNL     1     -11.305  -6.127  -1.763  1.00  0.00    -0.273 OA
ATOM      4  C   UNL     1     -10.197  -5.621  -1.905  1.00  0.00     0.243 C 
ATOM      5  H   UNL     1      -9.023  -4.178  -2.748  1.00  0.00     0.164 HD
BRANCH   4   6
ATOM      6  C   UNL     1      -8.994  -5.968  -0.991  1.00  0.00     0.171 C 
BRANCH   6   7
ATOM      7  N   UNL     1      -9.396  -5.929   0.424  1.00  0.00    -0.344 N 
ATOM      8  C   UNL     1      -9.918  -4.778   0.975  1.00  0.00     0.226 C 
ATOM      9  O   UNL     1     -10.052  -3.742   0.335  1.00  0.00    -0.275 OA
ATOM     10  H   UNL     1      -9.238  -6.745   1.002  1.00  0.00     0.164 HD
BRANCH   8  11
ATOM     11  C   UNL     1     -10.335  -4.913   2.429  1.00  0.00     0.109 C 
ATOM     12  C   UNL     1      -9.856  -3.701   3.228  1.00  0.00     0.021 C 
BRANCH  11  13
ATOM     13  C   UNL     1     -11.849  -5.189   2.514  1.00  0.00     0.204 C 
BRANCH  13  14
ATOM     14  N   UNL     1     -12.644  -4.056   2.032  1.00  0.00    -0.340 N 
ATOM     15  C   UNL     1     -13.343  -3.219   2.875  1.00  0.00     0.243 C 
ATOM     16  O   UNL     1     -13.299  -3.328   4.099  1.00  0.00    -0.273 OA
ATOM     17  H   UNL     1     -12.845  -4.001   1.029  1.00  0.00     0.164 HD
BRANCH  15  18
ATOM     18  C   UNL     1     -14.272  -2.227   2.133  1.00  0.00     0.171 C 
BRANCH  18  19
ATOM     19  N   UNL     1     -15.499  -2.134   2.921  1.00  0.00    -0.343 N 
ATOM     20  C   UNL     1     -16.749  -2.201   2.335  1.00  0.00     0.242 CG0
ATOM     21  O   UNL     1     -16.887  -2.208   1.114  1.00  0.00    -0.273 OA
ATOM     22  H   UNL     1     -15.437  -2.011   3.925  1.00  0.00     0.164 HD
ATOM     23  G   UNL     1     -17.923  -2.164   3.334  1.00  0.00     0.000 G0
ENDBRANCH  18  19
BRANCH  18  24
ATOM     24  C   UNL     1     -13.595  -0.860   1.983  1.00  0.00     0.038 C 
BRANCH  24  25
ATOM     25  C   UNL     1     -13.549  -0.318   0.538  1.00  0.00    -0.015 C 
ATOM     26  C   UNL     1     -14.871   0.317   0.109  1.00  0.00     0.007 C 
ATOM     27  C   UNL     1     -13.185  -1.452  -0.425  1.00  0.00     0.007 C 
ENDBRANCH  24  25
ENDBRANCH  18  24
ENDBRANCH  15  18
ENDBRANCH  13  14
BRANCH  13  28
ATOM     28  C   UNL     1     -12.284  -6.421   1.715  1.00  0.00     0.327 C 
ATOM     29  O   UNL     1     -13.333  -6.553   1.102  1.00  0.00    -0.250 OA
BRANCH  28  30
ATOM     30  O   UNL     1     -11.428  -7.457   1.832  1.00  0.00    -0.480 OA
ATOM     31  H   UNL     1     -10.746  -7.284   1.150  1.00  0.00     0.296 HD
ENDBRANCH  28  30
ENDBRANCH  13  28
ENDBRANCH  11  13
ENDBRANCH   8  11
ENDBRANCH   6   7
BRANCH   6  32
ATOM     32  C   UNL     1      -8.458  -7.353  -1.369  1.00  0.00     0.037 C 
BRANCH  32  33
ATOM     33  C   UNL     1      -6.986  -7.532  -0.972  1.00  0.00     0.026 C 
BRANCH  33  34
ATOM     34  C   UNL     1      -6.670  -8.959  -0.522  1.00  0.00     0.146 C 
BRANCH  34  35
ATOM     35  N   UNL     1      -5.977  -9.650  -1.602  1.00  0.00    -0.254 NA
ATOM     36  C   UNL     1      -5.999 -10.930  -1.626  1.00  0.00     0.185 C 
ATOM     37  N   UNL     1      -5.368 -11.577  -2.618  1.00  0.00    -0.370 N 
ATOM     38  N   UNL     1      -6.588 -11.781  -0.767  1.00  0.00    -0.370 N 
ATOM     39  H   UNL     1      -4.908 -11.003  -3.313  1.00  0.00     0.159 HD
ATOM     40  H   UNL     1      -5.484 -12.558  -2.804  1.00  0.00     0.159 HD
ATOM     41  H   UNL     1      -6.416 -12.772  -0.815  1.00  0.00     0.159 HD
ATOM     42  H   UNL     1      -7.086 -11.435   0.038  1.00  0.00     0.159 HD
ENDBRANCH  34  35
ENDBRANCH  33  34
ENDBRANCH  32  33
ENDBRANCH   6  32
ENDBRANCH   4   6
ENDBRANCH   1   2
BRANCH   1  43
ATOM     43  C   UNL     1     -10.470  -4.725  -5.181  1.00  0.00     0.102 C 
ATOM     44  C   UNL     1      -9.606  -5.992  -5.061  1.00  0.00     0.020 C 
BRANCH  43  45
ATOM     45  C   UNL     1      -9.868  -3.646  -6.086  1.00  0.00     0.225 C 
ATOM     46  O   UNL     1     -10.512  -3.063  -6.954  1.00  0.00    -0.275 OA
ATOM     47  N   UNL     1      -8.518  -3.428  -5.931  1.00  0.00    -0.342 N 
ATOM     48  H   UNL     1      -8.041  -3.799  -5.121  1.00  0.00     0.164 HD
BRANCH  47  49
ATOM     49  C   UNL     1      -7.814  -2.400  -6.704  1.00  0.00     0.192 C 
BRANCH  49  50
ATOM     50  C   UNL     1      -7.363  -2.985  -8.045  1.00  0.00     0.047 C 
BRANCH  50  51
ATOM     51  C   UNL     1      -7.728  -2.078  -9.228  1.00  0.00     0.103 C 
BRANCH  51  52
ATOM     52  C   UNL     1      -7.105  -2.562 -10.536  1.00  0.00     0.226 C 
ATOM     53  O   UNL     1      -7.336  -3.705 -10.936  1.00  0.00    -0.275 OA
BRANCH  52  54
ATOM     54  N   UNL     1      -6.346  -1.620 -11.255  1.00  0.00    -0.311 N 
ATOM     55  C   UNL     1      -6.429  -1.542 -12.720  1.00  0.00     0.153 C 
BRANCH  54  56
ATOM     56  C   UNL     1      -5.489  -0.718 -10.603  1.00  0.00     0.102 C 
ATOM     57  C   UNL     1      -5.719   0.598 -10.465  1.00  0.00     0.043 C 
BRANCH  56  58
ATOM     58  C   UNL     1      -4.217  -1.197  -9.944  1.00  0.00     0.268 C 
ATOM     59  O   UNL     1      -4.147  -1.496  -8.760  1.00  0.00    -0.268 OA
ATOM     60  N   UNL     1      -3.168  -1.324 -10.824  1.00  0.00    -0.339 N 
ATOM     61  H   UNL     1      -3.304  -1.045 -11.788  1.00  0.00     0.164 HD
BRANCH  60  62
ATOM     62  C   UNL     1      -1.861  -1.831 -10.410  1.00  0.00     0.168 CG0
ATOM     63  C   UNL     1      -0.984  -0.708  -9.870  1.00  0.00     0.041 C 
ATOM     64  G   UNL     1      -1.177  -2.533 -11.601  1.00  0.00     0.000 G0
ENDBRANCH  60  62
ENDBRANCH  56  58
ENDBRANCH  54  56
ENDBRANCH  52  54
ENDBRANCH  51  52
ENDBRANCH  50  51
ENDBRANCH  49  50
BRANCH  49  65
ATOM     65  C   UNL     1      -6.592  -1.859  -5.947  1.00  0.00     0.326 C 
ATOM     66  O   UNL     1      -6.627  -1.087  -5.000  1.00  0.00    -0.250 OA
BRANCH  65  67
ATOM     67  O   UNL     1      -5.399  -2.258  -6.443  1.00  0.00    -0.480 OA
ATOM     68  H   UNL     1      -5.630  -2.651  -7.312  1.00  0.00     0.296 HD
ENDBRANCH  65  67
ENDBRANCH  49  65
ENDBRANCH  47  49
ENDBRANCH  43  45
ENDBRANCH   1  43
BRANCH   1  69
ATOM     69  C   UNL     1     -10.976  -2.623  -3.654  1.00  0.00    -0.001 C 
ATOM     70  C   UNL     1     -11.991  -1.822  -4.020  1.00  0.00     0.001 C 
BRANCH  70  71
ATOM     71  C   UNL     1     -12.071  -0.370  -3.849  1.00  0.00    -0.055 C 
ATOM     72  C   UNL     1     -10.931   0.342  -3.978  1.00  0.00    -0.018 C 
ATOM     73  C   UNL     1     -13.421   0.229  -3.548  1.00  0.00     0.044 C 
BRANCH  72  74
ATOM     74  C   UNL     1     -10.714   1.843  -3.858  1.00  0.00     0.038 C 
ATOM     75  C   UNL     1      -9.851   2.272  -5.050  1.00  0.00     0.015 C 
BRANCH  74  76
ATOM     76  C   UNL     1     -10.098   2.150  -2.461  1.00  0.00     0.128 C 
BRANCH  76  77
ATOM     77  O   UNL     1      -9.334   3.367  -2.518  1.00  0.00    -0.381 OA
ATOM     78  C   UNL     1      -7.935   3.171  -2.369  1.00  0.00     0.195 C 
ENDBRANCH  76  77
BRANCH  76  79
ATOM     79  C   UNL     1     -11.127   2.142  -1.303  1.00  0.00     0.068 C 
BRANCH  79  80
ATOM     80  C   UNL     1     -10.708   1.527   0.011  1.00  0.00    -0.045 A 
ATOM     81  C   UNL     1      -9.960   0.343   0.048  1.00  0.00     0.004 A 
ATOM     82  C   UNL     1     -11.089   2.122   1.223  1.00  0.00     0.004 A 
ATOM     83  C   UNL     1      -9.589  -0.227   1.267  1.00  0.00     0.000 A 
ATOM     84  C   UNL     1     -10.718   1.551   2.442  1.00  0.00     0.000 A 
ATOM     85  C   UNL     1      -9.967   0.378   2.464  1.00  0.00     0.000 A 
ENDBRANCH  79  80
ENDBRANCH  76  79
ENDBRANCH  74  76
ENDBRANCH  72  74
ENDBRANCH  70  71
ENDBRANCH   1  69
TORSDOF 17
ENDMDL
MODEL 31
REMARK VINA RESULT:    -6.852      2.958      7.007
REMARK INTER + INTRA:         -26.780
REMARK INTER:                 -20.031
REMARK INTRA:                  -6.749
REMARK UNBOUND:                -6.307
REMARK SMILES C=C1C(=O)N[C@H](C)C(=O)N[C@@H](CC(C)C)C(=O)N[C@@H](C(=O)O)[C@H](C)C(=O)N[C@@H](CCCN=C(N)N)C(=O)N[C@@H](/C=C/C(C)=C/[C@H](C)[C@H](Cc2ccccc2)OC)[C@H](C)C(=O)N[C@@H](C(=O)O)CCC(=O)N1C
REMARK SMILES IDX 39 1 38 2 37 3 36 4 28 6 27 7 25 8 26 9 23 11 24 12 19 13
REMARK SMILES IDX 18 14 16 15 17 16 11 18 10 19 8 20 9 21 12 24 13 25 14 26
REMARK SMILES IDX 15 27 20 28 21 29 22 30 29 32 30 33 31 34 32 35 33 36 34 37
REMARK SMILES IDX 35 38 57 43 58 44 59 45 60 46 61 47 62 49 66 50 67 51 68 52
REMARK SMILES IDX 69 53 70 54 71 55 2 56 1 57 3 58 4 59 5 60 6 62 7 63 63 65
REMARK SMILES IDX 64 66 65 67 40 69 41 70 42 71 44 72 43 73 45 74 46 75 47 76
REMARK SMILES IDX 55 77 56 78 48 79 49 80 50 81 54 82 51 83 53 84 52 85
REMARK H PARENT 38 5 27 10 18 17 10 22 22 31 34 39 34 40 35 41 35 42 61 48
REMARK H PARENT 5 61 65 68
REMARK Flexibility Score:  369.900
ROOT
ATOM      1  C   UNL     1      -7.728   2.070  -3.899  1.00  0.00     0.117 C 
ENDROOT
BRANCH   1   2
ATOM      2  N   UNL     1      -8.926   2.042  -3.059  1.00  0.00    -0.347 N 
ATOM      3  O   UNL     1     -10.483   2.287  -4.728  1.00  0.00    -0.273 OA
ATOM      4  C   UNL     1     -10.216   2.061  -3.552  1.00  0.00     0.243 C 
ATOM      5  H   UNL     1      -8.827   1.953  -2.059  1.00  0.00     0.164 HD
BRANCH   4   6
ATOM      6  C   UNL     1     -11.304   1.934  -2.455  1.00  0.00     0.171 C 
BRANCH   6   7
ATOM      7  N   UNL     1     -10.857   1.023  -1.390  1.00  0.00    -0.344 N 
ATOM      8  C   UNL     1     -10.961  -0.343  -1.544  1.00  0.00     0.226 C 
ATOM      9  O   UNL     1     -11.442  -0.859  -2.546  1.00  0.00    -0.275 OA
ATOM     10  H   UNL     1     -10.517   1.414  -0.521  1.00  0.00     0.164 HD
BRANCH   8  11
ATOM     11  C   UNL     1     -10.407  -1.147  -0.381  1.00  0.00     0.109 C 
ATOM     12  C   UNL     1      -9.484  -0.275   0.469  1.00  0.00     0.021 C 
BRANCH  11  13
ATOM     13  C   UNL     1     -11.564  -1.812   0.391  1.00  0.00     0.204 C 
BRANCH  13  14
ATOM     14  N   UNL     1     -11.085  -2.810   1.352  1.00  0.00    -0.340 N 
ATOM     15  C   UNL     1     -11.165  -4.167   1.126  1.00  0.00     0.243 C 
ATOM     16  O   UNL     1     -11.591  -4.636   0.072  1.00  0.00    -0.273 OA
ATOM     17  H   UNL     1     -10.863  -2.495   2.301  1.00  0.00     0.164 HD
BRANCH  15  18
ATOM     18  C   UNL     1     -10.792  -5.023   2.361  1.00  0.00     0.171 C 
BRANCH  18  19
ATOM     19  N   UNL     1     -10.483  -6.362   1.863  1.00  0.00    -0.343 N 
ATOM     20  C   UNL     1     -11.102  -7.489   2.370  1.00  0.00     0.242 CG0
ATOM     21  O   UNL     1     -11.841  -7.431   3.350  1.00  0.00    -0.273 OA
ATOM     22  H   UNL     1      -9.791  -6.473   1.131  1.00  0.00     0.164 HD
ATOM     23  G   UNL     1     -10.706  -8.803   1.667  1.00  0.00     0.000 G0
ENDBRANCH  18  19
BRANCH  18  24
ATOM     24  C   UNL     1      -9.599  -4.410   3.104  1.00  0.00     0.038 C 
BRANCH  24  25
ATOM     25  C   UNL     1      -9.633  -4.589   4.637  1.00  0.00    -0.015 C 
ATOM     26  C   UNL     1      -8.897  -5.848   5.095  1.00  0.00     0.007 C 
ATOM     27  C   UNL     1     -11.086  -4.638   5.117  1.00  0.00     0.007 C 
ENDBRANCH  24  25
ENDBRANCH  18  24
ENDBRANCH  15  18
ENDBRANCH  13  14
BRANCH  13  28
ATOM     28  C   UNL     1     -12.426  -0.811   1.167  1.00  0.00     0.327 C 
ATOM     29  O   UNL     1     -13.231  -0.027   0.688  1.00  0.00    -0.250 OA
BRANCH  28  30
ATOM     30  O   UNL     1     -12.137  -0.774   2.483  1.00  0.00    -0.480 OA
ATOM     31  H   UNL     1     -12.994  -0.950   2.923  1.00  0.00     0.296 HD
ENDBRANCH  28  30
ENDBRANCH  13  28
ENDBRANCH  11  13
ENDBRANCH   8  11
ENDBRANCH   6   7
BRANCH   6  32
ATOM     32  C   UNL     1     -11.614   3.325  -1.891  1.00  0.00     0.037 C 
BRANCH  32  33
ATOM     33  C   UNL     1     -12.899   3.336  -1.051  1.00  0.00     0.026 C 
BRANCH  33  34
ATOM     34  C   UNL     1     -12.682   3.929   0.342  1.00  0.00     0.146 C 
BRANCH  34  35
ATOM     35  N   UNL     1     -11.504   3.312   0.937  1.00  0.00    -0.254 NA
ATOM     36  C   UNL     1     -11.641   2.651   2.026  1.00  0.00     0.185 C 
ATOM     37  N   UNL     1     -10.563   2.074   2.580  1.00  0.00    -0.370 N 
ATOM     38  N   UNL     1     -12.755   2.428   2.744  1.00  0.00    -0.370 N 
ATOM     39  H   UNL     1      -9.685   2.188   2.090  1.00  0.00     0.159 HD
ATOM     40  H   UNL     1     -10.614   1.402   3.326  1.00  0.00     0.159 HD
ATOM     41  H   UNL     1     -12.710   2.009   3.659  1.00  0.00     0.159 HD
ATOM     42  H   UNL     1     -13.639   2.816   2.454  1.00  0.00     0.159 HD
ENDBRANCH  34  35
ENDBRANCH  33  34
ENDBRANCH  32  33
ENDBRANCH   6  32
ENDBRANCH   4   6
ENDBRANCH   1   2
BRANCH   1  43
ATOM     43  C   UNL     1      -7.825   3.290  -4.860  1.00  0.00     0.102 C 
ATOM     44  C   UNL     1      -7.413   2.964  -6.306  1.00  0.00     0.020 C 
BRANCH  43  45
ATOM     45  C   UNL     1      -7.113   4.512  -4.271  1.00  0.00     0.225 C 
ATOM     46  O   UNL     1      -7.328   5.660  -4.650  1.00  0.00    -0.275 OA
ATOM     47  N   UNL     1      -6.135   4.237  -3.343  1.00  0.00    -0.342 N 
ATOM     48  H   UNL     1      -6.077   3.315  -2.935  1.00  0.00     0.164 HD
BRANCH  47  49
ATOM     49  C   UNL     1      -5.396   5.309  -2.669  1.00  0.00     0.192 C 
BRANCH  49  50
ATOM     50  C   UNL     1      -3.892   5.087  -2.847  1.00  0.00     0.047 C 
BRANCH  50  51
ATOM     51  C   UNL     1      -3.582   4.049  -3.934  1.00  0.00     0.103 C 
BRANCH  51  52
ATOM     52  C   UNL     1      -3.100   4.700  -5.229  1.00  0.00     0.226 C 
ATOM     53  O   UNL     1      -3.851   5.456  -5.848  1.00  0.00    -0.275 OA
BRANCH  52  54
ATOM     54  N   UNL     1      -1.766   4.446  -5.600  1.00  0.00    -0.311 N 
ATOM     55  C   UNL     1      -0.659   5.217  -5.019  1.00  0.00     0.153 C 
BRANCH  54  56
ATOM     56  C   UNL     1      -1.443   3.445  -6.531  1.00  0.00     0.102 C 
ATOM     57  C   UNL     1      -2.081   2.269  -6.647  1.00  0.00     0.043 C 
BRANCH  56  58
ATOM     58  C   UNL     1      -0.338   3.653  -7.540  1.00  0.00     0.268 C 
ATOM     59  O   UNL     1       0.848   3.673  -7.239  1.00  0.00    -0.268 OA
ATOM     60  N   UNL     1      -0.797   3.750  -8.832  1.00  0.00    -0.339 N 
ATOM     61  H   UNL     1      -1.796   3.734  -8.996  1.00  0.00     0.164 HD
BRANCH  60  62
ATOM     62  C   UNL     1       0.109   3.891  -9.971  1.00  0.00     0.168 CG0
ATOM     63  C   UNL     1      -0.555   4.661 -11.106  1.00  0.00     0.041 C 
ATOM     64  G   UNL     1       0.559   2.495 -10.449  1.00  0.00     0.000 G0
ENDBRANCH  60  62
ENDBRANCH  56  58
ENDBRANCH  54  56
ENDBRANCH  52  54
ENDBRANCH  51  52
ENDBRANCH  50  51
ENDBRANCH  49  50
BRANCH  49  65
ATOM     65  C   UNL     1      -5.727   5.371  -1.170  1.00  0.00     0.326 C 
ATOM     66  O   UNL     1      -5.031   4.924  -0.269  1.00  0.00    -0.250 OA
BRANCH  65  67
ATOM     67  O   UNL     1      -6.925   5.925  -0.879  1.00  0.00    -0.480 OA
ATOM     68  H   UNL     1      -6.722   6.540  -0.141  1.00  0.00     0.296 HD
ENDBRANCH  65  67
ENDBRANCH  49  65
ENDBRANCH  47  49
ENDBRANCH  43  45
ENDBRANCH   1  43
BRANCH   1  69
ATOM     69  C   UNL     1      -7.592   0.679  -4.491  1.00  0.00    -0.001 C 
ATOM     70  C   UNL     1      -8.029  -0.479  -3.965  1.00  0.00     0.001 C 
BRANCH  70  71
ATOM     71  C   UNL     1      -7.911  -1.814  -4.556  1.00  0.00    -0.055 C 
ATOM     72  C   UNL     1      -8.007  -1.916  -5.898  1.00  0.00    -0.018 C 
ATOM     73  C   UNL     1      -7.684  -2.976  -3.626  1.00  0.00     0.044 C 
BRANCH  72  74
ATOM     74  C   UNL     1      -7.921  -3.155  -6.779  1.00  0.00     0.038 C 
ATOM     75  C   UNL     1      -6.578  -3.094  -7.516  1.00  0.00     0.015 C 
BRANCH  74  76
ATOM     76  C   UNL     1      -9.172  -3.199  -7.704  1.00  0.00     0.128 C 
BRANCH  76  77
ATOM     77  O   UNL     1      -8.764  -3.327  -9.076  1.00  0.00    -0.381 OA
ATOM     78  C   UNL     1      -9.184  -2.247  -9.900  1.00  0.00     0.195 C 
ENDBRANCH  76  77
BRANCH  76  79
ATOM     79  C   UNL     1     -10.224  -4.260  -7.290  1.00  0.00     0.068 C 
BRANCH  79  80
ATOM     80  C   UNL     1     -10.297  -4.653  -5.835  1.00  0.00    -0.045 A 
ATOM     81  C   UNL     1      -9.655  -5.807  -5.365  1.00  0.00     0.004 A 
ATOM     82  C   UNL     1     -11.037  -3.878  -4.929  1.00  0.00     0.004 A 
ATOM     83  C   UNL     1      -9.740  -6.171  -4.020  1.00  0.00     0.000 A 
ATOM     84  C   UNL     1     -11.121  -4.243  -3.584  1.00  0.00     0.000 A 
ATOM     85  C   UNL     1     -10.471  -5.388  -3.129  1.00  0.00     0.000 A 
ENDBRANCH  79  80
ENDBRANCH  76  79
ENDBRANCH  74  76
ENDBRANCH  72  74
ENDBRANCH  70  71
ENDBRANCH   1  69
TORSDOF 17
ENDMDL
MODEL 32
REMARK VINA RESULT:    -6.829      2.987     12.931
REMARK INTER + INTRA:         -26.709
REMARK INTER:                 -20.258
REMARK INTRA:                  -6.451
REMARK UNBOUND:                -6.307
REMARK SMILES C=C1C(=O)N[C@H](C)C(=O)N[C@@H](CC(C)C)C(=O)N[C@@H](C(=O)O)[C@H](C)C(=O)N[C@@H](CCCN=C(N)N)C(=O)N[C@@H](/C=C/C(C)=C/[C@H](C)[C@H](Cc2ccccc2)OC)[C@H](C)C(=O)N[C@@H](C(=O)O)CCC(=O)N1C
REMARK SMILES IDX 39 1 38 2 37 3 36 4 28 6 27 7 25 8 26 9 23 11 24 12 19 13
REMARK SMILES IDX 18 14 16 15 17 16 11 18 10 19 8 20 9 21 12 24 13 25 14 26
REMARK SMILES IDX 15 27 20 28 21 29 22 30 29 32 30 33 31 34 32 35 33 36 34 37
REMARK SMILES IDX 35 38 57 43 58 44 59 45 60 46 61 47 62 49 66 50 67 51 68 52
REMARK SMILES IDX 69 53 70 54 71 55 2 56 1 57 3 58 4 59 5 60 6 62 7 63 63 65
REMARK SMILES IDX 64 66 65 67 40 69 41 70 42 71 44 72 43 73 45 74 46 75 47 76
REMARK SMILES IDX 55 77 56 78 48 79 49 80 50 81 54 82 51 83 53 84 52 85
REMARK H PARENT 38 5 27 10 18 17 10 22 22 31 34 39 34 40 35 41 35 42 61 48
REMARK H PARENT 5 61 65 68
REMARK Flexibility Score:  369.900
ROOT
ATOM      1  C   UNL     1      -8.856  -1.851  -4.509  1.00  0.00     0.117 C 
ENDROOT
BRANCH   1   2
ATOM      2  N   UNL     1      -8.565  -0.675  -3.688  1.00  0.00    -0.347 N 
ATOM      3  O   UNL     1     -10.730  -0.006  -3.321  1.00  0.00    -0.273 OA
ATOM      4  C   UNL     1      -9.532   0.104  -3.082  1.00  0.00     0.243 C 
ATOM      5  H   UNL     1      -7.605  -0.428  -3.501  1.00  0.00     0.164 HD
BRANCH   4   6
ATOM      6  C   UNL     1      -8.955   1.238  -2.198  1.00  0.00     0.171 C 
BRANCH   6   7
ATOM      7  N   UNL     1      -8.226   2.214  -3.023  1.00  0.00    -0.344 N 
ATOM      8  C   UNL     1      -6.871   2.079  -3.239  1.00  0.00     0.226 C 
ATOM      9  O   UNL     1      -6.212   1.171  -2.747  1.00  0.00    -0.275 OA
ATOM     10  H   UNL     1      -8.724   3.014  -3.391  1.00  0.00     0.164 HD
BRANCH   8  11
ATOM     11  C   UNL     1      -6.276   3.133  -4.156  1.00  0.00     0.109 C 
ATOM     12  C   UNL     1      -7.295   4.243  -4.413  1.00  0.00     0.021 C 
BRANCH  11  13
ATOM     13  C   UNL     1      -4.924   3.612  -3.591  1.00  0.00     0.204 C 
BRANCH  13  14
ATOM     14  N   UNL     1      -4.130   4.328  -4.593  1.00  0.00    -0.340 N 
ATOM     15  C   UNL     1      -2.934   3.849  -5.082  1.00  0.00     0.243 C 
ATOM     16  O   UNL     1      -2.478   2.755  -4.756  1.00  0.00    -0.273 OA
ATOM     17  H   UNL     1      -4.372   5.303  -4.791  1.00  0.00     0.164 HD
BRANCH  15  18
ATOM     18  C   UNL     1      -2.175   4.867  -5.969  1.00  0.00     0.171 C 
BRANCH  18  19
ATOM     19  N   UNL     1      -0.882   5.098  -5.329  1.00  0.00    -0.343 N 
ATOM     20  C   UNL     1      -0.768   5.825  -4.159  1.00  0.00     0.242 CG0
ATOM     21  O   UNL     1      -1.727   6.422  -3.676  1.00  0.00    -0.273 OA
ATOM     22  H   UNL     1      -0.042   4.722  -5.754  1.00  0.00     0.164 HD
ATOM     23  G   UNL     1       0.665   5.895  -3.591  1.00  0.00     0.000 G0
ENDBRANCH  18  19
BRANCH  18  24
ATOM     24  C   UNL     1      -2.008   4.325  -7.394  1.00  0.00     0.038 C 
BRANCH  24  25
ATOM     25  C   UNL     1      -0.709   4.764  -8.102  1.00  0.00    -0.015 C 
ATOM     26  C   UNL     1      -0.962   5.295  -9.513  1.00  0.00     0.007 C 
ATOM     27  C   UNL     1       0.268   3.586  -8.162  1.00  0.00     0.007 C 
ENDBRANCH  24  25
ENDBRANCH  18  24
ENDBRANCH  15  18
ENDBRANCH  13  14
BRANCH  13  28
ATOM     28  C   UNL     1      -5.071   4.540  -2.380  1.00  0.00     0.327 C 
ATOM     29  O   UNL     1      -4.791   5.728  -2.343  1.00  0.00    -0.250 OA
BRANCH  28  30
ATOM     30  O   UNL     1      -5.448   3.891  -1.260  1.00  0.00    -0.480 OA
ATOM     31  H   UNL     1      -5.073   4.430  -0.532  1.00  0.00     0.296 HD
ENDBRANCH  28  30
ENDBRANCH  13  28
ENDBRANCH  11  13
ENDBRANCH   8  11
ENDBRANCH   6   7
BRANCH   6  32
ATOM     32  C   UNL     1     -10.100   1.913  -1.435  1.00  0.00     0.037 C 
BRANCH  32  33
ATOM     33  C   UNL     1     -10.334   1.276  -0.058  1.00  0.00     0.026 C 
BRANCH  33  34
ATOM     34  C   UNL     1      -9.435   0.064   0.186  1.00  0.00     0.146 C 
BRANCH  34  35
ATOM     35  N   UNL     1     -10.026  -0.755   1.236  1.00  0.00    -0.254 NA
ATOM     36  C   UNL     1     -10.337  -1.968   0.967  1.00  0.00     0.185 C 
ATOM     37  N   UNL     1     -10.877  -2.733   1.928  1.00  0.00    -0.370 N 
ATOM     38  N   UNL     1     -10.201  -2.638  -0.191  1.00  0.00    -0.370 N 
ATOM     39  H   UNL     1     -11.002  -2.302   2.835  1.00  0.00     0.159 HD
ATOM     40  H   UNL     1     -10.985  -3.730   1.850  1.00  0.00     0.159 HD
ATOM     41  H   UNL     1     -10.612  -3.549  -0.318  1.00  0.00     0.159 HD
ATOM     42  H   UNL     1      -9.822  -2.182  -1.006  1.00  0.00     0.159 HD
ENDBRANCH  34  35
ENDBRANCH  33  34
ENDBRANCH  32  33
ENDBRANCH   6  32
ENDBRANCH   4   6
ENDBRANCH   1   2
BRANCH   1  43
ATOM     43  C   UNL     1      -8.228  -3.100  -3.825  1.00  0.00     0.102 C 
ATOM     44  C   UNL     1      -7.278  -3.888  -4.742  1.00  0.00     0.020 C 
BRANCH  43  45
ATOM     45  C   UNL     1      -9.305  -3.961  -3.159  1.00  0.00     0.225 C 
ATOM     46  O   UNL     1     -10.485  -3.628  -3.093  1.00  0.00    -0.275 OA
ATOM     47  N   UNL     1      -8.852  -5.107  -2.546  1.00  0.00    -0.342 N 
ATOM     48  H   UNL     1      -7.918  -5.441  -2.738  1.00  0.00     0.164 HD
BRANCH  47  49
ATOM     49  C   UNL     1      -9.774  -6.046  -1.899  1.00  0.00     0.192 C 
BRANCH  49  50
ATOM     50  C   UNL     1      -9.068  -6.737  -0.730  1.00  0.00     0.047 C 
BRANCH  50  51
ATOM     51  C   UNL     1      -9.529  -6.194   0.630  1.00  0.00     0.103 C 
BRANCH  51  52
ATOM     52  C   UNL     1      -8.825  -6.891   1.793  1.00  0.00     0.226 C 
ATOM     53  O   UNL     1      -8.819  -8.122   1.854  1.00  0.00    -0.275 OA
BRANCH  52  54
ATOM     54  N   UNL     1      -8.146  -6.059   2.704  1.00  0.00    -0.311 N 
ATOM     55  C   UNL     1      -6.681  -5.958   2.688  1.00  0.00     0.153 C 
BRANCH  54  56
ATOM     56  C   UNL     1      -8.842  -5.293   3.654  1.00  0.00     0.102 C 
ATOM     57  C   UNL     1      -8.462  -4.081   4.090  1.00  0.00     0.043 C 
BRANCH  56  58
ATOM     58  C   UNL     1     -10.144  -5.783   4.242  1.00  0.00     0.268 C 
ATOM     59  O   UNL     1     -11.240  -5.405   3.850  1.00  0.00    -0.268 OA
ATOM     60  N   UNL     1      -9.972  -6.742   5.212  1.00  0.00    -0.339 N 
ATOM     61  H   UNL     1      -9.030  -6.992   5.488  1.00  0.00     0.164 HD
BRANCH  60  62
ATOM     62  C   UNL     1     -11.102  -7.397   5.869  1.00  0.00     0.168 CG0
ATOM     63  C   UNL     1     -11.463  -6.690   7.170  1.00  0.00     0.041 C 
ATOM     64  G   UNL     1     -10.761  -8.879   6.129  1.00  0.00     0.000 G0
ENDBRANCH  60  62
ENDBRANCH  56  58
ENDBRANCH  54  56
ENDBRANCH  52  54
ENDBRANCH  51  52
ENDBRANCH  50  51
ENDBRANCH  49  50
BRANCH  49  65
ATOM     65  C   UNL     1     -10.284  -7.109  -2.885  1.00  0.00     0.326 C 
ATOM     66  O   UNL     1     -11.459  -7.366  -3.108  1.00  0.00    -0.250 OA
BRANCH  65  67
ATOM     67  O   UNL     1      -9.314  -7.829  -3.490  1.00  0.00    -0.480 OA
ATOM     68  H   UNL     1      -9.797  -8.335  -4.179  1.00  0.00     0.296 HD
ENDBRANCH  65  67
ENDBRANCH  49  65
ENDBRANCH  47  49
ENDBRANCH  43  45
ENDBRANCH   1  43
BRANCH   1  69
ATOM     69  C   UNL     1      -8.430  -1.498  -5.922  1.00  0.00    -0.001 C 
ATOM     70  C   UNL     1      -7.921  -0.330  -6.355  1.00  0.00     0.001 C 
BRANCH  70  71
ATOM     71  C   UNL     1      -7.494  -0.008  -7.718  1.00  0.00    -0.055 C 
ATOM     72  C   UNL     1      -7.241   1.286  -8.007  1.00  0.00    -0.018 C 
ATOM     73  C   UNL     1      -7.358  -1.144  -8.698  1.00  0.00     0.044 C 
BRANCH  72  74
ATOM     74  C   UNL     1      -6.785   1.908  -9.319  1.00  0.00     0.038 C 
ATOM     75  C   UNL     1      -7.844   1.566 -10.374  1.00  0.00     0.015 C 
BRANCH  74  76
ATOM     76  C   UNL     1      -5.350   1.398  -9.643  1.00  0.00     0.128 C 
BRANCH  76  77
ATOM     77  O   UNL     1      -4.918   1.921 -10.911  1.00  0.00    -0.381 OA
ATOM     78  C   UNL     1      -4.318   0.948 -11.755  1.00  0.00     0.195 C 
ENDBRANCH  76  77
BRANCH  76  79
ATOM     79  C   UNL     1      -4.323   1.647  -8.510  1.00  0.00     0.068 C 
BRANCH  79  80
ATOM     80  C   UNL     1      -3.407   0.511  -8.125  1.00  0.00    -0.045 A 
ATOM     81  C   UNL     1      -2.139   0.758  -7.581  1.00  0.00     0.004 A 
ATOM     82  C   UNL     1      -3.803  -0.819  -8.332  1.00  0.00     0.004 A 
ATOM     83  C   UNL     1      -1.292  -0.298  -7.240  1.00  0.00     0.000 A 
ATOM     84  C   UNL     1      -2.955  -1.875  -7.991  1.00  0.00     0.000 A 
ATOM     85  C   UNL     1      -1.701  -1.614  -7.444  1.00  0.00     0.000 A 
ENDBRANCH  79  80
ENDBRANCH  76  79
ENDBRANCH  74  76
ENDBRANCH  72  74
ENDBRANCH  70  71
ENDBRANCH   1  69
TORSDOF 17
ENDMDL
MODEL 33
REMARK VINA RESULT:    -6.829      2.982     12.706
REMARK INTER + INTRA:         -26.709
REMARK INTER:                 -19.818
REMARK INTRA:                  -6.891
REMARK UNBOUND:                -6.307
REMARK SMILES C=C1C(=O)N[C@H](C)C(=O)N[C@@H](CC(C)C)C(=O)N[C@@H](C(=O)O)[C@H](C)C(=O)N[C@@H](CCCN=C(N)N)C(=O)N[C@@H](/C=C/C(C)=C/[C@H](C)[C@H](Cc2ccccc2)OC)[C@H](C)C(=O)N[C@@H](C(=O)O)CCC(=O)N1C
REMARK SMILES IDX 39 1 38 2 37 3 36 4 28 6 27 7 25 8 26 9 23 11 24 12 19 13
REMARK SMILES IDX 18 14 16 15 17 16 11 18 10 19 8 20 9 21 12 24 13 25 14 26
REMARK SMILES IDX 15 27 20 28 21 29 22 30 29 32 30 33 31 34 32 35 33 36 34 37
REMARK SMILES IDX 35 38 57 43 58 44 59 45 60 46 61 47 62 49 66 50 67 51 68 52
REMARK SMILES IDX 69 53 70 54 71 55 2 56 1 57 3 58 4 59 5 60 6 62 7 63 63 65
REMARK SMILES IDX 64 66 65 67 40 69 41 70 42 71 44 72 43 73 45 74 46 75 47 76
REMARK SMILES IDX 55 77 56 78 48 79 49 80 50 81 54 82 51 83 53 84 52 85
REMARK H PARENT 38 5 27 10 18 17 10 22 22 31 34 39 34 40 35 41 35 42 61 48
REMARK H PARENT 5 61 65 68
REMARK Flexibility Score:  369.900
ROOT
ATOM      1  C   UNL     1      -8.560  -2.314  -4.973  1.00  0.00     0.117 C 
ENDROOT
BRANCH   1   2
ATOM      2  N   UNL     1      -8.181  -1.267  -4.023  1.00  0.00    -0.347 N 
ATOM      3  O   UNL     1      -9.938   0.158  -4.412  1.00  0.00    -0.273 OA
ATOM      4  C   UNL     1      -8.952  -0.153  -3.752  1.00  0.00     0.243 C 
ATOM      5  H   UNL     1      -7.333  -1.370  -3.486  1.00  0.00     0.164 HD
BRANCH   4   6
ATOM      6  C   UNL     1      -8.365   0.756  -2.643  1.00  0.00     0.171 C 
BRANCH   6   7
ATOM      7  N   UNL     1      -7.747   1.954  -3.233  1.00  0.00    -0.344 N 
ATOM      8  C   UNL     1      -6.496   1.888  -3.807  1.00  0.00     0.226 C 
ATOM      9  O   UNL     1      -5.835   0.856  -3.836  1.00  0.00    -0.275 OA
ATOM     10  H   UNL     1      -8.233   2.839  -3.169  1.00  0.00     0.164 HD
BRANCH   8  11
ATOM     11  C   UNL     1      -6.019   3.193  -4.421  1.00  0.00     0.109 C 
ATOM     12  C   UNL     1      -7.116   4.253  -4.318  1.00  0.00     0.021 C 
BRANCH  11  13
ATOM     13  C   UNL     1      -4.667   3.598  -3.801  1.00  0.00     0.204 C 
BRANCH  13  14
ATOM     14  N   UNL     1      -3.790   4.258  -4.773  1.00  0.00    -0.340 N 
ATOM     15  C   UNL     1      -2.709   3.631  -5.353  1.00  0.00     0.243 C 
ATOM     16  O   UNL     1      -2.438   2.451  -5.141  1.00  0.00    -0.273 OA
ATOM     17  H   UNL     1      -3.867   5.274  -4.877  1.00  0.00     0.164 HD
BRANCH  15  18
ATOM     18  C   UNL     1      -1.813   4.584  -6.183  1.00  0.00     0.171 C 
BRANCH  18  19
ATOM     19  N   UNL     1      -0.603   4.812  -5.395  1.00  0.00    -0.343 N 
ATOM     20  C   UNL     1      -0.589   5.668  -4.311  1.00  0.00     0.242 CG0
ATOM     21  O   UNL     1      -1.555   6.378  -4.040  1.00  0.00    -0.273 OA
ATOM     22  H   UNL     1       0.254   4.335  -5.651  1.00  0.00     0.164 HD
ATOM     23  G   UNL     1       0.755   5.720  -3.557  1.00  0.00     0.000 G0
ENDBRANCH  18  19
BRANCH  18  24
ATOM     24  C   UNL     1      -1.486   3.967  -7.548  1.00  0.00     0.038 C 
BRANCH  24  25
ATOM     25  C   UNL     1      -0.411   4.724  -8.356  1.00  0.00    -0.015 C 
ATOM     26  C   UNL     1      -0.956   5.293  -9.666  1.00  0.00     0.007 C 
ATOM     27  C   UNL     1       0.765   3.789  -8.650  1.00  0.00     0.007 C 
ENDBRANCH  24  25
ENDBRANCH  18  24
ENDBRANCH  15  18
ENDBRANCH  13  14
BRANCH  13  28
ATOM     28  C   UNL     1      -4.810   4.542  -2.604  1.00  0.00     0.327 C 
ATOM     29  O   UNL     1      -5.548   4.385  -1.644  1.00  0.00    -0.250 OA
BRANCH  28  30
ATOM     30  O   UNL     1      -4.105   5.683  -2.743  1.00  0.00    -0.480 OA
ATOM     31  H   UNL     1      -4.560   6.161  -3.468  1.00  0.00     0.296 HD
ENDBRANCH  28  30
ENDBRANCH  13  28
ENDBRANCH  11  13
ENDBRANCH   8  11
ENDBRANCH   6   7
BRANCH   6  32
ATOM     32  C   UNL     1      -9.481   1.142  -1.665  1.00  0.00     0.037 C 
BRANCH  32  33
ATOM     33  C   UNL     1      -9.818   0.003  -0.692  1.00  0.00     0.026 C 
BRANCH  33  34
ATOM     34  C   UNL     1     -11.132  -0.695  -1.042  1.00  0.00     0.146 C 
BRANCH  34  35
ATOM     35  N   UNL     1     -11.727  -1.217   0.181  1.00  0.00    -0.254 NA
ATOM     36  C   UNL     1     -11.954  -2.475   0.266  1.00  0.00     0.185 C 
ATOM     37  N   UNL     1     -12.497  -2.967   1.391  1.00  0.00    -0.370 N 
ATOM     38  N   UNL     1     -11.721  -3.438  -0.643  1.00  0.00    -0.370 N 
ATOM     39  H   UNL     1     -12.692  -2.303   2.129  1.00  0.00     0.159 HD
ATOM     40  H   UNL     1     -12.544  -3.949   1.602  1.00  0.00     0.159 HD
ATOM     41  H   UNL     1     -12.073  -4.373  -0.512  1.00  0.00     0.159 HD
ATOM     42  H   UNL     1     -11.330  -3.210  -1.543  1.00  0.00     0.159 HD
ENDBRANCH  34  35
ENDBRANCH  33  34
ENDBRANCH  32  33
ENDBRANCH   6  32
ENDBRANCH   4   6
ENDBRANCH   1   2
BRANCH   1  43
ATOM     43  C   UNL     1      -8.008  -3.674  -4.456  1.00  0.00     0.102 C 
ATOM     44  C   UNL     1      -7.796  -4.712  -5.572  1.00  0.00     0.020 C 
BRANCH  43  45
ATOM     45  C   UNL     1      -8.836  -4.191  -3.276  1.00  0.00     0.225 C 
ATOM     46  O   UNL     1      -9.430  -3.450  -2.498  1.00  0.00    -0.275 OA
ATOM     47  N   UNL     1      -8.799  -5.553  -3.077  1.00  0.00    -0.342 N 
ATOM     48  H   UNL     1      -8.437  -6.154  -3.804  1.00  0.00     0.164 HD
BRANCH  47  49
ATOM     49  C   UNL     1      -9.571  -6.192  -2.008  1.00  0.00     0.192 C 
BRANCH  49  50
ATOM     50  C   UNL     1      -8.836  -7.443  -1.520  1.00  0.00     0.047 C 
BRANCH  50  51
ATOM     51  C   UNL     1      -7.560  -7.101  -0.739  1.00  0.00     0.103 C 
BRANCH  51  52
ATOM     52  C   UNL     1      -7.575  -7.689   0.670  1.00  0.00     0.226 C 
ATOM     53  O   UNL     1      -7.116  -8.816   0.865  1.00  0.00    -0.275 OA
BRANCH  52  54
ATOM     54  N   UNL     1      -8.057  -6.853   1.694  1.00  0.00    -0.311 N 
ATOM     55  C   UNL     1      -7.153  -5.952   2.422  1.00  0.00     0.153 C 
BRANCH  54  56
ATOM     56  C   UNL     1      -9.415  -6.843   2.053  1.00  0.00     0.102 C 
ATOM     57  C   UNL     1     -10.294  -5.890   1.706  1.00  0.00     0.043 C 
BRANCH  56  58
ATOM     58  C   UNL     1     -10.013  -7.977   2.852  1.00  0.00     0.268 C 
ATOM     59  O   UNL     1     -11.023  -8.578   2.509  1.00  0.00    -0.268 OA
ATOM     60  N   UNL     1      -9.273  -8.306   3.962  1.00  0.00    -0.339 N 
ATOM     61  H   UNL     1      -8.454  -7.752   4.183  1.00  0.00     0.164 HD
BRANCH  60  62
ATOM     62  C   UNL     1      -9.638  -9.416   4.842  1.00  0.00     0.168 CG0
ATOM     63  C   UNL     1      -8.999 -10.717   4.374  1.00  0.00     0.041 C 
ATOM     64  G   UNL     1     -11.174  -9.549   4.894  1.00  0.00     0.000 G0
ENDBRANCH  60  62
ENDBRANCH  56  58
ENDBRANCH  54  56
ENDBRANCH  52  54
ENDBRANCH  51  52
ENDBRANCH  50  51
ENDBRANCH  49  50
BRANCH  49  65
ATOM     65  C   UNL     1     -10.980  -6.582  -2.482  1.00  0.00     0.326 C 
ATOM     66  O   UNL     1     -11.239  -7.215  -3.495  1.00  0.00    -0.250 OA
BRANCH  65  67
ATOM     67  O   UNL     1     -11.984  -6.115  -1.708  1.00  0.00    -0.480 OA
ATOM     68  H   UNL     1     -11.519  -5.656  -0.976  1.00  0.00     0.296 HD
ENDBRANCH  65  67
ENDBRANCH  49  65
ENDBRANCH  47  49
ENDBRANCH  43  45
ENDBRANCH   1  43
BRANCH   1  69
ATOM     69  C   UNL     1      -8.129  -1.820  -6.342  1.00  0.00    -0.001 C 
ATOM     70  C   UNL     1      -8.805  -1.931  -7.499  1.00  0.00     0.001 C 
BRANCH  70  71
ATOM     71  C   UNL     1      -8.388  -1.431  -8.811  1.00  0.00    -0.055 C 
ATOM     72  C   UNL     1      -9.119  -0.441  -9.367  1.00  0.00    -0.018 C 
ATOM     73  C   UNL     1      -7.170  -2.051  -9.445  1.00  0.00     0.044 C 
BRANCH  72  74
ATOM     74  C   UNL     1      -8.925   0.268 -10.699  1.00  0.00     0.038 C 
ATOM     75  C   UNL     1      -8.198  -0.710 -11.631  1.00  0.00     0.015 C 
BRANCH  74  76
ATOM     76  C   UNL     1      -8.177   1.610 -10.449  1.00  0.00     0.128 C 
BRANCH  76  77
ATOM     77  O   UNL     1      -8.981   2.712 -10.902  1.00  0.00    -0.381 OA
ATOM     78  C   UNL     1      -8.443   3.985 -10.570  1.00  0.00     0.195 C 
ENDBRANCH  76  77
BRANCH  76  79
ATOM     79  C   UNL     1      -7.678   1.790  -8.993  1.00  0.00     0.068 C 
BRANCH  79  80
ATOM     80  C   UNL     1      -6.233   1.467  -8.696  1.00  0.00    -0.045 A 
ATOM     81  C   UNL     1      -5.847   0.975  -7.442  1.00  0.00     0.004 A 
ATOM     82  C   UNL     1      -5.246   1.681  -9.669  1.00  0.00     0.004 A 
ATOM     83  C   UNL     1      -4.507   0.692  -7.170  1.00  0.00     0.000 A 
ATOM     84  C   UNL     1      -3.906   1.398  -9.396  1.00  0.00     0.000 A 
ATOM     85  C   UNL     1      -3.537   0.902  -8.147  1.00  0.00     0.000 A 
ENDBRANCH  79  80
ENDBRANCH  76  79
ENDBRANCH  74  76
ENDBRANCH  72  74
ENDBRANCH  70  71
ENDBRANCH   1  69
TORSDOF 17
ENDMDL
MODEL 34
REMARK VINA RESULT:    -6.824      3.919      6.181
REMARK INTER + INTRA:         -26.695
REMARK INTER:                 -19.120
REMARK INTRA:                  -7.575
REMARK UNBOUND:                -6.307
REMARK SMILES C=C1C(=O)N[C@H](C)C(=O)N[C@@H](CC(C)C)C(=O)N[C@@H](C(=O)O)[C@H](C)C(=O)N[C@@H](CCCN=C(N)N)C(=O)N[C@@H](/C=C/C(C)=C/[C@H](C)[C@H](Cc2ccccc2)OC)[C@H](C)C(=O)N[C@@H](C(=O)O)CCC(=O)N1C
REMARK SMILES IDX 39 1 38 2 37 3 36 4 28 6 27 7 25 8 26 9 23 11 24 12 19 13
REMARK SMILES IDX 18 14 16 15 17 16 11 18 10 19 8 20 9 21 12 24 13 25 14 26
REMARK SMILES IDX 15 27 20 28 21 29 22 30 29 32 30 33 31 34 32 35 33 36 34 37
REMARK SMILES IDX 35 38 57 43 58 44 59 45 60 46 61 47 62 49 66 50 67 51 68 52
REMARK SMILES IDX 69 53 70 54 71 55 2 56 1 57 3 58 4 59 5 60 6 62 7 63 63 65
REMARK SMILES IDX 64 66 65 67 40 69 41 70 42 71 44 72 43 73 45 74 46 75 47 76
REMARK SMILES IDX 55 77 56 78 48 79 49 80 50 81 54 82 51 83 53 84 52 85
REMARK H PARENT 38 5 27 10 18 17 10 22 22 31 34 39 34 40 35 41 35 42 61 48
REMARK H PARENT 5 61 65 68
REMARK Flexibility Score:  369.900
ROOT
ATOM      1  C   UNL     1      -7.617   3.204  -5.348  1.00  0.00     0.117 C 
ENDROOT
BRANCH   1   2
ATOM      2  N   UNL     1      -8.294   1.920  -5.159  1.00  0.00    -0.347 N 
ATOM      3  O   UNL     1      -6.487   0.722  -4.405  1.00  0.00    -0.273 OA
ATOM      4  C   UNL     1      -7.693   0.803  -4.613  1.00  0.00     0.243 C 
ATOM      5  H   UNL     1      -9.273   1.839  -5.388  1.00  0.00     0.164 HD
BRANCH   4   6
ATOM      6  C   UNL     1      -8.654  -0.401  -4.442  1.00  0.00     0.171 C 
BRANCH   6   7
ATOM      7  N   UNL     1     -10.051   0.028  -4.611  1.00  0.00    -0.344 N 
ATOM      8  C   UNL     1     -10.800   0.428  -3.525  1.00  0.00     0.226 C 
ATOM      9  O   UNL     1     -10.358   0.425  -2.382  1.00  0.00    -0.275 OA
ATOM     10  H   UNL     1     -10.472  -0.020  -5.530  1.00  0.00     0.164 HD
BRANCH   8  11
ATOM     11  C   UNL     1     -12.204   0.893  -3.870  1.00  0.00     0.109 C 
ATOM     12  C   UNL     1     -12.190   1.679  -5.181  1.00  0.00     0.021 C 
BRANCH  11  13
ATOM     13  C   UNL     1     -13.172  -0.306  -3.843  1.00  0.00     0.204 C 
BRANCH  13  14
ATOM     14  N   UNL     1     -14.465   0.042  -3.245  1.00  0.00    -0.340 N 
ATOM     15  C   UNL     1     -15.119  -0.775  -2.349  1.00  0.00     0.243 C 
ATOM     16  O   UNL     1     -14.634  -1.829  -1.939  1.00  0.00    -0.273 OA
ATOM     17  H   UNL     1     -14.988   0.821  -3.653  1.00  0.00     0.164 HD
BRANCH  15  18
ATOM     18  C   UNL     1     -16.555  -0.302  -2.015  1.00  0.00     0.171 C 
BRANCH  18  19
ATOM     19  N   UNL     1     -17.395  -1.499  -1.991  1.00  0.00    -0.343 N 
ATOM     20  C   UNL     1     -18.724  -1.464  -2.366  1.00  0.00     0.242 CG0
ATOM     21  O   UNL     1     -19.296  -0.405  -2.610  1.00  0.00    -0.273 OA
ATOM     22  H   UNL     1     -16.997  -2.379  -1.685  1.00  0.00     0.164 HD
ATOM     23  G   UNL     1     -19.426  -2.838  -2.350  1.00  0.00     0.000 G0
ENDBRANCH  18  19
BRANCH  18  24
ATOM     24  C   UNL     1     -16.585   0.432  -0.669  1.00  0.00     0.038 C 
BRANCH  24  25
ATOM     25  C   UNL     1     -16.650   1.971  -0.776  1.00  0.00    -0.015 C 
ATOM     26  C   UNL     1     -17.209   2.441  -2.119  1.00  0.00     0.007 C 
ATOM     27  C   UNL     1     -15.253   2.561  -0.565  1.00  0.00     0.007 C 
ENDBRANCH  24  25
ENDBRANCH  18  24
ENDBRANCH  15  18
ENDBRANCH  13  14
BRANCH  13  28
ATOM     28  C   UNL     1     -13.455  -0.885  -5.232  1.00  0.00     0.327 C 
ATOM     29  O   UNL     1     -14.463  -0.705  -5.898  1.00  0.00    -0.250 OA
BRANCH  28  30
ATOM     30  O   UNL     1     -12.508  -1.749  -5.649  1.00  0.00    -0.480 OA
ATOM     31  H   UNL     1     -11.756  -1.176  -5.907  1.00  0.00     0.296 HD
ENDBRANCH  28  30
ENDBRANCH  13  28
ENDBRANCH  11  13
ENDBRANCH   8  11
ENDBRANCH   6   7
BRANCH   6  32
ATOM     32  C   UNL     1      -8.288  -1.486  -5.461  1.00  0.00     0.037 C 
BRANCH  32  33
ATOM     33  C   UNL     1      -9.134  -2.755  -5.285  1.00  0.00     0.026 C 
BRANCH  33  34
ATOM     34  C   UNL     1      -9.319  -3.135  -3.815  1.00  0.00     0.146 C 
BRANCH  34  35
ATOM     35  N   UNL     1     -10.729  -3.014  -3.473  1.00  0.00    -0.254 NA
ATOM     36  C   UNL     1     -11.447  -4.074  -3.437  1.00  0.00     0.185 C 
ATOM     37  N   UNL     1     -12.746  -3.974  -3.117  1.00  0.00    -0.370 N 
ATOM     38  N   UNL     1     -11.086  -5.347  -3.681  1.00  0.00    -0.370 N 
ATOM     39  H   UNL     1     -13.093  -3.046  -2.909  1.00  0.00     0.159 HD
ATOM     40  H   UNL     1     -13.328  -4.765  -2.899  1.00  0.00     0.159 HD
ATOM     41  H   UNL     1     -11.774  -6.078  -3.756  1.00  0.00     0.159 HD
ATOM     42  H   UNL     1     -10.140  -5.569  -3.948  1.00  0.00     0.159 HD
ENDBRANCH  34  35
ENDBRANCH  33  34
ENDBRANCH  32  33
ENDBRANCH   6  32
ENDBRANCH   4   6
ENDBRANCH   1   2
BRANCH   1  43
ATOM     43  C   UNL     1      -7.508   3.915  -3.968  1.00  0.00     0.102 C 
ATOM     44  C   UNL     1      -8.809   4.610  -3.533  1.00  0.00     0.020 C 
BRANCH  43  45
ATOM     45  C   UNL     1      -6.272   4.817  -3.911  1.00  0.00     0.225 C 
ATOM     46  O   UNL     1      -6.315   5.991  -3.554  1.00  0.00    -0.275 OA
ATOM     47  N   UNL     1      -5.106   4.256  -4.379  1.00  0.00    -0.342 N 
ATOM     48  H   UNL     1      -5.054   3.257  -4.522  1.00  0.00     0.164 HD
BRANCH  47  49
ATOM     49  C   UNL     1      -3.837   4.990  -4.351  1.00  0.00     0.192 C 
BRANCH  49  50
ATOM     50  C   UNL     1      -2.982   4.583  -5.554  1.00  0.00     0.047 C 
BRANCH  50  51
ATOM     51  C   UNL     1      -3.692   3.564  -6.455  1.00  0.00     0.103 C 
BRANCH  51  52
ATOM     52  C   UNL     1      -3.310   2.126  -6.106  1.00  0.00     0.226 C 
ATOM     53  O   UNL     1      -3.345   1.753  -4.932  1.00  0.00    -0.275 OA
BRANCH  52  54
ATOM     54  N   UNL     1      -3.007   1.278  -7.188  1.00  0.00    -0.311 N 
ATOM     55  C   UNL     1      -4.053   0.843  -8.123  1.00  0.00     0.153 C 
BRANCH  54  56
ATOM     56  C   UNL     1      -1.699   0.822  -7.417  1.00  0.00     0.102 C 
ATOM     57  C   UNL     1      -1.338  -0.469  -7.499  1.00  0.00     0.043 C 
BRANCH  56  58
ATOM     58  C   UNL     1      -0.566   1.797  -7.641  1.00  0.00     0.268 C 
ATOM     59  O   UNL     1       0.373   1.922  -6.866  1.00  0.00    -0.268 OA
ATOM     60  N   UNL     1      -0.667   2.478  -8.831  1.00  0.00    -0.339 N 
ATOM     61  H   UNL     1      -1.482   2.325  -9.412  1.00  0.00     0.164 HD
BRANCH  60  62
ATOM     62  C   UNL     1       0.355   3.425  -9.275  1.00  0.00     0.168 CG0
ATOM     63  C   UNL     1       0.445   3.459 -10.795  1.00  0.00     0.041 C 
ATOM     64  G   UNL     1       1.715   3.046  -8.655  1.00  0.00     0.000 G0
ENDBRANCH  60  62
ENDBRANCH  56  58
ENDBRANCH  54  56
ENDBRANCH  52  54
ENDBRANCH  51  52
ENDBRANCH  50  51
ENDBRANCH  49  50
BRANCH  49  65
ATOM     65  C   UNL     1      -3.055   4.721  -3.056  1.00  0.00     0.326 C 
ATOM     66  O   UNL     1      -3.225   5.297  -1.991  1.00  0.00    -0.250 OA
BRANCH  65  67
ATOM     67  O   UNL     1      -2.072   3.801  -3.172  1.00  0.00    -0.480 OA
ATOM     68  H   UNL     1      -1.980   3.445  -2.262  1.00  0.00     0.296 HD
ENDBRANCH  65  67
ENDBRANCH  49  65
ENDBRANCH  47  49
ENDBRANCH  43  45
ENDBRANCH   1  43
BRANCH   1  69
ATOM     69  C   UNL     1      -8.348   3.905  -6.479  1.00  0.00    -0.001 C 
ATOM     70  C   UNL     1      -9.659   3.837  -6.771  1.00  0.00     0.001 C 
BRANCH  70  71
ATOM     71  C   UNL     1     -10.357   4.536  -7.852  1.00  0.00    -0.055 C 
ATOM     72  C   UNL     1      -9.728   5.578  -8.435  1.00  0.00    -0.018 C 
ATOM     73  C   UNL     1     -11.724   4.037  -8.243  1.00  0.00     0.044 C 
BRANCH  72  74
ATOM     74  C   UNL     1     -10.201   6.477  -9.568  1.00  0.00     0.038 C 
ATOM     75  C   UNL     1      -9.148   6.395 -10.680  1.00  0.00     0.015 C 
BRANCH  74  76
ATOM     76  C   UNL     1     -10.444   7.908  -9.004  1.00  0.00     0.128 C 
BRANCH  76  77
ATOM     77  O   UNL     1      -9.973   8.891  -9.941  1.00  0.00    -0.381 OA
ATOM     78  C   UNL     1     -10.665  10.130  -9.864  1.00  0.00     0.195 C 
ENDBRANCH  76  77
BRANCH  76  79
ATOM     79  C   UNL     1     -11.902   8.165  -8.547  1.00  0.00     0.068 C 
BRANCH  79  80
ATOM     80  C   UNL     1     -12.265   7.831  -7.120  1.00  0.00    -0.045 A 
ATOM     81  C   UNL     1     -11.488   8.294  -6.050  1.00  0.00     0.004 A 
ATOM     82  C   UNL     1     -13.378   7.022  -6.844  1.00  0.00     0.004 A 
ATOM     83  C   UNL     1     -11.823   7.969  -4.734  1.00  0.00     0.000 A 
ATOM     84  C   UNL     1     -13.711   6.697  -5.528  1.00  0.00     0.000 A 
ATOM     85  C   UNL     1     -12.935   7.172  -4.473  1.00  0.00     0.000 A 
ENDBRANCH  79  80
ENDBRANCH  76  79
ENDBRANCH  74  76
ENDBRANCH  72  74
ENDBRANCH  70  71
ENDBRANCH   1  69
TORSDOF 17
ENDMDL
MODEL 35
REMARK VINA RESULT:    -6.767      3.774     12.362
REMARK INTER + INTRA:         -26.525
REMARK INTER:                 -19.337
REMARK INTRA:                  -7.188
REMARK UNBOUND:                -6.307
REMARK SMILES C=C1C(=O)N[C@H](C)C(=O)N[C@@H](CC(C)C)C(=O)N[C@@H](C(=O)O)[C@H](C)C(=O)N[C@@H](CCCN=C(N)N)C(=O)N[C@@H](/C=C/C(C)=C/[C@H](C)[C@H](Cc2ccccc2)OC)[C@H](C)C(=O)N[C@@H](C(=O)O)CCC(=O)N1C
REMARK SMILES IDX 39 1 38 2 37 3 36 4 28 6 27 7 25 8 26 9 23 11 24 12 19 13
REMARK SMILES IDX 18 14 16 15 17 16 11 18 10 19 8 20 9 21 12 24 13 25 14 26
REMARK SMILES IDX 15 27 20 28 21 29 22 30 29 32 30 33 31 34 32 35 33 36 34 37
REMARK SMILES IDX 35 38 57 43 58 44 59 45 60 46 61 47 62 49 66 50 67 51 68 52
REMARK SMILES IDX 69 53 70 54 71 55 2 56 1 57 3 58 4 59 5 60 6 62 7 63 63 65
REMARK SMILES IDX 64 66 65 67 40 69 41 70 42 71 44 72 43 73 45 74 46 75 47 76
REMARK SMILES IDX 55 77 56 78 48 79 49 80 50 81 54 82 51 83 53 84 52 85
REMARK H PARENT 38 5 27 10 18 17 10 22 22 31 34 39 34 40 35 41 35 42 61 48
REMARK H PARENT 5 61 65 68
REMARK Flexibility Score:  369.900
ROOT
ATOM      1  C   UNL     1      -8.236   1.616  -3.955  1.00  0.00     0.117 C 
ENDROOT
BRANCH   1   2
ATOM      2  N   UNL     1      -6.853   1.248  -4.260  1.00  0.00    -0.347 N 
ATOM      3  O   UNL     1      -6.839   1.883  -6.466  1.00  0.00    -0.273 OA
ATOM      4  C   UNL     1      -6.235   1.496  -5.470  1.00  0.00     0.243 C 
ATOM      5  H   UNL     1      -6.282   0.831  -3.540  1.00  0.00     0.164 HD
BRANCH   4   6
ATOM      6  C   UNL     1      -4.741   1.086  -5.503  1.00  0.00     0.171 C 
BRANCH   6   7
ATOM      7  N   UNL     1      -4.199   1.226  -6.865  1.00  0.00    -0.344 N 
ATOM      8  C   UNL     1      -4.021   0.120  -7.667  1.00  0.00     0.226 C 
ATOM      9  O   UNL     1      -4.277  -1.017  -7.290  1.00  0.00    -0.275 OA
ATOM     10  H   UNL     1      -3.913   2.142  -7.187  1.00  0.00     0.164 HD
BRANCH   8  11
ATOM     11  C   UNL     1      -3.506   0.435  -9.061  1.00  0.00     0.109 C 
ATOM     12  C   UNL     1      -4.172   1.704  -9.593  1.00  0.00     0.021 C 
BRANCH  11  13
ATOM     13  C   UNL     1      -1.964   0.467  -9.052  1.00  0.00     0.204 C 
BRANCH  13  14
ATOM     14  N   UNL     1      -1.437   1.767  -9.476  1.00  0.00    -0.340 N 
ATOM     15  C   UNL     1      -0.277   1.902 -10.209  1.00  0.00     0.243 C 
ATOM     16  O   UNL     1       0.365   0.934 -10.611  1.00  0.00    -0.273 OA
ATOM     17  H   UNL     1      -1.834   2.609  -9.050  1.00  0.00     0.164 HD
BRANCH  15  18
ATOM     18  C   UNL     1       0.192   3.370 -10.360  1.00  0.00     0.171 C 
BRANCH  18  19
ATOM     19  N   UNL     1       1.533   3.442  -9.782  1.00  0.00    -0.343 N 
ATOM     20  C   UNL     1       1.745   3.352  -8.419  1.00  0.00     0.242 CG0
ATOM     21  O   UNL     1       0.810   3.342  -7.622  1.00  0.00    -0.273 OA
ATOM     22  H   UNL     1       2.332   3.567 -10.393  1.00  0.00     0.164 HD
ATOM     23  G   UNL     1       3.230   3.369  -8.004  1.00  0.00     0.000 G0
ENDBRANCH  18  19
BRANCH  18  24
ATOM     24  C   UNL     1       0.193   3.789 -11.835  1.00  0.00     0.038 C 
BRANCH  24  25
ATOM     25  C   UNL     1      -0.835   4.883 -12.194  1.00  0.00    -0.015 C 
ATOM     26  C   UNL     1      -0.956   5.952 -11.108  1.00  0.00     0.007 C 
ATOM     27  C   UNL     1      -2.203   4.241 -12.441  1.00  0.00     0.007 C 
ENDBRANCH  24  25
ENDBRANCH  18  24
ENDBRANCH  15  18
ENDBRANCH  13  14
BRANCH  13  28
ATOM     28  C   UNL     1      -1.362   0.159  -7.678  1.00  0.00     0.327 C 
ATOM     29  O   UNL     1      -1.061  -0.946  -7.252  1.00  0.00    -0.250 OA
BRANCH  28  30
ATOM     30  O   UNL     1      -1.285   1.242  -6.879  1.00  0.00    -0.480 OA
ATOM     31  H   UNL     1      -0.842   0.914  -6.069  1.00  0.00     0.296 HD
ENDBRANCH  28  30
ENDBRANCH  13  28
ENDBRANCH  11  13
ENDBRANCH   8  11
ENDBRANCH   6   7
BRANCH   6  32
ATOM     32  C   UNL     1      -3.958   1.953  -4.511  1.00  0.00     0.037 C 
BRANCH  32  33
ATOM     33  C   UNL     1      -4.175   3.453  -4.756  1.00  0.00     0.026 C 
BRANCH  33  34
ATOM     34  C   UNL     1      -2.890   4.264  -4.592  1.00  0.00     0.146 C 
BRANCH  34  35
ATOM     35  N   UNL     1      -1.749   3.383  -4.798  1.00  0.00    -0.254 NA
ATOM     36  C   UNL     1      -0.570   3.850  -4.612  1.00  0.00     0.185 C 
ATOM     37  N   UNL     1       0.488   3.045  -4.794  1.00  0.00    -0.370 N 
ATOM     38  N   UNL     1      -0.201   5.089  -4.241  1.00  0.00    -0.370 N 
ATOM     39  H   UNL     1       0.291   2.090  -5.065  1.00  0.00     0.159 HD
ATOM     40  H   UNL     1       1.422   3.280  -4.504  1.00  0.00     0.159 HD
ATOM     41  H   UNL     1       0.764   5.373  -4.263  1.00  0.00     0.159 HD
ATOM     42  H   UNL     1      -0.894   5.804  -4.084  1.00  0.00     0.159 HD
ENDBRANCH  34  35
ENDBRANCH  33  34
ENDBRANCH  32  33
ENDBRANCH   6  32
ENDBRANCH   4   6
ENDBRANCH   1   2
BRANCH   1  43
ATOM     43  C   UNL     1      -8.255   2.401  -2.612  1.00  0.00     0.102 C 
ATOM     44  C   UNL     1      -7.218   1.897  -1.594  1.00  0.00     0.020 C 
BRANCH  43  45
ATOM     45  C   UNL     1      -9.678   2.499  -2.052  1.00  0.00     0.225 C 
ATOM     46  O   UNL     1     -10.157   1.667  -1.288  1.00  0.00    -0.275 OA
ATOM     47  N   UNL     1     -10.434   3.542  -2.537  1.00  0.00    -0.342 N 
ATOM     48  H   UNL     1      -9.984   4.295  -3.039  1.00  0.00     0.164 HD
BRANCH  47  49
ATOM     49  C   UNL     1     -11.801   3.782  -2.065  1.00  0.00     0.192 C 
BRANCH  49  50
ATOM     50  C   UNL     1     -12.604   4.496  -3.155  1.00  0.00     0.047 C 
BRANCH  50  51
ATOM     51  C   UNL     1     -12.862   3.597  -4.371  1.00  0.00     0.103 C 
BRANCH  51  52
ATOM     52  C   UNL     1     -14.242   2.945  -4.320  1.00  0.00     0.226 C 
ATOM     53  O   UNL     1     -15.241   3.608  -4.606  1.00  0.00    -0.275 OA
BRANCH  52  54
ATOM     54  N   UNL     1     -14.276   1.572  -4.013  1.00  0.00    -0.311 N 
ATOM     55  C   UNL     1     -13.559   0.595  -4.842  1.00  0.00     0.153 C 
BRANCH  54  56
ATOM     56  C   UNL     1     -14.989   1.087  -2.904  1.00  0.00     0.102 C 
ATOM     57  C   UNL     1     -14.749   1.429  -1.627  1.00  0.00     0.043 C 
BRANCH  56  58
ATOM     58  C   UNL     1     -16.152   0.141  -3.083  1.00  0.00     0.268 C 
ATOM     59  O   UNL     1     -16.039  -1.077  -3.034  1.00  0.00    -0.268 OA
ATOM     60  N   UNL     1     -17.355   0.787  -3.241  1.00  0.00    -0.339 N 
ATOM     61  H   UNL     1     -17.363   1.799  -3.281  1.00  0.00     0.164 HD
BRANCH  60  62
ATOM     62  C   UNL     1     -18.618   0.061  -3.368  1.00  0.00     0.168 CG0
ATOM     63  C   UNL     1     -19.511   0.302  -2.157  1.00  0.00     0.041 C 
ATOM     64  G   UNL     1     -18.334  -1.444  -3.547  1.00  0.00     0.000 G0
ENDBRANCH  60  62
ENDBRANCH  56  58
ENDBRANCH  54  56
ENDBRANCH  52  54
ENDBRANCH  51  52
ENDBRANCH  50  51
ENDBRANCH  49  50
BRANCH  49  65
ATOM     65  C   UNL     1     -11.817   4.628  -0.782  1.00  0.00     0.326 C 
ATOM     66  O   UNL     1     -11.864   4.190   0.358  1.00  0.00    -0.250 OA
BRANCH  65  67
ATOM     67  O   UNL     1     -11.834   5.964  -0.989  1.00  0.00    -0.480 OA
ATOM     68  H   UNL     1     -11.041   6.123  -1.544  1.00  0.00     0.296 HD
ENDBRANCH  65  67
ENDBRANCH  49  65
ENDBRANCH  47  49
ENDBRANCH  43  45
ENDBRANCH   1  43
BRANCH   1  69
ATOM     69  C   UNL     1      -9.049   0.339  -4.070  1.00  0.00    -0.001 C 
ATOM     70  C   UNL     1      -9.691  -0.125  -5.157  1.00  0.00     0.001 C 
BRANCH  70  71
ATOM     71  C   UNL     1     -10.456  -1.369  -5.262  1.00  0.00    -0.055 C 
ATOM     72  C   UNL     1     -10.834  -1.972  -4.115  1.00  0.00    -0.018 C 
ATOM     73  C   UNL     1     -10.773  -1.884  -6.642  1.00  0.00     0.044 C 
BRANCH  72  74
ATOM     74  C   UNL     1     -11.628  -3.256  -3.918  1.00  0.00     0.038 C 
ATOM     75  C   UNL     1     -13.045  -2.851  -3.494  1.00  0.00     0.015 C 
BRANCH  74  76
ATOM     76  C   UNL     1     -10.874  -4.160  -2.899  1.00  0.00     0.128 C 
BRANCH  76  77
ATOM     77  O   UNL     1     -11.808  -4.744  -1.976  1.00  0.00    -0.381 OA
ATOM     78  C   UNL     1     -11.667  -6.151  -1.834  1.00  0.00     0.195 C 
ENDBRANCH  76  77
BRANCH  76  79
ATOM     79  C   UNL     1      -9.945  -5.211  -3.558  1.00  0.00     0.068 C 
BRANCH  79  80
ATOM     80  C   UNL     1      -8.903  -4.721  -4.534  1.00  0.00    -0.045 A 
ATOM     81  C   UNL     1      -9.024  -4.976  -5.907  1.00  0.00     0.004 A 
ATOM     82  C   UNL     1      -7.777  -4.022  -4.075  1.00  0.00     0.004 A 
ATOM     83  C   UNL     1      -8.049  -4.532  -6.802  1.00  0.00     0.000 A 
ATOM     84  C   UNL     1      -6.802  -3.579  -4.971  1.00  0.00     0.000 A 
ATOM     85  C   UNL     1      -6.939  -3.832  -6.334  1.00  0.00     0.000 A 
ENDBRANCH  79  80
ENDBRANCH  76  79
ENDBRANCH  74  76
ENDBRANCH  72  74
ENDBRANCH  70  71
ENDBRANCH   1  69
TORSDOF 17
ENDMDL
MODEL 36
REMARK VINA RESULT:    -6.743      3.039      7.368
REMARK INTER + INTRA:         -26.454
REMARK INTER:                 -20.199
REMARK INTRA:                  -6.255
REMARK UNBOUND:                -6.307
REMARK SMILES C=C1C(=O)N[C@H](C)C(=O)N[C@@H](CC(C)C)C(=O)N[C@@H](C(=O)O)[C@H](C)C(=O)N[C@@H](CCCN=C(N)N)C(=O)N[C@@H](/C=C/C(C)=C/[C@H](C)[C@H](Cc2ccccc2)OC)[C@H](C)C(=O)N[C@@H](C(=O)O)CCC(=O)N1C
REMARK SMILES IDX 39 1 38 2 37 3 36 4 28 6 27 7 25 8 26 9 23 11 24 12 19 13
REMARK SMILES IDX 18 14 16 15 17 16 11 18 10 19 8 20 9 21 12 24 13 25 14 26
REMARK SMILES IDX 15 27 20 28 21 29 22 30 29 32 30 33 31 34 32 35 33 36 34 37
REMARK SMILES IDX 35 38 57 43 58 44 59 45 60 46 61 47 62 49 66 50 67 51 68 52
REMARK SMILES IDX 69 53 70 54 71 55 2 56 1 57 3 58 4 59 5 60 6 62 7 63 63 65
REMARK SMILES IDX 64 66 65 67 40 69 41 70 42 71 44 72 43 73 45 74 46 75 47 76
REMARK SMILES IDX 55 77 56 78 48 79 49 80 50 81 54 82 51 83 53 84 52 85
REMARK H PARENT 38 5 27 10 18 17 10 22 22 31 34 39 34 40 35 41 35 42 61 48
REMARK H PARENT 5 61 65 68
REMARK Flexibility Score:  369.900
ROOT
ATOM      1  C   UNL     1      -5.522   1.862  -4.008  1.00  0.00     0.117 C 
ENDROOT
BRANCH   1   2
ATOM      2  N   UNL     1      -6.910   1.903  -3.548  1.00  0.00    -0.347 N 
ATOM      3  O   UNL     1      -6.491   1.921  -1.291  1.00  0.00    -0.273 OA
ATOM      4  C   UNL     1      -7.282   2.022  -2.223  1.00  0.00     0.243 C 
ATOM      5  H   UNL     1      -7.656   1.894  -4.226  1.00  0.00     0.164 HD
BRANCH   4   6
ATOM      6  C   UNL     1      -8.814   2.129  -2.012  1.00  0.00     0.171 C 
BRANCH   6   7
ATOM      7  N   UNL     1      -9.202   1.516  -0.732  1.00  0.00    -0.344 N 
ATOM      8  C   UNL     1      -9.542   0.182  -0.666  1.00  0.00     0.226 C 
ATOM      9  O   UNL     1      -9.562  -0.544  -1.653  1.00  0.00    -0.275 OA
ATOM     10  H   UNL     1      -9.262   2.099   0.093  1.00  0.00     0.164 HD
BRANCH   8  11
ATOM     11  C   UNL     1      -9.865  -0.313   0.733  1.00  0.00     0.109 C 
ATOM     12  C   UNL     1      -9.887   0.860   1.713  1.00  0.00     0.021 C 
BRANCH  11  13
ATOM     13  C   UNL     1     -11.154  -1.157   0.703  1.00  0.00     0.204 C 
BRANCH  13  14
ATOM     14  N   UNL     1     -10.925  -2.530   1.163  1.00  0.00    -0.340 N 
ATOM     15  C   UNL     1     -11.111  -3.631   0.356  1.00  0.00     0.243 C 
ATOM     16  O   UNL     1     -11.424  -3.535  -0.830  1.00  0.00    -0.273 OA
ATOM     17  H   UNL     1     -10.813  -2.687   2.169  1.00  0.00     0.164 HD
BRANCH  15  18
ATOM     18  C   UNL     1     -11.012  -4.978   1.113  1.00  0.00     0.171 C 
BRANCH  18  19
ATOM     19  N   UNL     1     -12.019  -5.862   0.529  1.00  0.00    -0.343 N 
ATOM     20  C   UNL     1     -12.789  -6.704   1.308  1.00  0.00     0.242 CG0
ATOM     21  O   UNL     1     -12.572  -6.847   2.509  1.00  0.00    -0.273 OA
ATOM     22  H   UNL     1     -12.156  -5.865  -0.475  1.00  0.00     0.164 HD
ATOM     23  G   UNL     1     -13.851  -7.502   0.524  1.00  0.00     0.000 G0
ENDBRANCH  18  19
BRANCH  18  24
ATOM     24  C   UNL     1      -9.603  -5.569   0.985  1.00  0.00     0.038 C 
BRANCH  24  25
ATOM     25  C   UNL     1      -8.643  -5.205   2.137  1.00  0.00    -0.015 C 
ATOM     26  C   UNL     1      -7.412  -6.110   2.183  1.00  0.00     0.007 C 
ATOM     27  C   UNL     1      -9.389  -5.282   3.472  1.00  0.00     0.007 C 
ENDBRANCH  24  25
ENDBRANCH  18  24
ENDBRANCH  15  18
ENDBRANCH  13  14
BRANCH  13  28
ATOM     28  C   UNL     1     -12.279  -0.572   1.562  1.00  0.00     0.327 C 
ATOM     29  O   UNL     1     -12.555  -0.893   2.708  1.00  0.00    -0.250 OA
BRANCH  28  30
ATOM     30  O   UNL     1     -13.062   0.296   0.889  1.00  0.00    -0.480 OA
ATOM     31  H   UNL     1     -12.507   0.586   0.136  1.00  0.00     0.296 HD
ENDBRANCH  28  30
ENDBRANCH  13  28
ENDBRANCH  11  13
ENDBRANCH   8  11
ENDBRANCH   6   7
BRANCH   6  32
ATOM     32  C   UNL     1      -9.226   3.604  -2.060  1.00  0.00     0.037 C 
BRANCH  32  33
ATOM     33  C   UNL     1     -10.225   3.891  -3.190  1.00  0.00     0.026 C 
BRANCH  33  34
ATOM     34  C   UNL     1     -10.847   2.614  -3.758  1.00  0.00     0.146 C 
BRANCH  34  35
ATOM     35  N   UNL     1     -12.008   2.259  -2.954  1.00  0.00    -0.254 NA
ATOM     36  C   UNL     1     -12.375   1.032  -2.914  1.00  0.00     0.185 C 
ATOM     37  N   UNL     1     -13.440   0.693  -2.172  1.00  0.00    -0.370 N 
ATOM     38  N   UNL     1     -11.833  -0.033  -3.531  1.00  0.00    -0.370 N 
ATOM     39  H   UNL     1     -13.899   1.440  -1.667  1.00  0.00     0.159 HD
ATOM     40  H   UNL     1     -13.684  -0.258  -1.951  1.00  0.00     0.159 HD
ATOM     41  H   UNL     1     -12.297  -0.926  -3.533  1.00  0.00     0.159 HD
ATOM     42  H   UNL     1     -11.034   0.077  -4.136  1.00  0.00     0.159 HD
ENDBRANCH  34  35
ENDBRANCH  33  34
ENDBRANCH  32  33
ENDBRANCH   6  32
ENDBRANCH   4   6
ENDBRANCH   1   2
BRANCH   1  43
ATOM     43  C   UNL     1      -5.058   3.316  -4.312  1.00  0.00     0.102 C 
ATOM     44  C   UNL     1      -5.925   4.027  -5.365  1.00  0.00     0.020 C 
BRANCH  43  45
ATOM     45  C   UNL     1      -3.556   3.364  -4.609  1.00  0.00     0.225 C 
ATOM     46  O   UNL     1      -2.697   3.223  -3.744  1.00  0.00    -0.275 OA
ATOM     47  N   UNL     1      -3.219   3.672  -5.907  1.00  0.00    -0.342 N 
ATOM     48  H   UNL     1      -3.924   3.635  -6.630  1.00  0.00     0.164 HD
BRANCH  47  49
ATOM     49  C   UNL     1      -1.820   3.718  -6.345  1.00  0.00     0.192 C 
BRANCH  49  50
ATOM     50  C   UNL     1      -1.273   2.294  -6.469  1.00  0.00     0.047 C 
BRANCH  50  51
ATOM     51  C   UNL     1      -2.308   1.322  -7.051  1.00  0.00     0.103 C 
BRANCH  51  52
ATOM     52  C   UNL     1      -1.652   0.187  -7.835  1.00  0.00     0.226 C 
ATOM     53  O   UNL     1      -0.962  -0.645  -7.241  1.00  0.00    -0.275 OA
BRANCH  52  54
ATOM     54  N   UNL     1      -1.948   0.121  -9.209  1.00  0.00    -0.311 N 
ATOM     55  C   UNL     1      -2.005  -1.169  -9.909  1.00  0.00     0.153 C 
BRANCH  54  56
ATOM     56  C   UNL     1      -2.204   1.281  -9.959  1.00  0.00     0.102 C 
ATOM     57  C   UNL     1      -3.351   1.537 -10.610  1.00  0.00     0.043 C 
BRANCH  56  58
ATOM     58  C   UNL     1      -1.179   2.386 -10.052  1.00  0.00     0.268 C 
ATOM     59  O   UNL     1      -1.470   3.574 -10.014  1.00  0.00    -0.268 OA
ATOM     60  N   UNL     1       0.113   1.921 -10.115  1.00  0.00    -0.339 N 
ATOM     61  H   UNL     1       0.269   0.921 -10.153  1.00  0.00     0.164 HD
BRANCH  60  62
ATOM     62  C   UNL     1       1.264   2.822 -10.148  1.00  0.00     0.168 CG0
ATOM     63  C   UNL     1       1.663   3.251  -8.741  1.00  0.00     0.041 C 
ATOM     64  G   UNL     1       0.935   4.051 -11.020  1.00  0.00     0.000 G0
ENDBRANCH  60  62
ENDBRANCH  56  58
ENDBRANCH  54  56
ENDBRANCH  52  54
ENDBRANCH  51  52
ENDBRANCH  50  51
ENDBRANCH  49  50
BRANCH  49  65
ATOM     65  C   UNL     1      -0.946   4.516  -5.365  1.00  0.00     0.326 C 
ATOM     66  O   UNL     1      -1.026   5.718  -5.157  1.00  0.00    -0.250 OA
BRANCH  65  67
ATOM     67  O   UNL     1       0.013   3.791  -4.746  1.00  0.00    -0.480 OA
ATOM     68  H   UNL     1       0.767   4.416  -4.678  1.00  0.00     0.296 HD
ENDBRANCH  65  67
ENDBRANCH  49  65
ENDBRANCH  47  49
ENDBRANCH  43  45
ENDBRANCH   1  43
BRANCH   1  69
ATOM     69  C   UNL     1      -5.473   0.830  -5.119  1.00  0.00    -0.001 C 
ATOM     70  C   UNL     1      -6.396  -0.106  -5.405  1.00  0.00     0.001 C 
BRANCH  70  71
ATOM     71  C   UNL     1      -6.348  -1.084  -6.494  1.00  0.00    -0.055 C 
ATOM     72  C   UNL     1      -7.468  -1.792  -6.752  1.00  0.00    -0.018 C 
ATOM     73  C   UNL     1      -5.056  -1.226  -7.255  1.00  0.00     0.044 C 
BRANCH  72  74
ATOM     74  C   UNL     1      -7.712  -2.859  -7.809  1.00  0.00     0.038 C 
ATOM     75  C   UNL     1      -8.831  -2.345  -8.722  1.00  0.00     0.015 C 
BRANCH  74  76
ATOM     76  C   UNL     1      -8.018  -4.209  -7.097  1.00  0.00     0.128 C 
BRANCH  76  77
ATOM     77  O   UNL     1      -6.853  -4.668  -6.391  1.00  0.00    -0.381 OA
ATOM     78  C   UNL     1      -5.838  -5.185  -7.241  1.00  0.00     0.195 C 
ENDBRANCH  76  77
BRANCH  76  79
ATOM     79  C   UNL     1      -9.285  -4.177  -6.205  1.00  0.00     0.068 C 
BRANCH  79  80
ATOM     80  C   UNL     1      -9.282  -5.004  -4.942  1.00  0.00    -0.045 A 
ATOM     81  C   UNL     1      -8.935  -4.438  -3.709  1.00  0.00     0.004 A 
ATOM     82  C   UNL     1      -9.602  -6.370  -4.991  1.00  0.00     0.004 A 
ATOM     83  C   UNL     1      -8.920  -5.214  -2.548  1.00  0.00     0.000 A 
ATOM     84  C   UNL     1      -9.587  -7.145  -3.829  1.00  0.00     0.000 A 
ATOM     85  C   UNL     1      -9.248  -6.567  -2.608  1.00  0.00     0.000 A 
ENDBRANCH  79  80
ENDBRANCH  76  79
ENDBRANCH  74  76
ENDBRANCH  72  74
ENDBRANCH  70  71
ENDBRANCH   1  69
TORSDOF 17
ENDMDL
MODEL 37
REMARK VINA RESULT:    -6.735      3.213      5.697
REMARK INTER + INTRA:         -26.428
REMARK INTER:                 -19.539
REMARK INTRA:                  -6.889
REMARK UNBOUND:                -6.307
REMARK SMILES C=C1C(=O)N[C@H](C)C(=O)N[C@@H](CC(C)C)C(=O)N[C@@H](C(=O)O)[C@H](C)C(=O)N[C@@H](CCCN=C(N)N)C(=O)N[C@@H](/C=C/C(C)=C/[C@H](C)[C@H](Cc2ccccc2)OC)[C@H](C)C(=O)N[C@@H](C(=O)O)CCC(=O)N1C
REMARK SMILES IDX 39 1 38 2 37 3 36 4 28 6 27 7 25 8 26 9 23 11 24 12 19 13
REMARK SMILES IDX 18 14 16 15 17 16 11 18 10 19 8 20 9 21 12 24 13 25 14 26
REMARK SMILES IDX 15 27 20 28 21 29 22 30 29 32 30 33 31 34 32 35 33 36 34 37
REMARK SMILES IDX 35 38 57 43 58 44 59 45 60 46 61 47 62 49 66 50 67 51 68 52
REMARK SMILES IDX 69 53 70 54 71 55 2 56 1 57 3 58 4 59 5 60 6 62 7 63 63 65
REMARK SMILES IDX 64 66 65 67 40 69 41 70 42 71 44 72 43 73 45 74 46 75 47 76
REMARK SMILES IDX 55 77 56 78 48 79 49 80 50 81 54 82 51 83 53 84 52 85
REMARK H PARENT 38 5 27 10 18 17 10 22 22 31 34 39 34 40 35 41 35 42 61 48
REMARK H PARENT 5 61 65 68
REMARK Flexibility Score:  369.900
ROOT
ATOM      1  C   UNL     1     -12.438  -2.434  -2.699  1.00  0.00     0.117 C 
ENDROOT
BRANCH   1   2
ATOM      2  N   UNL     1     -11.339  -3.394  -2.810  1.00  0.00    -0.347 N 
ATOM      3  O   UNL     1     -12.562  -5.307  -2.470  1.00  0.00    -0.273 OA
ATOM      4  C   UNL     1     -11.505  -4.765  -2.778  1.00  0.00     0.243 C 
ATOM      5  H   UNL     1     -10.402  -3.057  -2.970  1.00  0.00     0.164 HD
BRANCH   4   6
ATOM      6  C   UNL     1     -10.192  -5.557  -3.004  1.00  0.00     0.171 C 
BRANCH   6   7
ATOM      7  N   UNL     1      -9.883  -6.386  -1.828  1.00  0.00    -0.344 N 
ATOM      8  C   UNL     1      -8.587  -6.503  -1.372  1.00  0.00     0.226 C 
ATOM      9  O   UNL     1      -7.641  -5.952  -1.923  1.00  0.00    -0.275 OA
ATOM     10  H   UNL     1     -10.628  -6.910  -1.387  1.00  0.00     0.164 HD
BRANCH   8  11
ATOM     11  C   UNL     1      -8.439  -7.348  -0.119  1.00  0.00     0.109 C 
ATOM     12  C   UNL     1      -6.979  -7.365   0.334  1.00  0.00     0.021 C 
BRANCH  11  13
ATOM     13  C   UNL     1      -9.444  -6.875   0.951  1.00  0.00     0.204 C 
BRANCH  13  14
ATOM     14  N   UNL     1      -9.133  -7.417   2.277  1.00  0.00    -0.340 N 
ATOM     15  C   UNL     1     -10.007  -8.214   2.983  1.00  0.00     0.243 C 
ATOM     16  O   UNL     1     -11.088  -8.578   2.523  1.00  0.00    -0.273 OA
ATOM     17  H   UNL     1      -8.326  -7.033   2.776  1.00  0.00     0.164 HD
BRANCH  15  18
ATOM     18  C   UNL     1      -9.554  -8.493   4.438  1.00  0.00     0.171 C 
BRANCH  18  19
ATOM     19  N   UNL     1      -8.901  -9.801   4.429  1.00  0.00    -0.343 N 
ATOM     20  C   UNL     1      -9.577 -10.955   4.776  1.00  0.00     0.242 CG0
ATOM     21  O   UNL     1     -10.717 -10.920   5.234  1.00  0.00    -0.273 OA
ATOM     22  H   UNL     1      -7.924  -9.868   4.168  1.00  0.00     0.164 HD
ATOM     23  G   UNL     1      -8.747 -12.247   4.630  1.00  0.00     0.000 G0
ENDBRANCH  18  19
BRANCH  18  24
ATOM     24  C   UNL     1      -8.603  -7.394   4.928  1.00  0.00     0.038 C 
BRANCH  24  25
ATOM     25  C   UNL     1      -9.261  -6.330   5.832  1.00  0.00    -0.015 C 
ATOM     26  C   UNL     1      -9.206  -4.929   5.221  1.00  0.00     0.007 C 
ATOM     27  C   UNL     1      -8.575  -6.322   7.201  1.00  0.00     0.007 C 
ENDBRANCH  24  25
ENDBRANCH  18  24
ENDBRANCH  15  18
ENDBRANCH  13  14
BRANCH  13  28
ATOM     28  C   UNL     1      -9.508  -5.351   1.087  1.00  0.00     0.327 C 
ATOM     29  O   UNL     1     -10.333  -4.613   0.570  1.00  0.00    -0.250 OA
BRANCH  28  30
ATOM     30  O   UNL     1      -8.463  -4.836   1.766  1.00  0.00    -0.480 OA
ATOM     31  H   UNL     1      -8.073  -5.606   2.228  1.00  0.00     0.296 HD
ENDBRANCH  28  30
ENDBRANCH  13  28
ENDBRANCH  11  13
ENDBRANCH   8  11
ENDBRANCH   6   7
BRANCH   6  32
ATOM     32  C   UNL     1     -10.337  -6.423  -4.261  1.00  0.00     0.037 C 
BRANCH  32  33
ATOM     33  C   UNL     1      -9.116  -6.311  -5.184  1.00  0.00     0.026 C 
BRANCH  33  34
ATOM     34  C   UNL     1      -8.509  -4.908  -5.185  1.00  0.00     0.146 C 
BRANCH  34  35
ATOM     35  N   UNL     1      -7.527  -4.821  -6.257  1.00  0.00    -0.254 NA
ATOM     36  C   UNL     1      -7.818  -4.140  -7.303  1.00  0.00     0.185 C 
ATOM     37  N   UNL     1      -6.919  -4.049  -8.295  1.00  0.00    -0.370 N 
ATOM     38  N   UNL     1      -8.945  -3.462  -7.583  1.00  0.00    -0.370 N 
ATOM     39  H   UNL     1      -6.037  -4.526  -8.154  1.00  0.00     0.159 HD
ATOM     40  H   UNL     1      -6.999  -3.402  -9.060  1.00  0.00     0.159 HD
ATOM     41  H   UNL     1      -9.109  -3.081  -8.500  1.00  0.00     0.159 HD
ATOM     42  H   UNL     1      -9.715  -3.456  -6.932  1.00  0.00     0.159 HD
ENDBRANCH  34  35
ENDBRANCH  33  34
ENDBRANCH  32  33
ENDBRANCH   6  32
ENDBRANCH   4   6
ENDBRANCH   1   2
BRANCH   1  43
ATOM     43  C   UNL     1     -12.411  -1.505  -3.947  1.00  0.00     0.102 C 
ATOM     44  C   UNL     1     -13.486  -1.852  -4.991  1.00  0.00     0.020 C 
BRANCH  43  45
ATOM     45  C   UNL     1     -10.996  -1.398  -4.523  1.00  0.00     0.225 C 
ATOM     46  O   UNL     1     -10.507  -2.248  -5.262  1.00  0.00    -0.275 OA
ATOM     47  N   UNL     1     -10.258  -0.322  -4.085  1.00  0.00    -0.342 N 
ATOM     48  H   UNL     1     -10.718   0.439  -3.606  1.00  0.00     0.164 HD
BRANCH  47  49
ATOM     49  C   UNL     1      -8.901  -0.073  -4.579  1.00  0.00     0.192 C 
BRANCH  49  50
ATOM     50  C   UNL     1      -8.252   1.046  -3.759  1.00  0.00     0.047 C 
BRANCH  50  51
ATOM     51  C   UNL     1      -6.821   1.351  -4.221  1.00  0.00     0.103 C 
BRANCH  51  52
ATOM     52  C   UNL     1      -6.088   2.271  -3.246  1.00  0.00     0.226 C 
ATOM     53  O   UNL     1      -6.390   2.258  -2.051  1.00  0.00    -0.275 OA
BRANCH  52  54
ATOM     54  N   UNL     1      -5.036   3.039  -3.779  1.00  0.00    -0.311 N 
ATOM     55  C   UNL     1      -3.999   2.422  -4.617  1.00  0.00     0.153 C 
BRANCH  54  56
ATOM     56  C   UNL     1      -4.941   4.419  -3.537  1.00  0.00     0.102 C 
ATOM     57  C   UNL     1      -5.957   5.290  -3.644  1.00  0.00     0.043 C 
BRANCH  56  58
ATOM     58  C   UNL     1      -3.642   5.037  -3.076  1.00  0.00     0.268 C 
ATOM     59  O   UNL     1      -3.212   4.921  -1.936  1.00  0.00    -0.268 OA
ATOM     60  N   UNL     1      -2.964   5.683  -4.082  1.00  0.00    -0.339 N 
ATOM     61  H   UNL     1      -3.393   5.744  -4.998  1.00  0.00     0.164 HD
BRANCH  60  62
ATOM     62  C   UNL     1      -1.655   6.299  -3.870  1.00  0.00     0.168 CG0
ATOM     63  C   UNL     1      -0.586   5.619  -4.717  1.00  0.00     0.041 C 
ATOM     64  G   UNL     1      -1.289   6.230  -2.373  1.00  0.00     0.000 G0
ENDBRANCH  60  62
ENDBRANCH  56  58
ENDBRANCH  54  56
ENDBRANCH  52  54
ENDBRANCH  51  52
ENDBRANCH  50  51
ENDBRANCH  49  50
BRANCH  49  65
ATOM     65  C   UNL     1      -8.902   0.321  -6.065  1.00  0.00     0.326 C 
ATOM     66  O   UNL     1      -9.367   1.353  -6.526  1.00  0.00    -0.250 OA
BRANCH  65  67
ATOM     67  O   UNL     1      -8.383  -0.611  -6.895  1.00  0.00    -0.480 OA
ATOM     68  H   UNL     1      -8.381  -0.165  -7.769  1.00  0.00     0.296 HD
ENDBRANCH  65  67
ENDBRANCH  49  65
ENDBRANCH  47  49
ENDBRANCH  43  45
ENDBRANCH   1  43
BRANCH   1  69
ATOM     69  C   UNL     1     -12.319  -1.812  -1.319  1.00  0.00    -0.001 C 
ATOM     70  C   UNL     1     -13.312  -1.326  -0.554  1.00  0.00     0.001 C 
BRANCH  70  71
ATOM     71  C   UNL     1     -13.188  -0.748   0.785  1.00  0.00    -0.055 C 
ATOM     72  C   UNL     1     -13.752   0.459   1.003  1.00  0.00    -0.018 C 
ATOM     73  C   UNL     1     -12.447  -1.543   1.828  1.00  0.00     0.044 C 
BRANCH  72  74
ATOM     74  C   UNL     1     -13.785   1.292   2.277  1.00  0.00     0.038 C 
ATOM     75  C   UNL     1     -15.088   0.946   3.009  1.00  0.00     0.015 C 
BRANCH  74  76
ATOM     76  C   UNL     1     -13.627   2.794   1.898  1.00  0.00     0.128 C 
BRANCH  76  77
ATOM     77  O   UNL     1     -14.372   3.612   2.816  1.00  0.00    -0.381 OA
ATOM     78  C   UNL     1     -14.985   4.740   2.207  1.00  0.00     0.195 C 
ENDBRANCH  76  77
BRANCH  76  79
ATOM     79  C   UNL     1     -12.155   3.252   1.744  1.00  0.00     0.068 C 
BRANCH  79  80
ATOM     80  C   UNL     1     -11.141   2.232   1.287  1.00  0.00    -0.045 A 
ATOM     81  C   UNL     1     -10.390   1.496   2.213  1.00  0.00     0.004 A 
ATOM     82  C   UNL     1     -10.914   2.024  -0.082  1.00  0.00     0.004 A 
ATOM     83  C   UNL     1      -9.443   0.564   1.782  1.00  0.00     0.000 A 
ATOM     84  C   UNL     1      -9.966   1.093  -0.512  1.00  0.00     0.000 A 
ATOM     85  C   UNL     1      -9.233   0.362   0.420  1.00  0.00     0.000 A 
ENDBRANCH  79  80
ENDBRANCH  76  79
ENDBRANCH  74  76
ENDBRANCH  72  74
ENDBRANCH  70  71
ENDBRANCH   1  69
TORSDOF 17
ENDMDL
MODEL 38
REMARK VINA RESULT:    -6.732      5.902      9.718
REMARK INTER + INTRA:         -26.421
REMARK INTER:                 -18.826
REMARK INTRA:                  -7.595
REMARK UNBOUND:                -6.307
REMARK SMILES C=C1C(=O)N[C@H](C)C(=O)N[C@@H](CC(C)C)C(=O)N[C@@H](C(=O)O)[C@H](C)C(=O)N[C@@H](CCCN=C(N)N)C(=O)N[C@@H](/C=C/C(C)=C/[C@H](C)[C@H](Cc2ccccc2)OC)[C@H](C)C(=O)N[C@@H](C(=O)O)CCC(=O)N1C
REMARK SMILES IDX 39 1 38 2 37 3 36 4 28 6 27 7 25 8 26 9 23 11 24 12 19 13
REMARK SMILES IDX 18 14 16 15 17 16 11 18 10 19 8 20 9 21 12 24 13 25 14 26
REMARK SMILES IDX 15 27 20 28 21 29 22 30 29 32 30 33 31 34 32 35 33 36 34 37
REMARK SMILES IDX 35 38 57 43 58 44 59 45 60 46 61 47 62 49 66 50 67 51 68 52
REMARK SMILES IDX 69 53 70 54 71 55 2 56 1 57 3 58 4 59 5 60 6 62 7 63 63 65
REMARK SMILES IDX 64 66 65 67 40 69 41 70 42 71 44 72 43 73 45 74 46 75 47 76
REMARK SMILES IDX 55 77 56 78 48 79 49 80 50 81 54 82 51 83 53 84 52 85
REMARK H PARENT 38 5 27 10 18 17 10 22 22 31 34 39 34 40 35 41 35 42 61 48
REMARK H PARENT 5 61 65 68
REMARK Flexibility Score:  369.900
ROOT
ATOM      1  C   UNL     1     -12.069   0.520  -3.753  1.00  0.00     0.117 C 
ENDROOT
BRANCH   1   2
ATOM      2  N   UNL     1     -12.480  -0.332  -2.637  1.00  0.00    -0.347 N 
ATOM      3  O   UNL     1     -10.443  -0.479  -1.589  1.00  0.00    -0.273 OA
ATOM      4  C   UNL     1     -11.651  -0.689  -1.591  1.00  0.00     0.243 C 
ATOM      5  H   UNL     1     -13.436  -0.648  -2.582  1.00  0.00     0.164 HD
BRANCH   4   6
ATOM      6  C   UNL     1     -12.358  -1.526  -0.494  1.00  0.00     0.171 C 
BRANCH   6   7
ATOM      7  N   UNL     1     -11.399  -1.917   0.552  1.00  0.00    -0.344 N 
ATOM      8  C   UNL     1     -11.053  -3.239   0.728  1.00  0.00     0.226 C 
ATOM      9  O   UNL     1     -11.531  -4.143   0.054  1.00  0.00    -0.275 OA
ATOM     10  H   UNL     1     -11.034  -1.206   1.173  1.00  0.00     0.164 HD
BRANCH   8  11
ATOM     11  C   UNL     1     -10.012  -3.474   1.810  1.00  0.00     0.109 C 
ATOM     12  C   UNL     1     -10.114  -2.389   2.882  1.00  0.00     0.021 C 
BRANCH  11  13
ATOM     13  C   UNL     1     -10.125  -4.919   2.336  1.00  0.00     0.204 C 
BRANCH  13  14
ATOM     14  N   UNL     1      -8.864  -5.655   2.200  1.00  0.00    -0.340 N 
ATOM     15  C   UNL     1      -8.812  -7.008   1.941  1.00  0.00     0.243 C 
ATOM     16  O   UNL     1      -9.821  -7.682   1.745  1.00  0.00    -0.273 OA
ATOM     17  H   UNL     1      -8.002  -5.191   2.499  1.00  0.00     0.164 HD
BRANCH  15  18
ATOM     18  C   UNL     1      -7.387  -7.603   2.048  1.00  0.00     0.171 C 
BRANCH  18  19
ATOM     19  N   UNL     1      -7.427  -8.596   3.120  1.00  0.00    -0.343 N 
ATOM     20  C   UNL     1      -7.239  -8.247   4.444  1.00  0.00     0.242 CG0
ATOM     21  O   UNL     1      -6.899  -7.112   4.768  1.00  0.00    -0.273 OA
ATOM     22  H   UNL     1      -7.591  -9.570   2.890  1.00  0.00     0.164 HD
ATOM     23  G   UNL     1      -7.396  -9.416   5.438  1.00  0.00     0.000 G0
ENDBRANCH  18  19
BRANCH  18  24
ATOM     24  C   UNL     1      -6.961  -8.232   0.715  1.00  0.00     0.038 C 
BRANCH  24  25
ATOM     25  C   UNL     1      -7.371  -7.428  -0.537  1.00  0.00    -0.015 C 
ATOM     26  C   UNL     1      -7.997  -8.308  -1.619  1.00  0.00     0.007 C 
ATOM     27  C   UNL     1      -6.149  -6.703  -1.106  1.00  0.00     0.007 C 
ENDBRANCH  24  25
ENDBRANCH  18  24
ENDBRANCH  15  18
ENDBRANCH  13  14
BRANCH  13  28
ATOM     28  C   UNL     1     -10.538  -4.994   3.809  1.00  0.00     0.327 C 
ATOM     29  O   UNL     1      -9.795  -4.893   4.774  1.00  0.00    -0.250 OA
BRANCH  28  30
ATOM     30  O   UNL     1     -11.838  -5.309   3.979  1.00  0.00    -0.480 OA
ATOM     31  H   UNL     1     -12.285  -4.443   4.082  1.00  0.00     0.296 HD
ENDBRANCH  28  30
ENDBRANCH  13  28
ENDBRANCH  11  13
ENDBRANCH   8  11
ENDBRANCH   6   7
BRANCH   6  32
ATOM     32  C   UNL     1     -13.511  -0.708   0.099  1.00  0.00     0.037 C 
BRANCH  32  33
ATOM     33  C   UNL     1     -13.272  -0.355   1.574  1.00  0.00     0.026 C 
BRANCH  33  34
ATOM     34  C   UNL     1     -12.728   1.062   1.756  1.00  0.00     0.146 C 
BRANCH  34  35
ATOM     35  N   UNL     1     -11.467   0.991   2.481  1.00  0.00    -0.254 NA
ATOM     36  C   UNL     1     -10.379   1.229   1.848  1.00  0.00     0.185 C 
ATOM     37  N   UNL     1      -9.212   1.171   2.508  1.00  0.00    -0.370 N 
ATOM     38  N   UNL     1     -10.208   1.546   0.552  1.00  0.00    -0.370 N 
ATOM     39  H   UNL     1      -9.258   0.947   3.494  1.00  0.00     0.159 HD
ATOM     40  H   UNL     1      -8.343   1.510   2.131  1.00  0.00     0.159 HD
ATOM     41  H   UNL     1      -9.291   1.572   0.139  1.00  0.00     0.159 HD
ATOM     42  H   UNL     1     -11.000   1.609  -0.069  1.00  0.00     0.159 HD
ENDBRANCH  34  35
ENDBRANCH  33  34
ENDBRANCH  32  33
ENDBRANCH   6  32
ENDBRANCH   4   6
ENDBRANCH   1   2
BRANCH   1  43
ATOM     43  C   UNL     1     -13.198   1.555  -4.029  1.00  0.00     0.102 C 
ATOM     44  C   UNL     1     -12.921   2.454  -5.245  1.00  0.00     0.020 C 
BRANCH  43  45
ATOM     45  C   UNL     1     -13.561   2.325  -2.756  1.00  0.00     0.225 C 
ATOM     46  O   UNL     1     -14.477   1.994  -2.009  1.00  0.00    -0.275 OA
ATOM     47  N   UNL     1     -12.850   3.484  -2.542  1.00  0.00    -0.342 N 
ATOM     48  H   UNL     1     -12.009   3.660  -3.074  1.00  0.00     0.164 HD
BRANCH  47  49
ATOM     49  C   UNL     1     -13.064   4.305  -1.346  1.00  0.00     0.192 C 
BRANCH  49  50
ATOM     50  C   UNL     1     -13.321   5.756  -1.759  1.00  0.00     0.047 C 
BRANCH  50  51
ATOM     51  C   UNL     1     -12.588   6.132  -3.054  1.00  0.00     0.103 C 
BRANCH  51  52
ATOM     52  C   UNL     1     -13.548   6.279  -4.234  1.00  0.00     0.226 C 
ATOM     53  O   UNL     1     -14.631   5.692  -4.215  1.00  0.00    -0.275 OA
BRANCH  52  54
ATOM     54  N   UNL     1     -13.152   7.159  -5.258  1.00  0.00    -0.311 N 
ATOM     55  C   UNL     1     -12.212   8.256  -4.991  1.00  0.00     0.153 C 
BRANCH  54  56
ATOM     56  C   UNL     1     -13.635   7.021  -6.570  1.00  0.00     0.102 C 
ATOM     57  C   UNL     1     -13.190   6.120  -7.461  1.00  0.00     0.043 C 
BRANCH  56  58
ATOM     58  C   UNL     1     -14.767   7.884  -7.074  1.00  0.00     0.268 C 
ATOM     59  O   UNL     1     -14.646   8.671  -8.004  1.00  0.00    -0.268 OA
ATOM     60  N   UNL     1     -15.956   7.648  -6.428  1.00  0.00    -0.339 N 
ATOM     61  H   UNL     1     -15.971   6.987  -5.660  1.00  0.00     0.164 HD
BRANCH  60  62
ATOM     62  C   UNL     1     -17.195   8.330  -6.801  1.00  0.00     0.168 CG0
ATOM     63  C   UNL     1     -18.027   7.474  -7.749  1.00  0.00     0.041 C 
ATOM     64  G   UNL     1     -16.861   9.691  -7.445  1.00  0.00     0.000 G0
ENDBRANCH  60  62
ENDBRANCH  56  58
ENDBRANCH  54  56
ENDBRANCH  52  54
ENDBRANCH  51  52
ENDBRANCH  50  51
ENDBRANCH  49  50
BRANCH  49  65
ATOM     65  C   UNL     1     -11.857   4.251  -0.398  1.00  0.00     0.326 C 
ATOM     66  O   UNL     1     -11.903   4.363   0.819  1.00  0.00    -0.250 OA
BRANCH  65  67
ATOM     67  O   UNL     1     -10.661   4.122  -1.014  1.00  0.00    -0.480 OA
ATOM     68  H   UNL     1     -10.332   5.045  -1.074  1.00  0.00     0.296 HD
ENDBRANCH  65  67
ENDBRANCH  49  65
ENDBRANCH  47  49
ENDBRANCH  43  45
ENDBRANCH   1  43
BRANCH   1  69
ATOM     69  C   UNL     1     -11.645  -0.418  -4.869  1.00  0.00    -0.001 C 
ATOM     70  C   UNL     1     -10.479  -1.078  -4.982  1.00  0.00     0.001 C 
BRANCH  70  71
ATOM     71  C   UNL     1     -10.090  -1.998  -6.053  1.00  0.00    -0.055 C 
ATOM     72  C   UNL     1      -8.853  -1.864  -6.577  1.00  0.00    -0.018 C 
ATOM     73  C   UNL     1     -11.093  -3.034  -6.488  1.00  0.00     0.044 C 
BRANCH  72  74
ATOM     74  C   UNL     1      -8.183  -2.668  -7.682  1.00  0.00     0.038 C 
ATOM     75  C   UNL     1      -9.073  -2.557  -8.926  1.00  0.00     0.015 C 
BRANCH  74  76
ATOM     76  C   UNL     1      -7.950  -4.121  -7.173  1.00  0.00     0.128 C 
BRANCH  76  77
ATOM     77  O   UNL     1      -7.059  -4.815  -8.062  1.00  0.00    -0.381 OA
ATOM     78  C   UNL     1      -5.834  -5.205  -7.454  1.00  0.00     0.195 C 
ENDBRANCH  76  77
BRANCH  76  79
ATOM     79  C   UNL     1      -7.504  -4.205  -5.691  1.00  0.00     0.068 C 
BRANCH  79  80
ATOM     80  C   UNL     1      -8.461  -4.820  -4.699  1.00  0.00    -0.045 A 
ATOM     81  C   UNL     1      -8.596  -4.296  -3.407  1.00  0.00     0.004 A 
ATOM     82  C   UNL     1      -9.214  -5.951  -5.050  1.00  0.00     0.004 A 
ATOM     83  C   UNL     1      -9.473  -4.880  -2.490  1.00  0.00     0.000 A 
ATOM     84  C   UNL     1     -10.090  -6.534  -4.132  1.00  0.00     0.000 A 
ATOM     85  C   UNL     1     -10.221  -5.997  -2.854  1.00  0.00     0.000 A 
ENDBRANCH  79  80
ENDBRANCH  76  79
ENDBRANCH  74  76
ENDBRANCH  72  74
ENDBRANCH  70  71
ENDBRANCH   1  69
TORSDOF 17
ENDMDL
MODEL 39
REMARK VINA RESULT:    -6.713      6.077      8.681
REMARK INTER + INTRA:         -26.362
REMARK INTER:                 -17.927
REMARK INTRA:                  -8.436
REMARK UNBOUND:                -6.307
REMARK SMILES C=C1C(=O)N[C@H](C)C(=O)N[C@@H](CC(C)C)C(=O)N[C@@H](C(=O)O)[C@H](C)C(=O)N[C@@H](CCCN=C(N)N)C(=O)N[C@@H](/C=C/C(C)=C/[C@H](C)[C@H](Cc2ccccc2)OC)[C@H](C)C(=O)N[C@@H](C(=O)O)CCC(=O)N1C
REMARK SMILES IDX 39 1 38 2 37 3 36 4 28 6 27 7 25 8 26 9 23 11 24 12 19 13
REMARK SMILES IDX 18 14 16 15 17 16 11 18 10 19 8 20 9 21 12 24 13 25 14 26
REMARK SMILES IDX 15 27 20 28 21 29 22 30 29 32 30 33 31 34 32 35 33 36 34 37
REMARK SMILES IDX 35 38 57 43 58 44 59 45 60 46 61 47 62 49 66 50 67 51 68 52
REMARK SMILES IDX 69 53 70 54 71 55 2 56 1 57 3 58 4 59 5 60 6 62 7 63 63 65
REMARK SMILES IDX 64 66 65 67 40 69 41 70 42 71 44 72 43 73 45 74 46 75 47 76
REMARK SMILES IDX 55 77 56 78 48 79 49 80 50 81 54 82 51 83 53 84 52 85
REMARK H PARENT 38 5 27 10 18 17 10 22 22 31 34 39 34 40 35 41 35 42 61 48
REMARK H PARENT 5 61 65 68
REMARK Flexibility Score:  369.900
ROOT
ATOM      1  C   UNL     1     -14.515   0.178  -2.406  1.00  0.00     0.117 C 
ENDROOT
BRANCH   1   2
ATOM      2  N   UNL     1     -13.181  -0.369  -2.657  1.00  0.00    -0.347 N 
ATOM      3  O   UNL     1     -13.764  -2.588  -2.742  1.00  0.00    -0.273 OA
ATOM      4  C   UNL     1     -12.926  -1.706  -2.896  1.00  0.00     0.243 C 
ATOM      5  H   UNL     1     -12.392   0.257  -2.711  1.00  0.00     0.164 HD
BRANCH   4   6
ATOM      6  C   UNL     1     -11.440  -2.008  -3.219  1.00  0.00     0.171 C 
BRANCH   6   7
ATOM      7  N   UNL     1     -11.296  -3.376  -3.742  1.00  0.00    -0.344 N 
ATOM      8  C   UNL     1     -10.184  -4.131  -3.436  1.00  0.00     0.226 C 
ATOM      9  O   UNL     1      -9.266  -3.705  -2.746  1.00  0.00    -0.275 OA
ATOM     10  H   UNL     1     -12.002  -3.738  -4.370  1.00  0.00     0.164 HD
BRANCH   8  11
ATOM     11  C   UNL     1     -10.209  -5.539  -4.006  1.00  0.00     0.109 C 
ATOM     12  C   UNL     1      -9.155  -5.680  -5.105  1.00  0.00     0.021 C 
BRANCH  11  13
ATOM     13  C   UNL     1     -10.094  -6.566  -2.862  1.00  0.00     0.204 C 
BRANCH  13  14
ATOM     14  N   UNL     1     -10.397  -5.973  -1.556  1.00  0.00    -0.340 N 
ATOM     15  C   UNL     1      -9.897  -6.474  -0.373  1.00  0.00     0.243 C 
ATOM     16  O   UNL     1      -9.111  -7.419  -0.336  1.00  0.00    -0.273 OA
ATOM     17  H   UNL     1     -11.156  -5.289  -1.503  1.00  0.00     0.164 HD
BRANCH  15  18
ATOM     18  C   UNL     1     -10.516  -5.819   0.886  1.00  0.00     0.171 C 
BRANCH  18  19
ATOM     19  N   UNL     1     -10.092  -6.625   2.029  1.00  0.00    -0.343 N 
ATOM     20  C   UNL     1     -11.002  -7.266   2.847  1.00  0.00     0.242 CG0
ATOM     21  O   UNL     1     -12.212  -7.079   2.733  1.00  0.00    -0.273 OA
ATOM     22  H   UNL     1      -9.103  -6.716   2.234  1.00  0.00     0.164 HD
ATOM     23  G   UNL     1     -10.366  -8.133   3.952  1.00  0.00     0.000 G0
ENDBRANCH  18  19
BRANCH  18  24
ATOM     24  C   UNL     1     -10.052  -4.363   1.023  1.00  0.00     0.038 C 
BRANCH  24  25
ATOM     25  C   UNL     1     -11.112  -3.310   0.637  1.00  0.00    -0.015 C 
ATOM     26  C   UNL     1     -10.499  -1.940   0.351  1.00  0.00     0.007 C 
ATOM     27  C   UNL     1     -12.148  -3.188   1.757  1.00  0.00     0.007 C 
ENDBRANCH  24  25
ENDBRANCH  18  24
ENDBRANCH  15  18
ENDBRANCH  13  14
BRANCH  13  28
ATOM     28  C   UNL     1     -11.022  -7.772  -3.039  1.00  0.00     0.327 C 
ATOM     29  O   UNL     1     -10.712  -8.861  -3.498  1.00  0.00    -0.250 OA
BRANCH  28  30
ATOM     30  O   UNL     1     -12.308  -7.499  -2.741  1.00  0.00    -0.480 OA
ATOM     31  H   UNL     1     -12.607  -8.278  -2.227  1.00  0.00     0.296 HD
ENDBRANCH  28  30
ENDBRANCH  13  28
ENDBRANCH  11  13
ENDBRANCH   8  11
ENDBRANCH   6   7
BRANCH   6  32
ATOM     32  C   UNL     1     -10.925  -0.978  -4.230  1.00  0.00     0.037 C 
BRANCH  32  33
ATOM     33  C   UNL     1     -11.350  -1.313  -5.666  1.00  0.00     0.026 C 
BRANCH  33  34
ATOM     34  C   UNL     1     -11.459  -0.069  -6.549  1.00  0.00     0.146 C 
BRANCH  34  35
ATOM     35  N   UNL     1     -11.500   1.111  -5.696  1.00  0.00    -0.254 NA
ATOM     36  C   UNL     1     -11.173   2.243  -6.197  1.00  0.00     0.185 C 
ATOM     37  N   UNL     1     -11.211   3.338  -5.421  1.00  0.00    -0.370 N 
ATOM     38  N   UNL     1     -10.774   2.529  -7.449  1.00  0.00    -0.370 N 
ATOM     39  H   UNL     1     -11.513   3.205  -4.464  1.00  0.00     0.159 HD
ATOM     40  H   UNL     1     -11.140   4.275  -5.778  1.00  0.00     0.159 HD
ATOM     41  H   UNL     1     -10.410   3.438  -7.685  1.00  0.00     0.159 HD
ATOM     42  H   UNL     1     -10.684   1.799  -8.138  1.00  0.00     0.159 HD
ENDBRANCH  34  35
ENDBRANCH  33  34
ENDBRANCH  32  33
ENDBRANCH   6  32
ENDBRANCH   4   6
ENDBRANCH   1   2
BRANCH   1  43
ATOM     43  C   UNL     1     -14.757   1.362  -3.386  1.00  0.00     0.102 C 
ATOM     44  C   UNL     1     -15.941   2.258  -2.983  1.00  0.00     0.020 C 
BRANCH  43  45
ATOM     45  C   UNL     1     -14.814   0.873  -4.837  1.00  0.00     0.225 C 
ATOM     46  O   UNL     1     -14.818  -0.316  -5.144  1.00  0.00    -0.275 OA
ATOM     47  N   UNL     1     -14.764   1.858  -5.796  1.00  0.00    -0.342 N 
ATOM     48  H   UNL     1     -14.914   2.822  -5.532  1.00  0.00     0.164 HD
BRANCH  47  49
ATOM     49  C   UNL     1     -14.846   1.541  -7.225  1.00  0.00     0.192 C 
BRANCH  49  50
ATOM     50  C   UNL     1     -14.416   2.758  -8.048  1.00  0.00     0.047 C 
BRANCH  50  51
ATOM     51  C   UNL     1     -14.312   4.030  -7.195  1.00  0.00     0.103 C 
BRANCH  51  52
ATOM     52  C   UNL     1     -13.517   5.128  -7.897  1.00  0.00     0.226 C 
ATOM     53  O   UNL     1     -12.291   5.038  -7.978  1.00  0.00    -0.275 OA
BRANCH  52  54
ATOM     54  N   UNL     1     -14.266   6.163  -8.489  1.00  0.00    -0.311 N 
ATOM     55  C   UNL     1     -14.179   7.541  -7.987  1.00  0.00     0.153 C 
BRANCH  54  56
ATOM     56  C   UNL     1     -15.116   5.920  -9.580  1.00  0.00     0.102 C 
ATOM     57  C   UNL     1     -14.731   5.386 -10.751  1.00  0.00     0.043 C 
BRANCH  56  58
ATOM     58  C   UNL     1     -16.595   6.215  -9.491  1.00  0.00     0.268 C 
ATOM     59  O   UNL     1     -17.301   5.825  -8.570  1.00  0.00    -0.268 OA
ATOM     60  N   UNL     1     -17.049   7.017 -10.510  1.00  0.00    -0.339 N 
ATOM     61  H   UNL     1     -16.402   7.289 -11.241  1.00  0.00     0.164 HD
BRANCH  60  62
ATOM     62  C   UNL     1     -18.435   7.476 -10.582  1.00  0.00     0.168 CG0
ATOM     63  C   UNL     1     -18.587   8.859  -9.961  1.00  0.00     0.041 C 
ATOM     64  G   UNL     1     -19.354   6.457  -9.878  1.00  0.00     0.000 G0
ENDBRANCH  60  62
ENDBRANCH  56  58
ENDBRANCH  54  56
ENDBRANCH  52  54
ENDBRANCH  51  52
ENDBRANCH  50  51
ENDBRANCH  49  50
BRANCH  49  65
ATOM     65  C   UNL     1     -16.268   1.127  -7.633  1.00  0.00     0.326 C 
ATOM     66  O   UNL     1     -17.253   1.852  -7.612  1.00  0.00    -0.250 OA
BRANCH  65  67
ATOM     67  O   UNL     1     -16.399  -0.171  -7.985  1.00  0.00    -0.480 OA
ATOM     68  H   UNL     1     -16.482  -0.636  -7.125  1.00  0.00     0.296 HD
ENDBRANCH  65  67
ENDBRANCH  49  65
ENDBRANCH  47  49
ENDBRANCH  43  45
ENDBRANCH   1  43
BRANCH   1  69
ATOM     69  C   UNL     1     -14.595   0.434  -0.912  1.00  0.00    -0.001 C 
ATOM     70  C   UNL     1     -13.610   0.863  -0.104  1.00  0.00     0.001 C 
BRANCH  70  71
ATOM     71  C   UNL     1     -13.705   1.128   1.334  1.00  0.00    -0.055 C 
ATOM     72  C   UNL     1     -14.826   1.726   1.789  1.00  0.00    -0.018 C 
ATOM     73  C   UNL     1     -12.549   0.706   2.203  1.00  0.00     0.044 C 
BRANCH  72  74
ATOM     74  C   UNL     1     -15.199   2.116   3.212  1.00  0.00     0.038 C 
ATOM     75  C   UNL     1     -16.115   1.014   3.758  1.00  0.00     0.015 C 
BRANCH  74  76
ATOM     76  C   UNL     1     -15.829   3.540   3.193  1.00  0.00     0.128 C 
BRANCH  76  77
ATOM     77  O   UNL     1     -16.496   3.798   4.440  1.00  0.00    -0.381 OA
ATOM     78  C   UNL     1     -15.733   4.585   5.343  1.00  0.00     0.195 C 
ENDBRANCH  76  77
BRANCH  76  79
ATOM     79  C   UNL     1     -14.836   4.663   2.800  1.00  0.00     0.068 C 
BRANCH  79  80
ATOM     80  C   UNL     1     -14.536   4.860   1.334  1.00  0.00    -0.045 A 
ATOM     81  C   UNL     1     -13.218   4.838   0.857  1.00  0.00     0.004 A 
ATOM     82  C   UNL     1     -15.577   5.098   0.425  1.00  0.00     0.004 A 
ATOM     83  C   UNL     1     -12.948   5.036  -0.498  1.00  0.00     0.000 A 
ATOM     84  C   UNL     1     -15.306   5.296  -0.931  1.00  0.00     0.000 A 
ATOM     85  C   UNL     1     -13.992   5.263  -1.392  1.00  0.00     0.000 A 
ENDBRANCH  79  80
ENDBRANCH  76  79
ENDBRANCH  74  76
ENDBRANCH  72  74
ENDBRANCH  70  71
ENDBRANCH   1  69
TORSDOF 17
ENDMDL
MODEL 40
REMARK VINA RESULT:    -6.708      3.397      7.501
REMARK INTER + INTRA:         -26.350
REMARK INTER:                 -19.339
REMARK INTRA:                  -7.011
REMARK UNBOUND:                -6.307
REMARK SMILES C=C1C(=O)N[C@H](C)C(=O)N[C@@H](CC(C)C)C(=O)N[C@@H](C(=O)O)[C@H](C)C(=O)N[C@@H](CCCN=C(N)N)C(=O)N[C@@H](/C=C/C(C)=C/[C@H](C)[C@H](Cc2ccccc2)OC)[C@H](C)C(=O)N[C@@H](C(=O)O)CCC(=O)N1C
REMARK SMILES IDX 39 1 38 2 37 3 36 4 28 6 27 7 25 8 26 9 23 11 24 12 19 13
REMARK SMILES IDX 18 14 16 15 17 16 11 18 10 19 8 20 9 21 12 24 13 25 14 26
REMARK SMILES IDX 15 27 20 28 21 29 22 30 29 32 30 33 31 34 32 35 33 36 34 37
REMARK SMILES IDX 35 38 57 43 58 44 59 45 60 46 61 47 62 49 66 50 67 51 68 52
REMARK SMILES IDX 69 53 70 54 71 55 2 56 1 57 3 58 4 59 5 60 6 62 7 63 63 65
REMARK SMILES IDX 64 66 65 67 40 69 41 70 42 71 44 72 43 73 45 74 46 75 47 76
REMARK SMILES IDX 55 77 56 78 48 79 49 80 50 81 54 82 51 83 53 84 52 85
REMARK H PARENT 38 5 27 10 18 17 10 22 22 31 34 39 34 40 35 41 35 42 61 48
REMARK H PARENT 5 61 65 68
REMARK Flexibility Score:  369.900
ROOT
ATOM      1  C   UNL     1      -7.546   1.946  -4.648  1.00  0.00     0.117 C 
ENDROOT
BRANCH   1   2
ATOM      2  N   UNL     1      -8.452   1.476  -3.600  1.00  0.00    -0.347 N 
ATOM      3  O   UNL     1      -7.031   1.740  -1.817  1.00  0.00    -0.273 OA
ATOM      4  C   UNL     1      -8.152   1.497  -2.252  1.00  0.00     0.243 C 
ATOM      5  H   UNL     1      -9.376   1.159  -3.851  1.00  0.00     0.164 HD
BRANCH   4   6
ATOM      6  C   UNL     1      -9.318   1.025  -1.346  1.00  0.00     0.171 C 
BRANCH   6   7
ATOM      7  N   UNL     1     -10.556   1.744  -1.686  1.00  0.00    -0.344 N 
ATOM      8  C   UNL     1     -11.332   2.312  -0.699  1.00  0.00     0.226 C 
ATOM      9  O   UNL     1     -11.050   2.232   0.490  1.00  0.00    -0.275 OA
ATOM     10  H   UNL     1     -10.857   1.773  -2.652  1.00  0.00     0.164 HD
BRANCH   8  11
ATOM     11  C   UNL     1     -12.547   3.064  -1.214  1.00  0.00     0.109 C 
ATOM     12  C   UNL     1     -12.230   3.717  -2.559  1.00  0.00     0.021 C 
BRANCH  11  13
ATOM     13  C   UNL     1     -13.774   2.131  -1.220  1.00  0.00     0.204 C 
BRANCH  13  14
ATOM     14  N   UNL     1     -14.015   1.529   0.095  1.00  0.00    -0.340 N 
ATOM     15  C   UNL     1     -14.080   0.167   0.294  1.00  0.00     0.243 C 
ATOM     16  O   UNL     1     -13.880  -0.643  -0.610  1.00  0.00    -0.273 OA
ATOM     17  H   UNL     1     -14.338   2.139   0.851  1.00  0.00     0.164 HD
BRANCH  15  18
ATOM     18  C   UNL     1     -14.549  -0.229   1.715  1.00  0.00     0.171 C 
BRANCH  18  19
ATOM     19  N   UNL     1     -15.433  -1.383   1.558  1.00  0.00    -0.343 N 
ATOM     20  C   UNL     1     -16.800  -1.239   1.415  1.00  0.00     0.242 CG0
ATOM     21  O   UNL     1     -17.350  -0.148   1.546  1.00  0.00    -0.273 OA
ATOM     22  H   UNL     1     -15.038  -2.316   1.560  1.00  0.00     0.164 HD
ATOM     23  G   UNL     1     -17.558  -2.562   1.182  1.00  0.00     0.000 G0
ENDBRANCH  18  19
BRANCH  18  24
ATOM     24  C   UNL     1     -13.348  -0.560   2.609  1.00  0.00     0.038 C 
BRANCH  24  25
ATOM     25  C   UNL     1     -12.909  -2.039   2.578  1.00  0.00    -0.015 C 
ATOM     26  C   UNL     1     -12.987  -2.702   3.954  1.00  0.00     0.007 C 
ATOM     27  C   UNL     1     -11.481  -2.141   2.037  1.00  0.00     0.007 C 
ENDBRANCH  24  25
ENDBRANCH  18  24
ENDBRANCH  15  18
ENDBRANCH  13  14
BRANCH  13  28
ATOM     28  C   UNL     1     -15.067   2.837  -1.640  1.00  0.00     0.327 C 
ATOM     29  O   UNL     1     -15.683   2.659  -2.679  1.00  0.00    -0.250 OA
BRANCH  28  30
ATOM     30  O   UNL     1     -15.442   3.808  -0.782  1.00  0.00    -0.480 OA
ATOM     31  H   UNL     1     -14.932   4.594  -1.071  1.00  0.00     0.296 HD
ENDBRANCH  28  30
ENDBRANCH  13  28
ENDBRANCH  11  13
ENDBRANCH   8  11
ENDBRANCH   6   7
BRANCH   6  32
ATOM     32  C   UNL     1      -9.501  -0.488  -1.509  1.00  0.00     0.037 C 
BRANCH  32  33
ATOM     33  C   UNL     1     -10.904  -0.851  -2.013  1.00  0.00     0.026 C 
BRANCH  33  34
ATOM     34  C   UNL     1     -11.094  -2.359  -2.179  1.00  0.00     0.146 C 
BRANCH  34  35
ATOM     35  N   UNL     1     -11.075  -2.681  -3.599  1.00  0.00    -0.254 NA
ATOM     36  C   UNL     1     -12.081  -3.293  -4.105  1.00  0.00     0.185 C 
ATOM     37  N   UNL     1     -12.076  -3.590  -5.413  1.00  0.00    -0.370 N 
ATOM     38  N   UNL     1     -13.208  -3.707  -3.500  1.00  0.00    -0.370 N 
ATOM     39  H   UNL     1     -11.263  -3.300  -5.942  1.00  0.00     0.159 HD
ATOM     40  H   UNL     1     -12.888  -3.907  -5.915  1.00  0.00     0.159 HD
ATOM     41  H   UNL     1     -13.867  -4.302  -3.976  1.00  0.00     0.159 HD
ATOM     42  H   UNL     1     -13.342  -3.565  -2.511  1.00  0.00     0.159 HD
ENDBRANCH  34  35
ENDBRANCH  33  34
ENDBRANCH  32  33
ENDBRANCH   6  32
ENDBRANCH   4   6
ENDBRANCH   1   2
BRANCH   1  43
ATOM     43  C   UNL     1      -8.048   3.328  -5.155  1.00  0.00     0.102 C 
ATOM     44  C   UNL     1      -8.071   3.447  -6.688  1.00  0.00     0.020 C 
BRANCH  43  45
ATOM     45  C   UNL     1      -7.309   4.472  -4.454  1.00  0.00     0.225 C 
ATOM     46  O   UNL     1      -7.604   5.654  -4.607  1.00  0.00    -0.275 OA
ATOM     47  N   UNL     1      -6.218   4.101  -3.703  1.00  0.00    -0.342 N 
ATOM     48  H   UNL     1      -6.082   3.128  -3.465  1.00  0.00     0.164 HD
BRANCH  47  49
ATOM     49  C   UNL     1      -5.437   5.084  -2.947  1.00  0.00     0.192 C 
BRANCH  49  50
ATOM     50  C   UNL     1      -3.944   4.786  -3.104  1.00  0.00     0.047 C 
BRANCH  50  51
ATOM     51  C   UNL     1      -3.666   3.785  -4.234  1.00  0.00     0.103 C 
BRANCH  51  52
ATOM     52  C   UNL     1      -2.752   4.373  -5.308  1.00  0.00     0.226 C 
ATOM     53  O   UNL     1      -3.140   5.328  -5.984  1.00  0.00    -0.275 OA
BRANCH  52  54
ATOM     54  N   UNL     1      -1.463   3.817  -5.407  1.00  0.00    -0.311 N 
ATOM     55  C   UNL     1      -0.567   3.775  -4.245  1.00  0.00     0.153 C 
BRANCH  54  56
ATOM     56  C   UNL     1      -0.989   3.277  -6.615  1.00  0.00     0.102 C 
ATOM     57  C   UNL     1      -1.001   1.972  -6.931  1.00  0.00     0.043 C 
BRANCH  56  58
ATOM     58  C   UNL     1      -0.452   4.174  -7.706  1.00  0.00     0.268 C 
ATOM     59  O   UNL     1       0.545   4.871  -7.569  1.00  0.00    -0.268 OA
ATOM     60  N   UNL     1      -1.156   4.075  -8.882  1.00  0.00    -0.339 N 
ATOM     61  H   UNL     1      -1.976   3.482  -8.910  1.00  0.00     0.164 HD
BRANCH  60  62
ATOM     62  C   UNL     1      -0.768   4.809 -10.086  1.00  0.00     0.168 CG0
ATOM     63  C   UNL     1      -1.343   4.153 -11.335  1.00  0.00     0.041 C 
ATOM     64  G   UNL     1       0.770   4.888 -10.170  1.00  0.00     0.000 G0
ENDBRANCH  60  62
ENDBRANCH  56  58
ENDBRANCH  54  56
ENDBRANCH  52  54
ENDBRANCH  51  52
ENDBRANCH  50  51
ENDBRANCH  49  50
BRANCH  49  65
ATOM     65  C   UNL     1      -5.804   5.074  -1.455  1.00  0.00     0.326 C 
ATOM     66  O   UNL     1      -6.316   6.000  -0.843  1.00  0.00    -0.250 OA
BRANCH  65  67
ATOM     67  O   UNL     1      -5.461   3.945  -0.797  1.00  0.00    -0.480 OA
ATOM     68  H   UNL     1      -6.296   3.666  -0.364  1.00  0.00     0.296 HD
ENDBRANCH  65  67
ENDBRANCH  49  65
ENDBRANCH  47  49
ENDBRANCH  43  45
ENDBRANCH   1  43
BRANCH   1  69
ATOM     69  C   UNL     1      -7.417   0.804  -5.640  1.00  0.00    -0.001 C 
ATOM     70  C   UNL     1      -6.330   0.050  -5.882  1.00  0.00     0.001 C 
BRANCH  70  71
ATOM     71  C   UNL     1      -6.224  -1.064  -6.827  1.00  0.00    -0.055 C 
ATOM     72  C   UNL     1      -7.357  -1.723  -7.149  1.00  0.00    -0.018 C 
ATOM     73  C   UNL     1      -4.861  -1.390  -7.378  1.00  0.00     0.044 C 
BRANCH  72  74
ATOM     74  C   UNL     1      -7.550  -2.901  -8.093  1.00  0.00     0.038 C 
ATOM     75  C   UNL     1      -8.745  -2.569  -8.994  1.00  0.00     0.015 C 
BRANCH  74  76
ATOM     76  C   UNL     1      -7.711  -4.199  -7.247  1.00  0.00     0.128 C 
BRANCH  76  77
ATOM     77  O   UNL     1      -6.847  -5.228  -7.757  1.00  0.00    -0.381 OA
ATOM     78  C   UNL     1      -5.524  -5.171  -7.240  1.00  0.00     0.195 C 
ENDBRANCH  76  77
BRANCH  76  79
ATOM     79  C   UNL     1      -7.548  -3.980  -5.722  1.00  0.00     0.068 C 
BRANCH  79  80
ATOM     80  C   UNL     1      -8.370  -4.840  -4.792  1.00  0.00    -0.045 A 
ATOM     81  C   UNL     1      -8.285  -4.687  -3.402  1.00  0.00     0.004 A 
ATOM     82  C   UNL     1      -9.218  -5.831  -5.310  1.00  0.00     0.004 A 
ATOM     83  C   UNL     1      -9.038  -5.495  -2.549  1.00  0.00     0.000 A 
ATOM     84  C   UNL     1      -9.971  -6.640  -4.456  1.00  0.00     0.000 A 
ATOM     85  C   UNL     1      -9.882  -6.471  -3.076  1.00  0.00     0.000 A 
ENDBRANCH  79  80
ENDBRANCH  76  79
ENDBRANCH  74  76
ENDBRANCH  72  74
ENDBRANCH  70  71
ENDBRANCH   1  69
TORSDOF 17
ENDMDL
MODEL 41
REMARK VINA RESULT:    -6.698      3.285      8.180
REMARK INTER + INTRA:         -26.320
REMARK INTER:                 -19.659
REMARK INTRA:                  -6.661
REMARK UNBOUND:                -6.307
REMARK SMILES C=C1C(=O)N[C@H](C)C(=O)N[C@@H](CC(C)C)C(=O)N[C@@H](C(=O)O)[C@H](C)C(=O)N[C@@H](CCCN=C(N)N)C(=O)N[C@@H](/C=C/C(C)=C/[C@H](C)[C@H](Cc2ccccc2)OC)[C@H](C)C(=O)N[C@@H](C(=O)O)CCC(=O)N1C
REMARK SMILES IDX 39 1 38 2 37 3 36 4 28 6 27 7 25 8 26 9 23 11 24 12 19 13
REMARK SMILES IDX 18 14 16 15 17 16 11 18 10 19 8 20 9 21 12 24 13 25 14 26
REMARK SMILES IDX 15 27 20 28 21 29 22 30 29 32 30 33 31 34 32 35 33 36 34 37
REMARK SMILES IDX 35 38 57 43 58 44 59 45 60 46 61 47 62 49 66 50 67 51 68 52
REMARK SMILES IDX 69 53 70 54 71 55 2 56 1 57 3 58 4 59 5 60 6 62 7 63 63 65
REMARK SMILES IDX 64 66 65 67 40 69 41 70 42 71 44 72 43 73 45 74 46 75 47 76
REMARK SMILES IDX 55 77 56 78 48 79 49 80 50 81 54 82 51 83 53 84 52 85
REMARK H PARENT 38 5 27 10 18 17 10 22 22 31 34 39 34 40 35 41 35 42 61 48
REMARK H PARENT 5 61 65 68
REMARK Flexibility Score:  369.900
ROOT
ATOM      1  C   UNL     1      -4.951   3.701  -3.797  1.00  0.00     0.117 C 
ENDROOT
BRANCH   1   2
ATOM      2  N   UNL     1      -5.731   2.564  -4.287  1.00  0.00    -0.347 N 
ATOM      3  O   UNL     1      -6.227   1.625  -2.251  1.00  0.00    -0.273 OA
ATOM      4  C   UNL     1      -6.386   1.665  -3.467  1.00  0.00     0.243 C 
ATOM      5  H   UNL     1      -5.853   2.439  -5.280  1.00  0.00     0.164 HD
BRANCH   4   6
ATOM      6  C   UNL     1      -7.213   0.605  -4.239  1.00  0.00     0.171 C 
BRANCH   6   7
ATOM      7  N   UNL     1      -8.565   0.494  -3.670  1.00  0.00    -0.344 N 
ATOM      8  C   UNL     1      -9.029  -0.711  -3.191  1.00  0.00     0.226 C 
ATOM      9  O   UNL     1      -8.363  -1.739  -3.232  1.00  0.00    -0.275 OA
ATOM     10  H   UNL     1      -9.170   1.306  -3.681  1.00  0.00     0.164 HD
BRANCH   8  11
ATOM     11  C   UNL     1     -10.421  -0.651  -2.587  1.00  0.00     0.109 C 
ATOM     12  C   UNL     1     -11.434  -1.292  -3.535  1.00  0.00     0.021 C 
BRANCH  11  13
ATOM     13  C   UNL     1     -10.399  -1.244  -1.164  1.00  0.00     0.204 C 
BRANCH  13  14
ATOM     14  N   UNL     1      -9.844  -2.601  -1.141  1.00  0.00    -0.340 N 
ATOM     15  C   UNL     1     -10.616  -3.721  -0.921  1.00  0.00     0.243 C 
ATOM     16  O   UNL     1     -11.837  -3.667  -0.789  1.00  0.00    -0.273 OA
ATOM     17  H   UNL     1      -8.827  -2.703  -1.092  1.00  0.00     0.164 HD
BRANCH  15  18
ATOM     18  C   UNL     1      -9.787  -5.016  -0.733  1.00  0.00     0.171 C 
BRANCH  18  19
ATOM     19  N   UNL     1      -9.829  -5.336   0.693  1.00  0.00    -0.343 N 
ATOM     20  C   UNL     1      -8.791  -5.996   1.322  1.00  0.00     0.242 CG0
ATOM     21  O   UNL     1      -7.847  -6.462   0.688  1.00  0.00    -0.273 OA
ATOM     22  H   UNL     1     -10.642  -5.074   1.238  1.00  0.00     0.164 HD
ATOM     23  G   UNL     1      -8.979  -6.176   2.842  1.00  0.00     0.000 G0
ENDBRANCH  18  19
BRANCH  18  24
ATOM     24  C   UNL     1     -10.363  -6.156  -1.582  1.00  0.00     0.038 C 
BRANCH  24  25
ATOM     25  C   UNL     1     -10.196  -5.972  -3.105  1.00  0.00    -0.015 C 
ATOM     26  C   UNL     1     -10.325  -7.289  -3.871  1.00  0.00     0.007 C 
ATOM     27  C   UNL     1      -8.835  -5.335  -3.401  1.00  0.00     0.007 C 
ENDBRANCH  24  25
ENDBRANCH  18  24
ENDBRANCH  15  18
ENDBRANCH  13  14
BRANCH  13  28
ATOM     28  C   UNL     1      -9.588  -0.404  -0.173  1.00  0.00     0.327 C 
ATOM     29  O   UNL     1      -9.727  -0.384   1.041  1.00  0.00    -0.250 OA
BRANCH  28  30
ATOM     30  O   UNL     1      -8.732   0.446  -0.776  1.00  0.00    -0.480 OA
ATOM     31  H   UNL     1      -8.296  -0.099  -1.464  1.00  0.00     0.296 HD
ENDBRANCH  28  30
ENDBRANCH  13  28
ENDBRANCH  11  13
ENDBRANCH   8  11
ENDBRANCH   6   7
BRANCH   6  32
ATOM     32  C   UNL     1      -7.272   0.994  -5.720  1.00  0.00     0.037 C 
BRANCH  32  33
ATOM     33  C   UNL     1      -8.363   0.225  -6.478  1.00  0.00     0.026 C 
BRANCH  33  34
ATOM     34  C   UNL     1      -7.932  -1.195  -6.843  1.00  0.00     0.146 C 
BRANCH  34  35
ATOM     35  N   UNL     1      -9.023  -2.111  -6.538  1.00  0.00    -0.254 NA
ATOM     36  C   UNL     1      -9.710  -2.592  -7.506  1.00  0.00     0.185 C 
ATOM     37  N   UNL     1     -10.715  -3.440  -7.236  1.00  0.00    -0.370 N 
ATOM     38  N   UNL     1      -9.580  -2.372  -8.826  1.00  0.00    -0.370 N 
ATOM     39  H   UNL     1     -10.870  -3.665  -6.261  1.00  0.00     0.159 HD
ATOM     40  H   UNL     1     -11.182  -3.990  -7.936  1.00  0.00     0.159 HD
ATOM     41  H   UNL     1     -10.272  -2.700  -9.479  1.00  0.00     0.159 HD
ATOM     42  H   UNL     1      -8.874  -1.741  -9.173  1.00  0.00     0.159 HD
ENDBRANCH  34  35
ENDBRANCH  33  34
ENDBRANCH  32  33
ENDBRANCH   6  32
ENDBRANCH   4   6
ENDBRANCH   1   2
BRANCH   1  43
ATOM     43  C   UNL     1      -5.860   4.964  -3.801  1.00  0.00     0.102 C 
ATOM     44  C   UNL     1      -6.024   5.603  -2.411  1.00  0.00     0.020 C 
BRANCH  43  45
ATOM     45  C   UNL     1      -7.185   4.686  -4.518  1.00  0.00     0.225 C 
ATOM     46  O   UNL     1      -7.276   4.571  -5.737  1.00  0.00    -0.275 OA
ATOM     47  N   UNL     1      -8.301   4.666  -3.713  1.00  0.00    -0.342 N 
ATOM     48  H   UNL     1      -8.193   4.610  -2.710  1.00  0.00     0.164 HD
BRANCH  47  49
ATOM     49  C   UNL     1      -9.631   4.377  -4.256  1.00  0.00     0.192 C 
BRANCH  49  50
ATOM     50  C   UNL     1     -10.555   5.574  -4.019  1.00  0.00     0.047 C 
BRANCH  50  51
ATOM     51  C   UNL     1     -10.626   6.505  -5.237  1.00  0.00     0.103 C 
BRANCH  51  52
ATOM     52  C   UNL     1     -11.844   6.215  -6.111  1.00  0.00     0.226 C 
ATOM     53  O   UNL     1     -12.273   5.063  -6.196  1.00  0.00    -0.275 OA
BRANCH  52  54
ATOM     54  N   UNL     1     -12.458   7.326  -6.718  1.00  0.00    -0.311 N 
ATOM     55  C   UNL     1     -13.335   8.219  -5.950  1.00  0.00     0.153 C 
BRANCH  54  56
ATOM     56  C   UNL     1     -12.253   7.625  -8.076  1.00  0.00     0.102 C 
ATOM     57  C   UNL     1     -12.966   7.112  -9.092  1.00  0.00     0.043 C 
BRANCH  56  58
ATOM     58  C   UNL     1     -11.199   8.621  -8.499  1.00  0.00     0.268 C 
ATOM     59  O   UNL     1     -10.339   9.048  -7.741  1.00  0.00    -0.268 OA
ATOM     60  N   UNL     1     -11.266   8.944  -9.833  1.00  0.00    -0.339 N 
ATOM     61  H   UNL     1     -12.016   8.554 -10.392  1.00  0.00     0.164 HD
BRANCH  60  62
ATOM     62  C   UNL     1     -10.302   9.842 -10.466  1.00  0.00     0.168 CG0
ATOM     63  C   UNL     1     -10.683  11.300 -10.241  1.00  0.00     0.041 C 
ATOM     64  G   UNL     1     -10.215   9.528 -11.974  1.00  0.00     0.000 G0
ENDBRANCH  60  62
ENDBRANCH  56  58
ENDBRANCH  54  56
ENDBRANCH  52  54
ENDBRANCH  51  52
ENDBRANCH  50  51
ENDBRANCH  49  50
BRANCH  49  65
ATOM     65  C   UNL     1     -10.246   3.124  -3.612  1.00  0.00     0.326 C 
ATOM     66  O   UNL     1     -11.072   2.389  -4.134  1.00  0.00    -0.250 OA
BRANCH  65  67
ATOM     67  O   UNL     1      -9.849   2.890  -2.342  1.00  0.00    -0.480 OA
ATOM     68  H   UNL     1      -9.738   3.789  -1.965  1.00  0.00     0.296 HD
ENDBRANCH  65  67
ENDBRANCH  49  65
ENDBRANCH  47  49
ENDBRANCH  43  45
ENDBRANCH   1  43
BRANCH   1  69
ATOM     69  C   UNL     1      -3.670   3.717  -4.611  1.00  0.00    -0.001 C 
ATOM     70  C   UNL     1      -3.053   4.788  -5.143  1.00  0.00     0.001 C 
BRANCH  70  71
ATOM     71  C   UNL     1      -1.805   4.794  -5.908  1.00  0.00    -0.055 C 
ATOM     72  C   UNL     1      -1.825   4.254  -7.145  1.00  0.00    -0.018 C 
ATOM     73  C   UNL     1      -0.589   5.409  -5.265  1.00  0.00     0.044 C 
BRANCH  72  74
ATOM     74  C   UNL     1      -0.696   4.124  -8.158  1.00  0.00     0.038 C 
ATOM     75  C   UNL     1      -1.009   5.086  -9.310  1.00  0.00     0.015 C 
BRANCH  74  76
ATOM     76  C   UNL     1      -0.564   2.629  -8.572  1.00  0.00     0.128 C 
BRANCH  76  77
ATOM     77  O   UNL     1       0.820   2.295  -8.772  1.00  0.00    -0.381 OA
ATOM     78  C   UNL     1       1.689   3.419  -8.739  1.00  0.00     0.195 C 
ENDBRANCH  76  77
BRANCH  76  79
ATOM     79  C   UNL     1      -1.286   1.645  -7.618  1.00  0.00     0.068 C 
BRANCH  79  80
ATOM     80  C   UNL     1      -2.610   1.072  -8.062  1.00  0.00    -0.045 A 
ATOM     81  C   UNL     1      -3.236   1.522  -9.232  1.00  0.00     0.004 A 
ATOM     82  C   UNL     1      -3.252   0.092  -7.290  1.00  0.00     0.004 A 
ATOM     83  C   UNL     1      -4.467   0.997  -9.629  1.00  0.00     0.000 A 
ATOM     84  C   UNL     1      -4.484  -0.433  -7.687  1.00  0.00     0.000 A 
ATOM     85  C   UNL     1      -5.090   0.019  -8.857  1.00  0.00     0.000 A 
ENDBRANCH  79  80
ENDBRANCH  76  79
ENDBRANCH  74  76
ENDBRANCH  72  74
ENDBRANCH  70  71
ENDBRANCH   1  69
TORSDOF 17
ENDMDL
MODEL 42
REMARK VINA RESULT:    -6.675      3.783      6.835
REMARK INTER + INTRA:         -26.249
REMARK INTER:                 -18.158
REMARK INTRA:                  -8.092
REMARK UNBOUND:                -6.307
REMARK SMILES C=C1C(=O)N[C@H](C)C(=O)N[C@@H](CC(C)C)C(=O)N[C@@H](C(=O)O)[C@H](C)C(=O)N[C@@H](CCCN=C(N)N)C(=O)N[C@@H](/C=C/C(C)=C/[C@H](C)[C@H](Cc2ccccc2)OC)[C@H](C)C(=O)N[C@@H](C(=O)O)CCC(=O)N1C
REMARK SMILES IDX 39 1 38 2 37 3 36 4 28 6 27 7 25 8 26 9 23 11 24 12 19 13
REMARK SMILES IDX 18 14 16 15 17 16 11 18 10 19 8 20 9 21 12 24 13 25 14 26
REMARK SMILES IDX 15 27 20 28 21 29 22 30 29 32 30 33 31 34 32 35 33 36 34 37
REMARK SMILES IDX 35 38 57 43 58 44 59 45 60 46 61 47 62 49 66 50 67 51 68 52
REMARK SMILES IDX 69 53 70 54 71 55 2 56 1 57 3 58 4 59 5 60 6 62 7 63 63 65
REMARK SMILES IDX 64 66 65 67 40 69 41 70 42 71 44 72 43 73 45 74 46 75 47 76
REMARK SMILES IDX 55 77 56 78 48 79 49 80 50 81 54 82 51 83 53 84 52 85
REMARK H PARENT 38 5 27 10 18 17 10 22 22 31 34 39 34 40 35 41 35 42 61 48
REMARK H PARENT 5 61 65 68
REMARK Flexibility Score:  369.900
ROOT
ATOM      1  C   UNL     1      -7.692   2.181  -4.820  1.00  0.00     0.117 C 
ENDROOT
BRANCH   1   2
ATOM      2  N   UNL     1      -8.738   1.664  -3.936  1.00  0.00    -0.347 N 
ATOM      3  O   UNL     1      -7.684   2.065  -1.937  1.00  0.00    -0.273 OA
ATOM      4  C   UNL     1      -8.688   1.732  -2.557  1.00  0.00     0.243 C 
ATOM      5  H   UNL     1      -9.577   1.275  -4.338  1.00  0.00     0.164 HD
BRANCH   4   6
ATOM      6  C   UNL     1      -9.962   1.191  -1.861  1.00  0.00     0.171 C 
BRANCH   6   7
ATOM      7  N   UNL     1     -10.529   0.068  -2.624  1.00  0.00    -0.344 N 
ATOM      8  C   UNL     1     -11.561   0.273  -3.514  1.00  0.00     0.226 C 
ATOM      9  O   UNL     1     -12.067   1.374  -3.696  1.00  0.00    -0.275 OA
ATOM     10  H   UNL     1     -10.183  -0.868  -2.452  1.00  0.00     0.164 HD
BRANCH   8  11
ATOM     11  C   UNL     1     -11.998  -0.974  -4.263  1.00  0.00     0.109 C 
ATOM     12  C   UNL     1     -10.776  -1.796  -4.673  1.00  0.00     0.021 C 
BRANCH  11  13
ATOM     13  C   UNL     1     -13.047  -1.740  -3.434  1.00  0.00     0.204 C 
BRANCH  13  14
ATOM     14  N   UNL     1     -14.026  -0.841  -2.816  1.00  0.00    -0.340 N 
ATOM     15  C   UNL     1     -14.347  -0.891  -1.476  1.00  0.00     0.243 C 
ATOM     16  O   UNL     1     -13.788  -1.654  -0.691  1.00  0.00    -0.273 OA
ATOM     17  H   UNL     1     -14.631  -0.293  -3.433  1.00  0.00     0.164 HD
BRANCH  15  18
ATOM     18  C   UNL     1     -15.550   0.006  -1.095  1.00  0.00     0.171 C 
BRANCH  18  19
ATOM     19  N   UNL     1     -16.098  -0.535   0.148  1.00  0.00    -0.343 N 
ATOM     20  C   UNL     1     -17.136  -1.446   0.150  1.00  0.00     0.242 CG0
ATOM     21  O   UNL     1     -17.734  -1.744  -0.881  1.00  0.00    -0.273 OA
ATOM     22  H   UNL     1     -15.713  -0.231   1.035  1.00  0.00     0.164 HD
ATOM     23  G   UNL     1     -17.526  -1.963   1.550  1.00  0.00     0.000 G0
ENDBRANCH  18  19
BRANCH  18  24
ATOM     24  C   UNL     1     -15.106   1.464  -0.925  1.00  0.00     0.038 C 
BRANCH  24  25
ATOM     25  C   UNL     1     -13.716   1.644  -0.278  1.00  0.00    -0.015 C 
ATOM     26  C   UNL     1     -13.780   1.660   1.250  1.00  0.00     0.007 C 
ATOM     27  C   UNL     1     -13.078   2.941  -0.781  1.00  0.00     0.007 C 
ENDBRANCH  24  25
ENDBRANCH  18  24
ENDBRANCH  15  18
ENDBRANCH  13  14
BRANCH  13  28
ATOM     28  C   UNL     1     -13.830  -2.770  -4.254  1.00  0.00     0.327 C 
ATOM     29  O   UNL     1     -14.015  -2.743  -5.461  1.00  0.00    -0.250 OA
BRANCH  28  30
ATOM     30  O   UNL     1     -14.433  -3.705  -3.492  1.00  0.00    -0.480 OA
ATOM     31  H   UNL     1     -13.983  -4.541  -3.734  1.00  0.00     0.296 HD
ENDBRANCH  28  30
ENDBRANCH  13  28
ENDBRANCH  11  13
ENDBRANCH   8  11
ENDBRANCH   6   7
BRANCH   6  32
ATOM     32  C   UNL     1      -9.610   0.759  -0.433  1.00  0.00     0.037 C 
BRANCH  32  33
ATOM     33  C   UNL     1     -10.616  -0.255   0.131  1.00  0.00     0.026 C 
BRANCH  33  34
ATOM     34  C   UNL     1      -9.967  -1.598   0.465  1.00  0.00     0.146 C 
BRANCH  34  35
ATOM     35  N   UNL     1     -10.898  -2.667   0.126  1.00  0.00    -0.254 NA
ATOM     36  C   UNL     1     -10.632  -3.418  -0.877  1.00  0.00     0.185 C 
ATOM     37  N   UNL     1     -11.480  -4.408  -1.195  1.00  0.00    -0.370 N 
ATOM     38  N   UNL     1      -9.579  -3.371  -1.711  1.00  0.00    -0.370 N 
ATOM     39  H   UNL     1     -12.296  -4.514  -0.605  1.00  0.00     0.159 HD
ATOM     40  H   UNL     1     -11.261  -5.140  -1.849  1.00  0.00     0.159 HD
ATOM     41  H   UNL     1      -9.553  -3.929  -2.549  1.00  0.00     0.159 HD
ATOM     42  H   UNL     1      -8.868  -2.665  -1.601  1.00  0.00     0.159 HD
ENDBRANCH  34  35
ENDBRANCH  33  34
ENDBRANCH  32  33
ENDBRANCH   6  32
ENDBRANCH   4   6
ENDBRANCH   1   2
BRANCH   1  43
ATOM     43  C   UNL     1      -8.138   3.573  -5.354  1.00  0.00     0.102 C 
ATOM     44  C   UNL     1      -8.076   3.689  -6.887  1.00  0.00     0.020 C 
BRANCH  43  45
ATOM     45  C   UNL     1      -7.415   4.703  -4.616  1.00  0.00     0.225 C 
ATOM     46  O   UNL     1      -7.734   5.884  -4.720  1.00  0.00    -0.275 OA
ATOM     47  N   UNL     1      -6.310   4.323  -3.889  1.00  0.00    -0.342 N 
ATOM     48  H   UNL     1      -6.153   3.345  -3.691  1.00  0.00     0.164 HD
BRANCH  47  49
ATOM     49  C   UNL     1      -5.541   5.292  -3.102  1.00  0.00     0.192 C 
BRANCH  49  50
ATOM     50  C   UNL     1      -4.044   5.054  -3.314  1.00  0.00     0.047 C 
BRANCH  50  51
ATOM     51  C   UNL     1      -3.724   4.597  -4.744  1.00  0.00     0.103 C 
BRANCH  51  52
ATOM     52  C   UNL     1      -2.710   3.455  -4.767  1.00  0.00     0.226 C 
ATOM     53  O   UNL     1      -1.649   3.568  -4.150  1.00  0.00    -0.275 OA
BRANCH  52  54
ATOM     54  N   UNL     1      -3.096   2.287  -5.450  1.00  0.00    -0.311 N 
ATOM     55  C   UNL     1      -3.923   1.265  -4.793  1.00  0.00     0.153 C 
BRANCH  54  56
ATOM     56  C   UNL     1      -2.714   2.056  -6.782  1.00  0.00     0.102 C 
ATOM     57  C   UNL     1      -3.555   2.021  -7.828  1.00  0.00     0.043 C 
BRANCH  56  58
ATOM     58  C   UNL     1      -1.260   1.869  -7.149  1.00  0.00     0.268 C 
ATOM     59  O   UNL     1      -0.764   0.775  -7.382  1.00  0.00    -0.268 OA
ATOM     60  N   UNL     1      -0.573   3.054  -7.258  1.00  0.00    -0.339 N 
ATOM     61  H   UNL     1      -1.054   3.918  -7.038  1.00  0.00     0.164 HD
BRANCH  60  62
ATOM     62  C   UNL     1       0.830   3.107  -7.665  1.00  0.00     0.168 CG0
ATOM     63  C   UNL     1       0.963   3.048  -9.182  1.00  0.00     0.041 C 
ATOM     64  G   UNL     1       1.604   1.947  -7.004  1.00  0.00     0.000 G0
ENDBRANCH  60  62
ENDBRANCH  56  58
ENDBRANCH  54  56
ENDBRANCH  52  54
ENDBRANCH  51  52
ENDBRANCH  50  51
ENDBRANCH  49  50
BRANCH  49  65
ATOM     65  C   UNL     1      -5.865   5.190  -1.603  1.00  0.00     0.326 C 
ATOM     66  O   UNL     1      -6.846   5.671  -1.054  1.00  0.00    -0.250 OA
BRANCH  65  67
ATOM     67  O   UNL     1      -4.929   4.554  -0.866  1.00  0.00    -0.480 OA
ATOM     68  H   UNL     1      -4.957   5.020  -0.003  1.00  0.00     0.296 HD
ENDBRANCH  65  67
ENDBRANCH  49  65
ENDBRANCH  47  49
ENDBRANCH  43  45
ENDBRANCH   1  43
BRANCH   1  69
ATOM     69  C   UNL     1      -7.394   1.075  -5.816  1.00  0.00    -0.001 C 
ATOM     70  C   UNL     1      -7.217  -0.233  -5.555  1.00  0.00     0.001 C 
BRANCH  70  71
ATOM     71  C   UNL     1      -6.950  -1.295  -6.527  1.00  0.00    -0.055 C 
ATOM     72  C   UNL     1      -8.002  -2.006  -6.984  1.00  0.00    -0.018 C 
ATOM     73  C   UNL     1      -5.522  -1.513  -6.955  1.00  0.00     0.044 C 
BRANCH  72  74
ATOM     74  C   UNL     1      -8.028  -3.151  -7.987  1.00  0.00     0.038 C 
ATOM     75  C   UNL     1      -7.121  -4.257  -7.435  1.00  0.00     0.015 C 
BRANCH  74  76
ATOM     76  C   UNL     1      -7.613  -2.603  -9.384  1.00  0.00     0.128 C 
BRANCH  76  77
ATOM     77  O   UNL     1      -7.338  -3.695 -10.278  1.00  0.00    -0.381 OA
ATOM     78  C   UNL     1      -7.339  -3.324 -11.650  1.00  0.00     0.195 C 
ENDBRANCH  76  77
BRANCH  76  79
ATOM     79  C   UNL     1      -8.611  -1.578  -9.980  1.00  0.00     0.068 C 
BRANCH  79  80
ATOM     80  C   UNL     1      -8.161  -0.142 -10.102  1.00  0.00    -0.045 A 
ATOM     81  C   UNL     1      -6.816   0.210  -9.931  1.00  0.00     0.004 A 
ATOM     82  C   UNL     1      -9.095   0.872 -10.362  1.00  0.00     0.004 A 
ATOM     83  C   UNL     1      -6.410   1.542 -10.032  1.00  0.00     0.000 A 
ATOM     84  C   UNL     1      -8.688   2.204 -10.462  1.00  0.00     0.000 A 
ATOM     85  C   UNL     1      -7.346   2.539 -10.298  1.00  0.00     0.000 A 
ENDBRANCH  79  80
ENDBRANCH  76  79
ENDBRANCH  74  76
ENDBRANCH  72  74
ENDBRANCH  70  71
ENDBRANCH   1  69
TORSDOF 17
ENDMDL
MODEL 43
REMARK VINA RESULT:    -6.628      3.923     12.035
REMARK INTER + INTRA:         -26.110
REMARK INTER:                 -16.122
REMARK INTRA:                  -9.988
REMARK UNBOUND:                -6.307
REMARK SMILES C=C1C(=O)N[C@H](C)C(=O)N[C@@H](CC(C)C)C(=O)N[C@@H](C(=O)O)[C@H](C)C(=O)N[C@@H](CCCN=C(N)N)C(=O)N[C@@H](/C=C/C(C)=C/[C@H](C)[C@H](Cc2ccccc2)OC)[C@H](C)C(=O)N[C@@H](C(=O)O)CCC(=O)N1C
REMARK SMILES IDX 39 1 38 2 37 3 36 4 28 6 27 7 25 8 26 9 23 11 24 12 19 13
REMARK SMILES IDX 18 14 16 15 17 16 11 18 10 19 8 20 9 21 12 24 13 25 14 26
REMARK SMILES IDX 15 27 20 28 21 29 22 30 29 32 30 33 31 34 32 35 33 36 34 37
REMARK SMILES IDX 35 38 57 43 58 44 59 45 60 46 61 47 62 49 66 50 67 51 68 52
REMARK SMILES IDX 69 53 70 54 71 55 2 56 1 57 3 58 4 59 5 60 6 62 7 63 63 65
REMARK SMILES IDX 64 66 65 67 40 69 41 70 42 71 44 72 43 73 45 74 46 75 47 76
REMARK SMILES IDX 55 77 56 78 48 79 49 80 50 81 54 82 51 83 53 84 52 85
REMARK H PARENT 38 5 27 10 18 17 10 22 22 31 34 39 34 40 35 41 35 42 61 48
REMARK H PARENT 5 61 65 68
REMARK Flexibility Score:  369.900
ROOT
ATOM      1  C   UNL     1      -9.784  -2.225  -5.913  1.00  0.00     0.117 C 
ENDROOT
BRANCH   1   2
ATOM      2  N   UNL     1     -10.638  -1.627  -4.887  1.00  0.00    -0.347 N 
ATOM      3  O   UNL     1     -12.213  -0.712  -6.285  1.00  0.00    -0.273 OA
ATOM      4  C   UNL     1     -11.838  -0.994  -5.152  1.00  0.00     0.243 C 
ATOM      5  H   UNL     1     -10.379  -1.713  -3.916  1.00  0.00     0.164 HD
BRANCH   4   6
ATOM      6  C   UNL     1     -12.589  -0.525  -3.880  1.00  0.00     0.171 C 
BRANCH   6   7
ATOM      7  N   UNL     1     -13.914   0.010  -4.233  1.00  0.00    -0.344 N 
ATOM      8  C   UNL     1     -14.125   1.369  -4.311  1.00  0.00     0.226 C 
ATOM      9  O   UNL     1     -13.246   2.189  -4.074  1.00  0.00    -0.275 OA
ATOM     10  H   UNL     1     -14.682  -0.635  -4.371  1.00  0.00     0.164 HD
BRANCH   8  11
ATOM     11  C   UNL     1     -15.528   1.761  -4.740  1.00  0.00     0.109 C 
ATOM     12  C   UNL     1     -16.169   2.660  -3.683  1.00  0.00     0.021 C 
BRANCH  11  13
ATOM     13  C   UNL     1     -15.492   2.356  -6.162  1.00  0.00     0.204 C 
BRANCH  13  14
ATOM     14  N   UNL     1     -14.446   3.374  -6.307  1.00  0.00    -0.340 N 
ATOM     15  C   UNL     1     -14.717   4.724  -6.350  1.00  0.00     0.243 C 
ATOM     16  O   UNL     1     -15.852   5.175  -6.207  1.00  0.00    -0.273 OA
ATOM     17  H   UNL     1     -13.510   3.064  -6.581  1.00  0.00     0.164 HD
BRANCH  15  18
ATOM     18  C   UNL     1     -13.487   5.590  -6.717  1.00  0.00     0.171 C 
BRANCH  18  19
ATOM     19  N   UNL     1     -13.890   6.985  -6.543  1.00  0.00    -0.343 N 
ATOM     20  C   UNL     1     -13.994   7.852  -7.614  1.00  0.00     0.242 CG0
ATOM     21  O   UNL     1     -13.626   7.530  -8.741  1.00  0.00    -0.273 OA
ATOM     22  H   UNL     1     -14.094   7.331  -5.613  1.00  0.00     0.164 HD
ATOM     23  G   UNL     1     -14.509   9.259  -7.246  1.00  0.00     0.000 G0
ENDBRANCH  18  19
BRANCH  18  24
ATOM     24  C   UNL     1     -12.290   5.236  -5.826  1.00  0.00     0.038 C 
BRANCH  24  25
ATOM     25  C   UNL     1     -11.160   6.287  -5.818  1.00  0.00    -0.015 C 
ATOM     26  C   UNL     1     -10.337   6.272  -7.106  1.00  0.00     0.007 C 
ATOM     27  C   UNL     1     -10.242   6.046  -4.617  1.00  0.00     0.007 C 
ENDBRANCH  24  25
ENDBRANCH  18  24
ENDBRANCH  15  18
ENDBRANCH  13  14
BRANCH  13  28
ATOM     28  C   UNL     1     -15.257   1.305  -7.251  1.00  0.00     0.327 C 
ATOM     29  O   UNL     1     -15.212   1.508  -8.454  1.00  0.00    -0.250 OA
BRANCH  28  30
ATOM     30  O   UNL     1     -15.212   0.046  -6.769  1.00  0.00    -0.480 OA
ATOM     31  H   UNL     1     -16.151  -0.184  -6.608  1.00  0.00     0.296 HD
ENDBRANCH  28  30
ENDBRANCH  13  28
ENDBRANCH  11  13
ENDBRANCH   8  11
ENDBRANCH   6   7
BRANCH   6  32
ATOM     32  C   UNL     1     -12.716  -1.703  -2.907  1.00  0.00     0.037 C 
BRANCH  32  33
ATOM     33  C   UNL     1     -11.988  -1.439  -1.581  1.00  0.00     0.026 C 
BRANCH  33  34
ATOM     34  C   UNL     1     -12.065   0.027  -1.153  1.00  0.00     0.146 C 
BRANCH  34  35
ATOM     35  N   UNL     1     -10.711   0.548  -1.019  1.00  0.00    -0.254 NA
ATOM     36  C   UNL     1     -10.483   1.760  -1.365  1.00  0.00     0.185 C 
ATOM     37  N   UNL     1      -9.240   2.252  -1.241  1.00  0.00    -0.370 N 
ATOM     38  N   UNL     1     -11.337   2.672  -1.861  1.00  0.00    -0.370 N 
ATOM     39  H   UNL     1      -8.540   1.627  -0.863  1.00  0.00     0.159 HD
ATOM     40  H   UNL     1      -9.019   3.229  -1.324  1.00  0.00     0.159 HD
ATOM     41  H   UNL     1     -11.007   3.551  -2.226  1.00  0.00     0.159 HD
ATOM     42  H   UNL     1     -12.304   2.435  -2.023  1.00  0.00     0.159 HD
ENDBRANCH  34  35
ENDBRANCH  33  34
ENDBRANCH  32  33
ENDBRANCH   6  32
ENDBRANCH   4   6
ENDBRANCH   1   2
BRANCH   1  43
ATOM     43  C   UNL     1      -9.253  -3.588  -5.382  1.00  0.00     0.102 C 
ATOM     44  C   UNL     1      -8.670  -4.489  -6.484  1.00  0.00     0.020 C 
BRANCH  43  45
ATOM     45  C   UNL     1     -10.299  -4.280  -4.502  1.00  0.00     0.225 C 
ATOM     46  O   UNL     1     -11.462  -4.454  -4.853  1.00  0.00    -0.275 OA
ATOM     47  N   UNL     1      -9.877  -4.620  -3.237  1.00  0.00    -0.342 N 
ATOM     48  H   UNL     1      -8.890  -4.611  -3.019  1.00  0.00     0.164 HD
BRANCH  47  49
ATOM     49  C   UNL     1     -10.758  -5.320  -2.298  1.00  0.00     0.192 C 
BRANCH  49  50
ATOM     50  C   UNL     1     -10.351  -4.982  -0.861  1.00  0.00     0.047 C 
BRANCH  50  51
ATOM     51  C   UNL     1     -11.461  -5.303   0.149  1.00  0.00     0.103 C 
BRANCH  51  52
ATOM     52  C   UNL     1     -11.042  -6.392   1.135  1.00  0.00     0.226 C 
ATOM     53  O   UNL     1     -11.747  -7.393   1.275  1.00  0.00    -0.275 OA
BRANCH  52  54
ATOM     54  N   UNL     1      -9.806  -6.209   1.782  1.00  0.00    -0.311 N 
ATOM     55  C   UNL     1      -9.556  -5.027   2.617  1.00  0.00     0.153 C 
BRANCH  54  56
ATOM     56  C   UNL     1      -8.769  -7.149   1.658  1.00  0.00     0.102 C 
ATOM     57  C   UNL     1      -7.930  -7.235   0.613  1.00  0.00     0.043 C 
BRANCH  56  58
ATOM     58  C   UNL     1      -8.488  -8.142   2.762  1.00  0.00     0.268 C 
ATOM     59  O   UNL     1      -7.366  -8.356   3.200  1.00  0.00    -0.268 OA
ATOM     60  N   UNL     1      -9.625  -8.727   3.265  1.00  0.00    -0.339 N 
ATOM     61  H   UNL     1     -10.517  -8.504   2.840  1.00  0.00     0.164 HD
BRANCH  60  62
ATOM     62  C   UNL     1      -9.587  -9.672   4.381  1.00  0.00     0.168 CG0
ATOM     63  C   UNL     1      -9.893  -8.973   5.700  1.00  0.00     0.041 C 
ATOM     64  G   UNL     1      -8.205 -10.355   4.433  1.00  0.00     0.000 G0
ENDBRANCH  60  62
ENDBRANCH  56  58
ENDBRANCH  54  56
ENDBRANCH  52  54
ENDBRANCH  51  52
ENDBRANCH  50  51
ENDBRANCH  49  50
BRANCH  49  65
ATOM     65  C   UNL     1     -10.704  -6.843  -2.497  1.00  0.00     0.326 C 
ATOM     66  O   UNL     1      -9.688  -7.523  -2.499  1.00  0.00    -0.250 OA
BRANCH  65  67
ATOM     67  O   UNL     1     -11.899  -7.423  -2.741  1.00  0.00    -0.480 OA
ATOM     68  H   UNL     1     -12.478  -6.668  -2.981  1.00  0.00     0.296 HD
ENDBRANCH  65  67
ENDBRANCH  49  65
ENDBRANCH  47  49
ENDBRANCH  43  45
ENDBRANCH   1  43
BRANCH   1  69
ATOM     69  C   UNL     1      -8.785  -1.154  -6.311  1.00  0.00    -0.001 C 
ATOM     70  C   UNL     1      -7.505  -1.043  -5.914  1.00  0.00     0.001 C 
BRANCH  70  71
ATOM     71  C   UNL     1      -6.543  -0.017  -6.322  1.00  0.00    -0.055 C 
ATOM     72  C   UNL     1      -5.972   0.728  -5.353  1.00  0.00    -0.018 C 
ATOM     73  C   UNL     1      -6.255   0.130  -7.793  1.00  0.00     0.044 C 
BRANCH  72  74
ATOM     74  C   UNL     1      -4.950   1.849  -5.476  1.00  0.00     0.038 C 
ATOM     75  C   UNL     1      -3.587   1.265  -5.086  1.00  0.00     0.015 C 
BRANCH  74  76
ATOM     76  C   UNL     1      -5.418   3.052  -4.604  1.00  0.00     0.128 C 
BRANCH  76  77
ATOM     77  O   UNL     1      -4.277   3.765  -4.098  1.00  0.00    -0.381 OA
ATOM     78  C   UNL     1      -3.946   4.923  -4.854  1.00  0.00     0.195 C 
ENDBRANCH  76  77
BRANCH  76  79
ATOM     79  C   UNL     1      -6.441   3.979  -5.308  1.00  0.00     0.068 C 
BRANCH  79  80
ATOM     80  C   UNL     1      -7.762   3.382  -5.730  1.00  0.00    -0.045 A 
ATOM     81  C   UNL     1      -8.659   2.870  -4.783  1.00  0.00     0.004 A 
ATOM     82  C   UNL     1      -8.101   3.306  -7.089  1.00  0.00     0.004 A 
ATOM     83  C   UNL     1      -9.872   2.307  -5.183  1.00  0.00     0.000 A 
ATOM     84  C   UNL     1      -9.315   2.742  -7.488  1.00  0.00     0.000 A 
ATOM     85  C   UNL     1     -10.200   2.244  -6.535  1.00  0.00     0.000 A 
ENDBRANCH  79  80
ENDBRANCH  76  79
ENDBRANCH  74  76
ENDBRANCH  72  74
ENDBRANCH  70  71
ENDBRANCH   1  69
TORSDOF 17
ENDMDL
MODEL 44
REMARK VINA RESULT:    -6.614      4.058     11.697
REMARK INTER + INTRA:         -26.067
REMARK INTER:                 -18.184
REMARK INTRA:                  -7.883
REMARK UNBOUND:                -6.307
REMARK SMILES C=C1C(=O)N[C@H](C)C(=O)N[C@@H](CC(C)C)C(=O)N[C@@H](C(=O)O)[C@H](C)C(=O)N[C@@H](CCCN=C(N)N)C(=O)N[C@@H](/C=C/C(C)=C/[C@H](C)[C@H](Cc2ccccc2)OC)[C@H](C)C(=O)N[C@@H](C(=O)O)CCC(=O)N1C
REMARK SMILES IDX 39 1 38 2 37 3 36 4 28 6 27 7 25 8 26 9 23 11 24 12 19 13
REMARK SMILES IDX 18 14 16 15 17 16 11 18 10 19 8 20 9 21 12 24 13 25 14 26
REMARK SMILES IDX 15 27 20 28 21 29 22 30 29 32 30 33 31 34 32 35 33 36 34 37
REMARK SMILES IDX 35 38 57 43 58 44 59 45 60 46 61 47 62 49 66 50 67 51 68 52
REMARK SMILES IDX 69 53 70 54 71 55 2 56 1 57 3 58 4 59 5 60 6 62 7 63 63 65
REMARK SMILES IDX 64 66 65 67 40 69 41 70 42 71 44 72 43 73 45 74 46 75 47 76
REMARK SMILES IDX 55 77 56 78 48 79 49 80 50 81 54 82 51 83 53 84 52 85
REMARK H PARENT 38 5 27 10 18 17 10 22 22 31 34 39 34 40 35 41 35 42 61 48
REMARK H PARENT 5 61 65 68
REMARK Flexibility Score:  369.900
ROOT
ATOM      1  C   UNL     1      -9.293   1.224  -6.891  1.00  0.00     0.117 C 
ENDROOT
BRANCH   1   2
ATOM      2  N   UNL     1      -7.882   0.836  -6.859  1.00  0.00    -0.347 N 
ATOM      3  O   UNL     1      -7.571   0.599  -9.121  1.00  0.00    -0.273 OA
ATOM      4  C   UNL     1      -7.107   0.643  -7.987  1.00  0.00     0.243 C 
ATOM      5  H   UNL     1      -7.414   0.747  -5.970  1.00  0.00     0.164 HD
BRANCH   4   6
ATOM      6  C   UNL     1      -5.623   0.323  -7.676  1.00  0.00     0.171 C 
BRANCH   6   7
ATOM      7  N   UNL     1      -4.880   0.069  -8.920  1.00  0.00    -0.344 N 
ATOM      8  C   UNL     1      -3.913  -0.911  -8.974  1.00  0.00     0.226 C 
ATOM      9  O   UNL     1      -3.611  -1.594  -8.003  1.00  0.00    -0.275 OA
ATOM     10  H   UNL     1      -5.055   0.659  -9.725  1.00  0.00     0.164 HD
BRANCH   8  11
ATOM     11  C   UNL     1      -3.276  -1.087 -10.342  1.00  0.00     0.109 C 
ATOM     12  C   UNL     1      -4.040  -0.274 -11.386  1.00  0.00     0.021 C 
BRANCH  11  13
ATOM     13  C   UNL     1      -1.767  -0.779 -10.257  1.00  0.00     0.204 C 
BRANCH  13  14
ATOM     14  N   UNL     1      -1.477   0.304  -9.313  1.00  0.00    -0.340 N 
ATOM     15  C   UNL     1      -1.177   1.588  -9.715  1.00  0.00     0.243 C 
ATOM     16  O   UNL     1      -1.192   1.930 -10.896  1.00  0.00    -0.273 OA
ATOM     17  H   UNL     1      -1.300   0.055  -8.336  1.00  0.00     0.164 HD
BRANCH  15  18
ATOM     18  C   UNL     1      -0.704   2.504  -8.560  1.00  0.00     0.171 C 
BRANCH  18  19
ATOM     19  N   UNL     1       0.239   3.457  -9.141  1.00  0.00    -0.343 N 
ATOM     20  C   UNL     1       1.588   3.420  -8.846  1.00  0.00     0.242 CG0
ATOM     21  O   UNL     1       2.037   2.672  -7.981  1.00  0.00    -0.273 OA
ATOM     22  H   UNL     1      -0.103   4.171  -9.774  1.00  0.00     0.164 HD
ATOM     23  G   UNL     1       2.436   4.454  -9.614  1.00  0.00     0.000 G0
ENDBRANCH  18  19
BRANCH  18  24
ATOM     24  C   UNL     1      -1.897   3.217  -7.911  1.00  0.00     0.038 C 
BRANCH  24  25
ATOM     25  C   UNL     1      -1.517   4.340  -6.923  1.00  0.00    -0.015 C 
ATOM     26  C   UNL     1      -0.775   3.812  -5.695  1.00  0.00     0.007 C 
ATOM     27  C   UNL     1      -2.778   5.087  -6.482  1.00  0.00     0.007 C 
ENDBRANCH  24  25
ENDBRANCH  18  24
ENDBRANCH  15  18
ENDBRANCH  13  14
BRANCH  13  28
ATOM     28  C   UNL     1      -0.928  -1.988  -9.834  1.00  0.00     0.327 C 
ATOM     29  O   UNL     1      -0.650  -2.954 -10.528  1.00  0.00    -0.250 OA
BRANCH  28  30
ATOM     30  O   UNL     1      -0.588  -1.965  -8.529  1.00  0.00    -0.480 OA
ATOM     31  H   UNL     1      -0.616  -1.015  -8.289  1.00  0.00     0.296 HD
ENDBRANCH  28  30
ENDBRANCH  13  28
ENDBRANCH  11  13
ENDBRANCH   8  11
ENDBRANCH   6   7
BRANCH   6  32
ATOM     32  C   UNL     1      -5.008   1.492  -6.899  1.00  0.00     0.037 C 
BRANCH  32  33
ATOM     33  C   UNL     1      -4.571   1.083  -5.486  1.00  0.00     0.026 C 
BRANCH  33  34
ATOM     34  C   UNL     1      -3.970   2.248  -4.698  1.00  0.00     0.146 C 
BRANCH  34  35
ATOM     35  N   UNL     1      -5.046   3.135  -4.278  1.00  0.00    -0.254 NA
ATOM     36  C   UNL     1      -4.772   4.098  -3.479  1.00  0.00     0.185 C 
ATOM     37  N   UNL     1      -5.755   4.925  -3.090  1.00  0.00    -0.370 N 
ATOM     38  N   UNL     1      -3.588   4.435  -2.938  1.00  0.00    -0.370 N 
ATOM     39  H   UNL     1      -6.677   4.743  -3.464  1.00  0.00     0.159 HD
ATOM     40  H   UNL     1      -5.593   5.795  -2.612  1.00  0.00     0.159 HD
ATOM     41  H   UNL     1      -3.526   5.131  -2.213  1.00  0.00     0.159 HD
ATOM     42  H   UNL     1      -2.762   3.890  -3.131  1.00  0.00     0.159 HD
ENDBRANCH  34  35
ENDBRANCH  33  34
ENDBRANCH  32  33
ENDBRANCH   6  32
ENDBRANCH   4   6
ENDBRANCH   1   2
BRANCH   1  43
ATOM     43  C   UNL     1      -9.433   2.635  -6.251  1.00  0.00     0.102 C 
ATOM     44  C   UNL     1      -8.557   3.704  -6.927  1.00  0.00     0.020 C 
BRANCH  43  45
ATOM     45  C   UNL     1      -9.268   2.568  -4.730  1.00  0.00     0.225 C 
ATOM     46  O   UNL     1      -8.249   2.156  -4.183  1.00  0.00    -0.275 OA
ATOM     47  N   UNL     1     -10.381   2.914  -3.997  1.00  0.00    -0.342 N 
ATOM     48  H   UNL     1     -11.149   3.390  -4.449  1.00  0.00     0.164 HD
BRANCH  47  49
ATOM     49  C   UNL     1     -10.358   2.931  -2.532  1.00  0.00     0.192 C 
BRANCH  49  50
ATOM     50  C   UNL     1     -11.744   2.567  -1.992  1.00  0.00     0.047 C 
BRANCH  50  51
ATOM     51  C   UNL     1     -12.610   1.857  -3.041  1.00  0.00     0.103 C 
BRANCH  51  52
ATOM     52  C   UNL     1     -13.720   2.760  -3.576  1.00  0.00     0.226 C 
ATOM     53  O   UNL     1     -13.455   3.619  -4.419  1.00  0.00    -0.275 OA
BRANCH  52  54
ATOM     54  N   UNL     1     -15.022   2.493  -3.113  1.00  0.00    -0.311 N 
ATOM     55  C   UNL     1     -15.463   2.955  -1.790  1.00  0.00     0.153 C 
BRANCH  54  56
ATOM     56  C   UNL     1     -15.947   1.784  -3.897  1.00  0.00     0.102 C 
ATOM     57  C   UNL     1     -16.297   2.107  -5.153  1.00  0.00     0.043 C 
BRANCH  56  58
ATOM     58  C   UNL     1     -16.606   0.530  -3.373  1.00  0.00     0.268 C 
ATOM     59  O   UNL     1     -15.988  -0.495  -3.118  1.00  0.00    -0.268 OA
ATOM     60  N   UNL     1     -17.954   0.680  -3.152  1.00  0.00    -0.339 N 
ATOM     61  H   UNL     1     -18.394   1.559  -3.399  1.00  0.00     0.164 HD
BRANCH  60  62
ATOM     62  C   UNL     1     -18.775  -0.390  -2.587  1.00  0.00     0.168 CG0
ATOM     63  C   UNL     1     -19.962  -0.704  -3.490  1.00  0.00     0.041 C 
ATOM     64  G   UNL     1     -19.253   0.013  -1.177  1.00  0.00     0.000 G0
ENDBRANCH  60  62
ENDBRANCH  56  58
ENDBRANCH  54  56
ENDBRANCH  52  54
ENDBRANCH  51  52
ENDBRANCH  50  51
ENDBRANCH  49  50
BRANCH  49  65
ATOM     65  C   UNL     1      -9.945   4.307  -1.987  1.00  0.00     0.326 C 
ATOM     66  O   UNL     1     -10.711   5.183  -1.615  1.00  0.00    -0.250 OA
BRANCH  65  67
ATOM     67  O   UNL     1      -8.613   4.538  -1.991  1.00  0.00    -0.480 OA
ATOM     68  H   UNL     1      -8.366   4.486  -1.043  1.00  0.00     0.296 HD
ENDBRANCH  65  67
ENDBRANCH  49  65
ENDBRANCH  47  49
ENDBRANCH  43  45
ENDBRANCH   1  43
BRANCH   1  69
ATOM     69  C   UNL     1     -10.065   0.065  -6.288  1.00  0.00    -0.001 C 
ATOM     70  C   UNL     1     -10.031  -1.225  -6.668  1.00  0.00     0.001 C 
BRANCH  70  71
ATOM     71  C   UNL     1     -10.765  -2.339  -6.064  1.00  0.00    -0.055 C 
ATOM     72  C   UNL     1     -11.403  -2.111  -4.896  1.00  0.00    -0.018 C 
ATOM     73  C   UNL     1     -10.763  -3.658  -6.792  1.00  0.00     0.044 C 
BRANCH  72  74
ATOM     74  C   UNL     1     -12.235  -3.065  -4.051  1.00  0.00     0.038 C 
ATOM     75  C   UNL     1     -13.698  -2.623  -4.178  1.00  0.00     0.015 C 
BRANCH  74  76
ATOM     76  C   UNL     1     -11.676  -3.064  -2.598  1.00  0.00     0.128 C 
BRANCH  76  77
ATOM     77  O   UNL     1     -11.592  -4.411  -2.103  1.00  0.00    -0.381 OA
ATOM     78  C   UNL     1     -10.706  -5.238  -2.846  1.00  0.00     0.195 C 
ENDBRANCH  76  77
BRANCH  76  79
ATOM     79  C   UNL     1     -10.349  -2.281  -2.434  1.00  0.00     0.068 C 
BRANCH  79  80
ATOM     80  C   UNL     1     -10.126  -1.529  -1.144  1.00  0.00    -0.045 A 
ATOM     81  C   UNL     1     -10.580  -2.042   0.078  1.00  0.00     0.004 A 
ATOM     82  C   UNL     1      -9.480  -0.284  -1.154  1.00  0.00     0.004 A 
ATOM     83  C   UNL     1     -10.382  -1.334   1.265  1.00  0.00     0.000 A 
ATOM     84  C   UNL     1      -9.283   0.424   0.033  1.00  0.00     0.000 A 
ATOM     85  C   UNL     1      -9.732  -0.102   1.242  1.00  0.00     0.000 A 
ENDBRANCH  79  80
ENDBRANCH  76  79
ENDBRANCH  74  76
ENDBRANCH  72  74
ENDBRANCH  70  71
ENDBRANCH   1  69
TORSDOF 17
ENDMDL
MODEL 45
REMARK VINA RESULT:    -6.605      4.075     12.072
REMARK INTER + INTRA:         -26.042
REMARK INTER:                 -18.102
REMARK INTRA:                  -7.940
REMARK UNBOUND:                -6.307
REMARK SMILES C=C1C(=O)N[C@H](C)C(=O)N[C@@H](CC(C)C)C(=O)N[C@@H](C(=O)O)[C@H](C)C(=O)N[C@@H](CCCN=C(N)N)C(=O)N[C@@H](/C=C/C(C)=C/[C@H](C)[C@H](Cc2ccccc2)OC)[C@H](C)C(=O)N[C@@H](C(=O)O)CCC(=O)N1C
REMARK SMILES IDX 39 1 38 2 37 3 36 4 28 6 27 7 25 8 26 9 23 11 24 12 19 13
REMARK SMILES IDX 18 14 16 15 17 16 11 18 10 19 8 20 9 21 12 24 13 25 14 26
REMARK SMILES IDX 15 27 20 28 21 29 22 30 29 32 30 33 31 34 32 35 33 36 34 37
REMARK SMILES IDX 35 38 57 43 58 44 59 45 60 46 61 47 62 49 66 50 67 51 68 52
REMARK SMILES IDX 69 53 70 54 71 55 2 56 1 57 3 58 4 59 5 60 6 62 7 63 63 65
REMARK SMILES IDX 64 66 65 67 40 69 41 70 42 71 44 72 43 73 45 74 46 75 47 76
REMARK SMILES IDX 55 77 56 78 48 79 49 80 50 81 54 82 51 83 53 84 52 85
REMARK H PARENT 38 5 27 10 18 17 10 22 22 31 34 39 34 40 35 41 35 42 61 48
REMARK H PARENT 5 61 65 68
REMARK Flexibility Score:  369.900
ROOT
ATOM      1  C   UNL     1      -9.676  -3.622  -1.957  1.00  0.00     0.117 C 
ENDROOT
BRANCH   1   2
ATOM      2  N   UNL     1      -9.562  -2.644  -3.039  1.00  0.00    -0.347 N 
ATOM      3  O   UNL     1      -7.337  -2.956  -3.511  1.00  0.00    -0.273 OA
ATOM      4  C   UNL     1      -8.420  -2.454  -3.793  1.00  0.00     0.243 C 
ATOM      5  H   UNL     1     -10.370  -2.098  -3.299  1.00  0.00     0.164 HD
BRANCH   4   6
ATOM      6  C   UNL     1      -8.592  -1.418  -4.933  1.00  0.00     0.171 C 
BRANCH   6   7
ATOM      7  N   UNL     1      -8.580  -2.088  -6.243  1.00  0.00    -0.344 N 
ATOM      8  C   UNL     1      -8.035  -1.467  -7.346  1.00  0.00     0.226 C 
ATOM      9  O   UNL     1      -7.562  -0.337  -7.301  1.00  0.00    -0.275 OA
ATOM     10  H   UNL     1      -9.022  -2.994  -6.335  1.00  0.00     0.164 HD
BRANCH   8  11
ATOM     11  C   UNL     1      -8.050  -2.309  -8.610  1.00  0.00     0.109 C 
ATOM     12  C   UNL     1      -8.708  -1.533  -9.751  1.00  0.00     0.021 C 
BRANCH  11  13
ATOM     13  C   UNL     1      -6.627  -2.822  -8.910  1.00  0.00     0.204 C 
BRANCH  13  14
ATOM     14  N   UNL     1      -5.603  -1.815  -8.615  1.00  0.00    -0.340 N 
ATOM     15  C   UNL     1      -4.939  -1.114  -9.597  1.00  0.00     0.243 C 
ATOM     16  O   UNL     1      -5.202  -1.240 -10.792  1.00  0.00    -0.273 OA
ATOM     17  H   UNL     1      -5.233  -1.772  -7.662  1.00  0.00     0.164 HD
BRANCH  15  18
ATOM     18  C   UNL     1      -3.762  -0.262  -9.060  1.00  0.00     0.171 C 
BRANCH  18  19
ATOM     19  N   UNL     1      -3.771   0.988  -9.816  1.00  0.00    -0.343 N 
ATOM     20  C   UNL     1      -2.706   1.367 -10.611  1.00  0.00     0.242 CG0
ATOM     21  O   UNL     1      -1.651   0.738 -10.616  1.00  0.00    -0.273 OA
ATOM     22  H   UNL     1      -4.576   1.601  -9.754  1.00  0.00     0.164 HD
ATOM     23  G   UNL     1      -2.931   2.678 -11.393  1.00  0.00     0.000 G0
ENDBRANCH  18  19
BRANCH  18  24
ATOM     24  C   UNL     1      -3.917  -0.011  -7.555  1.00  0.00     0.038 C 
BRANCH  24  25
ATOM     25  C   UNL     1      -2.961   1.053  -6.978  1.00  0.00    -0.015 C 
ATOM     26  C   UNL     1      -1.495   0.626  -7.054  1.00  0.00     0.007 C 
ATOM     27  C   UNL     1      -3.337   1.348  -5.523  1.00  0.00     0.007 C 
ENDBRANCH  24  25
ENDBRANCH  18  24
ENDBRANCH  15  18
ENDBRANCH  13  14
BRANCH  13  28
ATOM     28  C   UNL     1      -6.263  -4.085  -8.123  1.00  0.00     0.327 C 
ATOM     29  O   UNL     1      -6.960  -5.079  -7.989  1.00  0.00    -0.250 OA
BRANCH  28  30
ATOM     30  O   UNL     1      -5.096  -3.974  -7.456  1.00  0.00    -0.480 OA
ATOM     31  H   UNL     1      -5.278  -3.306  -6.763  1.00  0.00     0.296 HD
ENDBRANCH  28  30
ENDBRANCH  13  28
ENDBRANCH  11  13
ENDBRANCH   8  11
ENDBRANCH   6   7
BRANCH   6  32
ATOM     32  C   UNL     1      -9.902  -0.650  -4.723  1.00  0.00     0.037 C 
BRANCH  32  33
ATOM     33  C   UNL     1     -10.966  -1.026  -5.763  1.00  0.00     0.026 C 
BRANCH  33  34
ATOM     34  C   UNL     1     -12.390  -0.870  -5.226  1.00  0.00     0.146 C 
BRANCH  34  35
ATOM     35  N   UNL     1     -12.456  -1.453  -3.894  1.00  0.00    -0.254 NA
ATOM     36  C   UNL     1     -13.482  -1.211  -3.167  1.00  0.00     0.185 C 
ATOM     37  N   UNL     1     -13.556  -1.748  -1.939  1.00  0.00    -0.370 N 
ATOM     38  N   UNL     1     -14.562  -0.462  -3.453  1.00  0.00    -0.370 N 
ATOM     39  H   UNL     1     -12.783  -2.335  -1.653  1.00  0.00     0.159 HD
ATOM     40  H   UNL     1     -14.393  -1.750  -1.382  1.00  0.00     0.159 HD
ATOM     41  H   UNL     1     -15.240  -0.234  -2.745  1.00  0.00     0.159 HD
ATOM     42  H   UNL     1     -14.635   0.016  -4.337  1.00  0.00     0.159 HD
ENDBRANCH  34  35
ENDBRANCH  33  34
ENDBRANCH  32  33
ENDBRANCH   6  32
ENDBRANCH   4   6
ENDBRANCH   1   2
BRANCH   1  43
ATOM     43  C   UNL     1     -10.347  -4.908  -2.520  1.00  0.00     0.102 C 
ATOM     44  C   UNL     1     -11.846  -4.734  -2.819  1.00  0.00     0.020 C 
BRANCH  43  45
ATOM     45  C   UNL     1     -10.025  -6.124  -1.647  1.00  0.00     0.225 C 
ATOM     46  O   UNL     1     -10.786  -7.078  -1.519  1.00  0.00    -0.275 OA
ATOM     47  N   UNL     1      -8.853  -6.044  -0.929  1.00  0.00    -0.342 N 
ATOM     48  H   UNL     1      -8.173  -5.333  -1.159  1.00  0.00     0.164 HD
BRANCH  47  49
ATOM     49  C   UNL     1      -8.399  -7.149  -0.079  1.00  0.00     0.192 C 
BRANCH  49  50
ATOM     50  C   UNL     1      -8.461  -6.726   1.391  1.00  0.00     0.047 C 
BRANCH  50  51
ATOM     51  C   UNL     1      -9.903  -6.593   1.897  1.00  0.00     0.103 C 
BRANCH  51  52
ATOM     52  C   UNL     1     -10.279  -7.717   2.861  1.00  0.00     0.226 C 
ATOM     53  O   UNL     1     -11.086  -8.578   2.509  1.00  0.00    -0.275 OA
BRANCH  52  54
ATOM     54  N   UNL     1      -9.602  -7.736   4.095  1.00  0.00    -0.311 N 
ATOM     55  C   UNL     1      -8.723  -8.856   4.458  1.00  0.00     0.153 C 
BRANCH  54  56
ATOM     56  C   UNL     1      -9.737  -6.688   5.021  1.00  0.00     0.102 C 
ATOM     57  C   UNL     1      -8.837  -5.708   5.208  1.00  0.00     0.043 C 
BRANCH  56  58
ATOM     58  C   UNL     1     -10.978  -6.560   5.873  1.00  0.00     0.268 C 
ATOM     59  O   UNL     1     -11.876  -7.391   5.876  1.00  0.00    -0.268 OA
ATOM     60  N   UNL     1     -10.961  -5.454   6.688  1.00  0.00    -0.339 N 
ATOM     61  H   UNL     1     -10.184  -4.808   6.618  1.00  0.00     0.164 HD
BRANCH  60  62
ATOM     62  C   UNL     1     -12.035  -5.172   7.640  1.00  0.00     0.168 CG0
ATOM     63  C   UNL     1     -12.966  -4.088   7.109  1.00  0.00     0.041 C 
ATOM     64  G   UNL     1     -11.429  -4.755   8.995  1.00  0.00     0.000 G0
ENDBRANCH  60  62
ENDBRANCH  56  58
ENDBRANCH  54  56
ENDBRANCH  52  54
ENDBRANCH  51  52
ENDBRANCH  50  51
ENDBRANCH  49  50
BRANCH  49  65
ATOM     65  C   UNL     1      -6.964  -7.577  -0.426  1.00  0.00     0.326 C 
ATOM     66  O   UNL     1      -6.505  -8.701  -0.287  1.00  0.00    -0.250 OA
BRANCH  65  67
ATOM     67  O   UNL     1      -6.168  -6.577  -0.866  1.00  0.00    -0.480 OA
ATOM     68  H   UNL     1      -6.710  -5.771  -0.726  1.00  0.00     0.296 HD
ENDBRANCH  65  67
ENDBRANCH  49  65
ENDBRANCH  47  49
ENDBRANCH  43  45
ENDBRANCH   1  43
BRANCH   1  69
ATOM     69  C   UNL     1     -10.335  -2.897  -0.798  1.00  0.00    -0.001 C 
ATOM     70  C   UNL     1     -10.341  -3.262   0.497  1.00  0.00     0.001 C 
BRANCH  70  71
ATOM     71  C   UNL     1     -10.963  -2.543   1.610  1.00  0.00    -0.055 C 
ATOM     72  C   UNL     1     -12.227  -2.100   1.443  1.00  0.00    -0.018 C 
ATOM     73  C   UNL     1     -10.152  -2.356   2.866  1.00  0.00     0.044 C 
BRANCH  72  74
ATOM     74  C   UNL     1     -13.116  -1.336   2.414  1.00  0.00     0.038 C 
ATOM     75  C   UNL     1     -14.352  -2.204   2.675  1.00  0.00     0.015 C 
BRANCH  74  76
ATOM     76  C   UNL     1     -13.419   0.069   1.816  1.00  0.00     0.128 C 
BRANCH  76  77
ATOM     77  O   UNL     1     -14.601   0.617   2.424  1.00  0.00    -0.381 OA
ATOM     78  C   UNL     1     -14.657   2.037   2.386  1.00  0.00     0.195 C 
ENDBRANCH  76  77
BRANCH  76  79
ATOM     79  C   UNL     1     -12.216   1.045   1.858  1.00  0.00     0.068 C 
BRANCH  79  80
ATOM     80  C   UNL     1     -11.165   0.918   0.781  1.00  0.00    -0.045 A 
ATOM     81  C   UNL     1      -9.808   0.797   1.108  1.00  0.00     0.004 A 
ATOM     82  C   UNL     1     -11.532   0.947  -0.572  1.00  0.00     0.004 A 
ATOM     83  C   UNL     1      -8.841   0.694   0.107  1.00  0.00     0.000 A 
ATOM     84  C   UNL     1     -10.564   0.845  -1.574  1.00  0.00     0.000 A 
ATOM     85  C   UNL     1      -9.219   0.717  -1.234  1.00  0.00     0.000 A 
ENDBRANCH  79  80
ENDBRANCH  76  79
ENDBRANCH  74  76
ENDBRANCH  72  74
ENDBRANCH  70  71
ENDBRANCH   1  69
TORSDOF 17
ENDMDL
MODEL 46
REMARK VINA RESULT:    -6.603      5.165      7.855
REMARK INTER + INTRA:         -26.036
REMARK INTER:                 -18.155
REMARK INTRA:                  -7.881
REMARK UNBOUND:                -6.307
REMARK SMILES C=C1C(=O)N[C@H](C)C(=O)N[C@@H](CC(C)C)C(=O)N[C@@H](C(=O)O)[C@H](C)C(=O)N[C@@H](CCCN=C(N)N)C(=O)N[C@@H](/C=C/C(C)=C/[C@H](C)[C@H](Cc2ccccc2)OC)[C@H](C)C(=O)N[C@@H](C(=O)O)CCC(=O)N1C
REMARK SMILES IDX 39 1 38 2 37 3 36 4 28 6 27 7 25 8 26 9 23 11 24 12 19 13
REMARK SMILES IDX 18 14 16 15 17 16 11 18 10 19 8 20 9 21 12 24 13 25 14 26
REMARK SMILES IDX 15 27 20 28 21 29 22 30 29 32 30 33 31 34 32 35 33 36 34 37
REMARK SMILES IDX 35 38 57 43 58 44 59 45 60 46 61 47 62 49 66 50 67 51 68 52
REMARK SMILES IDX 69 53 70 54 71 55 2 56 1 57 3 58 4 59 5 60 6 62 7 63 63 65
REMARK SMILES IDX 64 66 65 67 40 69 41 70 42 71 44 72 43 73 45 74 46 75 47 76
REMARK SMILES IDX 55 77 56 78 48 79 49 80 50 81 54 82 51 83 53 84 52 85
REMARK H PARENT 38 5 27 10 18 17 10 22 22 31 34 39 34 40 35 41 35 42 61 48
REMARK H PARENT 5 61 65 68
REMARK Flexibility Score:  369.900
ROOT
ATOM      1  C   UNL     1     -15.259   0.365  -1.235  1.00  0.00     0.117 C 
ENDROOT
BRANCH   1   2
ATOM      2  N   UNL     1     -13.901  -0.019  -1.623  1.00  0.00    -0.347 N 
ATOM      3  O   UNL     1     -13.637  -1.762  -0.153  1.00  0.00    -0.273 OA
ATOM      4  C   UNL     1     -13.232  -1.114  -1.111  1.00  0.00     0.243 C 
ATOM      5  H   UNL     1     -13.425   0.505  -2.341  1.00  0.00     0.164 HD
BRANCH   4   6
ATOM      6  C   UNL     1     -11.840  -1.349  -1.753  1.00  0.00     0.171 C 
BRANCH   6   7
ATOM      7  N   UNL     1     -11.826  -2.618  -2.498  1.00  0.00    -0.344 N 
ATOM      8  C   UNL     1     -10.708  -3.425  -2.490  1.00  0.00     0.226 C 
ATOM      9  O   UNL     1      -9.681  -3.124  -1.893  1.00  0.00    -0.275 OA
ATOM     10  H   UNL     1     -12.631  -2.868  -3.058  1.00  0.00     0.164 HD
BRANCH   8  11
ATOM     11  C   UNL     1     -10.869  -4.724  -3.260  1.00  0.00     0.109 C 
ATOM     12  C   UNL     1      -9.938  -4.735  -4.473  1.00  0.00     0.021 C 
BRANCH  11  13
ATOM     13  C   UNL     1     -10.703  -5.921  -2.304  1.00  0.00     0.204 C 
BRANCH  13  14
ATOM     14  N   UNL     1     -10.746  -5.513  -0.896  1.00  0.00    -0.340 N 
ATOM     15  C   UNL     1     -10.067  -6.183   0.098  1.00  0.00     0.243 C 
ATOM     16  O   UNL     1      -9.325  -7.136  -0.135  1.00  0.00    -0.273 OA
ATOM     17  H   UNL     1     -11.456  -4.831  -0.616  1.00  0.00     0.164 HD
BRANCH  15  18
ATOM     18  C   UNL     1     -10.427  -5.701   1.525  1.00  0.00     0.171 C 
BRANCH  18  19
ATOM     19  N   UNL     1      -9.834  -6.663   2.453  1.00  0.00    -0.343 N 
ATOM     20  C   UNL     1     -10.610  -7.535   3.193  1.00  0.00     0.242 CG0
ATOM     21  O   UNL     1     -11.836  -7.454   3.205  1.00  0.00    -0.273 OA
ATOM     22  H   UNL     1      -8.827  -6.690   2.565  1.00  0.00     0.164 HD
ATOM     23  G   UNL     1      -9.804  -8.528   4.056  1.00  0.00     0.000 G0
ENDBRANCH  18  19
BRANCH  18  24
ATOM     24  C   UNL     1      -9.894  -4.284   1.769  1.00  0.00     0.038 C 
BRANCH  24  25
ATOM     25  C   UNL     1     -10.872  -3.347   2.510  1.00  0.00    -0.015 C 
ATOM     26  C   UNL     1     -12.324  -3.813   2.403  1.00  0.00     0.007 C 
ATOM     27  C   UNL     1     -10.744  -1.926   1.955  1.00  0.00     0.007 C 
ENDBRANCH  24  25
ENDBRANCH  18  24
ENDBRANCH  15  18
ENDBRANCH  13  14
BRANCH  13  28
ATOM     28  C   UNL     1     -11.772  -7.001  -2.497  1.00  0.00     0.327 C 
ATOM     29  O   UNL     1     -11.644  -8.041  -3.125  1.00  0.00    -0.250 OA
BRANCH  28  30
ATOM     30  O   UNL     1     -12.972  -6.653  -1.989  1.00  0.00    -0.480 OA
ATOM     31  H   UNL     1     -13.145  -5.765  -2.365  1.00  0.00     0.296 HD
ENDBRANCH  28  30
ENDBRANCH  13  28
ENDBRANCH  11  13
ENDBRANCH   8  11
ENDBRANCH   6   7
BRANCH   6  32
ATOM     32  C   UNL     1     -11.505  -0.170  -2.673  1.00  0.00     0.037 C 
BRANCH  32  33
ATOM     33  C   UNL     1     -10.667   0.901  -1.960  1.00  0.00     0.026 C 
BRANCH  33  34
ATOM     34  C   UNL     1      -9.245   0.427  -1.659  1.00  0.00     0.146 C 
BRANCH  34  35
ATOM     35  N   UNL     1      -8.361   0.893  -2.718  1.00  0.00    -0.254 NA
ATOM     36  C   UNL     1      -7.826   0.027  -3.496  1.00  0.00     0.185 C 
ATOM     37  N   UNL     1      -7.013   0.446  -4.479  1.00  0.00    -0.370 N 
ATOM     38  N   UNL     1      -7.956  -1.311  -3.488  1.00  0.00    -0.370 N 
ATOM     39  H   UNL     1      -6.873   1.445  -4.558  1.00  0.00     0.159 HD
ATOM     40  H   UNL     1      -6.698  -0.145  -5.229  1.00  0.00     0.159 HD
ATOM     41  H   UNL     1      -7.373  -1.895  -4.066  1.00  0.00     0.159 HD
ATOM     42  H   UNL     1      -8.526  -1.767  -2.792  1.00  0.00     0.159 HD
ENDBRANCH  34  35
ENDBRANCH  33  34
ENDBRANCH  32  33
ENDBRANCH   6  32
ENDBRANCH   4   6
ENDBRANCH   1   2
BRANCH   1  43
ATOM     43  C   UNL     1     -16.123   0.495  -2.522  1.00  0.00     0.102 C 
ATOM     44  C   UNL     1     -17.396  -0.368  -2.494  1.00  0.00     0.020 C 
BRANCH  43  45
ATOM     45  C   UNL     1     -15.270   0.304  -3.779  1.00  0.00     0.225 C 
ATOM     46  O   UNL     1     -14.841  -0.789  -4.139  1.00  0.00    -0.275 OA
ATOM     47  N   UNL     1     -14.928   1.459  -4.445  1.00  0.00    -0.342 N 
ATOM     48  H   UNL     1     -15.407   2.321  -4.229  1.00  0.00     0.164 HD
BRANCH  47  49
ATOM     49  C   UNL     1     -14.144   1.426  -5.684  1.00  0.00     0.192 C 
BRANCH  49  50
ATOM     50  C   UNL     1     -13.407   2.756  -5.862  1.00  0.00     0.047 C 
BRANCH  50  51
ATOM     51  C   UNL     1     -14.348   3.963  -5.746  1.00  0.00     0.103 C 
BRANCH  51  52
ATOM     52  C   UNL     1     -14.023   5.044  -6.774  1.00  0.00     0.226 C 
ATOM     53  O   UNL     1     -14.020   4.764  -7.975  1.00  0.00    -0.275 OA
BRANCH  52  54
ATOM     54  N   UNL     1     -13.815   6.343  -6.274  1.00  0.00    -0.311 N 
ATOM     55  C   UNL     1     -14.786   6.968  -5.366  1.00  0.00     0.153 C 
BRANCH  54  56
ATOM     56  C   UNL     1     -12.673   7.086  -6.617  1.00  0.00     0.102 C 
ATOM     57  C   UNL     1     -11.478   6.979  -6.015  1.00  0.00     0.043 C 
BRANCH  56  58
ATOM     58  C   UNL     1     -12.703   8.066  -7.766  1.00  0.00     0.268 C 
ATOM     59  O   UNL     1     -13.712   8.670  -8.105  1.00  0.00    -0.268 OA
ATOM     60  N   UNL     1     -11.471   8.258  -8.344  1.00  0.00    -0.339 N 
ATOM     61  H   UNL     1     -10.686   7.711  -8.012  1.00  0.00     0.164 HD
BRANCH  60  62
ATOM     62  C   UNL     1     -11.262   9.212  -9.433  1.00  0.00     0.168 CG0
ATOM     63  C   UNL     1     -11.146   8.496 -10.773  1.00  0.00     0.041 C 
ATOM     64  G   UNL     1      -9.997  10.049  -9.150  1.00  0.00     0.000 G0
ENDBRANCH  60  62
ENDBRANCH  56  58
ENDBRANCH  54  56
ENDBRANCH  52  54
ENDBRANCH  51  52
ENDBRANCH  50  51
ENDBRANCH  49  50
BRANCH  49  65
ATOM     65  C   UNL     1     -15.034   1.169  -6.910  1.00  0.00     0.326 C 
ATOM     66  O   UNL     1     -14.712   1.357  -8.074  1.00  0.00    -0.250 OA
BRANCH  65  67
ATOM     67  O   UNL     1     -16.287   0.753  -6.620  1.00  0.00    -0.480 OA
ATOM     68  H   UNL     1     -16.850   1.509  -6.891  1.00  0.00     0.296 HD
ENDBRANCH  65  67
ENDBRANCH  49  65
ENDBRANCH  47  49
ENDBRANCH  43  45
ENDBRANCH   1  43
BRANCH   1  69
ATOM     69  C   UNL     1     -15.114   1.570  -0.323  1.00  0.00    -0.001 C 
ATOM     70  C   UNL     1     -14.065   1.883   0.457  1.00  0.00     0.001 C 
BRANCH  70  71
ATOM     71  C   UNL     1     -13.928   3.061   1.316  1.00  0.00    -0.055 C 
ATOM     72  C   UNL     1     -14.958   3.364   2.134  1.00  0.00    -0.018 C 
ATOM     73  C   UNL     1     -12.645   3.846   1.233  1.00  0.00     0.044 C 
BRANCH  72  74
ATOM     74  C   UNL     1     -15.095   4.510   3.126  1.00  0.00     0.038 C 
ATOM     75  C   UNL     1     -15.262   3.887   4.518  1.00  0.00     0.015 C 
BRANCH  74  76
ATOM     76  C   UNL     1     -16.272   5.425   2.675  1.00  0.00     0.128 C 
BRANCH  76  77
ATOM     77  O   UNL     1     -16.736   6.212   3.786  1.00  0.00    -0.381 OA
ATOM     78  C   UNL     1     -17.081   7.545   3.436  1.00  0.00     0.195 C 
ENDBRANCH  76  77
BRANCH  76  79
ATOM     79  C   UNL     1     -15.959   6.282   1.423  1.00  0.00     0.068 C 
BRANCH  79  80
ATOM     80  C   UNL     1     -16.089   5.628   0.068  1.00  0.00    -0.045 A 
ATOM     81  C   UNL     1     -17.258   4.947  -0.295  1.00  0.00     0.004 A 
ATOM     82  C   UNL     1     -15.022   5.669  -0.842  1.00  0.00     0.004 A 
ATOM     83  C   UNL     1     -17.365   4.333  -1.545  1.00  0.00     0.000 A 
ATOM     84  C   UNL     1     -15.130   5.054  -2.091  1.00  0.00     0.000 A 
ATOM     85  C   UNL     1     -16.301   4.388  -2.443  1.00  0.00     0.000 A 
ENDBRANCH  79  80
ENDBRANCH  76  79
ENDBRANCH  74  76
ENDBRANCH  72  74
ENDBRANCH  70  71
ENDBRANCH   1  69
TORSDOF 17
ENDMDL
MODEL 47
REMARK VINA RESULT:    -6.590      4.098      7.590
REMARK INTER + INTRA:         -25.996
REMARK INTER:                 -18.915
REMARK INTRA:                  -7.082
REMARK UNBOUND:                -6.307
REMARK SMILES C=C1C(=O)N[C@H](C)C(=O)N[C@@H](CC(C)C)C(=O)N[C@@H](C(=O)O)[C@H](C)C(=O)N[C@@H](CCCN=C(N)N)C(=O)N[C@@H](/C=C/C(C)=C/[C@H](C)[C@H](Cc2ccccc2)OC)[C@H](C)C(=O)N[C@@H](C(=O)O)CCC(=O)N1C
REMARK SMILES IDX 39 1 38 2 37 3 36 4 28 6 27 7 25 8 26 9 23 11 24 12 19 13
REMARK SMILES IDX 18 14 16 15 17 16 11 18 10 19 8 20 9 21 12 24 13 25 14 26
REMARK SMILES IDX 15 27 20 28 21 29 22 30 29 32 30 33 31 34 32 35 33 36 34 37
REMARK SMILES IDX 35 38 57 43 58 44 59 45 60 46 61 47 62 49 66 50 67 51 68 52
REMARK SMILES IDX 69 53 70 54 71 55 2 56 1 57 3 58 4 59 5 60 6 62 7 63 63 65
REMARK SMILES IDX 64 66 65 67 40 69 41 70 42 71 44 72 43 73 45 74 46 75 47 76
REMARK SMILES IDX 55 77 56 78 48 79 49 80 50 81 54 82 51 83 53 84 52 85
REMARK H PARENT 38 5 27 10 18 17 10 22 22 31 34 39 34 40 35 41 35 42 61 48
REMARK H PARENT 5 61 65 68
REMARK Flexibility Score:  369.900
ROOT
ATOM      1  C   UNL     1      -8.276   2.746  -4.785  1.00  0.00     0.117 C 
ENDROOT
BRANCH   1   2
ATOM      2  N   UNL     1      -9.268   2.076  -3.944  1.00  0.00    -0.347 N 
ATOM      3  O   UNL     1      -8.169   2.279  -1.939  1.00  0.00    -0.273 OA
ATOM      4  C   UNL     1      -9.177   1.977  -2.569  1.00  0.00     0.243 C 
ATOM      5  H   UNL     1     -10.102   1.699  -4.369  1.00  0.00     0.164 HD
BRANCH   4   6
ATOM      6  C   UNL     1     -10.403   1.295  -1.911  1.00  0.00     0.171 C 
BRANCH   6   7
ATOM      7  N   UNL     1     -10.883   0.183  -2.746  1.00  0.00    -0.344 N 
ATOM      8  C   UNL     1     -11.916   0.369  -3.639  1.00  0.00     0.226 C 
ATOM      9  O   UNL     1     -12.493   1.442  -3.767  1.00  0.00    -0.275 OA
ATOM     10  H   UNL     1     -10.477  -0.736  -2.621  1.00  0.00     0.164 HD
BRANCH   8  11
ATOM     11  C   UNL     1     -12.258  -0.859  -4.465  1.00  0.00     0.109 C 
ATOM     12  C   UNL     1     -10.988  -1.453  -5.074  1.00  0.00     0.021 C 
BRANCH  11  13
ATOM     13  C   UNL     1     -13.093  -1.840  -3.619  1.00  0.00     0.204 C 
BRANCH  13  14
ATOM     14  N   UNL     1     -14.168  -1.163  -2.888  1.00  0.00    -0.340 N 
ATOM     15  C   UNL     1     -14.165  -1.016  -1.518  1.00  0.00     0.243 C 
ATOM     16  O   UNL     1     -13.228  -1.391  -0.816  1.00  0.00    -0.273 OA
ATOM     17  H   UNL     1     -15.039  -0.965  -3.389  1.00  0.00     0.164 HD
BRANCH  15  18
ATOM     18  C   UNL     1     -15.494  -0.458  -0.952  1.00  0.00     0.171 C 
BRANCH  18  19
ATOM     19  N   UNL     1     -16.518  -1.467  -1.216  1.00  0.00    -0.343 N 
ATOM     20  C   UNL     1     -17.310  -1.423  -2.348  1.00  0.00     0.242 CG0
ATOM     21  O   UNL     1     -17.282  -0.464  -3.116  1.00  0.00    -0.273 OA
ATOM     22  H   UNL     1     -16.659  -2.218  -0.551  1.00  0.00     0.164 HD
ATOM     23  G   UNL     1     -18.278  -2.614  -2.493  1.00  0.00     0.000 G0
ENDBRANCH  18  19
BRANCH  18  24
ATOM     24  C   UNL     1     -15.364  -0.167   0.548  1.00  0.00     0.038 C 
BRANCH  24  25
ATOM     25  C   UNL     1     -15.946  -1.261   1.469  1.00  0.00    -0.015 C 
ATOM     26  C   UNL     1     -17.091  -0.744   2.340  1.00  0.00     0.007 C 
ATOM     27  C   UNL     1     -14.837  -1.829   2.358  1.00  0.00     0.007 C 
ENDBRANCH  24  25
ENDBRANCH  18  24
ENDBRANCH  15  18
ENDBRANCH  13  14
BRANCH  13  28
ATOM     28  C   UNL     1     -13.740  -2.954  -4.449  1.00  0.00     0.327 C 
ATOM     29  O   UNL     1     -13.409  -3.304  -5.571  1.00  0.00    -0.250 OA
BRANCH  28  30
ATOM     30  O   UNL     1     -14.837  -3.478  -3.866  1.00  0.00    -0.480 OA
ATOM     31  H   UNL     1     -15.485  -3.555  -4.597  1.00  0.00     0.296 HD
ENDBRANCH  28  30
ENDBRANCH  13  28
ENDBRANCH  11  13
ENDBRANCH   8  11
ENDBRANCH   6   7
BRANCH   6  32
ATOM     32  C   UNL     1     -10.014   0.802  -0.513  1.00  0.00     0.037 C 
BRANCH  32  33
ATOM     33  C   UNL     1     -11.021   1.244   0.558  1.00  0.00     0.026 C 
BRANCH  33  34
ATOM     34  C   UNL     1     -11.546   2.660   0.318  1.00  0.00     0.146 C 
BRANCH  34  35
ATOM     35  N   UNL     1     -12.994   2.604   0.165  1.00  0.00    -0.254 NA
ATOM     36  C   UNL     1     -13.524   3.156  -0.862  1.00  0.00     0.185 C 
ATOM     37  N   UNL     1     -14.857   3.106  -1.016  1.00  0.00    -0.370 N 
ATOM     38  N   UNL     1     -12.927   3.815  -1.870  1.00  0.00    -0.370 N 
ATOM     39  H   UNL     1     -15.378   2.616  -0.300  1.00  0.00     0.159 HD
ATOM     40  H   UNL     1     -15.328   3.358  -1.867  1.00  0.00     0.159 HD
ATOM     41  H   UNL     1     -13.466   4.326  -2.550  1.00  0.00     0.159 HD
ATOM     42  H   UNL     1     -11.927   3.944  -1.877  1.00  0.00     0.159 HD
ENDBRANCH  34  35
ENDBRANCH  33  34
ENDBRANCH  32  33
ENDBRANCH   6  32
ENDBRANCH   4   6
ENDBRANCH   1   2
BRANCH   1  43
ATOM     43  C   UNL     1      -8.753   4.203  -5.050  1.00  0.00     0.102 C 
ATOM     44  C   UNL     1      -9.005   4.504  -6.537  1.00  0.00     0.020 C 
BRANCH  43  45
ATOM     45  C   UNL     1      -7.836   5.216  -4.357  1.00  0.00     0.225 C 
ATOM     46  O   UNL     1      -7.870   6.421  -4.592  1.00  0.00    -0.275 OA
ATOM     47  N   UNL     1      -6.893   4.680  -3.511  1.00  0.00    -0.342 N 
ATOM     48  H   UNL     1      -6.976   3.718  -3.215  1.00  0.00     0.164 HD
BRANCH  47  49
ATOM     49  C   UNL     1      -5.971   5.532  -2.753  1.00  0.00     0.192 C 
BRANCH  49  50
ATOM     50  C   UNL     1      -4.537   5.292  -3.232  1.00  0.00     0.047 C 
BRANCH  50  51
ATOM     51  C   UNL     1      -4.465   4.242  -4.350  1.00  0.00     0.103 C 
BRANCH  51  52
ATOM     52  C   UNL     1      -3.209   4.401  -5.205  1.00  0.00     0.226 C 
ATOM     53  O   UNL     1      -3.088   5.388  -5.934  1.00  0.00    -0.275 OA
BRANCH  52  54
ATOM     54  N   UNL     1      -2.213   3.421  -5.044  1.00  0.00    -0.311 N 
ATOM     55  C   UNL     1      -1.335   3.421  -3.867  1.00  0.00     0.153 C 
BRANCH  54  56
ATOM     56  C   UNL     1      -2.025   2.405  -5.996  1.00  0.00     0.102 C 
ATOM     57  C   UNL     1      -2.871   1.384  -6.208  1.00  0.00     0.043 C 
BRANCH  56  58
ATOM     58  C   UNL     1      -0.826   2.417  -6.916  1.00  0.00     0.268 C 
ATOM     59  O   UNL     1      -0.217   1.405  -7.235  1.00  0.00    -0.268 OA
ATOM     60  N   UNL     1      -0.535   3.667  -7.406  1.00  0.00    -0.339 N 
ATOM     61  H   UNL     1      -1.081   4.457  -7.084  1.00  0.00     0.164 HD
BRANCH  60  62
ATOM     62  C   UNL     1       0.548   3.896  -8.362  1.00  0.00     0.168 CG0
ATOM     63  C   UNL     1       0.041   3.798  -9.796  1.00  0.00     0.041 C 
ATOM     64  G   UNL     1       1.681   2.880  -8.113  1.00  0.00     0.000 G0
ENDBRANCH  60  62
ENDBRANCH  56  58
ENDBRANCH  54  56
ENDBRANCH  52  54
ENDBRANCH  51  52
ENDBRANCH  50  51
ENDBRANCH  49  50
BRANCH  49  65
ATOM     65  C   UNL     1      -6.057   5.256  -1.244  1.00  0.00     0.326 C 
ATOM     66  O   UNL     1      -6.251   6.097  -0.378  1.00  0.00    -0.250 OA
BRANCH  65  67
ATOM     67  O   UNL     1      -5.837   3.970  -0.892  1.00  0.00    -0.480 OA
ATOM     68  H   UNL     1      -6.681   3.698  -0.471  1.00  0.00     0.296 HD
ENDBRANCH  65  67
ENDBRANCH  49  65
ENDBRANCH  47  49
ENDBRANCH  43  45
ENDBRANCH   1  43
BRANCH   1  69
ATOM     69  C   UNL     1      -8.033   1.827  -5.969  1.00  0.00    -0.001 C 
ATOM     70  C   UNL     1      -7.029   0.947  -6.128  1.00  0.00     0.001 C 
BRANCH  70  71
ATOM     71  C   UNL     1      -6.818   0.050  -7.266  1.00  0.00    -0.055 C 
ATOM     72  C   UNL     1      -5.706  -0.715  -7.263  1.00  0.00    -0.018 C 
ATOM     73  C   UNL     1      -7.859   0.038  -8.354  1.00  0.00     0.044 C 
BRANCH  72  74
ATOM     74  C   UNL     1      -5.231  -1.728  -8.296  1.00  0.00     0.038 C 
ATOM     75  C   UNL     1      -4.486  -0.948  -9.386  1.00  0.00     0.015 C 
BRANCH  74  76
ATOM     76  C   UNL     1      -6.459  -2.542  -8.800  1.00  0.00     0.128 C 
BRANCH  76  77
ATOM     77  O   UNL     1      -6.466  -2.582 -10.237  1.00  0.00    -0.381 OA
ATOM     78  C   UNL     1      -7.770  -2.579 -10.802  1.00  0.00     0.195 C 
ENDBRANCH  76  77
BRANCH  76  79
ATOM     79  C   UNL     1      -6.587  -3.948  -8.161  1.00  0.00     0.068 C 
BRANCH  79  80
ATOM     80  C   UNL     1      -7.823  -4.245  -7.347  1.00  0.00    -0.045 A 
ATOM     81  C   UNL     1      -9.087  -3.813  -7.770  1.00  0.00     0.004 A 
ATOM     82  C   UNL     1      -7.720  -4.939  -6.131  1.00  0.00     0.004 A 
ATOM     83  C   UNL     1     -10.224  -4.080  -7.004  1.00  0.00     0.000 A 
ATOM     84  C   UNL     1      -8.857  -5.204  -5.366  1.00  0.00     0.000 A 
ATOM     85  C   UNL     1     -10.109  -4.776  -5.803  1.00  0.00     0.000 A 
ENDBRANCH  79  80
ENDBRANCH  76  79
ENDBRANCH  74  76
ENDBRANCH  72  74
ENDBRANCH  70  71
ENDBRANCH   1  69
TORSDOF 17
ENDMDL
MODEL 48
REMARK VINA RESULT:    -6.587      4.148      7.545
REMARK INTER + INTRA:         -25.988
REMARK INTER:                 -18.736
REMARK INTRA:                  -7.253
REMARK UNBOUND:                -6.307
REMARK SMILES C=C1C(=O)N[C@H](C)C(=O)N[C@@H](CC(C)C)C(=O)N[C@@H](C(=O)O)[C@H](C)C(=O)N[C@@H](CCCN=C(N)N)C(=O)N[C@@H](/C=C/C(C)=C/[C@H](C)[C@H](Cc2ccccc2)OC)[C@H](C)C(=O)N[C@@H](C(=O)O)CCC(=O)N1C
REMARK SMILES IDX 39 1 38 2 37 3 36 4 28 6 27 7 25 8 26 9 23 11 24 12 19 13
REMARK SMILES IDX 18 14 16 15 17 16 11 18 10 19 8 20 9 21 12 24 13 25 14 26
REMARK SMILES IDX 15 27 20 28 21 29 22 30 29 32 30 33 31 34 32 35 33 36 34 37
REMARK SMILES IDX 35 38 57 43 58 44 59 45 60 46 61 47 62 49 66 50 67 51 68 52
REMARK SMILES IDX 69 53 70 54 71 55 2 56 1 57 3 58 4 59 5 60 6 62 7 63 63 65
REMARK SMILES IDX 64 66 65 67 40 69 41 70 42 71 44 72 43 73 45 74 46 75 47 76
REMARK SMILES IDX 55 77 56 78 48 79 49 80 50 81 54 82 51 83 53 84 52 85
REMARK H PARENT 38 5 27 10 18 17 10 22 22 31 34 39 34 40 35 41 35 42 61 48
REMARK H PARENT 5 61 65 68
REMARK Flexibility Score:  369.900
ROOT
ATOM      1  C   UNL     1      -7.413   2.547  -6.240  1.00  0.00     0.117 C 
ENDROOT
BRANCH   1   2
ATOM      2  N   UNL     1      -8.103   2.854  -4.987  1.00  0.00    -0.347 N 
ATOM      3  O   UNL     1      -8.022   0.755  -4.061  1.00  0.00    -0.273 OA
ATOM      4  C   UNL     1      -8.272   1.951  -3.955  1.00  0.00     0.243 C 
ATOM      5  H   UNL     1      -8.441   3.791  -4.825  1.00  0.00     0.164 HD
BRANCH   4   6
ATOM      6  C   UNL     1      -8.960   2.555  -2.704  1.00  0.00     0.171 C 
BRANCH   6   7
ATOM      7  N   UNL     1     -10.247   3.168  -3.070  1.00  0.00    -0.344 N 
ATOM      8  C   UNL     1     -10.379   4.538  -3.138  1.00  0.00     0.226 C 
ATOM      9  O   UNL     1      -9.458   5.304  -2.880  1.00  0.00    -0.275 OA
ATOM     10  H   UNL     1     -11.048   2.570  -3.225  1.00  0.00     0.164 HD
BRANCH   8  11
ATOM     11  C   UNL     1     -11.751   5.013  -3.582  1.00  0.00     0.109 C 
ATOM     12  C   UNL     1     -12.285   4.111  -4.695  1.00  0.00     0.021 C 
BRANCH  11  13
ATOM     13  C   UNL     1     -12.678   5.149  -2.357  1.00  0.00     0.204 C 
BRANCH  13  14
ATOM     14  N   UNL     1     -13.805   4.212  -2.411  1.00  0.00    -0.340 N 
ATOM     15  C   UNL     1     -15.027   4.478  -1.832  1.00  0.00     0.243 C 
ATOM     16  O   UNL     1     -15.277   5.548  -1.281  1.00  0.00    -0.273 OA
ATOM     17  H   UNL     1     -13.618   3.254  -2.718  1.00  0.00     0.164 HD
BRANCH  15  18
ATOM     18  C   UNL     1     -15.990   3.265  -1.836  1.00  0.00     0.171 C 
BRANCH  18  19
ATOM     19  N   UNL     1     -16.192   2.887  -0.439  1.00  0.00    -0.343 N 
ATOM     20  C   UNL     1     -16.236   1.565  -0.040  1.00  0.00     0.242 CG0
ATOM     21  O   UNL     1     -16.240   0.647  -0.857  1.00  0.00    -0.273 OA
ATOM     22  H   UNL     1     -16.310   3.612   0.261  1.00  0.00     0.164 HD
ATOM     23  G   UNL     1     -16.377   1.363   1.482  1.00  0.00     0.000 G0
ENDBRANCH  18  19
BRANCH  18  24
ATOM     24  C   UNL     1     -17.315   3.628  -2.517  1.00  0.00     0.038 C 
BRANCH  24  25
ATOM     25  C   UNL     1     -17.178   4.109  -3.978  1.00  0.00    -0.015 C 
ATOM     26  C   UNL     1     -18.208   5.179  -4.340  1.00  0.00     0.007 C 
ATOM     27  C   UNL     1     -17.318   2.916  -4.927  1.00  0.00     0.007 C 
ENDBRANCH  24  25
ENDBRANCH  18  24
ENDBRANCH  15  18
ENDBRANCH  13  14
BRANCH  13  28
ATOM     28  C   UNL     1     -11.957   4.915  -1.026  1.00  0.00     0.327 C 
ATOM     29  O   UNL     1     -11.894   3.859  -0.414  1.00  0.00    -0.250 OA
BRANCH  28  30
ATOM     30  O   UNL     1     -11.460   6.047  -0.487  1.00  0.00    -0.480 OA
ATOM     31  H   UNL     1     -10.508   6.025  -0.716  1.00  0.00     0.296 HD
ENDBRANCH  28  30
ENDBRANCH  13  28
ENDBRANCH  11  13
ENDBRANCH   8  11
ENDBRANCH   6   7
BRANCH   6  32
ATOM     32  C   UNL     1      -9.156   1.454  -1.656  1.00  0.00     0.037 C 
BRANCH  32  33
ATOM     33  C   UNL     1     -10.550   0.817  -1.740  1.00  0.00     0.026 C 
BRANCH  33  34
ATOM     34  C   UNL     1     -10.530  -0.679  -1.424  1.00  0.00     0.146 C 
BRANCH  34  35
ATOM     35  N   UNL     1     -10.732  -1.423  -2.659  1.00  0.00    -0.254 NA
ATOM     36  C   UNL     1      -9.733  -2.035  -3.178  1.00  0.00     0.185 C 
ATOM     37  N   UNL     1      -9.908  -2.728  -4.314  1.00  0.00    -0.370 N 
ATOM     38  N   UNL     1      -8.462  -2.098  -2.742  1.00  0.00    -0.370 N 
ATOM     39  H   UNL     1     -10.843  -2.737  -4.701  1.00  0.00     0.159 HD
ATOM     40  H   UNL     1      -9.228  -3.369  -4.685  1.00  0.00     0.159 HD
ATOM     41  H   UNL     1      -7.735  -2.496  -3.313  1.00  0.00     0.159 HD
ATOM     42  H   UNL     1      -8.182  -1.610  -1.906  1.00  0.00     0.159 HD
ENDBRANCH  34  35
ENDBRANCH  33  34
ENDBRANCH  32  33
ENDBRANCH   6  32
ENDBRANCH   4   6
ENDBRANCH   1   2
BRANCH   1  43
ATOM     43  C   UNL     1      -5.908   2.903  -6.077  1.00  0.00     0.102 C 
ATOM     44  C   UNL     1      -5.034   1.703  -5.676  1.00  0.00     0.020 C 
BRANCH  43  45
ATOM     45  C   UNL     1      -5.727   4.131  -5.179  1.00  0.00     0.225 C 
ATOM     46  O   UNL     1      -6.345   5.179  -5.343  1.00  0.00    -0.275 OA
ATOM     47  N   UNL     1      -4.749   4.022  -4.217  1.00  0.00    -0.342 N 
ATOM     48  H   UNL     1      -4.361   3.115  -3.998  1.00  0.00     0.164 HD
BRANCH  47  49
ATOM     49  C   UNL     1      -4.489   5.104  -3.263  1.00  0.00     0.192 C 
BRANCH  49  50
ATOM     50  C   UNL     1      -3.009   5.101  -2.871  1.00  0.00     0.047 C 
BRANCH  50  51
ATOM     51  C   UNL     1      -2.209   4.034  -3.631  1.00  0.00     0.103 C 
BRANCH  51  52
ATOM     52  C   UNL     1      -1.242   4.653  -4.639  1.00  0.00     0.226 C 
ATOM     53  O   UNL     1      -0.211   5.198  -4.241  1.00  0.00    -0.275 OA
BRANCH  52  54
ATOM     54  N   UNL     1      -1.565   4.489  -5.999  1.00  0.00    -0.311 N 
ATOM     55  C   UNL     1      -2.624   5.291  -6.627  1.00  0.00     0.153 C 
BRANCH  54  56
ATOM     56  C   UNL     1      -0.887   3.560  -6.806  1.00  0.00     0.102 C 
ATOM     57  C   UNL     1       0.016   2.671  -6.361  1.00  0.00     0.043 C 
BRANCH  56  58
ATOM     58  C   UNL     1      -1.172   3.466  -8.286  1.00  0.00     0.268 C 
ATOM     59  O   UNL     1      -2.094   2.808  -8.750  1.00  0.00    -0.268 OA
ATOM     60  N   UNL     1      -0.334   4.245  -9.049  1.00  0.00    -0.339 N 
ATOM     61  H   UNL     1       0.412   4.753  -8.589  1.00  0.00     0.164 HD
BRANCH  60  62
ATOM     62  C   UNL     1      -0.475   4.350 -10.500  1.00  0.00     0.168 CG0
ATOM     63  C   UNL     1       0.317   3.257 -11.207  1.00  0.00     0.041 C 
ATOM     64  G   UNL     1      -0.013   5.747 -10.965  1.00  0.00     0.000 G0
ENDBRANCH  60  62
ENDBRANCH  56  58
ENDBRANCH  54  56
ENDBRANCH  52  54
ENDBRANCH  51  52
ENDBRANCH  50  51
ENDBRANCH  49  50
BRANCH  49  65
ATOM     65  C   UNL     1      -5.351   4.964  -1.998  1.00  0.00     0.326 C 
ATOM     66  O   UNL     1      -6.443   5.483  -1.822  1.00  0.00    -0.250 OA
BRANCH  65  67
ATOM     67  O   UNL     1      -4.784   4.241  -1.007  1.00  0.00    -0.480 OA
ATOM     68  H   UNL     1      -5.552   3.855  -0.534  1.00  0.00     0.296 HD
ENDBRANCH  65  67
ENDBRANCH  49  65
ENDBRANCH  47  49
ENDBRANCH  43  45
ENDBRANCH   1  43
BRANCH   1  69
ATOM     69  C   UNL     1      -8.212   3.221  -7.340  1.00  0.00    -0.001 C 
ATOM     70  C   UNL     1      -9.178   4.146  -7.199  1.00  0.00     0.001 C 
BRANCH  70  71
ATOM     71  C   UNL     1      -9.927   4.806  -8.270  1.00  0.00    -0.055 C 
ATOM     72  C   UNL     1      -9.243   5.608  -9.113  1.00  0.00    -0.018 C 
ATOM     73  C   UNL     1     -11.407   4.538  -8.360  1.00  0.00     0.044 C 
BRANCH  72  74
ATOM     74  C   UNL     1      -9.749   6.410 -10.303  1.00  0.00     0.038 C 
ATOM     75  C   UNL     1      -8.691   6.297 -11.408  1.00  0.00     0.015 C 
BRANCH  74  76
ATOM     76  C   UNL     1     -10.052   7.864  -9.835  1.00  0.00     0.128 C 
BRANCH  76  77
ATOM     77  O   UNL     1      -9.565   8.804 -10.808  1.00  0.00    -0.381 OA
ATOM     78  C   UNL     1     -10.233  10.058 -10.775  1.00  0.00     0.195 C 
ENDBRANCH  76  77
BRANCH  76  79
ATOM     79  C   UNL     1     -11.534   8.107  -9.456  1.00  0.00     0.068 C 
BRANCH  79  80
ATOM     80  C   UNL     1     -11.897   8.114  -7.991  1.00  0.00    -0.045 A 
ATOM     81  C   UNL     1     -10.915   8.279  -7.005  1.00  0.00     0.004 A 
ATOM     82  C   UNL     1     -13.229   7.927  -7.591  1.00  0.00     0.004 A 
ATOM     83  C   UNL     1     -11.258   8.271  -5.651  1.00  0.00     0.000 A 
ATOM     84  C   UNL     1     -13.570   7.918  -6.237  1.00  0.00     0.000 A 
ATOM     85  C   UNL     1     -12.585   8.091  -5.268  1.00  0.00     0.000 A 
ENDBRANCH  79  80
ENDBRANCH  76  79
ENDBRANCH  74  76
ENDBRANCH  72  74
ENDBRANCH  70  71
ENDBRANCH   1  69
TORSDOF 17
ENDMDL
MODEL 49
REMARK VINA RESULT:    -6.563      6.837     12.600
REMARK INTER + INTRA:         -25.915
REMARK INTER:                 -17.143
REMARK INTRA:                  -8.772
REMARK UNBOUND:                -6.307
REMARK SMILES C=C1C(=O)N[C@H](C)C(=O)N[C@@H](CC(C)C)C(=O)N[C@@H](C(=O)O)[C@H](C)C(=O)N[C@@H](CCCN=C(N)N)C(=O)N[C@@H](/C=C/C(C)=C/[C@H](C)[C@H](Cc2ccccc2)OC)[C@H](C)C(=O)N[C@@H](C(=O)O)CCC(=O)N1C
REMARK SMILES IDX 39 1 38 2 37 3 36 4 28 6 27 7 25 8 26 9 23 11 24 12 19 13
REMARK SMILES IDX 18 14 16 15 17 16 11 18 10 19 8 20 9 21 12 24 13 25 14 26
REMARK SMILES IDX 15 27 20 28 21 29 22 30 29 32 30 33 31 34 32 35 33 36 34 37
REMARK SMILES IDX 35 38 57 43 58 44 59 45 60 46 61 47 62 49 66 50 67 51 68 52
REMARK SMILES IDX 69 53 70 54 71 55 2 56 1 57 3 58 4 59 5 60 6 62 7 63 63 65
REMARK SMILES IDX 64 66 65 67 40 69 41 70 42 71 44 72 43 73 45 74 46 75 47 76
REMARK SMILES IDX 55 77 56 78 48 79 49 80 50 81 54 82 51 83 53 84 52 85
REMARK H PARENT 38 5 27 10 18 17 10 22 22 31 34 39 34 40 35 41 35 42 61 48
REMARK H PARENT 5 61 65 68
REMARK Flexibility Score:  369.900
ROOT
ATOM      1  C   UNL     1     -12.699  -2.090   2.174  1.00  0.00     0.117 C 
ENDROOT
BRANCH   1   2
ATOM      2  N   UNL     1     -13.642  -1.880   3.273  1.00  0.00    -0.347 N 
ATOM      3  O   UNL     1     -13.059  -3.704   4.539  1.00  0.00    -0.273 OA
ATOM      4  C   UNL     1     -13.683  -2.655   4.415  1.00  0.00     0.243 C 
ATOM      5  H   UNL     1     -14.277  -1.097   3.237  1.00  0.00     0.164 HD
BRANCH   4   6
ATOM      6  C   UNL     1     -14.716  -2.168   5.463  1.00  0.00     0.171 C 
BRANCH   6   7
ATOM      7  N   UNL     1     -14.222  -2.414   6.827  1.00  0.00    -0.344 N 
ATOM      8  C   UNL     1     -14.552  -3.573   7.495  1.00  0.00     0.226 C 
ATOM      9  O   UNL     1     -15.278  -4.432   7.009  1.00  0.00    -0.275 OA
ATOM     10  H   UNL     1     -13.674  -1.698   7.287  1.00  0.00     0.164 HD
BRANCH   8  11
ATOM     11  C   UNL     1     -13.920  -3.704   8.870  1.00  0.00     0.109 C 
ATOM     12  C   UNL     1     -12.914  -2.575   9.096  1.00  0.00     0.021 C 
BRANCH  11  13
ATOM     13  C   UNL     1     -15.022  -3.815   9.942  1.00  0.00     0.204 C 
BRANCH  13  14
ATOM     14  N   UNL     1     -16.342  -3.456   9.415  1.00  0.00    -0.340 N 
ATOM     15  C   UNL     1     -17.304  -2.825  10.174  1.00  0.00     0.243 C 
ATOM     16  O   UNL     1     -17.100  -2.463  11.332  1.00  0.00    -0.273 OA
ATOM     17  H   UNL     1     -16.628  -3.859   8.519  1.00  0.00     0.164 HD
BRANCH  15  18
ATOM     18  C   UNL     1     -18.683  -2.735   9.475  1.00  0.00     0.171 C 
BRANCH  18  19
ATOM     19  N   UNL     1     -19.609  -2.158  10.448  1.00  0.00    -0.343 N 
ATOM     20  C   UNL     1     -20.827  -2.746  10.732  1.00  0.00     0.242 CG0
ATOM     21  O   UNL     1     -21.245  -3.703  10.086  1.00  0.00    -0.273 OA
ATOM     22  H   UNL     1     -19.357  -1.300  10.926  1.00  0.00     0.164 HD
ATOM     23  G   UNL     1     -21.632  -2.038  11.841  1.00  0.00     0.000 G0
ENDBRANCH  18  19
BRANCH  18  24
ATOM     24  C   UNL     1     -18.592  -1.876   8.208  1.00  0.00     0.038 C 
BRANCH  24  25
ATOM     25  C   UNL     1     -19.423  -2.396   7.015  1.00  0.00    -0.015 C 
ATOM     26  C   UNL     1     -18.873  -3.704   6.446  1.00  0.00     0.007 C 
ATOM     27  C   UNL     1     -19.467  -1.333   5.915  1.00  0.00     0.007 C 
ENDBRANCH  24  25
ENDBRANCH  18  24
ENDBRANCH  15  18
ENDBRANCH  13  14
BRANCH  13  28
ATOM     28  C   UNL     1     -15.140  -5.219  10.543  1.00  0.00     0.327 C 
ATOM     29  O   UNL     1     -15.076  -5.506  11.729  1.00  0.00    -0.250 OA
BRANCH  28  30
ATOM     30  O   UNL     1     -15.213  -6.190   9.609  1.00  0.00    -0.480 OA
ATOM     31  H   UNL     1     -14.777  -6.961  10.029  1.00  0.00     0.296 HD
ENDBRANCH  28  30
ENDBRANCH  13  28
ENDBRANCH  11  13
ENDBRANCH   8  11
ENDBRANCH   6   7
BRANCH   6  32
ATOM     32  C   UNL     1     -14.991  -0.676   5.242  1.00  0.00     0.037 C 
BRANCH  32  33
ATOM     33  C   UNL     1     -15.976  -0.110   6.274  1.00  0.00     0.026 C 
BRANCH  33  34
ATOM     34  C   UNL     1     -15.346   0.972   7.152  1.00  0.00     0.146 C 
BRANCH  34  35
ATOM     35  N   UNL     1     -14.817   0.348   8.357  1.00  0.00    -0.254 NA
ATOM     36  C   UNL     1     -15.512   0.399   9.432  1.00  0.00     0.185 C 
ATOM     37  N   UNL     1     -15.036  -0.176  10.547  1.00  0.00    -0.370 N 
ATOM     38  N   UNL     1     -16.713   0.970   9.635  1.00  0.00    -0.370 N 
ATOM     39  H   UNL     1     -14.138  -0.637  10.472  1.00  0.00     0.159 HD
ATOM     40  H   UNL     1     -15.589  -0.330  11.373  1.00  0.00     0.159 HD
ATOM     41  H   UNL     1     -17.095   1.065  10.561  1.00  0.00     0.159 HD
ATOM     42  H   UNL     1     -17.184   1.454   8.886  1.00  0.00     0.159 HD
ENDBRANCH  34  35
ENDBRANCH  33  34
ENDBRANCH  32  33
ENDBRANCH   6  32
ENDBRANCH   4   6
ENDBRANCH   1   2
BRANCH   1  43
ATOM     43  C   UNL     1     -11.252  -1.958   2.730  1.00  0.00     0.102 C 
ATOM     44  C   UNL     1     -10.460  -0.797   2.106  1.00  0.00     0.020 C 
BRANCH  43  45
ATOM     45  C   UNL     1     -10.521  -3.303   2.687  1.00  0.00     0.225 C 
ATOM     46  O   UNL     1      -9.417  -3.484   3.193  1.00  0.00    -0.275 OA
ATOM     47  N   UNL     1     -11.140  -4.291   1.954  1.00  0.00    -0.342 N 
ATOM     48  H   UNL     1     -12.105  -4.177   1.677  1.00  0.00     0.164 HD
BRANCH  47  49
ATOM     49  C   UNL     1     -10.574  -5.639   1.854  1.00  0.00     0.192 C 
BRANCH  49  50
ATOM     50  C   UNL     1      -9.842  -5.792   0.519  1.00  0.00     0.047 C 
BRANCH  50  51
ATOM     51  C   UNL     1     -10.462  -4.927  -0.587  1.00  0.00     0.103 C 
BRANCH  51  52
ATOM     52  C   UNL     1     -10.985  -5.769  -1.749  1.00  0.00     0.226 C 
ATOM     53  O   UNL     1     -12.176  -6.081  -1.789  1.00  0.00    -0.275 OA
BRANCH  52  54
ATOM     54  N   UNL     1     -10.060  -6.078  -2.765  1.00  0.00    -0.311 N 
ATOM     55  C   UNL     1      -9.587  -7.454  -2.963  1.00  0.00     0.153 C 
BRANCH  54  56
ATOM     56  C   UNL     1      -9.562  -5.087  -3.627  1.00  0.00     0.102 C 
ATOM     57  C   UNL     1      -8.375  -4.475  -3.490  1.00  0.00     0.043 C 
BRANCH  56  58
ATOM     58  C   UNL     1     -10.343  -4.658  -4.847  1.00  0.00     0.268 C 
ATOM     59  O   UNL     1     -11.535  -4.386  -4.817  1.00  0.00    -0.268 OA
ATOM     60  N   UNL     1      -9.564  -4.541  -5.974  1.00  0.00    -0.339 N 
ATOM     61  H   UNL     1      -8.585  -4.796  -5.918  1.00  0.00     0.164 HD
BRANCH  60  62
ATOM     62  C   UNL     1     -10.106  -4.078  -7.251  1.00  0.00     0.168 CG0
ATOM     63  C   UNL     1      -9.583  -2.689  -7.595  1.00  0.00     0.041 C 
ATOM     64  G   UNL     1     -11.647  -4.082  -7.190  1.00  0.00     0.000 G0
ENDBRANCH  60  62
ENDBRANCH  56  58
ENDBRANCH  54  56
ENDBRANCH  52  54
ENDBRANCH  51  52
ENDBRANCH  50  51
ENDBRANCH  49  50
BRANCH  49  65
ATOM     65  C   UNL     1     -11.661  -6.720   1.965  1.00  0.00     0.326 C 
ATOM     66  O   UNL     1     -11.462  -7.913   2.143  1.00  0.00    -0.250 OA
BRANCH  65  67
ATOM     67  O   UNL     1     -12.923  -6.270   1.789  1.00  0.00    -0.480 OA
ATOM     68  H   UNL     1     -12.813  -5.500   1.191  1.00  0.00     0.296 HD
ENDBRANCH  65  67
ENDBRANCH  49  65
ENDBRANCH  47  49
ENDBRANCH  43  45
ENDBRANCH   1  43
BRANCH   1  69
ATOM     69  C   UNL     1     -13.141  -1.167   1.053  1.00  0.00    -0.001 C 
ATOM     70  C   UNL     1     -13.844  -0.026   1.165  1.00  0.00     0.001 C 
BRANCH  70  71
ATOM     71  C   UNL     1     -14.247   0.869   0.078  1.00  0.00    -0.055 C 
ATOM     72  C   UNL     1     -14.946   0.337  -0.947  1.00  0.00    -0.018 C 
ATOM     73  C   UNL     1     -13.860   2.321   0.183  1.00  0.00     0.044 C 
BRANCH  72  74
ATOM     74  C   UNL     1     -15.493   1.015  -2.195  1.00  0.00     0.038 C 
ATOM     75  C   UNL     1     -17.020   1.046  -2.061  1.00  0.00     0.015 C 
BRANCH  74  76
ATOM     76  C   UNL     1     -14.962   0.260  -3.449  1.00  0.00     0.128 C 
BRANCH  76  77
ATOM     77  O   UNL     1     -15.877   0.425  -4.545  1.00  0.00    -0.381 OA
ATOM     78  C   UNL     1     -15.353   1.203  -5.614  1.00  0.00     0.195 C 
ENDBRANCH  76  77
BRANCH  76  79
ATOM     79  C   UNL     1     -13.502   0.616  -3.827  1.00  0.00     0.068 C 
BRANCH  79  80
ATOM     80  C   UNL     1     -12.390  -0.001  -3.014  1.00  0.00    -0.045 A 
ATOM     81  C   UNL     1     -11.464   0.799  -2.333  1.00  0.00     0.004 A 
ATOM     82  C   UNL     1     -12.251  -1.396  -2.951  1.00  0.00     0.004 A 
ATOM     83  C   UNL     1     -10.429   0.221  -1.595  1.00  0.00     0.000 A 
ATOM     84  C   UNL     1     -11.216  -1.974  -2.212  1.00  0.00     0.000 A 
ATOM     85  C   UNL     1     -10.307  -1.166  -1.533  1.00  0.00     0.000 A 
ENDBRANCH  79  80
ENDBRANCH  76  79
ENDBRANCH  74  76
ENDBRANCH  72  74
ENDBRANCH  70  71
ENDBRANCH   1  69
TORSDOF 17
ENDMDL
MODEL 50
REMARK VINA RESULT:    -6.551      5.721      9.488
REMARK INTER + INTRA:         -25.878
REMARK INTER:                 -18.440
REMARK INTRA:                  -7.438
REMARK UNBOUND:                -6.307
REMARK SMILES C=C1C(=O)N[C@H](C)C(=O)N[C@@H](CC(C)C)C(=O)N[C@@H](C(=O)O)[C@H](C)C(=O)N[C@@H](CCCN=C(N)N)C(=O)N[C@@H](/C=C/C(C)=C/[C@H](C)[C@H](Cc2ccccc2)OC)[C@H](C)C(=O)N[C@@H](C(=O)O)CCC(=O)N1C
REMARK SMILES IDX 39 1 38 2 37 3 36 4 28 6 27 7 25 8 26 9 23 11 24 12 19 13
REMARK SMILES IDX 18 14 16 15 17 16 11 18 10 19 8 20 9 21 12 24 13 25 14 26
REMARK SMILES IDX 15 27 20 28 21 29 22 30 29 32 30 33 31 34 32 35 33 36 34 37
REMARK SMILES IDX 35 38 57 43 58 44 59 45 60 46 61 47 62 49 66 50 67 51 68 52
REMARK SMILES IDX 69 53 70 54 71 55 2 56 1 57 3 58 4 59 5 60 6 62 7 63 63 65
REMARK SMILES IDX 64 66 65 67 40 69 41 70 42 71 44 72 43 73 45 74 46 75 47 76
REMARK SMILES IDX 55 77 56 78 48 79 49 80 50 81 54 82 51 83 53 84 52 85
REMARK H PARENT 38 5 27 10 18 17 10 22 22 31 34 39 34 40 35 41 35 42 61 48
REMARK H PARENT 5 61 65 68
REMARK Flexibility Score:  369.900
ROOT
ATOM      1  C   UNL     1     -11.338   1.131  -4.384  1.00  0.00     0.117 C 
ENDROOT
BRANCH   1   2
ATOM      2  N   UNL     1     -11.877   0.514  -3.172  1.00  0.00    -0.347 N 
ATOM      3  O   UNL     1     -10.084   0.912  -1.795  1.00  0.00    -0.273 OA
ATOM      4  C   UNL     1     -11.241   0.535  -1.945  1.00  0.00     0.243 C 
ATOM      5  H   UNL     1     -12.789   0.085  -3.199  1.00  0.00     0.164 HD
BRANCH   4   6
ATOM      6  C   UNL     1     -12.066  -0.114  -0.805  1.00  0.00     0.171 C 
BRANCH   6   7
ATOM      7  N   UNL     1     -11.193  -0.914   0.069  1.00  0.00    -0.344 N 
ATOM      8  C   UNL     1     -11.346  -2.282   0.152  1.00  0.00     0.226 C 
ATOM      9  O   UNL     1     -12.212  -2.888  -0.467  1.00  0.00    -0.275 OA
ATOM     10  H   UNL     1     -10.510  -0.441   0.647  1.00  0.00     0.164 HD
BRANCH   8  11
ATOM     11  C   UNL     1     -10.335  -2.970   1.053  1.00  0.00     0.109 C 
ATOM     12  C   UNL     1     -10.409  -2.390   2.465  1.00  0.00     0.021 C 
BRANCH  11  13
ATOM     13  C   UNL     1     -10.519  -4.499   0.970  1.00  0.00     0.204 C 
BRANCH  13  14
ATOM     14  N   UNL     1      -9.240  -5.212   1.038  1.00  0.00    -0.340 N 
ATOM     15  C   UNL     1      -9.062  -6.479   0.526  1.00  0.00     0.243 C 
ATOM     16  O   UNL     1      -9.949  -7.077  -0.081  1.00  0.00    -0.273 OA
ATOM     17  H   UNL     1      -8.514  -4.839   1.656  1.00  0.00     0.164 HD
BRANCH  15  18
ATOM     18  C   UNL     1      -7.698  -7.110   0.897  1.00  0.00     0.171 C 
BRANCH  18  19
ATOM     19  N   UNL     1      -6.973  -7.309  -0.357  1.00  0.00    -0.343 N 
ATOM     20  C   UNL     1      -6.588  -8.565  -0.785  1.00  0.00     0.242 CG0
ATOM     21  O   UNL     1      -6.719  -9.556  -0.071  1.00  0.00    -0.273 OA
ATOM     22  H   UNL     1      -6.739  -6.506  -0.929  1.00  0.00     0.164 HD
ATOM     23  G   UNL     1      -5.905  -8.585  -2.168  1.00  0.00     0.000 G0
ENDBRANCH  18  19
BRANCH  18  24
ATOM     24  C   UNL     1      -6.922  -6.198   1.856  1.00  0.00     0.038 C 
BRANCH  24  25
ATOM     25  C   UNL     1      -6.686  -6.793   3.260  1.00  0.00    -0.015 C 
ATOM     26  C   UNL     1      -6.615  -8.320   3.246  1.00  0.00     0.007 C 
ATOM     27  C   UNL     1      -7.800  -6.338   4.206  1.00  0.00     0.007 C 
ENDBRANCH  24  25
ENDBRANCH  18  24
ENDBRANCH  15  18
ENDBRANCH  13  14
BRANCH  13  28
ATOM     28  C   UNL     1     -11.413  -5.060   2.080  1.00  0.00     0.327 C 
ATOM     29  O   UNL     1     -11.036  -5.528   3.143  1.00  0.00    -0.250 OA
BRANCH  28  30
ATOM     30  O   UNL     1     -12.716  -5.109   1.736  1.00  0.00    -0.480 OA
ATOM     31  H   UNL     1     -13.076  -5.854   2.260  1.00  0.00     0.296 HD
ENDBRANCH  28  30
ENDBRANCH  13  28
ENDBRANCH  11  13
ENDBRANCH   8  11
ENDBRANCH   6   7
BRANCH   6  32
ATOM     32  C   UNL     1     -12.777   0.986  -0.008  1.00  0.00     0.037 C 
BRANCH  32  33
ATOM     33  C   UNL     1     -12.543   0.851   1.503  1.00  0.00     0.026 C 
BRANCH  33  34
ATOM     34  C   UNL     1     -13.836   0.578   2.273  1.00  0.00     0.146 C 
BRANCH  34  35
ATOM     35  N   UNL     1     -13.731  -0.722   2.921  1.00  0.00    -0.254 NA
ATOM     36  C   UNL     1     -14.186  -1.752   2.310  1.00  0.00     0.185 C 
ATOM     37  N   UNL     1     -14.090  -2.955   2.896  1.00  0.00    -0.370 N 
ATOM     38  N   UNL     1     -14.778  -1.826   1.105  1.00  0.00    -0.370 N 
ATOM     39  H   UNL     1     -13.644  -2.984   3.805  1.00  0.00     0.159 HD
ATOM     40  H   UNL     1     -14.261  -3.822   2.417  1.00  0.00     0.159 HD
ATOM     41  H   UNL     1     -15.219  -2.675   0.793  1.00  0.00     0.159 HD
ATOM     42  H   UNL     1     -14.931  -0.994   0.557  1.00  0.00     0.159 HD
ENDBRANCH  34  35
ENDBRANCH  33  34
ENDBRANCH  32  33
ENDBRANCH   6  32
ENDBRANCH   4   6
ENDBRANCH   1   2
BRANCH   1  43
ATOM     43  C   UNL     1     -12.309   2.258  -4.840  1.00  0.00     0.102 C 
ATOM     44  C   UNL     1     -11.660   3.276  -5.793  1.00  0.00     0.020 C 
BRANCH  43  45
ATOM     45  C   UNL     1     -13.016   2.894  -3.639  1.00  0.00     0.225 C 
ATOM     46  O   UNL     1     -14.170   2.625  -3.321  1.00  0.00    -0.275 OA
ATOM     47  N   UNL     1     -12.303   3.870  -2.981  1.00  0.00    -0.342 N 
ATOM     48  H   UNL     1     -11.313   3.970  -3.156  1.00  0.00     0.164 HD
BRANCH  47  49
ATOM     49  C   UNL     1     -12.839   4.540  -1.792  1.00  0.00     0.192 C 
BRANCH  49  50
ATOM     50  C   UNL     1     -13.308   5.949  -2.164  1.00  0.00     0.047 C 
BRANCH  50  51
ATOM     51  C   UNL     1     -12.486   6.553  -3.311  1.00  0.00     0.103 C 
BRANCH  51  52
ATOM     52  C   UNL     1     -13.315   6.725  -4.582  1.00  0.00     0.226 C 
ATOM     53  O   UNL     1     -14.471   6.300  -4.619  1.00  0.00    -0.275 OA
BRANCH  52  54
ATOM     54  N   UNL     1     -12.712   7.443  -5.631  1.00  0.00    -0.311 N 
ATOM     55  C   UNL     1     -11.944   8.667  -5.366  1.00  0.00     0.153 C 
BRANCH  54  56
ATOM     56  C   UNL     1     -12.816   7.017  -6.966  1.00  0.00     0.102 C 
ATOM     57  C   UNL     1     -11.805   6.513  -7.693  1.00  0.00     0.043 C 
BRANCH  56  58
ATOM     58  C   UNL     1     -14.141   7.055  -7.691  1.00  0.00     0.268 C 
ATOM     59  O   UNL     1     -14.445   6.262  -8.572  1.00  0.00    -0.268 OA
ATOM     60  N   UNL     1     -14.990   8.025  -7.214  1.00  0.00    -0.339 N 
ATOM     61  H   UNL     1     -14.658   8.649  -6.488  1.00  0.00     0.164 HD
BRANCH  60  62
ATOM     62  C   UNL     1     -16.346   8.196  -7.732  1.00  0.00     0.168 CG0
ATOM     63  C   UNL     1     -17.352   8.332  -6.595  1.00  0.00     0.041 C 
ATOM     64  G   UNL     1     -16.707   7.002  -8.640  1.00  0.00     0.000 G0
ENDBRANCH  60  62
ENDBRANCH  56  58
ENDBRANCH  54  56
ENDBRANCH  52  54
ENDBRANCH  51  52
ENDBRANCH  50  51
ENDBRANCH  49  50
BRANCH  49  65
ATOM     65  C   UNL     1     -11.791   4.632  -0.672  1.00  0.00     0.326 C 
ATOM     66  O   UNL     1     -11.837   5.393   0.283  1.00  0.00    -0.250 OA
BRANCH  65  67
ATOM     67  O   UNL     1     -10.722   3.821  -0.833  1.00  0.00    -0.480 OA
ATOM     68  H   UNL     1      -9.961   4.442  -0.848  1.00  0.00     0.296 HD
ENDBRANCH  65  67
ENDBRANCH  49  65
ENDBRANCH  47  49
ENDBRANCH  43  45
ENDBRANCH   1  43
BRANCH   1  69
ATOM     69  C   UNL     1     -11.036  -0.008  -5.341  1.00  0.00    -0.001 C 
ATOM     70  C   UNL     1      -9.835  -0.542  -5.622  1.00  0.00     0.001 C 
BRANCH  70  71
ATOM     71  C   UNL     1      -9.558  -1.656  -6.532  1.00  0.00    -0.055 C 
ATOM     72  C   UNL     1      -8.304  -1.775  -7.015  1.00  0.00    -0.018 C 
ATOM     73  C   UNL     1     -10.690  -2.595  -6.857  1.00  0.00     0.044 C 
BRANCH  72  74
ATOM     74  C   UNL     1      -7.732  -2.820  -7.962  1.00  0.00     0.038 C 
ATOM     75  C   UNL     1      -8.713  -2.955  -9.133  1.00  0.00     0.015 C 
BRANCH  74  76
ATOM     76  C   UNL     1      -7.480  -4.134  -7.166  1.00  0.00     0.128 C 
BRANCH  76  77
ATOM     77  O   UNL     1      -6.396  -4.869  -7.760  1.00  0.00    -0.381 OA
ATOM     78  C   UNL     1      -5.196  -4.831  -6.999  1.00  0.00     0.195 C 
ENDBRANCH  76  77
BRANCH  76  79
ATOM     79  C   UNL     1      -7.296  -3.922  -5.642  1.00  0.00     0.068 C 
BRANCH  79  80
ATOM     80  C   UNL     1      -8.372  -4.444  -4.721  1.00  0.00    -0.045 A 
ATOM     81  C   UNL     1      -9.122  -5.579  -5.057  1.00  0.00     0.004 A 
ATOM     82  C   UNL     1      -8.657  -3.780  -3.518  1.00  0.00     0.004 A 
ATOM     83  C   UNL     1     -10.124  -6.048  -4.205  1.00  0.00     0.000 A 
ATOM     84  C   UNL     1      -9.660  -4.249  -2.668  1.00  0.00     0.000 A 
ATOM     85  C   UNL     1     -10.392  -5.384  -3.011  1.00  0.00     0.000 A 
ENDBRANCH  79  80
ENDBRANCH  76  79
ENDBRANCH  74  76
ENDBRANCH  72  74
ENDBRANCH  70  71
ENDBRANCH   1  69
TORSDOF 17
ENDMDL
