MODEL 1
REMARK VINA RESULT:    -5.627      0.000      0.000
REMARK INTER + INTRA:         -21.124
REMARK INTER:                 -16.152
REMARK INTRA:                  -4.972
REMARK UNBOUND:                -4.972
REMARK SMILES CCCCCC(=O)N[C@H](CC(=O)O)C(=O)N[C@H]1C(=O)N[C@H](CCCN=C(N)N)C(=O)N[C@@H]2CC[C@H](O)N(C2=O)[C@@H](CC(C)C)C(=O)N(C)[C@@H](Cc2ccccc2)C(=O)N[C@H](C(C)C)C(=O)O[C@@H]1C
REMARK SMILES IDX 30 1 31 2 29 3 32 5 35 6 37 7 34 8 38 9 33 10 39 11 36 12
REMARK SMILES IDX 40 14 41 15 42 16 43 17 44 18 45 19 46 20 47 21 48 22 49 23
REMARK SMILES IDX 50 24 51 25 52 26 56 27 53 28 55 29 54 30 57 31 58 32 59 33
REMARK SMILES IDX 60 35 61 36 62 37 63 38 64 39 65 40 66 41 67 42 68 43 21 45
REMARK SMILES IDX 20 46 18 47 19 48 17 50 16 52 14 53 15 54 9 56 8 57 6 58
REMARK SMILES IDX 7 59 5 61 4 62 3 63 2 64 1 65 10 66 11 67 12 68 13 69 22 71
REMARK SMILES IDX 23 72 24 73 25 74 26 75 27 76 28 77
REMARK H PARENT 31 4 36 13 59 34 20 49 16 55 8 60 13 70 27 78 27 79 28 80
REMARK H PARENT 28 81
REMARK Flexibility Score:  259.900
ROOT
ATOM      1  O   UNL     1     -10.100  -2.272   6.582  1.00  0.00    -0.273 OA
ATOM      2  N   UNL     1     -11.870  -3.048   7.805  1.00  0.00    -0.343 N 
ATOM      3  C   UNL     1     -11.109  -2.975   6.659  1.00  0.00     0.243 C 
ATOM      4  H   UNL     1     -12.685  -3.648   7.837  1.00  0.00     0.164 HD
ENDROOT
BRANCH   2   5
ATOM      5  C   UNL     1     -11.573  -2.194   8.950  1.00  0.00     0.171 C 
ATOM      6  C   UNL     1      -9.494  -0.238   9.454  1.00  0.00     0.214 C 
ATOM      7  N   UNL     1      -9.281  -1.614   9.836  1.00  0.00    -0.303 N 
ATOM      8  C   UNL     1     -10.955   0.181   9.499  1.00  0.00     0.057 C 
ATOM      9  C   UNL     1     -10.212  -2.608   9.578  1.00  0.00     0.247 C 
ATOM     10  C   UNL     1     -11.774  -0.720   8.601  1.00  0.00     0.040 C 
ATOM     11  O   UNL     1      -9.986  -3.799   9.830  1.00  0.00    -0.272 OA
BRANCH   6  12
ATOM     12  O   UNL     1      -8.972  -0.065   8.156  1.00  0.00    -0.373 OA
ATOM     13  H   UNL     1      -8.733   0.882   8.066  1.00  0.00     0.213 HD
ENDBRANCH   6  12
BRANCH   7  14
ATOM     14  C   UNL     1      -7.955  -1.959  10.389  1.00  0.00     0.177 C 
BRANCH  14  15
ATOM     15  C   UNL     1      -7.792  -1.719  11.902  1.00  0.00     0.038 C 
BRANCH  15  16
ATOM     16  C   UNL     1      -6.698  -0.751  12.406  1.00  0.00    -0.015 C 
ATOM     17  C   UNL     1      -6.970  -0.251  13.827  1.00  0.00     0.007 C 
ATOM     18  C   UNL     1      -6.614   0.466  11.476  1.00  0.00     0.007 C 
ENDBRANCH  15  16
ENDBRANCH  14  15
BRANCH  14  19
ATOM     19  C   UNL     1      -7.324  -3.149   9.586  1.00  0.00     0.245 C 
ATOM     20  O   UNL     1      -7.067  -4.182  10.227  1.00  0.00    -0.272 OA
BRANCH  19  21
ATOM     21  N   UNL     1      -6.944  -3.069   8.258  1.00  0.00    -0.332 N 
ATOM     22  C   UNL     1      -6.617  -1.845   7.548  1.00  0.00     0.147 C 
BRANCH  21  23
ATOM     23  C   UNL     1      -6.872  -4.334   7.477  1.00  0.00     0.178 C 
BRANCH  23  24
ATOM     24  C   UNL     1      -8.151  -5.194   7.521  1.00  0.00     0.070 C 
BRANCH  24  25
ATOM     25  C   UNL     1      -8.281  -6.288   6.486  1.00  0.00    -0.045 A 
ATOM     26  C   UNL     1      -9.173  -6.159   5.414  1.00  0.00     0.004 A 
ATOM     27  C   UNL     1      -7.509  -7.455   6.590  1.00  0.00     0.004 A 
ATOM     28  C   UNL     1      -9.300  -7.182   4.471  1.00  0.00     0.000 A 
ATOM     29  C   UNL     1      -7.636  -8.476   5.646  1.00  0.00     0.000 A 
ATOM     30  C   UNL     1      -8.534  -8.339   4.589  1.00  0.00     0.000 A 
ENDBRANCH  24  25
ENDBRANCH  23  24
BRANCH  23  31
ATOM     31  C   UNL     1      -6.266  -4.139   6.067  1.00  0.00     0.243 C 
ATOM     32  O   UNL     1      -5.114  -4.442   5.766  1.00  0.00    -0.273 OA
ATOM     33  N   UNL     1      -7.079  -3.417   5.210  1.00  0.00    -0.341 N 
ATOM     34  H   UNL     1      -8.027  -3.188   5.519  1.00  0.00     0.164 HD
BRANCH  33  35
ATOM     35  C   UNL     1      -6.662  -3.010   3.865  1.00  0.00     0.194 C 
BRANCH  35  36
ATOM     36  C   UNL     1      -6.136  -1.550   3.778  1.00  0.00     0.017 C 
ATOM     37  C   UNL     1      -5.834  -1.150   2.323  1.00  0.00     0.010 C 
ATOM     38  C   UNL     1      -4.858  -1.318   4.593  1.00  0.00     0.010 C 
ENDBRANCH  35  36
BRANCH  35  39
ATOM     39  C   UNL     1      -7.745  -3.302   2.789  1.00  0.00     0.329 C 
ATOM     40  O   UNL     1      -7.618  -4.131   1.896  1.00  0.00    -0.250 OA
BRANCH  39  41
ATOM     41  O   UNL     1      -8.894  -2.592   3.003  1.00  0.00    -0.458 OA
BRANCH  41  42
ATOM     42  C   UNL     1      -9.587  -2.124   1.821  1.00  0.00     0.205 CG0
ATOM     43  C   UNL     1      -9.365  -0.616   1.731  1.00  0.00     0.056 C 
ATOM     44  G   UNL     1     -11.079  -2.494   1.947  1.00  0.00     0.000 G0
ENDBRANCH  41  42
ENDBRANCH  39  41
ENDBRANCH  35  39
ENDBRANCH  33  35
ENDBRANCH  23  31
ENDBRANCH  21  23
ENDBRANCH  19  21
ENDBRANCH  14  19
ENDBRANCH   7  14
ENDBRANCH   2   5
BRANCH   3  45
ATOM     45  C   UNL     1     -11.593  -3.845   5.492  1.00  0.00     0.171 C 
BRANCH  45  46
ATOM     46  N   UNL     1     -11.504  -3.001   4.307  1.00  0.00    -0.342 N 
ATOM     47  C   UNL     1     -11.288  -3.513   3.053  1.00  0.00     0.247 C 
ATOM     48  O   UNL     1     -11.225  -4.722   2.826  1.00  0.00    -0.273 OA
ATOM     49  H   UNL     1     -11.607  -1.997   4.443  1.00  0.00     0.164 HD
BRANCH  47  50
ATOM     50  C   UNL     1     -11.099  -2.465   1.947  1.00  0.00     0.212 CG0
ATOM     51  G   UNL     1      -9.590  -2.170   1.834  1.00  0.00     0.000 G0
BRANCH  50  52
ATOM     52  N   UNL     1     -11.662  -3.066   0.741  1.00  0.00    -0.339 N 
ATOM     53  C   UNL     1     -12.964  -2.884   0.342  1.00  0.00     0.243 C 
ATOM     54  O   UNL     1     -13.775  -2.241   1.003  1.00  0.00    -0.273 OA
ATOM     55  H   UNL     1     -11.070  -3.701   0.209  1.00  0.00     0.164 HD
BRANCH  53  56
ATOM     56  C   UNL     1     -13.353  -3.688  -0.915  1.00  0.00     0.182 C 
BRANCH  56  57
ATOM     57  N   UNL     1     -12.240  -4.527  -1.369  1.00  0.00    -0.344 N 
ATOM     58  C   UNL     1     -12.362  -5.886  -1.533  1.00  0.00     0.220 C 
ATOM     59  O   UNL     1     -13.382  -6.500  -1.242  1.00  0.00    -0.275 OA
ATOM     60  H   UNL     1     -11.413  -4.048  -1.716  1.00  0.00     0.164 HD
BRANCH  58  61
ATOM     61  C   UNL     1     -11.102  -6.542  -2.067  1.00  0.00     0.100 C 
BRANCH  61  62
ATOM     62  C   UNL     1     -11.360  -7.843  -2.827  1.00  0.00     0.010 C 
BRANCH  62  63
ATOM     63  C   UNL     1     -10.089  -8.626  -3.182  1.00  0.00     0.000 C 
BRANCH  63  64
ATOM     64  C   UNL     1      -8.813  -8.064  -2.558  1.00  0.00    -0.003 C 
ATOM     65  C   UNL     1      -7.650  -8.104  -3.539  1.00  0.00     0.004 C 
ENDBRANCH  63  64
ENDBRANCH  62  63
ENDBRANCH  61  62
ENDBRANCH  58  61
ENDBRANCH  56  57
BRANCH  56  66
ATOM     66  C   UNL     1     -13.876  -2.775  -2.023  1.00  0.00     0.157 C 
BRANCH  66  67
ATOM     67  C   UNL     1     -13.058  -1.520  -2.126  1.00  0.00     0.305 C 
ATOM     68  O   UNL     1     -11.942  -1.411  -2.610  1.00  0.00    -0.252 OA
BRANCH  67  69
ATOM     69  O   UNL     1     -13.713  -0.442  -1.655  1.00  0.00    -0.481 OA
ATOM     70  H   UNL     1     -14.473  -0.325  -2.264  1.00  0.00     0.296 HD
ENDBRANCH  67  69
ENDBRANCH  66  67
ENDBRANCH  56  66
ENDBRANCH  53  56
ENDBRANCH  50  52
ENDBRANCH  47  50
ENDBRANCH  45  46
BRANCH  45  71
ATOM     71  C   UNL     1     -13.028  -4.322   5.740  1.00  0.00     0.037 C 
BRANCH  71  72
ATOM     72  C   UNL     1     -13.105  -5.836   5.947  1.00  0.00     0.026 C 
BRANCH  72  73
ATOM     73  C   UNL     1     -13.174  -6.197   7.429  1.00  0.00     0.146 C 
BRANCH  73  74
ATOM     74  N   UNL     1     -11.811  -6.430   7.897  1.00  0.00    -0.254 NA
ATOM     75  C   UNL     1     -11.643  -6.705   9.138  1.00  0.00     0.185 C 
ATOM     76  N   UNL     1     -10.401  -6.925   9.598  1.00  0.00    -0.370 N 
ATOM     77  N   UNL     1     -12.563  -6.817  10.111  1.00  0.00    -0.370 N 
ATOM     78  H   UNL     1      -9.646  -6.853   8.930  1.00  0.00     0.159 HD
ATOM     79  H   UNL     1     -10.178  -7.002  10.575  1.00  0.00     0.159 HD
ATOM     80  H   UNL     1     -13.543  -6.681   9.910  1.00  0.00     0.159 HD
ATOM     81  H   UNL     1     -12.323  -7.152  11.029  1.00  0.00     0.159 HD
ENDBRANCH  73  74
ENDBRANCH  72  73
ENDBRANCH  71  72
ENDBRANCH  45  71
ENDBRANCH   3  45
TORSDOF 20
ENDMDL
MODEL 2
REMARK VINA RESULT:    -5.616      2.513      9.738
REMARK INTER + INTRA:         -21.095
REMARK INTER:                 -14.584
REMARK INTRA:                  -6.511
REMARK UNBOUND:                -4.972
REMARK SMILES CCCCCC(=O)N[C@H](CC(=O)O)C(=O)N[C@H]1C(=O)N[C@H](CCCN=C(N)N)C(=O)N[C@@H]2CC[C@H](O)N(C2=O)[C@@H](CC(C)C)C(=O)N(C)[C@@H](Cc2ccccc2)C(=O)N[C@H](C(C)C)C(=O)O[C@@H]1C
REMARK SMILES IDX 30 1 31 2 29 3 32 5 35 6 37 7 34 8 38 9 33 10 39 11 36 12
REMARK SMILES IDX 40 14 41 15 42 16 43 17 44 18 45 19 46 20 47 21 48 22 49 23
REMARK SMILES IDX 50 24 51 25 52 26 56 27 53 28 55 29 54 30 57 31 58 32 59 33
REMARK SMILES IDX 60 35 61 36 62 37 63 38 64 39 65 40 66 41 67 42 68 43 21 45
REMARK SMILES IDX 20 46 18 47 19 48 17 50 16 52 14 53 15 54 9 56 8 57 6 58
REMARK SMILES IDX 7 59 5 61 4 62 3 63 2 64 1 65 10 66 11 67 12 68 13 69 22 71
REMARK SMILES IDX 23 72 24 73 25 74 26 75 27 76 28 77
REMARK H PARENT 31 4 36 13 59 34 20 49 16 55 8 60 13 70 27 78 27 79 28 80
REMARK H PARENT 28 81
REMARK Flexibility Score:  259.900
ROOT
ATOM      1  O   UNL     1      -8.196  -5.570   2.706  1.00  0.00    -0.273 OA
ATOM      2  N   UNL     1      -6.838  -7.399   2.503  1.00  0.00    -0.343 N 
ATOM      3  C   UNL     1      -7.421  -6.377   3.220  1.00  0.00     0.243 C 
ATOM      4  H   UNL     1      -6.217  -8.053   2.962  1.00  0.00     0.164 HD
ENDROOT
BRANCH   2   5
ATOM      5  C   UNL     1      -7.027  -7.494   1.059  1.00  0.00     0.171 C 
ATOM      6  C   UNL     1      -8.575  -5.929  -0.827  1.00  0.00     0.214 C 
ATOM      7  N   UNL     1      -9.174  -7.086  -0.204  1.00  0.00    -0.303 N 
ATOM      8  C   UNL     1      -7.069  -6.049  -0.999  1.00  0.00     0.057 C 
ATOM      9  C   UNL     1      -8.508  -7.848   0.743  1.00  0.00     0.247 C 
ATOM     10  C   UNL     1      -6.417  -6.288   0.346  1.00  0.00     0.040 C 
ATOM     11  O   UNL     1      -9.058  -8.785   1.335  1.00  0.00    -0.272 OA
BRANCH   6  12
ATOM     12  O   UNL     1      -8.892  -4.804  -0.040  1.00  0.00    -0.373 OA
ATOM     13  H   UNL     1      -8.236  -4.108  -0.256  1.00  0.00     0.213 HD
ENDBRANCH   6  12
BRANCH   7  14
ATOM     14  C   UNL     1     -10.596  -7.350  -0.508  1.00  0.00     0.177 C 
BRANCH  14  15
ATOM     15  C   UNL     1     -10.854  -8.521  -1.475  1.00  0.00     0.038 C 
BRANCH  15  16
ATOM     16  C   UNL     1     -11.045  -8.236  -2.982  1.00  0.00    -0.015 C 
ATOM     17  C   UNL     1      -9.712  -8.112  -3.726  1.00  0.00     0.007 C 
ATOM     18  C   UNL     1     -11.823  -6.928  -3.168  1.00  0.00     0.007 C 
ENDBRANCH  15  16
ENDBRANCH  14  15
BRANCH  14  19
ATOM     19  C   UNL     1     -11.493  -6.975   0.722  1.00  0.00     0.245 C 
ATOM     20  O   UNL     1     -11.970  -7.919   1.374  1.00  0.00    -0.272 OA
BRANCH  19  21
ATOM     21  N   UNL     1     -11.863  -5.681   1.041  1.00  0.00    -0.332 N 
ATOM     22  C   UNL     1     -12.177  -4.634   0.084  1.00  0.00     0.147 C 
BRANCH  21  23
ATOM     23  C   UNL     1     -11.939  -5.313   2.482  1.00  0.00     0.178 C 
BRANCH  23  24
ATOM     24  C   UNL     1     -11.228  -6.294   3.436  1.00  0.00     0.070 C 
BRANCH  24  25
ATOM     25  C   UNL     1     -11.556  -6.183   4.907  1.00  0.00    -0.045 A 
ATOM     26  C   UNL     1     -12.786  -5.665   5.331  1.00  0.00     0.004 A 
ATOM     27  C   UNL     1     -10.624  -6.594   5.872  1.00  0.00     0.004 A 
ATOM     28  C   UNL     1     -13.075  -5.549   6.692  1.00  0.00     0.000 A 
ATOM     29  C   UNL     1     -10.914  -6.478   7.233  1.00  0.00     0.000 A 
ATOM     30  C   UNL     1     -12.139  -5.953   7.642  1.00  0.00     0.000 A 
ENDBRANCH  24  25
ENDBRANCH  23  24
BRANCH  23  31
ATOM     31  C   UNL     1     -11.636  -3.818   2.740  1.00  0.00     0.243 C 
ATOM     32  O   UNL     1     -12.497  -2.943   2.797  1.00  0.00    -0.273 OA
ATOM     33  N   UNL     1     -10.285  -3.516   2.718  1.00  0.00    -0.341 N 
ATOM     34  H   UNL     1      -9.616  -4.287   2.663  1.00  0.00     0.164 HD
BRANCH  33  35
ATOM     35  C   UNL     1      -9.772  -2.147   2.822  1.00  0.00     0.194 C 
BRANCH  35  36
ATOM     36  C   UNL     1      -9.301  -1.541   1.469  1.00  0.00     0.017 C 
ATOM     37  C   UNL     1      -8.845  -0.082   1.638  1.00  0.00     0.010 C 
ATOM     38  C   UNL     1     -10.388  -1.560   0.388  1.00  0.00     0.010 C 
ENDBRANCH  35  36
BRANCH  35  39
ATOM     39  C   UNL     1      -8.694  -1.995   3.932  1.00  0.00     0.329 C 
ATOM     40  O   UNL     1      -8.910  -1.508   5.035  1.00  0.00    -0.250 OA
BRANCH  39  41
ATOM     41  O   UNL     1      -7.495  -2.546   3.571  1.00  0.00    -0.458 OA
BRANCH  41  42
ATOM     42  C   UNL     1      -6.309  -1.851   4.024  1.00  0.00     0.205 CG0
ATOM     43  C   UNL     1      -5.573  -1.351   2.783  1.00  0.00     0.056 C 
ATOM     44  G   UNL     1      -5.457  -2.827   4.861  1.00  0.00     0.000 G0
ENDBRANCH  41  42
ENDBRANCH  39  41
ENDBRANCH  35  39
ENDBRANCH  33  35
ENDBRANCH  23  31
ENDBRANCH  21  23
ENDBRANCH  19  21
ENDBRANCH  14  19
ENDBRANCH   7  14
ENDBRANCH   2   5
BRANCH   3  45
ATOM     45  C   UNL     1      -7.055  -6.328   4.710  1.00  0.00     0.171 C 
BRANCH  45  46
ATOM     46  N   UNL     1      -6.738  -4.934   4.992  1.00  0.00    -0.342 N 
ATOM     47  C   UNL     1      -5.708  -4.273   4.372  1.00  0.00     0.247 C 
ATOM     48  O   UNL     1      -5.025  -4.784   3.483  1.00  0.00    -0.273 OA
ATOM     49  H   UNL     1      -7.315  -4.456   5.681  1.00  0.00     0.164 HD
BRANCH  47  50
ATOM     50  C   UNL     1      -5.445  -2.850   4.886  1.00  0.00     0.212 CG0
ATOM     51  G   UNL     1      -6.297  -1.883   4.039  1.00  0.00     0.000 G0
BRANCH  50  52
ATOM     52  N   UNL     1      -5.824  -2.870   6.296  1.00  0.00    -0.339 N 
ATOM     53  C   UNL     1      -5.144  -2.181   7.271  1.00  0.00     0.243 C 
ATOM     54  O   UNL     1      -4.127  -1.534   7.037  1.00  0.00    -0.273 OA
ATOM     55  H   UNL     1      -6.594  -3.477   6.571  1.00  0.00     0.164 HD
BRANCH  53  56
ATOM     56  C   UNL     1      -5.677  -2.423   8.698  1.00  0.00     0.182 C 
BRANCH  56  57
ATOM     57  N   UNL     1      -6.695  -1.429   9.055  1.00  0.00    -0.344 N 
ATOM     58  C   UNL     1      -8.037  -1.647   8.858  1.00  0.00     0.220 C 
ATOM     59  O   UNL     1      -8.472  -2.651   8.305  1.00  0.00    -0.275 OA
ATOM     60  H   UNL     1      -6.387  -0.632   9.606  1.00  0.00     0.164 HD
BRANCH  58  61
ATOM     61  C   UNL     1      -8.910  -0.510   9.355  1.00  0.00     0.100 C 
BRANCH  61  62
ATOM     62  C   UNL     1      -9.901   0.008   8.312  1.00  0.00     0.010 C 
BRANCH  62  63
ATOM     63  C   UNL     1     -11.356  -0.399   8.574  1.00  0.00     0.000 C 
BRANCH  63  64
ATOM     64  C   UNL     1     -11.591  -1.046   9.938  1.00  0.00    -0.003 C 
ATOM     65  C   UNL     1     -11.929  -2.523   9.801  1.00  0.00     0.004 C 
ENDBRANCH  63  64
ENDBRANCH  62  63
ENDBRANCH  61  62
ENDBRANCH  58  61
ENDBRANCH  56  57
BRANCH  56  66
ATOM     66  C   UNL     1      -4.541  -2.477   9.718  1.00  0.00     0.157 C 
BRANCH  66  67
ATOM     67  C   UNL     1      -3.932  -3.848   9.781  1.00  0.00     0.305 C 
ATOM     68  O   UNL     1      -4.454  -4.898   9.439  1.00  0.00    -0.252 OA
BRANCH  67  69
ATOM     69  O   UNL     1      -2.662  -3.824  10.227  1.00  0.00    -0.481 OA
ATOM     70  H   UNL     1      -2.375  -4.761  10.218  1.00  0.00     0.296 HD
ENDBRANCH  67  69
ENDBRANCH  66  67
ENDBRANCH  56  66
ENDBRANCH  53  56
ENDBRANCH  50  52
ENDBRANCH  47  50
ENDBRANCH  45  46
BRANCH  45  71
ATOM     71  C   UNL     1      -5.862  -7.248   4.997  1.00  0.00     0.037 C 
BRANCH  71  72
ATOM     72  C   UNL     1      -5.432  -7.191   6.464  1.00  0.00     0.026 C 
BRANCH  72  73
ATOM     73  C   UNL     1      -6.507  -7.762   7.387  1.00  0.00     0.146 C 
BRANCH  73  74
ATOM     74  N   UNL     1      -7.379  -6.663   7.790  1.00  0.00    -0.254 NA
ATOM     75  C   UNL     1      -7.416  -6.353   9.033  1.00  0.00     0.185 C 
ATOM     76  N   UNL     1      -8.209  -5.346   9.435  1.00  0.00    -0.370 N 
ATOM     77  N   UNL     1      -6.750  -6.905  10.062  1.00  0.00    -0.370 N 
ATOM     78  H   UNL     1      -8.752  -4.879   8.723  1.00  0.00     0.159 HD
ATOM     79  H   UNL     1      -8.399  -5.142  10.400  1.00  0.00     0.159 HD
ATOM     80  H   UNL     1      -6.113  -7.672   9.909  1.00  0.00     0.159 HD
ATOM     81  H   UNL     1      -6.772  -6.501  10.984  1.00  0.00     0.159 HD
ENDBRANCH  73  74
ENDBRANCH  72  73
ENDBRANCH  71  72
ENDBRANCH  45  71
ENDBRANCH   3  45
TORSDOF 20
ENDMDL
MODEL 3
REMARK VINA RESULT:    -5.604      2.647      9.478
REMARK INTER + INTRA:         -21.060
REMARK INTER:                 -13.340
REMARK INTRA:                  -7.720
REMARK UNBOUND:                -4.972
REMARK SMILES CCCCCC(=O)N[C@H](CC(=O)O)C(=O)N[C@H]1C(=O)N[C@H](CCCN=C(N)N)C(=O)N[C@@H]2CC[C@H](O)N(C2=O)[C@@H](CC(C)C)C(=O)N(C)[C@@H](Cc2ccccc2)C(=O)N[C@H](C(C)C)C(=O)O[C@@H]1C
REMARK SMILES IDX 30 1 31 2 29 3 32 5 35 6 37 7 34 8 38 9 33 10 39 11 36 12
REMARK SMILES IDX 40 14 41 15 42 16 43 17 44 18 45 19 46 20 47 21 48 22 49 23
REMARK SMILES IDX 50 24 51 25 52 26 56 27 53 28 55 29 54 30 57 31 58 32 59 33
REMARK SMILES IDX 60 35 61 36 62 37 63 38 64 39 65 40 66 41 67 42 68 43 21 45
REMARK SMILES IDX 20 46 18 47 19 48 17 50 16 52 14 53 15 54 9 56 8 57 6 58
REMARK SMILES IDX 7 59 5 61 4 62 3 63 2 64 1 65 10 66 11 67 12 68 13 69 22 71
REMARK SMILES IDX 23 72 24 73 25 74 26 75 27 76 28 77
REMARK H PARENT 31 4 36 13 59 34 20 49 16 55 8 60 13 70 27 78 27 79 28 80
REMARK H PARENT 28 81
REMARK Flexibility Score:  259.900
ROOT
ATOM      1  O   UNL     1      -9.725  -1.267   2.291  1.00  0.00    -0.273 OA
ATOM      2  N   UNL     1     -10.893  -3.126   1.653  1.00  0.00    -0.343 N 
ATOM      3  C   UNL     1     -10.390  -2.257   2.597  1.00  0.00     0.243 C 
ATOM      4  H   UNL     1     -11.449  -3.922   1.940  1.00  0.00     0.164 HD
ENDROOT
BRANCH   2   5
ATOM      5  C   UNL     1     -10.553  -2.969   0.243  1.00  0.00     0.171 C 
ATOM      6  C   UNL     1     -11.648  -4.121  -2.182  1.00  0.00     0.214 C 
ATOM      7  N   UNL     1     -10.553  -4.784  -1.512  1.00  0.00    -0.303 N 
ATOM      8  C   UNL     1     -11.643  -2.612  -1.995  1.00  0.00     0.057 C 
ATOM      9  C   UNL     1     -10.017  -4.315  -0.323  1.00  0.00     0.247 C 
ATOM     10  C   UNL     1     -11.683  -2.278  -0.520  1.00  0.00     0.040 C 
ATOM     11  O   UNL     1      -9.138  -4.935   0.289  1.00  0.00    -0.272 OA
BRANCH   6  12
ATOM     12  O   UNL     1     -12.849  -4.674  -1.694  1.00  0.00    -0.373 OA
ATOM     13  H   UNL     1     -13.583  -4.139  -2.064  1.00  0.00     0.213 HD
ENDBRANCH   6  12
BRANCH   7  14
ATOM     14  C   UNL     1     -10.112  -6.080  -2.069  1.00  0.00     0.177 C 
BRANCH  14  15
ATOM     15  C   UNL     1     -11.246  -7.014  -2.535  1.00  0.00     0.038 C 
BRANCH  15  16
ATOM     16  C   UNL     1     -11.578  -8.278  -1.711  1.00  0.00    -0.015 C 
ATOM     17  C   UNL     1     -11.571  -8.011  -0.203  1.00  0.00     0.007 C 
ATOM     18  C   UNL     1     -10.549  -9.376  -2.009  1.00  0.00     0.007 C 
ENDBRANCH  15  16
ENDBRANCH  14  15
BRANCH  14  19
ATOM     19  C   UNL     1      -8.719  -5.925  -2.771  1.00  0.00     0.245 C 
ATOM     20  O   UNL     1      -8.589  -4.963  -3.547  1.00  0.00    -0.272 OA
BRANCH  19  21
ATOM     21  N   UNL     1      -7.693  -6.845  -2.660  1.00  0.00    -0.332 N 
ATOM     22  C   UNL     1      -7.172  -7.661  -3.743  1.00  0.00     0.147 C 
BRANCH  21  23
ATOM     23  C   UNL     1      -7.068  -7.033  -1.322  1.00  0.00     0.178 C 
BRANCH  23  24
ATOM     24  C   UNL     1      -6.477  -8.436  -1.076  1.00  0.00     0.070 C 
BRANCH  24  25
ATOM     25  C   UNL     1      -7.176  -9.310  -0.061  1.00  0.00    -0.045 A 
ATOM     26  C   UNL     1      -6.817 -10.654   0.098  1.00  0.00     0.004 A 
ATOM     27  C   UNL     1      -8.204  -8.784   0.737  1.00  0.00     0.004 A 
ATOM     28  C   UNL     1      -7.481 -11.460   1.026  1.00  0.00     0.000 A 
ATOM     29  C   UNL     1      -8.865  -9.589   1.665  1.00  0.00     0.000 A 
ATOM     30  C   UNL     1      -8.504 -10.928   1.807  1.00  0.00     0.000 A 
ENDBRANCH  24  25
ENDBRANCH  23  24
BRANCH  23  31
ATOM     31  C   UNL     1      -6.147  -5.858  -0.915  1.00  0.00     0.243 C 
ATOM     32  O   UNL     1      -5.429  -5.245  -1.701  1.00  0.00    -0.273 OA
ATOM     33  N   UNL     1      -6.059  -5.672   0.454  1.00  0.00    -0.341 N 
ATOM     34  H   UNL     1      -6.679  -6.217   1.058  1.00  0.00     0.164 HD
BRANCH  33  35
ATOM     35  C   UNL     1      -5.156  -4.696   1.071  1.00  0.00     0.194 C 
BRANCH  35  36
ATOM     36  C   UNL     1      -3.794  -5.291   1.527  1.00  0.00     0.017 C 
ATOM     37  C   UNL     1      -2.618  -4.409   1.074  1.00  0.00     0.010 C 
ATOM     38  C   UNL     1      -3.541  -6.705   0.988  1.00  0.00     0.010 C 
ENDBRANCH  35  36
BRANCH  35  39
ATOM     39  C   UNL     1      -5.841  -3.881   2.204  1.00  0.00     0.329 C 
ATOM     40  O   UNL     1      -5.953  -2.661   2.200  1.00  0.00    -0.250 OA
BRANCH  39  41
ATOM     41  O   UNL     1      -6.385  -4.685   3.167  1.00  0.00    -0.458 OA
BRANCH  41  42
ATOM     42  C   UNL     1      -6.489  -4.115   4.494  1.00  0.00     0.205 CG0
ATOM     43  C   UNL     1      -5.188  -4.432   5.228  1.00  0.00     0.056 C 
ATOM     44  G   UNL     1      -7.723  -4.720   5.193  1.00  0.00     0.000 G0
ENDBRANCH  41  42
ENDBRANCH  39  41
ENDBRANCH  35  39
ENDBRANCH  33  35
ENDBRANCH  23  31
ENDBRANCH  21  23
ENDBRANCH  19  21
ENDBRANCH  14  19
ENDBRANCH   7  14
ENDBRANCH   2   5
BRANCH   3  45
ATOM     45  C   UNL     1     -10.733  -2.597   4.053  1.00  0.00     0.171 C 
BRANCH  45  46
ATOM     46  N   UNL     1      -9.495  -3.084   4.646  1.00  0.00    -0.342 N 
ATOM     47  C   UNL     1      -9.002  -4.340   4.394  1.00  0.00     0.247 C 
ATOM     48  O   UNL     1      -9.527  -5.116   3.596  1.00  0.00    -0.273 OA
ATOM     49  H   UNL     1      -8.998  -2.452   5.270  1.00  0.00     0.164 HD
BRANCH  47  50
ATOM     50  C   UNL     1      -7.755  -4.722   5.204  1.00  0.00     0.212 CG0
ATOM     51  G   UNL     1      -6.529  -4.120   4.488  1.00  0.00     0.000 G0
BRANCH  50  52
ATOM     52  N   UNL     1      -7.972  -4.170   6.539  1.00  0.00    -0.339 N 
ATOM     53  C   UNL     1      -8.074  -4.944   7.669  1.00  0.00     0.243 C 
ATOM     54  O   UNL     1      -8.043  -6.171   7.636  1.00  0.00    -0.273 OA
ATOM     55  H   UNL     1      -8.118  -3.166   6.617  1.00  0.00     0.164 HD
BRANCH  53  56
ATOM     56  C   UNL     1      -8.390  -4.146   8.950  1.00  0.00     0.182 C 
BRANCH  56  57
ATOM     57  N   UNL     1      -9.659  -3.423   8.820  1.00  0.00    -0.344 N 
ATOM     58  C   UNL     1     -10.760  -3.726   9.584  1.00  0.00     0.220 C 
ATOM     59  O   UNL     1     -10.783  -4.665  10.372  1.00  0.00    -0.275 OA
ATOM     60  H   UNL     1      -9.652  -2.577   8.256  1.00  0.00     0.164 HD
BRANCH  58  61
ATOM     61  C   UNL     1     -11.943  -2.812   9.323  1.00  0.00     0.100 C 
BRANCH  61  62
ATOM     62  C   UNL     1     -12.088  -1.684  10.345  1.00  0.00     0.010 C 
BRANCH  62  63
ATOM     63  C   UNL     1     -11.342  -0.397   9.969  1.00  0.00     0.000 C 
BRANCH  63  64
ATOM     64  C   UNL     1     -11.386  -0.059   8.480  1.00  0.00    -0.003 C 
ATOM     65  C   UNL     1      -9.985   0.096   7.905  1.00  0.00     0.004 C 
ENDBRANCH  63  64
ENDBRANCH  62  63
ENDBRANCH  61  62
ENDBRANCH  58  61
ENDBRANCH  56  57
BRANCH  56  66
ATOM     66  C   UNL     1      -7.236  -3.220   9.332  1.00  0.00     0.157 C 
BRANCH  66  67
ATOM     67  C   UNL     1      -7.539  -2.466  10.594  1.00  0.00     0.305 C 
ATOM     68  O   UNL     1      -8.105  -1.387  10.685  1.00  0.00    -0.252 OA
BRANCH  67  69
ATOM     69  O   UNL     1      -7.156  -3.138  11.697  1.00  0.00    -0.481 OA
ATOM     70  H   UNL     1      -6.246  -2.821  11.879  1.00  0.00     0.296 HD
ENDBRANCH  67  69
ENDBRANCH  66  67
ENDBRANCH  56  66
ENDBRANCH  53  56
ENDBRANCH  50  52
ENDBRANCH  47  50
ENDBRANCH  45  46
BRANCH  45  71
ATOM     71  C   UNL     1     -11.840  -3.656   4.106  1.00  0.00     0.037 C 
BRANCH  71  72
ATOM     72  C   UNL     1     -12.468  -3.763   5.499  1.00  0.00     0.026 C 
BRANCH  72  73
ATOM     73  C   UNL     1     -13.067  -5.147   5.739  1.00  0.00     0.146 C 
BRANCH  73  74
ATOM     74  N   UNL     1     -12.568  -5.634   7.021  1.00  0.00    -0.254 NA
ATOM     75  C   UNL     1     -11.512  -6.361   7.016  1.00  0.00     0.185 C 
ATOM     76  N   UNL     1     -11.027  -6.822   8.181  1.00  0.00    -0.370 N 
ATOM     77  N   UNL     1     -10.765  -6.759   5.972  1.00  0.00    -0.370 N 
ATOM     78  H   UNL     1     -11.536  -6.575   9.018  1.00  0.00     0.159 HD
ATOM     79  H   UNL     1     -10.297  -7.509   8.243  1.00  0.00     0.159 HD
ATOM     80  H   UNL     1     -11.007  -6.483   5.032  1.00  0.00     0.159 HD
ATOM     81  H   UNL     1      -9.887  -7.235   6.101  1.00  0.00     0.159 HD
ENDBRANCH  73  74
ENDBRANCH  72  73
ENDBRANCH  71  72
ENDBRANCH  45  71
ENDBRANCH   3  45
TORSDOF 20
ENDMDL
MODEL 4
REMARK VINA RESULT:    -5.513     16.496     21.495
REMARK INTER + INTRA:         -20.799
REMARK INTER:                 -14.647
REMARK INTRA:                  -6.152
REMARK UNBOUND:                -4.972
REMARK SMILES CCCCCC(=O)N[C@H](CC(=O)O)C(=O)N[C@H]1C(=O)N[C@H](CCCN=C(N)N)C(=O)N[C@@H]2CC[C@H](O)N(C2=O)[C@@H](CC(C)C)C(=O)N(C)[C@@H](Cc2ccccc2)C(=O)N[C@H](C(C)C)C(=O)O[C@@H]1C
REMARK SMILES IDX 30 1 31 2 29 3 32 5 35 6 37 7 34 8 38 9 33 10 39 11 36 12
REMARK SMILES IDX 40 14 41 15 42 16 43 17 44 18 45 19 46 20 47 21 48 22 49 23
REMARK SMILES IDX 50 24 51 25 52 26 56 27 53 28 55 29 54 30 57 31 58 32 59 33
REMARK SMILES IDX 60 35 61 36 62 37 63 38 64 39 65 40 66 41 67 42 68 43 21 45
REMARK SMILES IDX 20 46 18 47 19 48 17 50 16 52 14 53 15 54 9 56 8 57 6 58
REMARK SMILES IDX 7 59 5 61 4 62 3 63 2 64 1 65 10 66 11 67 12 68 13 69 22 71
REMARK SMILES IDX 23 72 24 73 25 74 26 75 27 76 28 77
REMARK H PARENT 31 4 36 13 59 34 20 49 16 55 8 60 13 70 27 78 27 79 28 80
REMARK H PARENT 28 81
REMARK Flexibility Score:  259.900
ROOT
ATOM      1  O   UNL     1      11.683   6.665   5.921  1.00  0.00    -0.273 OA
ATOM      2  N   UNL     1       9.867   5.277   5.978  1.00  0.00    -0.343 N 
ATOM      3  C   UNL     1      10.885   5.991   6.573  1.00  0.00     0.243 C 
ATOM      4  H   UNL     1       9.220   4.745   6.547  1.00  0.00     0.164 HD
ENDROOT
BRANCH   2   5
ATOM      5  C   UNL     1       9.766   5.196   4.525  1.00  0.00     0.171 C 
ATOM      6  C   UNL     1       8.007   3.718   2.757  1.00  0.00     0.214 C 
ATOM      7  N   UNL     1       9.260   3.128   3.169  1.00  0.00    -0.303 N 
ATOM      8  C   UNL     1       8.052   5.236   2.686  1.00  0.00     0.057 C 
ATOM      9  C   UNL     1      10.123   3.758   4.051  1.00  0.00     0.247 C 
ATOM     10  C   UNL     1       8.453   5.801   4.032  1.00  0.00     0.040 C 
ATOM     11  O   UNL     1      11.152   3.209   4.466  1.00  0.00    -0.272 OA
BRANCH   6  12
ATOM     12  O   UNL     1       7.015   3.296   3.663  1.00  0.00    -0.373 OA
ATOM     13  H   UNL     1       7.466   2.779   4.364  1.00  0.00     0.213 HD
ENDBRANCH   6  12
BRANCH   7  14
ATOM     14  C   UNL     1       9.527   1.744   2.723  1.00  0.00     0.177 C 
BRANCH  14  15
ATOM     15  C   UNL     1       9.050   0.641   3.688  1.00  0.00     0.038 C 
BRANCH  15  16
ATOM     16  C   UNL     1      10.081  -0.327   4.307  1.00  0.00    -0.015 C 
ATOM     17  C   UNL     1      10.173  -0.188   5.830  1.00  0.00     0.007 C 
ATOM     18  C   UNL     1      11.470  -0.054   3.715  1.00  0.00     0.007 C 
ENDBRANCH  15  16
ENDBRANCH  14  15
BRANCH  14  19
ATOM     19  C   UNL     1       9.490   1.660   1.159  1.00  0.00     0.245 C 
ATOM     20  O   UNL     1      10.323   2.343   0.541  1.00  0.00    -0.272 OA
BRANCH  19  21
ATOM     21  N   UNL     1       8.526   0.968   0.447  1.00  0.00    -0.332 N 
ATOM     22  C   UNL     1       7.118   1.313   0.379  1.00  0.00     0.147 C 
BRANCH  21  23
ATOM     23  C   UNL     1       8.954  -0.241  -0.310  1.00  0.00     0.178 C 
BRANCH  23  24
ATOM     24  C   UNL     1       8.771  -1.574   0.446  1.00  0.00     0.070 C 
BRANCH  24  25
ATOM     25  C   UNL     1      10.016  -2.228   0.998  1.00  0.00    -0.045 A 
ATOM     26  C   UNL     1       9.935  -3.161   2.039  1.00  0.00     0.004 A 
ATOM     27  C   UNL     1      11.278  -1.903   0.476  1.00  0.00     0.004 A 
ATOM     28  C   UNL     1      11.091  -3.749   2.556  1.00  0.00     0.000 A 
ATOM     29  C   UNL     1      12.433  -2.492   0.993  1.00  0.00     0.000 A 
ATOM     30  C   UNL     1      12.339  -3.412   2.035  1.00  0.00     0.000 A 
ENDBRANCH  24  25
ENDBRANCH  23  24
BRANCH  23  31
ATOM     31  C   UNL     1       8.451  -0.248  -1.773  1.00  0.00     0.243 C 
ATOM     32  O   UNL     1       8.695   0.639  -2.587  1.00  0.00    -0.273 OA
ATOM     33  N   UNL     1       7.539  -1.255  -2.040  1.00  0.00    -0.341 N 
ATOM     34  H   UNL     1       7.373  -1.962  -1.320  1.00  0.00     0.164 HD
BRANCH  33  35
ATOM     35  C   UNL     1       6.842  -1.383  -3.323  1.00  0.00     0.194 C 
BRANCH  35  36
ATOM     36  C   UNL     1       5.292  -1.410  -3.203  1.00  0.00     0.017 C 
ATOM     37  C   UNL     1       4.792  -0.381  -2.174  1.00  0.00     0.010 C 
ATOM     38  C   UNL     1       4.743  -2.780  -2.787  1.00  0.00     0.010 C 
ENDBRANCH  35  36
BRANCH  35  39
ATOM     39  C   UNL     1       7.379  -2.562  -4.180  1.00  0.00     0.329 C 
ATOM     40  O   UNL     1       8.045  -3.489  -3.733  1.00  0.00    -0.250 OA
BRANCH  39  41
ATOM     41  O   UNL     1       6.952  -2.498  -5.478  1.00  0.00    -0.458 OA
BRANCH  41  42
ATOM     42  C   UNL     1       7.761  -3.198  -6.454  1.00  0.00     0.205 CG0
ATOM     43  C   UNL     1       8.875  -2.247  -6.886  1.00  0.00     0.056 C 
ATOM     44  G   UNL     1       6.857  -3.620  -7.629  1.00  0.00     0.000 G0
ENDBRANCH  41  42
ENDBRANCH  39  41
ENDBRANCH  35  39
ENDBRANCH  33  35
ENDBRANCH  23  31
ENDBRANCH  21  23
ENDBRANCH  19  21
ENDBRANCH  14  19
ENDBRANCH   7  14
ENDBRANCH   2   5
BRANCH   3  45
ATOM     45  C   UNL     1      10.942   5.905   8.104  1.00  0.00     0.171 C 
BRANCH  45  46
ATOM     46  N   UNL     1      10.024   6.927   8.590  1.00  0.00    -0.342 N 
ATOM     47  C   UNL     1       8.824   6.618   9.180  1.00  0.00     0.247 C 
ATOM     48  O   UNL     1       8.469   5.461   9.408  1.00  0.00    -0.273 OA
ATOM     49  H   UNL     1      10.304   7.899   8.472  1.00  0.00     0.164 HD
BRANCH  47  50
ATOM     50  C   UNL     1       7.935   7.824   9.515  1.00  0.00     0.212 CG0
ATOM     51  G   UNL     1       8.779   9.098   9.308  1.00  0.00     0.000 G0
BRANCH  50  52
ATOM     52  N   UNL     1       6.796   7.733   8.606  1.00  0.00    -0.339 N 
ATOM     53  C   UNL     1       6.919   7.720   7.238  1.00  0.00     0.243 C 
ATOM     54  O   UNL     1       8.001   7.839   6.670  1.00  0.00    -0.273 OA
ATOM     55  H   UNL     1       5.863   7.743   9.015  1.00  0.00     0.164 HD
BRANCH  53  56
ATOM     56  C   UNL     1       5.572   7.705   6.487  1.00  0.00     0.182 C 
BRANCH  56  57
ATOM     57  N   UNL     1       4.756   6.557   6.893  1.00  0.00    -0.344 N 
ATOM     58  C   UNL     1       3.504   6.701   7.439  1.00  0.00     0.220 C 
ATOM     59  O   UNL     1       3.012   7.795   7.693  1.00  0.00    -0.275 OA
ATOM     60  H   UNL     1       5.081   5.637   6.608  1.00  0.00     0.164 HD
BRANCH  58  61
ATOM     61  C   UNL     1       2.818   5.378   7.729  1.00  0.00     0.100 C 
BRANCH  61  62
ATOM     62  C   UNL     1       3.416   4.621   8.915  1.00  0.00     0.010 C 
BRANCH  62  63
ATOM     63  C   UNL     1       3.265   5.341  10.261  1.00  0.00     0.000 C 
BRANCH  63  64
ATOM     64  C   UNL     1       2.691   4.470  11.377  1.00  0.00    -0.003 C 
ATOM     65  C   UNL     1       3.752   4.123  12.411  1.00  0.00     0.004 C 
ENDBRANCH  63  64
ENDBRANCH  62  63
ENDBRANCH  61  62
ENDBRANCH  58  61
ENDBRANCH  56  57
BRANCH  56  66
ATOM     66  C   UNL     1       5.775   7.762   4.974  1.00  0.00     0.157 C 
BRANCH  66  67
ATOM     67  C   UNL     1       5.006   8.899   4.365  1.00  0.00     0.305 C 
ATOM     68  O   UNL     1       3.806   9.109   4.464  1.00  0.00    -0.252 OA
BRANCH  67  69
ATOM     69  O   UNL     1       5.801   9.755   3.696  1.00  0.00    -0.481 OA
ATOM     70  H   UNL     1       6.148  10.363   4.382  1.00  0.00     0.296 HD
ENDBRANCH  67  69
ENDBRANCH  66  67
ENDBRANCH  56  66
ENDBRANCH  53  56
ENDBRANCH  50  52
ENDBRANCH  47  50
ENDBRANCH  45  46
BRANCH  45  71
ATOM     71  C   UNL     1      12.371   6.147   8.600  1.00  0.00     0.037 C 
BRANCH  71  72
ATOM     72  C   UNL     1      12.473   6.065  10.125  1.00  0.00     0.026 C 
BRANCH  72  73
ATOM     73  C   UNL     1      12.765   7.432  10.741  1.00  0.00     0.146 C 
BRANCH  73  74
ATOM     74  N   UNL     1      11.506   7.975  11.241  1.00  0.00    -0.254 NA
ATOM     75  C   UNL     1      11.282   9.225  11.069  1.00  0.00     0.185 C 
ATOM     76  N   UNL     1      10.132   9.753  11.517  1.00  0.00    -0.370 N 
ATOM     77  N   UNL     1      12.059  10.149  10.476  1.00  0.00    -0.370 N 
ATOM     78  H   UNL     1       9.492   9.127  11.984  1.00  0.00     0.159 HD
ATOM     79  H   UNL     1       9.952  10.741  11.548  1.00  0.00     0.159 HD
ATOM     80  H   UNL     1      12.954   9.894  10.087  1.00  0.00     0.159 HD
ATOM     81  H   UNL     1      11.726  11.081  10.296  1.00  0.00     0.159 HD
ENDBRANCH  73  74
ENDBRANCH  72  73
ENDBRANCH  71  72
ENDBRANCH  45  71
ENDBRANCH   3  45
TORSDOF 20
ENDMDL
MODEL 5
REMARK VINA RESULT:    -5.472      2.804      9.646
REMARK INTER + INTRA:         -20.681
REMARK INTER:                 -13.378
REMARK INTRA:                  -7.304
REMARK UNBOUND:                -4.972
REMARK SMILES CCCCCC(=O)N[C@H](CC(=O)O)C(=O)N[C@H]1C(=O)N[C@H](CCCN=C(N)N)C(=O)N[C@@H]2CC[C@H](O)N(C2=O)[C@@H](CC(C)C)C(=O)N(C)[C@@H](Cc2ccccc2)C(=O)N[C@H](C(C)C)C(=O)O[C@@H]1C
REMARK SMILES IDX 30 1 31 2 29 3 32 5 35 6 37 7 34 8 38 9 33 10 39 11 36 12
REMARK SMILES IDX 40 14 41 15 42 16 43 17 44 18 45 19 46 20 47 21 48 22 49 23
REMARK SMILES IDX 50 24 51 25 52 26 56 27 53 28 55 29 54 30 57 31 58 32 59 33
REMARK SMILES IDX 60 35 61 36 62 37 63 38 64 39 65 40 66 41 67 42 68 43 21 45
REMARK SMILES IDX 20 46 18 47 19 48 17 50 16 52 14 53 15 54 9 56 8 57 6 58
REMARK SMILES IDX 7 59 5 61 4 62 3 63 2 64 1 65 10 66 11 67 12 68 13 69 22 71
REMARK SMILES IDX 23 72 24 73 25 74 26 75 27 76 28 77
REMARK H PARENT 31 4 36 13 59 34 20 49 16 55 8 60 13 70 27 78 27 79 28 80
REMARK H PARENT 28 81
REMARK Flexibility Score:  259.900
ROOT
ATOM      1  O   UNL     1     -10.865  -1.646   0.660  1.00  0.00    -0.273 OA
ATOM      2  N   UNL     1     -11.594  -3.813   0.611  1.00  0.00    -0.343 N 
ATOM      3  C   UNL     1     -11.238  -2.653   1.263  1.00  0.00     0.243 C 
ATOM      4  H   UNL     1     -11.910  -4.617   1.139  1.00  0.00     0.164 HD
ENDROOT
BRANCH   2   5
ATOM      5  C   UNL     1     -11.429  -3.933  -0.834  1.00  0.00     0.171 C 
ATOM      6  C   UNL     1     -11.897  -6.110  -2.690  1.00  0.00     0.214 C 
ATOM      7  N   UNL     1     -10.594  -5.960  -2.086  1.00  0.00    -0.303 N 
ATOM      8  C   UNL     1     -12.634  -4.792  -2.867  1.00  0.00     0.057 C 
ATOM      9  C   UNL     1     -10.317  -4.974  -1.153  1.00  0.00     0.247 C 
ATOM     10  C   UNL     1     -12.779  -4.102  -1.528  1.00  0.00     0.040 C 
ATOM     11  O   UNL     1      -9.225  -4.905  -0.575  1.00  0.00    -0.272 OA
BRANCH   6  12
ATOM     12  O   UNL     1     -12.647  -6.989  -1.884  1.00  0.00    -0.373 OA
ATOM     13  H   UNL     1     -12.429  -6.780  -0.951  1.00  0.00     0.213 HD
ENDBRANCH   6  12
BRANCH   7  14
ATOM     14  C   UNL     1      -9.590  -7.001  -2.391  1.00  0.00     0.177 C 
BRANCH  14  15
ATOM     15  C   UNL     1      -8.216  -6.473  -2.849  1.00  0.00     0.038 C 
BRANCH  15  16
ATOM     16  C   UNL     1      -7.988  -6.138  -4.339  1.00  0.00    -0.015 C 
ATOM     17  C   UNL     1      -7.240  -7.250  -5.080  1.00  0.00     0.007 C 
ATOM     18  C   UNL     1      -7.171  -4.845  -4.461  1.00  0.00     0.007 C 
ENDBRANCH  15  16
ENDBRANCH  14  15
BRANCH  14  19
ATOM     19  C   UNL     1      -9.822  -8.262  -1.488  1.00  0.00     0.245 C 
ATOM     20  O   UNL     1     -10.251  -9.282  -2.053  1.00  0.00    -0.272 OA
BRANCH  19  21
ATOM     21  N   UNL     1      -9.685  -8.260  -0.112  1.00  0.00    -0.332 N 
ATOM     22  C   UNL     1     -10.775  -8.187   0.844  1.00  0.00     0.147 C 
BRANCH  21  23
ATOM     23  C   UNL     1      -8.307  -8.329   0.451  1.00  0.00     0.178 C 
BRANCH  23  24
ATOM     24  C   UNL     1      -7.243  -8.891  -0.514  1.00  0.00     0.070 C 
BRANCH  24  25
ATOM     25  C   UNL     1      -6.651 -10.239  -0.175  1.00  0.00    -0.045 A 
ATOM     26  C   UNL     1      -7.166 -11.004   0.879  1.00  0.00     0.004 A 
ATOM     27  C   UNL     1      -5.569 -10.742  -0.913  1.00  0.00     0.004 A 
ATOM     28  C   UNL     1      -6.601 -12.242   1.197  1.00  0.00     0.000 A 
ATOM     29  C   UNL     1      -5.007 -11.980  -0.595  1.00  0.00     0.000 A 
ATOM     30  C   UNL     1      -5.522 -12.727   0.462  1.00  0.00     0.000 A 
ENDBRANCH  24  25
ENDBRANCH  23  24
BRANCH  23  31
ATOM     31  C   UNL     1      -7.894  -7.036   1.194  1.00  0.00     0.243 C 
ATOM     32  O   UNL     1      -8.570  -6.501   2.070  1.00  0.00    -0.273 OA
ATOM     33  N   UNL     1      -6.775  -6.423   0.657  1.00  0.00    -0.341 N 
ATOM     34  H   UNL     1      -6.257  -6.914  -0.075  1.00  0.00     0.164 HD
BRANCH  33  35
ATOM     35  C   UNL     1      -6.273  -5.127   1.124  1.00  0.00     0.194 C 
BRANCH  35  36
ATOM     36  C   UNL     1      -5.618  -4.262   0.011  1.00  0.00     0.017 C 
ATOM     37  C   UNL     1      -6.662  -3.385  -0.703  1.00  0.00     0.010 C 
ATOM     38  C   UNL     1      -4.908  -5.095  -1.063  1.00  0.00     0.010 C 
ENDBRANCH  35  36
BRANCH  35  39
ATOM     39  C   UNL     1      -5.357  -5.256   2.373  1.00  0.00     0.329 C 
ATOM     40  O   UNL     1      -4.311  -5.894   2.393  1.00  0.00    -0.250 OA
BRANCH  39  41
ATOM     41  O   UNL     1      -5.804  -4.506   3.425  1.00  0.00    -0.458 OA
BRANCH  41  42
ATOM     42  C   UNL     1      -6.909  -3.612   3.151  1.00  0.00     0.205 CG0
ATOM     43  C   UNL     1      -6.347  -2.191   3.123  1.00  0.00     0.056 C 
ATOM     44  G   UNL     1      -7.978  -3.802   4.245  1.00  0.00     0.000 G0
ENDBRANCH  41  42
ENDBRANCH  39  41
ENDBRANCH  35  39
ENDBRANCH  33  35
ENDBRANCH  23  31
ENDBRANCH  21  23
ENDBRANCH  19  21
ENDBRANCH  14  19
ENDBRANCH   7  14
ENDBRANCH   2   5
BRANCH   3  45
ATOM     45  C   UNL     1     -11.357  -2.696   2.793  1.00  0.00     0.171 C 
BRANCH  45  46
ATOM     46  N   UNL     1     -10.203  -3.454   3.257  1.00  0.00    -0.342 N 
ATOM     47  C   UNL     1      -9.180  -2.876   3.965  1.00  0.00     0.247 C 
ATOM     48  O   UNL     1      -9.196  -1.697   4.323  1.00  0.00    -0.273 OA
ATOM     49  H   UNL     1     -10.176  -4.446   3.031  1.00  0.00     0.164 HD
BRANCH  47  50
ATOM     50  C   UNL     1      -7.990  -3.801   4.261  1.00  0.00     0.212 CG0
ATOM     51  G   UNL     1      -6.934  -3.569   3.163  1.00  0.00     0.000 G0
BRANCH  50  52
ATOM     52  N   UNL     1      -7.528  -3.427   5.595  1.00  0.00    -0.339 N 
ATOM     53  C   UNL     1      -7.639  -4.249   6.691  1.00  0.00     0.243 C 
ATOM     54  O   UNL     1      -8.187  -5.346   6.642  1.00  0.00    -0.273 OA
ATOM     55  H   UNL     1      -7.165  -2.485   5.723  1.00  0.00     0.164 HD
BRANCH  53  56
ATOM     56  C   UNL     1      -7.161  -3.605   8.008  1.00  0.00     0.182 C 
BRANCH  56  57
ATOM     57  N   UNL     1      -7.755  -2.276   8.190  1.00  0.00    -0.344 N 
ATOM     58  C   UNL     1      -7.991  -1.740   9.432  1.00  0.00     0.220 C 
ATOM     59  O   UNL     1      -7.793  -2.360  10.471  1.00  0.00    -0.275 OA
ATOM     60  H   UNL     1      -7.839  -1.692   7.362  1.00  0.00     0.164 HD
BRANCH  58  61
ATOM     61  C   UNL     1      -8.555  -0.332   9.382  1.00  0.00     0.100 C 
BRANCH  61  62
ATOM     62  C   UNL     1      -9.748  -0.179   8.438  1.00  0.00     0.010 C 
BRANCH  62  63
ATOM     63  C   UNL     1     -11.109  -0.157   9.145  1.00  0.00     0.000 C 
BRANCH  63  64
ATOM     64  C   UNL     1     -11.735  -1.536   9.343  1.00  0.00    -0.003 C 
ATOM     65  C   UNL     1     -11.926  -2.254   8.014  1.00  0.00     0.004 C 
ENDBRANCH  63  64
ENDBRANCH  62  63
ENDBRANCH  61  62
ENDBRANCH  58  61
ENDBRANCH  56  57
BRANCH  56  66
ATOM     66  C   UNL     1      -5.637  -3.572   8.095  1.00  0.00     0.157 C 
BRANCH  66  67
ATOM     67  C   UNL     1      -5.096  -2.237   7.673  1.00  0.00     0.305 C 
ATOM     68  O   UNL     1      -5.080  -1.777   6.541  1.00  0.00    -0.252 OA
BRANCH  67  69
ATOM     69  O   UNL     1      -4.645  -1.514   8.716  1.00  0.00    -0.481 OA
ATOM     70  H   UNL     1      -5.147  -0.673   8.674  1.00  0.00     0.296 HD
ENDBRANCH  67  69
ENDBRANCH  66  67
ENDBRANCH  56  66
ENDBRANCH  53  56
ENDBRANCH  50  52
ENDBRANCH  47  50
ENDBRANCH  45  46
BRANCH  45  71
ATOM     71  C   UNL     1     -12.675  -3.362   3.206  1.00  0.00     0.037 C 
BRANCH  71  72
ATOM     72  C   UNL     1     -12.647  -3.838   4.661  1.00  0.00     0.026 C 
BRANCH  72  73
ATOM     73  C   UNL     1     -12.850  -5.348   4.760  1.00  0.00     0.146 C 
BRANCH  73  74
ATOM     74  N   UNL     1     -11.639  -5.995   4.263  1.00  0.00    -0.254 NA
ATOM     75  C   UNL     1     -10.824  -6.482   5.124  1.00  0.00     0.185 C 
ATOM     76  N   UNL     1      -9.702  -7.085   4.697  1.00  0.00    -0.370 N 
ATOM     77  N   UNL     1     -10.915  -6.488   6.465  1.00  0.00    -0.370 N 
ATOM     78  H   UNL     1      -9.551  -7.117   3.699  1.00  0.00     0.159 HD
ATOM     79  H   UNL     1      -8.953  -7.358   5.309  1.00  0.00     0.159 HD
ATOM     80  H   UNL     1     -11.710  -6.073   6.928  1.00  0.00     0.159 HD
ATOM     81  H   UNL     1     -10.267  -7.005   7.036  1.00  0.00     0.159 HD
ENDBRANCH  73  74
ENDBRANCH  72  73
ENDBRANCH  71  72
ENDBRANCH  45  71
ENDBRANCH   3  45
TORSDOF 20
ENDMDL
MODEL 6
REMARK VINA RESULT:    -5.308     16.112     20.806
REMARK INTER + INTRA:         -20.209
REMARK INTER:                 -13.681
REMARK INTRA:                  -6.528
REMARK UNBOUND:                -4.972
REMARK SMILES CCCCCC(=O)N[C@H](CC(=O)O)C(=O)N[C@H]1C(=O)N[C@H](CCCN=C(N)N)C(=O)N[C@@H]2CC[C@H](O)N(C2=O)[C@@H](CC(C)C)C(=O)N(C)[C@@H](Cc2ccccc2)C(=O)N[C@H](C(C)C)C(=O)O[C@@H]1C
REMARK SMILES IDX 30 1 31 2 29 3 32 5 35 6 37 7 34 8 38 9 33 10 39 11 36 12
REMARK SMILES IDX 40 14 41 15 42 16 43 17 44 18 45 19 46 20 47 21 48 22 49 23
REMARK SMILES IDX 50 24 51 25 52 26 56 27 53 28 55 29 54 30 57 31 58 32 59 33
REMARK SMILES IDX 60 35 61 36 62 37 63 38 64 39 65 40 66 41 67 42 68 43 21 45
REMARK SMILES IDX 20 46 18 47 19 48 17 50 16 52 14 53 15 54 9 56 8 57 6 58
REMARK SMILES IDX 7 59 5 61 4 62 3 63 2 64 1 65 10 66 11 67 12 68 13 69 22 71
REMARK SMILES IDX 23 72 24 73 25 74 26 75 27 76 28 77
REMARK H PARENT 31 4 36 13 59 34 20 49 16 55 8 60 13 70 27 78 27 79 28 80
REMARK H PARENT 28 81
REMARK Flexibility Score:  259.900
ROOT
ATOM      1  O   UNL     1      11.484   6.656   5.829  1.00  0.00    -0.273 OA
ATOM      2  N   UNL     1      10.012   4.918   6.043  1.00  0.00    -0.343 N 
ATOM      3  C   UNL     1      10.744   5.975   6.540  1.00  0.00     0.243 C 
ATOM      4  H   UNL     1       9.403   4.390   6.655  1.00  0.00     0.164 HD
ENDROOT
BRANCH   2   5
ATOM      5  C   UNL     1      10.179   4.485   4.661  1.00  0.00     0.171 C 
ATOM      6  C   UNL     1       8.388   3.207   2.773  1.00  0.00     0.214 C 
ATOM      7  N   UNL     1       9.228   2.391   3.619  1.00  0.00    -0.303 N 
ATOM      8  C   UNL     1       9.000   4.558   2.441  1.00  0.00     0.057 C 
ATOM      9  C   UNL     1      10.068   2.935   4.576  1.00  0.00     0.247 C 
ATOM     10  C   UNL     1       9.305   5.310   3.718  1.00  0.00     0.040 C 
ATOM     11  O   UNL     1      10.720   2.228   5.356  1.00  0.00    -0.272 OA
BRANCH   6  12
ATOM     12  O   UNL     1       7.151   3.373   3.427  1.00  0.00    -0.373 OA
ATOM     13  H   UNL     1       6.960   2.534   3.898  1.00  0.00     0.213 HD
ENDBRANCH   6  12
BRANCH   7  14
ATOM     14  C   UNL     1       9.051   0.927   3.527  1.00  0.00     0.177 C 
BRANCH  14  15
ATOM     15  C   UNL     1       8.155   0.305   4.616  1.00  0.00     0.038 C 
BRANCH  15  16
ATOM     16  C   UNL     1       8.470  -1.113   5.143  1.00  0.00    -0.015 C 
ATOM     17  C   UNL     1       7.409  -1.620   6.124  1.00  0.00     0.007 C 
ATOM     18  C   UNL     1       9.826  -1.109   5.861  1.00  0.00     0.007 C 
ENDBRANCH  15  16
ENDBRANCH  14  15
BRANCH  14  19
ATOM     19  C   UNL     1       9.113   0.464   2.031  1.00  0.00     0.245 C 
ATOM     20  O   UNL     1      10.134   0.771   1.393  1.00  0.00    -0.272 OA
BRANCH  19  21
ATOM     21  N   UNL     1       8.067  -0.155   1.371  1.00  0.00    -0.332 N 
ATOM     22  C   UNL     1       6.759   0.429   1.130  1.00  0.00     0.147 C 
BRANCH  21  23
ATOM     23  C   UNL     1       8.282  -1.540   0.869  1.00  0.00     0.178 C 
BRANCH  23  24
ATOM     24  C   UNL     1       7.709  -2.651   1.773  1.00  0.00     0.070 C 
BRANCH  24  25
ATOM     25  C   UNL     1       8.692  -3.423   2.622  1.00  0.00    -0.045 A 
ATOM     26  C   UNL     1      10.070  -3.203   2.503  1.00  0.00     0.004 A 
ATOM     27  C   UNL     1       8.235  -4.378   3.542  1.00  0.00     0.004 A 
ATOM     28  C   UNL     1      10.973  -3.933   3.280  1.00  0.00     0.000 A 
ATOM     29  C   UNL     1       9.138  -5.106   4.318  1.00  0.00     0.000 A 
ATOM     30  C   UNL     1      10.507  -4.884   4.184  1.00  0.00     0.000 A 
ENDBRANCH  24  25
ENDBRANCH  23  24
BRANCH  23  31
ATOM     31  C   UNL     1       7.960  -1.694  -0.637  1.00  0.00     0.243 C 
ATOM     32  O   UNL     1       8.475  -1.017  -1.522  1.00  0.00    -0.273 OA
ATOM     33  N   UNL     1       6.894  -2.541  -0.890  1.00  0.00    -0.341 N 
ATOM     34  H   UNL     1       6.502  -3.075  -0.110  1.00  0.00     0.164 HD
BRANCH  33  35
ATOM     35  C   UNL     1       6.337  -2.746  -2.230  1.00  0.00     0.194 C 
BRANCH  35  36
ATOM     36  C   UNL     1       5.043  -1.931  -2.511  1.00  0.00     0.017 C 
ATOM     37  C   UNL     1       5.320  -0.750  -3.457  1.00  0.00     0.010 C 
ATOM     38  C   UNL     1       4.401  -1.360  -1.241  1.00  0.00     0.010 C 
ENDBRANCH  35  36
BRANCH  35  39
ATOM     39  C   UNL     1       6.164  -4.250  -2.583  1.00  0.00     0.329 C 
ATOM     40  O   UNL     1       6.854  -5.148  -2.116  1.00  0.00    -0.250 OA
BRANCH  39  41
ATOM     41  O   UNL     1       5.096  -4.470  -3.408  1.00  0.00    -0.458 OA
BRANCH  41  42
ATOM     42  C   UNL     1       5.275  -5.476  -4.434  1.00  0.00     0.205 CG0
ATOM     43  C   UNL     1       5.585  -4.744  -5.738  1.00  0.00     0.056 C 
ATOM     44  G   UNL     1       3.990  -6.322  -4.523  1.00  0.00     0.000 G0
ENDBRANCH  41  42
ENDBRANCH  39  41
ENDBRANCH  35  39
ENDBRANCH  33  35
ENDBRANCH  23  31
ENDBRANCH  21  23
ENDBRANCH  19  21
ENDBRANCH  14  19
ENDBRANCH   7  14
ENDBRANCH   2   5
BRANCH   3  45
ATOM     45  C   UNL     1      10.556   6.259   8.037  1.00  0.00     0.171 C 
BRANCH  45  46
ATOM     46  N   UNL     1       9.490   7.248   8.120  1.00  0.00    -0.342 N 
ATOM     47  C   UNL     1       9.151   7.869   9.295  1.00  0.00     0.247 C 
ATOM     48  O   UNL     1       9.768   7.692  10.346  1.00  0.00    -0.273 OA
ATOM     49  H   UNL     1       8.989   7.466   7.260  1.00  0.00     0.164 HD
BRANCH  47  50
ATOM     50  C   UNL     1       7.923   8.787   9.216  1.00  0.00     0.212 CG0
ATOM     51  G   UNL     1       8.266   9.944   8.258  1.00  0.00     0.000 G0
BRANCH  50  52
ATOM     52  N   UNL     1       6.835   7.940   8.732  1.00  0.00    -0.339 N 
ATOM     53  C   UNL     1       6.083   7.135   9.552  1.00  0.00     0.243 C 
ATOM     54  O   UNL     1       6.303   7.024  10.755  1.00  0.00    -0.273 OA
ATOM     55  H   UNL     1       6.675   7.904   7.728  1.00  0.00     0.164 HD
BRANCH  53  56
ATOM     56  C   UNL     1       5.049   6.269   8.804  1.00  0.00     0.182 C 
BRANCH  56  57
ATOM     57  N   UNL     1       5.168   6.443   7.353  1.00  0.00    -0.344 N 
ATOM     58  C   UNL     1       6.181   5.869   6.624  1.00  0.00     0.220 C 
ATOM     59  O   UNL     1       7.094   5.234   7.141  1.00  0.00    -0.275 OA
ATOM     60  H   UNL     1       4.381   6.873   6.875  1.00  0.00     0.164 HD
BRANCH  58  61
ATOM     61  C   UNL     1       6.074   6.133   5.133  1.00  0.00     0.100 C 
BRANCH  61  62
ATOM     62  C   UNL     1       6.981   7.260   4.640  1.00  0.00     0.010 C 
BRANCH  62  63
ATOM     63  C   UNL     1       6.519   8.664   5.052  1.00  0.00     0.000 C 
BRANCH  63  64
ATOM     64  C   UNL     1       5.666   9.375   4.002  1.00  0.00    -0.003 C 
ATOM     65  C   UNL     1       4.184   9.283   4.335  1.00  0.00     0.004 C 
ENDBRANCH  63  64
ENDBRANCH  62  63
ENDBRANCH  61  62
ENDBRANCH  58  61
ENDBRANCH  56  57
BRANCH  56  66
ATOM     66  C   UNL     1       3.630   6.535   9.302  1.00  0.00     0.157 C 
BRANCH  66  67
ATOM     67  C   UNL     1       2.653   6.579   8.163  1.00  0.00     0.305 C 
ATOM     68  O   UNL     1       2.105   5.625   7.631  1.00  0.00    -0.252 OA
BRANCH  67  69
ATOM     69  O   UNL     1       2.371   7.838   7.778  1.00  0.00    -0.481 OA
ATOM     70  H   UNL     1       1.446   7.800   7.455  1.00  0.00     0.296 HD
ENDBRANCH  67  69
ENDBRANCH  66  67
ENDBRANCH  56  66
ENDBRANCH  53  56
ENDBRANCH  50  52
ENDBRANCH  47  50
ENDBRANCH  45  46
BRANCH  45  71
ATOM     71  C   UNL     1      11.860   6.781   8.649  1.00  0.00     0.037 C 
BRANCH  71  72
ATOM     72  C   UNL     1      12.460   5.794   9.654  1.00  0.00     0.026 C 
BRANCH  72  73
ATOM     73  C   UNL     1      11.907   4.385   9.455  1.00  0.00     0.146 C 
BRANCH  73  74
ATOM     74  N   UNL     1      12.814   3.671   8.562  1.00  0.00    -0.254 NA
ATOM     75  C   UNL     1      12.418   2.553   8.075  1.00  0.00     0.185 C 
ATOM     76  N   UNL     1      13.230   1.873   7.249  1.00  0.00    -0.370 N 
ATOM     77  N   UNL     1      11.251   1.913   8.268  1.00  0.00    -0.370 N 
ATOM     78  H   UNL     1      14.133   2.282   7.056  1.00  0.00     0.159 HD
ATOM     79  H   UNL     1      13.050   0.931   6.947  1.00  0.00     0.159 HD
ATOM     80  H   UNL     1      10.540   2.309   8.863  1.00  0.00     0.159 HD
ATOM     81  H   UNL     1      11.005   1.093   7.738  1.00  0.00     0.159 HD
ENDBRANCH  73  74
ENDBRANCH  72  73
ENDBRANCH  71  72
ENDBRANCH  45  71
ENDBRANCH   3  45
TORSDOF 20
ENDMDL
MODEL 7
REMARK VINA RESULT:    -5.125     17.328     21.724
REMARK INTER + INTRA:         -19.683
REMARK INTER:                 -14.679
REMARK INTRA:                  -5.004
REMARK UNBOUND:                -4.972
REMARK SMILES CCCCCC(=O)N[C@H](CC(=O)O)C(=O)N[C@H]1C(=O)N[C@H](CCCN=C(N)N)C(=O)N[C@@H]2CC[C@H](O)N(C2=O)[C@@H](CC(C)C)C(=O)N(C)[C@@H](Cc2ccccc2)C(=O)N[C@H](C(C)C)C(=O)O[C@@H]1C
REMARK SMILES IDX 30 1 31 2 29 3 32 5 35 6 37 7 34 8 38 9 33 10 39 11 36 12
REMARK SMILES IDX 40 14 41 15 42 16 43 17 44 18 45 19 46 20 47 21 48 22 49 23
REMARK SMILES IDX 50 24 51 25 52 26 56 27 53 28 55 29 54 30 57 31 58 32 59 33
REMARK SMILES IDX 60 35 61 36 62 37 63 38 64 39 65 40 66 41 67 42 68 43 21 45
REMARK SMILES IDX 20 46 18 47 19 48 17 50 16 52 14 53 15 54 9 56 8 57 6 58
REMARK SMILES IDX 7 59 5 61 4 62 3 63 2 64 1 65 10 66 11 67 12 68 13 69 22 71
REMARK SMILES IDX 23 72 24 73 25 74 26 75 27 76 28 77
REMARK H PARENT 31 4 36 13 59 34 20 49 16 55 8 60 13 70 27 78 27 79 28 80
REMARK H PARENT 28 81
REMARK Flexibility Score:  259.900
ROOT
ATOM      1  O   UNL     1      10.810   6.990   6.954  1.00  0.00    -0.273 OA
ATOM      2  N   UNL     1       9.193   5.384   6.756  1.00  0.00    -0.343 N 
ATOM      3  C   UNL     1      10.018   6.212   7.487  1.00  0.00     0.243 C 
ATOM      4  H   UNL     1       8.544   4.768   7.228  1.00  0.00     0.164 HD
ENDROOT
BRANCH   2   5
ATOM      5  C   UNL     1       9.313   5.312   5.304  1.00  0.00     0.171 C 
ATOM      6  C   UNL     1       7.621   4.162   3.249  1.00  0.00     0.214 C 
ATOM      7  N   UNL     1       8.666   3.359   3.841  1.00  0.00    -0.303 N 
ATOM      8  C   UNL     1       7.948   5.646   3.218  1.00  0.00     0.057 C 
ATOM      9  C   UNL     1       9.476   3.829   4.862  1.00  0.00     0.247 C 
ATOM     10  C   UNL     1       8.225   6.139   4.622  1.00  0.00     0.040 C 
ATOM     11  O   UNL     1      10.310   3.107   5.423  1.00  0.00    -0.272 OA
BRANCH   6  12
ATOM     12  O   UNL     1       6.437   3.933   3.978  1.00  0.00    -0.373 OA
ATOM     13  H   UNL     1       6.310   4.706   4.570  1.00  0.00     0.213 HD
ENDBRANCH   6  12
BRANCH   7  14
ATOM     14  C   UNL     1       8.747   1.945   3.415  1.00  0.00     0.177 C 
BRANCH  14  15
ATOM     15  C   UNL     1       7.689   1.012   4.032  1.00  0.00     0.038 C 
BRANCH  15  16
ATOM     16  C   UNL     1       6.887   0.059   3.117  1.00  0.00    -0.015 C 
ATOM     17  C   UNL     1       5.639   0.726   2.530  1.00  0.00     0.007 C 
ATOM     18  C   UNL     1       6.443  -1.174   3.914  1.00  0.00     0.007 C 
ENDBRANCH  15  16
ENDBRANCH  14  15
BRANCH  14  19
ATOM     19  C   UNL     1       9.297   1.851   1.950  1.00  0.00     0.245 C 
ATOM     20  O   UNL     1       8.756   2.580   1.101  1.00  0.00    -0.272 OA
BRANCH  19  21
ATOM     21  N   UNL     1      10.252   0.936   1.542  1.00  0.00    -0.332 N 
ATOM     22  C   UNL     1      11.677   1.032   1.806  1.00  0.00     0.147 C 
BRANCH  21  23
ATOM     23  C   UNL     1       9.796  -0.243   0.756  1.00  0.00     0.178 C 
BRANCH  23  24
ATOM     24  C   UNL     1       9.670   0.002  -0.761  1.00  0.00     0.070 C 
BRANCH  24  25
ATOM     25  C   UNL     1       8.318  -0.250  -1.389  1.00  0.00    -0.045 A 
ATOM     26  C   UNL     1       7.141  -0.078  -0.650  1.00  0.00     0.004 A 
ATOM     27  C   UNL     1       8.226  -0.666  -2.726  1.00  0.00     0.004 A 
ATOM     28  C   UNL     1       5.897  -0.329  -1.233  1.00  0.00     0.000 A 
ATOM     29  C   UNL     1       6.981  -0.916  -3.307  1.00  0.00     0.000 A 
ATOM     30  C   UNL     1       5.818  -0.750  -2.559  1.00  0.00     0.000 A 
ENDBRANCH  24  25
ENDBRANCH  23  24
BRANCH  23  31
ATOM     31  C   UNL     1      10.529  -1.549   1.147  1.00  0.00     0.243 C 
ATOM     32  O   UNL     1      10.493  -2.047   2.269  1.00  0.00    -0.273 OA
ATOM     33  N   UNL     1      11.387  -2.016   0.166  1.00  0.00    -0.341 N 
ATOM     34  H   UNL     1      11.377  -1.555  -0.748  1.00  0.00     0.164 HD
BRANCH  33  35
ATOM     35  C   UNL     1      12.271  -3.168   0.361  1.00  0.00     0.194 C 
BRANCH  35  36
ATOM     36  C   UNL     1      13.709  -2.795   0.820  1.00  0.00     0.017 C 
ATOM     37  C   UNL     1      13.883  -2.997   2.335  1.00  0.00     0.010 C 
ATOM     38  C   UNL     1      14.086  -1.342   0.504  1.00  0.00     0.010 C 
ENDBRANCH  35  36
BRANCH  35  39
ATOM     39  C   UNL     1      12.283  -4.126  -0.863  1.00  0.00     0.329 C 
ATOM     40  O   UNL     1      11.276  -4.615  -1.362  1.00  0.00    -0.250 OA
BRANCH  39  41
ATOM     41  O   UNL     1      13.539  -4.295  -1.379  1.00  0.00    -0.458 OA
BRANCH  41  42
ATOM     42  C   UNL     1      13.924  -5.654  -1.694  1.00  0.00     0.205 CG0
ATOM     43  C   UNL     1      14.307  -5.687  -3.172  1.00  0.00     0.056 C 
ATOM     44  G   UNL     1      12.742  -6.589  -1.370  1.00  0.00     0.000 G0
ENDBRANCH  41  42
ENDBRANCH  39  41
ENDBRANCH  35  39
ENDBRANCH  33  35
ENDBRANCH  23  31
ENDBRANCH  21  23
ENDBRANCH  19  21
ENDBRANCH  14  19
ENDBRANCH   7  14
ENDBRANCH   2   5
BRANCH   3  45
ATOM     45  C   UNL     1       9.865   6.113   9.011  1.00  0.00     0.171 C 
BRANCH  45  46
ATOM     46  N   UNL     1       8.734   6.967   9.349  1.00  0.00    -0.342 N 
ATOM     47  C   UNL     1       8.865   8.318   9.549  1.00  0.00     0.247 C 
ATOM     48  O   UNL     1       9.928   8.918   9.386  1.00  0.00    -0.273 OA
ATOM     49  H   UNL     1       7.824   6.519   9.439  1.00  0.00     0.164 HD
BRANCH  47  50
ATOM     50  C   UNL     1       7.590   9.032  10.021  1.00  0.00     0.212 CG0
ATOM     51  G   UNL     1       7.495  10.369   9.259  1.00  0.00     0.000 G0
BRANCH  50  52
ATOM     52  N   UNL     1       6.495   8.115   9.717  1.00  0.00    -0.339 N 
ATOM     53  C   UNL     1       6.075   7.128  10.575  1.00  0.00     0.243 C 
ATOM     54  O   UNL     1       6.628   6.906  11.649  1.00  0.00    -0.273 OA
ATOM     55  H   UNL     1       6.069   8.177   8.794  1.00  0.00     0.164 HD
BRANCH  53  56
ATOM     56  C   UNL     1       4.961   6.230  10.002  1.00  0.00     0.182 C 
BRANCH  56  57
ATOM     57  N   UNL     1       4.778   6.470   8.567  1.00  0.00    -0.344 N 
ATOM     58  C   UNL     1       5.425   5.729   7.608  1.00  0.00     0.220 C 
ATOM     59  O   UNL     1       6.253   4.867   7.882  1.00  0.00    -0.275 OA
ATOM     60  H   UNL     1       4.028   7.101   8.298  1.00  0.00     0.164 HD
BRANCH  58  61
ATOM     61  C   UNL     1       5.040   6.112   6.191  1.00  0.00     0.100 C 
BRANCH  61  62
ATOM     62  C   UNL     1       5.228   7.597   5.881  1.00  0.00     0.010 C 
BRANCH  62  63
ATOM     63  C   UNL     1       4.365   8.111   4.722  1.00  0.00     0.000 C 
BRANCH  63  64
ATOM     64  C   UNL     1       4.908   9.368   4.045  1.00  0.00    -0.003 C 
ATOM     65  C   UNL     1       6.429   9.393   4.059  1.00  0.00     0.004 C 
ENDBRANCH  63  64
ENDBRANCH  62  63
ENDBRANCH  61  62
ENDBRANCH  58  61
ENDBRANCH  56  57
BRANCH  56  66
ATOM     66  C   UNL     1       3.658   6.385  10.783  1.00  0.00     0.157 C 
BRANCH  66  67
ATOM     67  C   UNL     1       3.096   7.770  10.634  1.00  0.00     0.305 C 
ATOM     68  O   UNL     1       3.402   8.598   9.789  1.00  0.00    -0.252 OA
BRANCH  67  69
ATOM     69  O   UNL     1       2.128   8.029  11.534  1.00  0.00    -0.481 OA
ATOM     70  H   UNL     1       2.608   8.283  12.351  1.00  0.00     0.296 HD
ENDBRANCH  67  69
ENDBRANCH  66  67
ENDBRANCH  56  66
ENDBRANCH  53  56
ENDBRANCH  50  52
ENDBRANCH  47  50
ENDBRANCH  45  46
BRANCH  45  71
ATOM     71  C   UNL     1      11.150   6.574   9.707  1.00  0.00     0.037 C 
BRANCH  71  72
ATOM     72  C   UNL     1      11.600   5.595  10.794  1.00  0.00     0.026 C 
BRANCH  72  73
ATOM     73  C   UNL     1      12.396   4.432  10.206  1.00  0.00     0.146 C 
BRANCH  73  74
ATOM     74  N   UNL     1      11.653   3.203  10.466  1.00  0.00    -0.254 NA
ATOM     75  C   UNL     1      11.330   2.474   9.463  1.00  0.00     0.185 C 
ATOM     76  N   UNL     1      10.647   1.337   9.671  1.00  0.00    -0.370 N 
ATOM     77  N   UNL     1      11.581   2.674   8.157  1.00  0.00    -0.370 N 
ATOM     78  H   UNL     1      10.410   1.114  10.627  1.00  0.00     0.159 HD
ATOM     79  H   UNL     1      10.237   0.794   8.931  1.00  0.00     0.159 HD
ATOM     80  H   UNL     1      12.092   3.489   7.851  1.00  0.00     0.159 HD
ATOM     81  H   UNL     1      11.378   1.971   7.466  1.00  0.00     0.159 HD
ENDBRANCH  73  74
ENDBRANCH  72  73
ENDBRANCH  71  72
ENDBRANCH  45  71
ENDBRANCH   3  45
TORSDOF 20
ENDMDL
MODEL 8
REMARK VINA RESULT:    -5.054     16.219     20.835
REMARK INTER + INTRA:         -19.480
REMARK INTER:                 -12.381
REMARK INTRA:                  -7.099
REMARK UNBOUND:                -4.972
REMARK SMILES CCCCCC(=O)N[C@H](CC(=O)O)C(=O)N[C@H]1C(=O)N[C@H](CCCN=C(N)N)C(=O)N[C@@H]2CC[C@H](O)N(C2=O)[C@@H](CC(C)C)C(=O)N(C)[C@@H](Cc2ccccc2)C(=O)N[C@H](C(C)C)C(=O)O[C@@H]1C
REMARK SMILES IDX 30 1 31 2 29 3 32 5 35 6 37 7 34 8 38 9 33 10 39 11 36 12
REMARK SMILES IDX 40 14 41 15 42 16 43 17 44 18 45 19 46 20 47 21 48 22 49 23
REMARK SMILES IDX 50 24 51 25 52 26 56 27 53 28 55 29 54 30 57 31 58 32 59 33
REMARK SMILES IDX 60 35 61 36 62 37 63 38 64 39 65 40 66 41 67 42 68 43 21 45
REMARK SMILES IDX 20 46 18 47 19 48 17 50 16 52 14 53 15 54 9 56 8 57 6 58
REMARK SMILES IDX 7 59 5 61 4 62 3 63 2 64 1 65 10 66 11 67 12 68 13 69 22 71
REMARK SMILES IDX 23 72 24 73 25 74 26 75 27 76 28 77
REMARK H PARENT 31 4 36 13 59 34 20 49 16 55 8 60 13 70 27 78 27 79 28 80
REMARK H PARENT 28 81
REMARK Flexibility Score:  259.900
ROOT
ATOM      1  O   UNL     1      10.803   7.121   6.991  1.00  0.00    -0.273 OA
ATOM      2  N   UNL     1       8.911   5.838   7.052  1.00  0.00    -0.343 N 
ATOM      3  C   UNL     1       9.972   6.488   7.644  1.00  0.00     0.243 C 
ATOM      4  H   UNL     1       8.238   5.339   7.622  1.00  0.00     0.164 HD
ENDROOT
BRANCH   2   5
ATOM      5  C   UNL     1       8.795   5.774   5.599  1.00  0.00     0.171 C 
ATOM      6  C   UNL     1       7.187   4.139   3.826  1.00  0.00     0.214 C 
ATOM      7  N   UNL     1       8.506   3.688   4.206  1.00  0.00    -0.303 N 
ATOM      8  C   UNL     1       7.056   5.653   3.787  1.00  0.00     0.057 C 
ATOM      9  C   UNL     1       9.306   4.396   5.089  1.00  0.00     0.247 C 
ATOM     10  C   UNL     1       7.413   6.233   5.138  1.00  0.00     0.040 C 
ATOM     11  O   UNL     1      10.398   3.961   5.478  1.00  0.00    -0.272 OA
BRANCH   6  12
ATOM     12  O   UNL     1       6.265   3.588   4.737  1.00  0.00    -0.373 OA
ATOM     13  H   UNL     1       5.384   3.613   4.305  1.00  0.00     0.213 HD
ENDBRANCH   6  12
BRANCH   7  14
ATOM     14  C   UNL     1       8.922   2.353   3.728  1.00  0.00     0.177 C 
BRANCH  14  15
ATOM     15  C   UNL     1       8.512   1.175   4.633  1.00  0.00     0.038 C 
BRANCH  15  16
ATOM     16  C   UNL     1       9.410  -0.081   4.701  1.00  0.00    -0.015 C 
ATOM     17  C   UNL     1       8.894  -1.113   5.708  1.00  0.00     0.007 C 
ATOM     18  C   UNL     1      10.833   0.320   5.110  1.00  0.00     0.007 C 
ENDBRANCH  15  16
ENDBRANCH  14  15
BRANCH  14  19
ATOM     19  C   UNL     1       8.958   2.324   2.161  1.00  0.00     0.245 C 
ATOM     20  O   UNL     1       8.769   3.404   1.577  1.00  0.00    -0.272 OA
BRANCH  19  21
ATOM     21  N   UNL     1       9.075   1.165   1.414  1.00  0.00    -0.332 N 
ATOM     22  C   UNL     1      10.322   0.505   1.070  1.00  0.00     0.147 C 
BRANCH  21  23
ATOM     23  C   UNL     1       7.824   0.537   0.905  1.00  0.00     0.178 C 
BRANCH  23  24
ATOM     24  C   UNL     1       6.528   1.055   1.561  1.00  0.00     0.070 C 
BRANCH  24  25
ATOM     25  C   UNL     1       5.920   0.203   2.650  1.00  0.00    -0.045 A 
ATOM     26  C   UNL     1       6.297  -1.137   2.808  1.00  0.00     0.004 A 
ATOM     27  C   UNL     1       4.960   0.744   3.519  1.00  0.00     0.004 A 
ATOM     28  C   UNL     1       5.718  -1.923   3.807  1.00  0.00     0.000 A 
ATOM     29  C   UNL     1       4.383  -0.042   4.517  1.00  0.00     0.000 A 
ATOM     30  C   UNL     1       4.760  -1.376   4.658  1.00  0.00     0.000 A 
ENDBRANCH  24  25
ENDBRANCH  23  24
BRANCH  23  31
ATOM     31  C   UNL     1       7.781   0.444  -0.639  1.00  0.00     0.243 C 
ATOM     32  O   UNL     1       7.995   1.392  -1.390  1.00  0.00    -0.273 OA
ATOM     33  N   UNL     1       7.295  -0.765  -1.107  1.00  0.00    -0.341 N 
ATOM     34  H   UNL     1       7.129  -1.515  -0.432  1.00  0.00     0.164 HD
BRANCH  33  35
ATOM     35  C   UNL     1       7.055  -1.033  -2.528  1.00  0.00     0.194 C 
BRANCH  35  36
ATOM     36  C   UNL     1       5.564  -1.301  -2.881  1.00  0.00     0.017 C 
ATOM     37  C   UNL     1       5.306  -1.123  -4.387  1.00  0.00     0.010 C 
ATOM     38  C   UNL     1       4.592  -0.377  -2.137  1.00  0.00     0.010 C 
ENDBRANCH  35  36
BRANCH  35  39
ATOM     39  C   UNL     1       7.992  -2.136  -3.095  1.00  0.00     0.329 C 
ATOM     40  O   UNL     1       7.927  -3.319  -2.783  1.00  0.00    -0.250 OA
BRANCH  39  41
ATOM     41  O   UNL     1       8.845  -1.653  -4.048  1.00  0.00    -0.458 OA
BRANCH  41  42
ATOM     42  C   UNL     1       9.075  -2.507  -5.195  1.00  0.00     0.205 CG0
ATOM     43  C   UNL     1      10.199  -1.876  -6.013  1.00  0.00     0.056 C 
ATOM     44  G   UNL     1       7.760  -2.625  -5.991  1.00  0.00     0.000 G0
ENDBRANCH  41  42
ENDBRANCH  39  41
ENDBRANCH  35  39
ENDBRANCH  33  35
ENDBRANCH  23  31
ENDBRANCH  21  23
ENDBRANCH  19  21
ENDBRANCH  14  19
ENDBRANCH   7  14
ENDBRANCH   2   5
BRANCH   3  45
ATOM     45  C   UNL     1      10.034   6.387   9.173  1.00  0.00     0.171 C 
BRANCH  45  46
ATOM     46  N   UNL     1       8.869   7.111   9.664  1.00  0.00    -0.342 N 
ATOM     47  C   UNL     1       8.811   8.481   9.692  1.00  0.00     0.247 C 
ATOM     48  O   UNL     1       9.706   9.197   9.240  1.00  0.00    -0.273 OA
ATOM     49  H   UNL     1       8.082   6.556   9.996  1.00  0.00     0.164 HD
BRANCH  47  50
ATOM     50  C   UNL     1       7.557   9.066  10.357  1.00  0.00     0.212 CG0
ATOM     51  G   UNL     1       7.421  10.530   9.892  1.00  0.00     0.000 G0
BRANCH  50  52
ATOM     52  N   UNL     1       6.452   8.217   9.919  1.00  0.00    -0.339 N 
ATOM     53  C   UNL     1       6.009   7.127  10.629  1.00  0.00     0.243 C 
ATOM     54  O   UNL     1       6.546   6.751  11.667  1.00  0.00    -0.273 OA
ATOM     55  H   UNL     1       6.038   8.411   9.010  1.00  0.00     0.164 HD
BRANCH  53  56
ATOM     56  C   UNL     1       4.889   6.334   9.927  1.00  0.00     0.182 C 
BRANCH  56  57
ATOM     57  N   UNL     1       5.439   5.445   8.898  1.00  0.00    -0.344 N 
ATOM     58  C   UNL     1       5.544   4.087   9.078  1.00  0.00     0.220 C 
ATOM     59  O   UNL     1       5.255   3.533  10.133  1.00  0.00    -0.275 OA
ATOM     60  H   UNL     1       5.594   5.847   7.978  1.00  0.00     0.164 HD
BRANCH  58  61
ATOM     61  C   UNL     1       6.086   3.359   7.862  1.00  0.00     0.100 C 
BRANCH  61  62
ATOM     62  C   UNL     1       6.133   1.840   8.023  1.00  0.00     0.010 C 
BRANCH  62  63
ATOM     63  C   UNL     1       7.546   1.272   8.205  1.00  0.00     0.000 C 
BRANCH  63  64
ATOM     64  C   UNL     1       8.657   2.318   8.130  1.00  0.00    -0.003 C 
ATOM     65  C   UNL     1      10.008   1.721   8.495  1.00  0.00     0.004 C 
ENDBRANCH  63  64
ENDBRANCH  62  63
ENDBRANCH  61  62
ENDBRANCH  58  61
ENDBRANCH  56  57
BRANCH  56  66
ATOM     66  C   UNL     1       3.810   7.261   9.371  1.00  0.00     0.157 C 
BRANCH  66  67
ATOM     67  C   UNL     1       3.549   6.982   7.918  1.00  0.00     0.305 C 
ATOM     68  O   UNL     1       4.151   7.449   6.963  1.00  0.00    -0.252 OA
BRANCH  67  69
ATOM     69  O   UNL     1       2.566   6.080   7.739  1.00  0.00    -0.481 OA
ATOM     70  H   UNL     1       3.011   5.299   7.348  1.00  0.00     0.296 HD
ENDBRANCH  67  69
ENDBRANCH  66  67
ENDBRANCH  56  66
ENDBRANCH  53  56
ENDBRANCH  50  52
ENDBRANCH  47  50
ENDBRANCH  45  46
BRANCH  45  71
ATOM     71  C   UNL     1      11.340   6.997   9.696  1.00  0.00     0.037 C 
BRANCH  71  72
ATOM     72  C   UNL     1      11.994   6.123  10.769  1.00  0.00     0.026 C 
BRANCH  72  73
ATOM     73  C   UNL     1      11.198   6.144  12.072  1.00  0.00     0.146 C 
BRANCH  73  74
ATOM     74  N   UNL     1      10.953   7.539  12.423  1.00  0.00    -0.254 NA
ATOM     75  C   UNL     1       9.878   7.816  13.065  1.00  0.00     0.185 C 
ATOM     76  N   UNL     1       9.625   9.090  13.404  1.00  0.00    -0.370 N 
ATOM     77  N   UNL     1       8.905   6.986  13.480  1.00  0.00    -0.370 N 
ATOM     78  H   UNL     1      10.306   9.782  13.123  1.00  0.00     0.159 HD
ATOM     79  H   UNL     1       8.745   9.400  13.775  1.00  0.00     0.159 HD
ATOM     80  H   UNL     1       8.962   5.995  13.298  1.00  0.00     0.159 HD
ATOM     81  H   UNL     1       8.160   7.303  14.079  1.00  0.00     0.159 HD
ENDBRANCH  73  74
ENDBRANCH  72  73
ENDBRANCH  71  72
ENDBRANCH  45  71
ENDBRANCH   3  45
TORSDOF 20
ENDMDL
MODEL 9
REMARK VINA RESULT:    -4.766     11.563     15.911
REMARK INTER + INTRA:         -18.655
REMARK INTER:                 -11.745
REMARK INTRA:                  -6.910
REMARK UNBOUND:                -4.972
REMARK SMILES CCCCCC(=O)N[C@H](CC(=O)O)C(=O)N[C@H]1C(=O)N[C@H](CCCN=C(N)N)C(=O)N[C@@H]2CC[C@H](O)N(C2=O)[C@@H](CC(C)C)C(=O)N(C)[C@@H](Cc2ccccc2)C(=O)N[C@H](C(C)C)C(=O)O[C@@H]1C
REMARK SMILES IDX 30 1 31 2 29 3 32 5 35 6 37 7 34 8 38 9 33 10 39 11 36 12
REMARK SMILES IDX 40 14 41 15 42 16 43 17 44 18 45 19 46 20 47 21 48 22 49 23
REMARK SMILES IDX 50 24 51 25 52 26 56 27 53 28 55 29 54 30 57 31 58 32 59 33
REMARK SMILES IDX 60 35 61 36 62 37 63 38 64 39 65 40 66 41 67 42 68 43 21 45
REMARK SMILES IDX 20 46 18 47 19 48 17 50 16 52 14 53 15 54 9 56 8 57 6 58
REMARK SMILES IDX 7 59 5 61 4 62 3 63 2 64 1 65 10 66 11 67 12 68 13 69 22 71
REMARK SMILES IDX 23 72 24 73 25 74 26 75 27 76 28 77
REMARK H PARENT 31 4 36 13 59 34 20 49 16 55 8 60 13 70 27 78 27 79 28 80
REMARK H PARENT 28 81
REMARK Flexibility Score:  259.900
ROOT
ATOM      1  O   UNL     1       2.281   4.963   7.724  1.00  0.00    -0.273 OA
ATOM      2  N   UNL     1       3.362   3.149   8.603  1.00  0.00    -0.343 N 
ATOM      3  C   UNL     1       2.328   3.747   7.916  1.00  0.00     0.243 C 
ATOM      4  H   UNL     1       3.374   2.145   8.729  1.00  0.00     0.164 HD
ENDROOT
BRANCH   2   5
ATOM      5  C   UNL     1       4.395   3.958   9.241  1.00  0.00     0.171 C 
ATOM      6  C   UNL     1       5.085   6.767   9.055  1.00  0.00     0.214 C 
ATOM      7  N   UNL     1       5.719   5.820   8.168  1.00  0.00    -0.303 N 
ATOM      8  C   UNL     1       4.700   6.169  10.399  1.00  0.00     0.057 C 
ATOM      9  C   UNL     1       5.399   4.472   8.170  1.00  0.00     0.247 C 
ATOM     10  C   UNL     1       3.780   4.986  10.188  1.00  0.00     0.040 C 
ATOM     11  O   UNL     1       5.883   3.682   7.349  1.00  0.00    -0.272 OA
BRANCH   6  12
ATOM     12  O   UNL     1       3.947   7.276   8.399  1.00  0.00    -0.373 OA
ATOM     13  H   UNL     1       3.175   6.768   8.726  1.00  0.00     0.213 HD
ENDBRANCH   6  12
BRANCH   7  14
ATOM     14  C   UNL     1       6.631   6.369   7.142  1.00  0.00     0.177 C 
BRANCH  14  15
ATOM     15  C   UNL     1       6.139   7.653   6.446  1.00  0.00     0.038 C 
BRANCH  15  16
ATOM     16  C   UNL     1       5.678   7.591   4.973  1.00  0.00    -0.015 C 
ATOM     17  C   UNL     1       6.835   7.789   3.990  1.00  0.00     0.007 C 
ATOM     18  C   UNL     1       4.632   8.682   4.711  1.00  0.00     0.007 C 
ENDBRANCH  15  16
ENDBRANCH  14  15
BRANCH  14  19
ATOM     19  C   UNL     1       8.121   6.053   7.514  1.00  0.00     0.245 C 
ATOM     20  O   UNL     1       8.429   6.145   8.714  1.00  0.00    -0.272 OA
BRANCH  19  21
ATOM     21  N   UNL     1       9.110   5.794   6.583  1.00  0.00    -0.332 N 
ATOM     22  C   UNL     1      10.397   6.462   6.512  1.00  0.00     0.147 C 
BRANCH  21  23
ATOM     23  C   UNL     1       8.841   4.752   5.553  1.00  0.00     0.178 C 
BRANCH  23  24
ATOM     24  C   UNL     1       9.565   4.971   4.209  1.00  0.00     0.070 C 
BRANCH  24  25
ATOM     25  C   UNL     1       8.855   4.503   2.960  1.00  0.00    -0.045 A 
ATOM     26  C   UNL     1       7.458   4.554   2.867  1.00  0.00     0.004 A 
ATOM     27  C   UNL     1       9.589   4.003   1.874  1.00  0.00     0.004 A 
ATOM     28  C   UNL     1       6.808   4.104   1.716  1.00  0.00     0.000 A 
ATOM     29  C   UNL     1       8.937   3.555   0.724  1.00  0.00     0.000 A 
ATOM     30  C   UNL     1       7.547   3.603   0.647  1.00  0.00     0.000 A 
ENDBRANCH  24  25
ENDBRANCH  23  24
BRANCH  23  31
ATOM     31  C   UNL     1       8.928   3.313   6.114  1.00  0.00     0.243 C 
ATOM     32  O   UNL     1       9.827   2.916   6.850  1.00  0.00    -0.273 OA
ATOM     33  N   UNL     1       7.998   2.448   5.563  1.00  0.00    -0.341 N 
ATOM     34  H   UNL     1       7.276   2.837   4.951  1.00  0.00     0.164 HD
BRANCH  33  35
ATOM     35  C   UNL     1       7.971   1.012   5.855  1.00  0.00     0.194 C 
BRANCH  35  36
ATOM     36  C   UNL     1       8.199   0.106   4.613  1.00  0.00     0.017 C 
ATOM     37  C   UNL     1       8.984  -1.164   4.983  1.00  0.00     0.010 C 
ATOM     38  C   UNL     1       8.966   0.808   3.486  1.00  0.00     0.010 C 
ENDBRANCH  35  36
BRANCH  35  39
ATOM     39  C   UNL     1       6.709   0.589   6.658  1.00  0.00     0.329 C 
ATOM     40  O   UNL     1       6.706   0.361   7.862  1.00  0.00    -0.250 OA
BRANCH  39  41
ATOM     41  O   UNL     1       5.579   0.584   5.887  1.00  0.00    -0.458 OA
BRANCH  41  42
ATOM     42  C   UNL     1       4.597  -0.433   6.195  1.00  0.00     0.205 CG0
ATOM     43  C   UNL     1       5.089  -1.741   5.581  1.00  0.00     0.056 C 
ATOM     44  G   UNL     1       3.235   0.010   5.624  1.00  0.00     0.000 G0
ENDBRANCH  41  42
ENDBRANCH  39  41
ENDBRANCH  35  39
ENDBRANCH  33  35
ENDBRANCH  23  31
ENDBRANCH  21  23
ENDBRANCH  19  21
ENDBRANCH  14  19
ENDBRANCH   7  14
ENDBRANCH   2   5
BRANCH   3  45
ATOM     45  C   UNL     1       1.250   2.791   7.388  1.00  0.00     0.171 C 
BRANCH  45  46
ATOM     46  N   UNL     1       1.921   1.940   6.415  1.00  0.00    -0.342 N 
ATOM     47  C   UNL     1       2.427   0.706   6.740  1.00  0.00     0.247 C 
ATOM     48  O   UNL     1       2.287   0.200   7.854  1.00  0.00    -0.273 OA
ATOM     49  H   UNL     1       2.009   2.297   5.465  1.00  0.00     0.164 HD
BRANCH  47  50
ATOM     50  C   UNL     1       3.209   0.008   5.619  1.00  0.00     0.212 CG0
ATOM     51  G   UNL     1       4.575  -0.415   6.196  1.00  0.00     0.000 G0
BRANCH  50  52
ATOM     52  N   UNL     1       2.380  -1.123   5.212  1.00  0.00    -0.339 N 
ATOM     53  C   UNL     1       1.301  -1.004   4.370  1.00  0.00     0.243 C 
ATOM     54  O   UNL     1       0.917   0.078   3.934  1.00  0.00    -0.273 OA
ATOM     55  H   UNL     1       2.580  -2.030   5.628  1.00  0.00     0.164 HD
BRANCH  53  56
ATOM     56  C   UNL     1       0.527  -2.320   4.152  1.00  0.00     0.182 C 
BRANCH  56  57
ATOM     57  N   UNL     1      -0.872  -2.056   3.800  1.00  0.00    -0.344 N 
ATOM     58  C   UNL     1      -1.362  -2.254   2.532  1.00  0.00     0.220 C 
ATOM     59  O   UNL     1      -0.651  -2.594   1.592  1.00  0.00    -0.275 OA
ATOM     60  H   UNL     1      -1.513  -1.872   4.567  1.00  0.00     0.164 HD
BRANCH  58  61
ATOM     61  C   UNL     1      -2.848  -1.973   2.410  1.00  0.00     0.100 C 
BRANCH  61  62
ATOM     62  C   UNL     1      -3.717  -2.851   3.311  1.00  0.00     0.010 C 
BRANCH  62  63
ATOM     63  C   UNL     1      -4.166  -2.169   4.609  1.00  0.00     0.000 C 
BRANCH  63  64
ATOM     64  C   UNL     1      -5.667  -1.899   4.689  1.00  0.00    -0.003 C 
ATOM     65  C   UNL     1      -6.086  -1.501   6.097  1.00  0.00     0.004 C 
ENDBRANCH  63  64
ENDBRANCH  62  63
ENDBRANCH  61  62
ENDBRANCH  58  61
ENDBRANCH  56  57
BRANCH  56  66
ATOM     66  C   UNL     1       0.652  -3.249   5.358  1.00  0.00     0.157 C 
BRANCH  66  67
ATOM     67  C   UNL     1      -0.696  -3.576   5.935  1.00  0.00     0.305 C 
ATOM     68  O   UNL     1      -1.322  -2.919   6.752  1.00  0.00    -0.252 OA
BRANCH  67  69
ATOM     69  O   UNL     1      -1.217  -4.701   5.410  1.00  0.00    -0.481 OA
ATOM     70  H   UNL     1      -2.126  -4.453   5.139  1.00  0.00     0.296 HD
ENDBRANCH  67  69
ENDBRANCH  66  67
ENDBRANCH  56  66
ENDBRANCH  53  56
ENDBRANCH  50  52
ENDBRANCH  47  50
ENDBRANCH  45  46
BRANCH  45  71
ATOM     71  C   UNL     1       0.101   3.581   6.751  1.00  0.00     0.037 C 
BRANCH  71  72
ATOM     72  C   UNL     1      -1.235   2.841   6.856  1.00  0.00     0.026 C 
BRANCH  72  73
ATOM     73  C   UNL     1      -1.425   2.222   8.239  1.00  0.00     0.146 C 
BRANCH  73  74
ATOM     74  N   UNL     1      -1.347   0.771   8.094  1.00  0.00    -0.254 NA
ATOM     75  C   UNL     1      -0.704   0.114   8.986  1.00  0.00     0.185 C 
ATOM     76  N   UNL     1      -0.616  -1.222   8.881  1.00  0.00    -0.370 N 
ATOM     77  N   UNL     1      -0.064   0.572  10.077  1.00  0.00    -0.370 N 
ATOM     78  H   UNL     1      -1.065  -1.649   8.083  1.00  0.00     0.159 HD
ATOM     79  H   UNL     1      -0.013  -1.785   9.455  1.00  0.00     0.159 HD
ATOM     80  H   UNL     1      -0.050   1.558  10.287  1.00  0.00     0.159 HD
ATOM     81  H   UNL     1       0.310  -0.054  10.771  1.00  0.00     0.159 HD
ENDBRANCH  73  74
ENDBRANCH  72  73
ENDBRANCH  71  72
ENDBRANCH  45  71
ENDBRANCH   3  45
TORSDOF 20
ENDMDL
MODEL 10
REMARK VINA RESULT:    -4.723     10.984     15.168
REMARK INTER + INTRA:         -18.532
REMARK INTER:                 -12.379
REMARK INTRA:                  -6.152
REMARK UNBOUND:                -4.972
REMARK SMILES CCCCCC(=O)N[C@H](CC(=O)O)C(=O)N[C@H]1C(=O)N[C@H](CCCN=C(N)N)C(=O)N[C@@H]2CC[C@H](O)N(C2=O)[C@@H](CC(C)C)C(=O)N(C)[C@@H](Cc2ccccc2)C(=O)N[C@H](C(C)C)C(=O)O[C@@H]1C
REMARK SMILES IDX 30 1 31 2 29 3 32 5 35 6 37 7 34 8 38 9 33 10 39 11 36 12
REMARK SMILES IDX 40 14 41 15 42 16 43 17 44 18 45 19 46 20 47 21 48 22 49 23
REMARK SMILES IDX 50 24 51 25 52 26 56 27 53 28 55 29 54 30 57 31 58 32 59 33
REMARK SMILES IDX 60 35 61 36 62 37 63 38 64 39 65 40 66 41 67 42 68 43 21 45
REMARK SMILES IDX 20 46 18 47 19 48 17 50 16 52 14 53 15 54 9 56 8 57 6 58
REMARK SMILES IDX 7 59 5 61 4 62 3 63 2 64 1 65 10 66 11 67 12 68 13 69 22 71
REMARK SMILES IDX 23 72 24 73 25 74 26 75 27 76 28 77
REMARK H PARENT 31 4 36 13 59 34 20 49 16 55 8 60 13 70 27 78 27 79 28 80
REMARK H PARENT 28 81
REMARK Flexibility Score:  259.900
ROOT
ATOM      1  O   UNL     1       2.059   4.272   7.693  1.00  0.00    -0.273 OA
ATOM      2  N   UNL     1       2.658   2.915   9.434  1.00  0.00    -0.343 N 
ATOM      3  C   UNL     1       1.939   3.204   8.294  1.00  0.00     0.243 C 
ATOM      4  H   UNL     1       2.545   2.020   9.894  1.00  0.00     0.164 HD
ENDROOT
BRANCH   2   5
ATOM      5  C   UNL     1       3.514   3.925  10.048  1.00  0.00     0.171 C 
ATOM      6  C   UNL     1       4.166   6.654   9.318  1.00  0.00     0.214 C 
ATOM      7  N   UNL     1       4.995   5.573   8.839  1.00  0.00    -0.303 N 
ATOM      8  C   UNL     1       3.515   6.364  10.662  1.00  0.00     0.057 C 
ATOM      9  C   UNL     1       4.711   4.244   9.108  1.00  0.00     0.247 C 
ATOM     10  C   UNL     1       2.688   5.101  10.568  1.00  0.00     0.040 C 
ATOM     11  O   UNL     1       5.377   3.320   8.622  1.00  0.00    -0.272 OA
BRANCH   6  12
ATOM     12  O   UNL     1       3.183   6.909   8.341  1.00  0.00    -0.373 OA
ATOM     13  H   UNL     1       3.320   6.258   7.619  1.00  0.00     0.213 HD
ENDBRANCH   6  12
BRANCH   7  14
ATOM     14  C   UNL     1       6.093   5.929   7.915  1.00  0.00     0.177 C 
BRANCH  14  15
ATOM     15  C   UNL     1       7.507   5.564   8.406  1.00  0.00     0.038 C 
BRANCH  15  16
ATOM     16  C   UNL     1       8.376   6.639   9.095  1.00  0.00    -0.015 C 
ATOM     17  C   UNL     1       7.685   8.005   9.143  1.00  0.00     0.007 C 
ATOM     18  C   UNL     1       9.702   6.797   8.341  1.00  0.00     0.007 C 
ENDBRANCH  15  16
ENDBRANCH  14  15
BRANCH  14  19
ATOM     19  C   UNL     1       5.600   5.852   6.430  1.00  0.00     0.245 C 
ATOM     20  O   UNL     1       4.478   5.353   6.238  1.00  0.00    -0.272 OA
BRANCH  19  21
ATOM     21  N   UNL     1       6.378   6.199   5.340  1.00  0.00    -0.332 N 
ATOM     22  C   UNL     1       6.830   7.541   5.019  1.00  0.00     0.147 C 
BRANCH  21  23
ATOM     23  C   UNL     1       6.785   5.115   4.402  1.00  0.00     0.178 C 
BRANCH  23  24
ATOM     24  C   UNL     1       7.729   5.564   3.268  1.00  0.00     0.070 C 
BRANCH  24  25
ATOM     25  C   UNL     1       8.096   4.530   2.229  1.00  0.00    -0.045 A 
ATOM     26  C   UNL     1       9.382   3.974   2.192  1.00  0.00     0.004 A 
ATOM     27  C   UNL     1       7.151   4.114   1.280  1.00  0.00     0.004 A 
ATOM     28  C   UNL     1       9.718   3.032   1.218  1.00  0.00     0.000 A 
ATOM     29  C   UNL     1       7.488   3.171   0.307  1.00  0.00     0.000 A 
ATOM     30  C   UNL     1       8.773   2.633   0.276  1.00  0.00     0.000 A 
ENDBRANCH  24  25
ENDBRANCH  23  24
BRANCH  23  31
ATOM     31  C   UNL     1       7.210   3.817   5.129  1.00  0.00     0.243 C 
ATOM     32  O   UNL     1       8.323   3.635   5.617  1.00  0.00    -0.273 OA
ATOM     33  N   UNL     1       6.283   2.794   5.021  1.00  0.00    -0.341 N 
ATOM     34  H   UNL     1       5.375   3.004   4.599  1.00  0.00     0.164 HD
BRANCH  33  35
ATOM     35  C   UNL     1       6.524   1.441   5.529  1.00  0.00     0.194 C 
BRANCH  35  36
ATOM     36  C   UNL     1       7.411   0.563   4.601  1.00  0.00     0.017 C 
ATOM     37  C   UNL     1       7.080   0.805   3.118  1.00  0.00     0.010 C 
ATOM     38  C   UNL     1       7.261  -0.940   4.866  1.00  0.00     0.010 C 
ENDBRANCH  35  36
BRANCH  35  39
ATOM     39  C   UNL     1       5.213   0.712   5.936  1.00  0.00     0.329 C 
ATOM     40  O   UNL     1       5.075   0.076   6.974  1.00  0.00    -0.250 OA
BRANCH  39  41
ATOM     41  O   UNL     1       4.198   0.932   5.046  1.00  0.00    -0.458 OA
BRANCH  41  42
ATOM     42  C   UNL     1       3.350  -0.202   4.747  1.00  0.00     0.205 CG0
ATOM     43  C   UNL     1       3.905  -0.863   3.487  1.00  0.00     0.056 C 
ATOM     44  G   UNL     1       1.904   0.299   4.562  1.00  0.00     0.000 G0
ENDBRANCH  41  42
ENDBRANCH  39  41
ENDBRANCH  35  39
ENDBRANCH  33  35
ENDBRANCH  23  31
ENDBRANCH  21  23
ENDBRANCH  19  21
ENDBRANCH  14  19
ENDBRANCH   7  14
ENDBRANCH   2   5
BRANCH   3  45
ATOM     45  C   UNL     1       0.995   2.093   7.814  1.00  0.00     0.171 C 
BRANCH  45  46
ATOM     46  N   UNL     1       1.440   1.753   6.469  1.00  0.00    -0.342 N 
ATOM     47  C   UNL     1       1.253   0.507   5.925  1.00  0.00     0.247 C 
ATOM     48  O   UNL     1       0.634  -0.388   6.502  1.00  0.00    -0.273 OA
ATOM     49  H   UNL     1       1.908   2.482   5.934  1.00  0.00     0.164 HD
BRANCH  47  50
ATOM     50  C   UNL     1       1.897   0.295   4.548  1.00  0.00     0.212 CG0
ATOM     51  G   UNL     1       3.343  -0.187   4.778  1.00  0.00     0.000 G0
BRANCH  50  52
ATOM     52  N   UNL     1       1.059  -0.693   3.874  1.00  0.00    -0.339 N 
ATOM     53  C   UNL     1      -0.063  -0.366   3.152  1.00  0.00     0.243 C 
ATOM     54  O   UNL     1      -0.481   0.785   3.063  1.00  0.00    -0.273 OA
ATOM     55  H   UNL     1       1.291  -1.676   4.003  1.00  0.00     0.164 HD
BRANCH  53  56
ATOM     56  C   UNL     1      -0.834  -1.585   2.605  1.00  0.00     0.182 C 
BRANCH  56  57
ATOM     57  N   UNL     1      -2.237  -1.554   3.028  1.00  0.00    -0.344 N 
ATOM     58  C   UNL     1      -3.268  -1.889   2.184  1.00  0.00     0.220 C 
ATOM     59  O   UNL     1      -3.095  -2.165   1.002  1.00  0.00    -0.275 OA
ATOM     60  H   UNL     1      -2.416  -1.430   4.021  1.00  0.00     0.164 HD
BRANCH  58  61
ATOM     61  C   UNL     1      -4.631  -1.842   2.851  1.00  0.00     0.100 C 
BRANCH  61  62
ATOM     62  C   UNL     1      -4.573  -1.934   4.376  1.00  0.00     0.010 C 
BRANCH  62  63
ATOM     63  C   UNL     1      -5.938  -2.145   5.044  1.00  0.00     0.000 C 
BRANCH  63  64
ATOM     64  C   UNL     1      -6.055  -1.533   6.439  1.00  0.00    -0.003 C 
ATOM     65  C   UNL     1      -6.995  -2.341   7.322  1.00  0.00     0.004 C 
ENDBRANCH  63  64
ENDBRANCH  62  63
ENDBRANCH  61  62
ENDBRANCH  58  61
ENDBRANCH  56  57
BRANCH  56  66
ATOM     66  C   UNL     1      -0.147  -2.897   2.980  1.00  0.00     0.157 C 
BRANCH  66  67
ATOM     67  C   UNL     1      -0.776  -3.511   4.198  1.00  0.00     0.305 C 
ATOM     68  O   UNL     1      -0.687  -3.111   5.349  1.00  0.00    -0.252 OA
BRANCH  67  69
ATOM     69  O   UNL     1      -1.537  -4.580   3.896  1.00  0.00    -0.481 OA
ATOM     70  H   UNL     1      -1.001  -5.097   3.258  1.00  0.00     0.296 HD
ENDBRANCH  67  69
ENDBRANCH  66  67
ENDBRANCH  56  66
ENDBRANCH  53  56
ENDBRANCH  50  52
ENDBRANCH  47  50
ENDBRANCH  45  46
BRANCH  45  71
ATOM     71  C   UNL     1      -0.456   2.586   7.822  1.00  0.00     0.037 C 
BRANCH  71  72
ATOM     72  C   UNL     1      -1.351   1.725   8.716  1.00  0.00     0.026 C 
BRANCH  72  73
ATOM     73  C   UNL     1      -0.535   0.958   9.755  1.00  0.00     0.146 C 
BRANCH  73  74
ATOM     74  N   UNL     1      -0.281   1.857  10.876  1.00  0.00    -0.254 NA
ATOM     75  C   UNL     1       0.571   1.487  11.760  1.00  0.00     0.185 C 
ATOM     76  N   UNL     1       0.827   2.294  12.803  1.00  0.00    -0.370 N 
ATOM     77  N   UNL     1       1.293   0.355  11.815  1.00  0.00    -0.370 N 
ATOM     78  H   UNL     1       0.319   3.166  12.842  1.00  0.00     0.159 HD
ATOM     79  H   UNL     1       1.367   2.011  13.602  1.00  0.00     0.159 HD
ATOM     80  H   UNL     1       1.207  -0.345  11.093  1.00  0.00     0.159 HD
ATOM     81  H   UNL     1       2.019   0.224  12.500  1.00  0.00     0.159 HD
ENDBRANCH  73  74
ENDBRANCH  72  73
ENDBRANCH  71  72
ENDBRANCH  45  71
ENDBRANCH   3  45
TORSDOF 20
ENDMDL
