MODEL 1
REMARK VINA RESULT:    -5.889      0.000      0.000
REMARK INTER + INTRA:         -24.351
REMARK INTER:                 -16.906
REMARK INTRA:                  -7.444
REMARK UNBOUND:                -7.444
REMARK SMILES CCCCCC(=O)N[C@H](CC(=O)O)C(=O)N[C@H]1C(=O)N[C@H](CCCN=C(N)N)C(=O)N[C@@H]2CC[C@H](O)N(C2=O)[C@@H](CC(C)C)C(=O)N(C)[C@@H](Cc2ccccc2)C(=O)N[C@H](C(C)C)C(=O)O[C@@H]1C
REMARK SMILES IDX 30 1 31 2 29 3 32 5 35 6 37 7 34 8 38 9 33 10 39 11 36 12
REMARK SMILES IDX 40 14 41 15 42 16 43 17 44 18 45 19 46 20 47 21 48 22 49 23
REMARK SMILES IDX 50 24 51 25 52 26 56 27 53 28 55 29 54 30 57 31 58 32 59 33
REMARK SMILES IDX 60 35 61 36 62 37 63 38 64 39 65 40 66 41 67 42 68 43 21 45
REMARK SMILES IDX 20 46 18 47 19 48 17 50 16 52 14 53 15 54 9 56 8 57 6 58
REMARK SMILES IDX 7 59 5 61 4 62 3 63 2 64 1 65 10 66 11 67 12 68 13 69 22 71
REMARK SMILES IDX 23 72 24 73 25 74 26 75 27 76 28 77
REMARK H PARENT 31 4 36 13 59 34 20 49 16 55 8 60 13 70 27 78 27 79 28 80
REMARK H PARENT 28 81
REMARK Flexibility Score:  259.900
ROOT
ATOM      1  O   UNL     1       1.961   4.839   9.396  1.00  0.00    -0.273 OA
ATOM      2  N   UNL     1       4.215   4.456   9.327  1.00  0.00    -0.343 N 
ATOM      3  C   UNL     1       2.980   4.408   9.937  1.00  0.00     0.243 C 
ATOM      4  H   UNL     1       5.029   4.078   9.795  1.00  0.00     0.164 HD
ENDROOT
BRANCH   2   5
ATOM      5  C   UNL     1       4.385   5.136   8.047  1.00  0.00     0.171 C 
ATOM      6  C   UNL     1       6.682   5.539   6.326  1.00  0.00     0.214 C 
ATOM      7  N   UNL     1       6.371   6.522   7.337  1.00  0.00    -0.303 N 
ATOM      8  C   UNL     1       5.457   4.812   5.796  1.00  0.00     0.057 C 
ATOM      9  C   UNL     1       5.319   6.367   8.225  1.00  0.00     0.247 C 
ATOM     10  C   UNL     1       4.724   4.142   6.938  1.00  0.00     0.040 C 
ATOM     11  O   UNL     1       5.112   7.172   9.143  1.00  0.00    -0.272 OA
BRANCH   6  12
ATOM     12  O   UNL     1       7.595   4.622   6.884  1.00  0.00    -0.373 OA
ATOM     13  H   UNL     1       8.137   5.117   7.535  1.00  0.00     0.213 HD
ENDBRANCH   6  12
BRANCH   7  14
ATOM     14  C   UNL     1       7.316   7.649   7.489  1.00  0.00     0.177 C 
BRANCH  14  15
ATOM     15  C   UNL     1       8.722   7.263   7.987  1.00  0.00     0.038 C 
BRANCH  15  16
ATOM     16  C   UNL     1       9.030   7.299   9.501  1.00  0.00    -0.015 C 
ATOM     17  C   UNL     1       8.239   8.388  10.232  1.00  0.00     0.007 C 
ATOM     18  C   UNL     1      10.525   7.563   9.720  1.00  0.00     0.007 C 
ENDBRANCH  15  16
ENDBRANCH  14  15
BRANCH  14  19
ATOM     19  C   UNL     1       7.002   8.768   6.437  1.00  0.00     0.245 C 
ATOM     20  O   UNL     1       5.945   9.401   6.593  1.00  0.00    -0.272 OA
BRANCH  19  21
ATOM     21  N   UNL     1       7.768   9.003   5.309  1.00  0.00    -0.332 N 
ATOM     22  C   UNL     1       7.752   8.202   4.098  1.00  0.00     0.147 C 
BRANCH  21  23
ATOM     23  C   UNL     1       8.699  10.164   5.329  1.00  0.00     0.178 C 
BRANCH  23  24
ATOM     24  C   UNL     1      10.127   9.839   5.813  1.00  0.00     0.070 C 
BRANCH  24  25
ATOM     25  C   UNL     1      10.544  10.396   7.154  1.00  0.00    -0.045 A 
ATOM     26  C   UNL     1      11.873  10.307   7.587  1.00  0.00     0.004 A 
ATOM     27  C   UNL     1       9.598  11.009   7.990  1.00  0.00     0.004 A 
ATOM     28  C   UNL     1      12.246  10.810   8.836  1.00  0.00     0.000 A 
ATOM     29  C   UNL     1       9.973  11.512   9.237  1.00  0.00     0.000 A 
ATOM     30  C   UNL     1      11.296  11.409   9.660  1.00  0.00     0.000 A 
ENDBRANCH  24  25
ENDBRANCH  23  24
BRANCH  23  31
ATOM     31  C   UNL     1       8.627  11.019   4.041  1.00  0.00     0.243 C 
ATOM     32  O   UNL     1       7.604  11.566   3.637  1.00  0.00    -0.273 OA
ATOM     33  N   UNL     1       9.779  10.963   3.275  1.00  0.00    -0.341 N 
ATOM     34  H   UNL     1      10.597  10.487   3.663  1.00  0.00     0.164 HD
BRANCH  33  35
ATOM     35  C   UNL     1       9.894  11.597   1.959  1.00  0.00     0.194 C 
BRANCH  35  36
ATOM     36  C   UNL     1      10.103  10.596   0.788  1.00  0.00     0.017 C 
ATOM     37  C   UNL     1       9.769  11.243  -0.567  1.00  0.00     0.010 C 
ATOM     38  C   UNL     1       9.247   9.330   0.915  1.00  0.00     0.010 C 
ENDBRANCH  35  36
BRANCH  35  39
ATOM     39  C   UNL     1      10.944  12.743   1.937  1.00  0.00     0.329 C 
ATOM     40  O   UNL     1      10.672  13.926   2.099  1.00  0.00    -0.250 OA
BRANCH  39  41
ATOM     41  O   UNL     1      12.222  12.274   1.803  1.00  0.00    -0.458 OA
BRANCH  41  42
ATOM     42  C   UNL     1      13.050  12.942   0.820  1.00  0.00     0.205 CG0
ATOM     43  C   UNL     1      14.153  11.965   0.418  1.00  0.00     0.056 C 
ATOM     44  G   UNL     1      13.607  14.236   1.445  1.00  0.00     0.000 G0
ENDBRANCH  41  42
ENDBRANCH  39  41
ENDBRANCH  35  39
ENDBRANCH  33  35
ENDBRANCH  23  31
ENDBRANCH  21  23
ENDBRANCH  19  21
ENDBRANCH  14  19
ENDBRANCH   7  14
ENDBRANCH   2   5
BRANCH   3  45
ATOM     45  C   UNL     1       2.960   3.760  11.328  1.00  0.00     0.171 C 
BRANCH  45  46
ATOM     46  N   UNL     1       2.610   2.363  11.107  1.00  0.00    -0.342 N 
ATOM     47  C   UNL     1       3.542   1.357  11.138  1.00  0.00     0.247 C 
ATOM     48  O   UNL     1       4.724   1.549  11.425  1.00  0.00    -0.273 OA
ATOM     49  H   UNL     1       1.631   2.152  10.921  1.00  0.00     0.164 HD
BRANCH  47  50
ATOM     50  C   UNL     1       3.011  -0.033  10.759  1.00  0.00     0.212 CG0
ATOM     51  G   UNL     1       2.937  -0.873  12.050  1.00  0.00     0.000 G0
BRANCH  50  52
ATOM     52  N   UNL     1       1.705   0.202  10.148  1.00  0.00    -0.339 N 
ATOM     53  C   UNL     1       0.517  -0.130  10.753  1.00  0.00     0.243 C 
ATOM     54  O   UNL     1       0.464  -0.701  11.838  1.00  0.00    -0.273 OA
ATOM     55  H   UNL     1       1.687   0.572   9.200  1.00  0.00     0.164 HD
BRANCH  53  56
ATOM     56  C   UNL     1      -0.726   0.134   9.879  1.00  0.00     0.182 C 
BRANCH  56  57
ATOM     57  N   UNL     1      -1.088   1.555   9.894  1.00  0.00    -0.344 N 
ATOM     58  C   UNL     1      -1.017   2.344   8.772  1.00  0.00     0.220 C 
ATOM     59  O   UNL     1      -0.579   1.937   7.701  1.00  0.00    -0.275 OA
ATOM     60  H   UNL     1      -1.550   1.904  10.729  1.00  0.00     0.164 HD
BRANCH  58  61
ATOM     61  C   UNL     1      -1.496   3.765   9.004  1.00  0.00     0.100 C 
BRANCH  61  62
ATOM     62  C   UNL     1      -1.434   4.204  10.467  1.00  0.00     0.010 C 
BRANCH  62  63
ATOM     63  C   UNL     1      -1.601   5.715  10.677  1.00  0.00     0.000 C 
BRANCH  63  64
ATOM     64  C   UNL     1      -2.232   6.096  12.015  1.00  0.00    -0.003 C 
ATOM     65  C   UNL     1      -3.125   4.983  12.545  1.00  0.00     0.004 C 
ENDBRANCH  63  64
ENDBRANCH  62  63
ENDBRANCH  61  62
ENDBRANCH  58  61
ENDBRANCH  56  57
BRANCH  56  66
ATOM     66  C   UNL     1      -1.895  -0.763  10.284  1.00  0.00     0.157 C 
BRANCH  66  67
ATOM     67  C   UNL     1      -3.207  -0.049  10.130  1.00  0.00     0.305 C 
ATOM     68  O   UNL     1      -3.878   0.451  11.020  1.00  0.00    -0.252 OA
BRANCH  67  69
ATOM     69  O   UNL     1      -3.589   0.047   8.842  1.00  0.00    -0.481 OA
ATOM     70  H   UNL     1      -3.396   0.975   8.593  1.00  0.00     0.296 HD
ENDBRANCH  67  69
ENDBRANCH  66  67
ENDBRANCH  56  66
ENDBRANCH  53  56
ENDBRANCH  50  52
ENDBRANCH  47  50
ENDBRANCH  45  46
BRANCH  45  71
ATOM     71  C   UNL     1       1.939   4.463  12.229  1.00  0.00     0.037 C 
BRANCH  71  72
ATOM     72  C   UNL     1       1.562   3.613  13.445  1.00  0.00     0.026 C 
BRANCH  72  73
ATOM     73  C   UNL     1       0.053   3.601  13.675  1.00  0.00     0.146 C 
BRANCH  73  74
ATOM     74  N   UNL     1      -0.463   2.324  13.190  1.00  0.00    -0.254 NA
ATOM     75  C   UNL     1      -1.499   1.838  13.769  1.00  0.00     0.185 C 
ATOM     76  N   UNL     1      -1.998   0.666  13.345  1.00  0.00    -0.370 N 
ATOM     77  N   UNL     1      -2.210   2.343  14.792  1.00  0.00    -0.370 N 
ATOM     78  H   UNL     1      -1.516   0.213  12.581  1.00  0.00     0.159 HD
ATOM     79  H   UNL     1      -2.711   0.157  13.837  1.00  0.00     0.159 HD
ATOM     80  H   UNL     1      -1.953   3.224  15.211  1.00  0.00     0.159 HD
ATOM     81  H   UNL     1      -3.078   1.927  15.088  1.00  0.00     0.159 HD
ENDBRANCH  73  74
ENDBRANCH  72  73
ENDBRANCH  71  72
ENDBRANCH  45  71
ENDBRANCH   3  45
TORSDOF 20
ENDMDL
MODEL 2
REMARK VINA RESULT:    -5.885      4.594      6.704
REMARK INTER + INTRA:         -24.339
REMARK INTER:                 -18.157
REMARK INTRA:                  -6.182
REMARK UNBOUND:                -7.444
REMARK SMILES CCCCCC(=O)N[C@H](CC(=O)O)C(=O)N[C@H]1C(=O)N[C@H](CCCN=C(N)N)C(=O)N[C@@H]2CC[C@H](O)N(C2=O)[C@@H](CC(C)C)C(=O)N(C)[C@@H](Cc2ccccc2)C(=O)N[C@H](C(C)C)C(=O)O[C@@H]1C
REMARK SMILES IDX 30 1 31 2 29 3 32 5 35 6 37 7 34 8 38 9 33 10 39 11 36 12
REMARK SMILES IDX 40 14 41 15 42 16 43 17 44 18 45 19 46 20 47 21 48 22 49 23
REMARK SMILES IDX 50 24 51 25 52 26 56 27 53 28 55 29 54 30 57 31 58 32 59 33
REMARK SMILES IDX 60 35 61 36 62 37 63 38 64 39 65 40 66 41 67 42 68 43 21 45
REMARK SMILES IDX 20 46 18 47 19 48 17 50 16 52 14 53 15 54 9 56 8 57 6 58
REMARK SMILES IDX 7 59 5 61 4 62 3 63 2 64 1 65 10 66 11 67 12 68 13 69 22 71
REMARK SMILES IDX 23 72 24 73 25 74 26 75 27 76 28 77
REMARK H PARENT 31 4 36 13 59 34 20 49 16 55 8 60 13 70 27 78 27 79 28 80
REMARK H PARENT 28 81
REMARK Flexibility Score:  259.900
ROOT
ATOM      1  O   UNL     1       3.881   5.324   8.173  1.00  0.00    -0.273 OA
ATOM      2  N   UNL     1       5.940   5.899   7.360  1.00  0.00    -0.343 N 
ATOM      3  C   UNL     1       5.103   5.366   8.317  1.00  0.00     0.243 C 
ATOM      4  H   UNL     1       6.942   5.903   7.506  1.00  0.00     0.164 HD
ENDROOT
BRANCH   2   5
ATOM      5  C   UNL     1       5.393   6.550   6.175  1.00  0.00     0.171 C 
ATOM      6  C   UNL     1       6.590   7.417   3.681  1.00  0.00     0.214 C 
ATOM      7  N   UNL     1       6.517   8.338   4.792  1.00  0.00    -0.303 N 
ATOM      8  C   UNL     1       5.459   6.402   3.666  1.00  0.00     0.057 C 
ATOM      9  C   UNL     1       6.004   7.973   6.026  1.00  0.00     0.247 C 
ATOM     10  C   UNL     1       5.452   5.622   4.963  1.00  0.00     0.040 C 
ATOM     11  O   UNL     1       6.024   8.740   6.997  1.00  0.00    -0.272 OA
BRANCH   6  12
ATOM     12  O   UNL     1       7.837   6.765   3.745  1.00  0.00    -0.373 OA
ATOM     13  H   UNL     1       8.481   7.409   4.109  1.00  0.00     0.213 HD
ENDBRANCH   6  12
BRANCH   7  14
ATOM     14  C   UNL     1       7.151   9.661   4.609  1.00  0.00     0.177 C 
BRANCH  14  15
ATOM     15  C   UNL     1       8.686   9.641   4.481  1.00  0.00     0.038 C 
BRANCH  15  16
ATOM     16  C   UNL     1       9.365  10.427   3.338  1.00  0.00    -0.015 C 
ATOM     17  C   UNL     1      10.758   9.886   3.003  1.00  0.00     0.007 C 
ATOM     18  C   UNL     1       9.506  11.902   3.736  1.00  0.00     0.007 C 
ENDBRANCH  15  16
ENDBRANCH  14  15
BRANCH  14  19
ATOM     19  C   UNL     1       6.188  10.622   3.829  1.00  0.00     0.245 C 
ATOM     20  O   UNL     1       5.751  11.603   4.454  1.00  0.00    -0.272 OA
BRANCH  19  21
ATOM     21  N   UNL     1       5.723  10.376   2.549  1.00  0.00    -0.332 N 
ATOM     22  C   UNL     1       6.549  10.263   1.360  1.00  0.00     0.147 C 
BRANCH  21  23
ATOM     23  C   UNL     1       4.254  10.224   2.360  1.00  0.00     0.178 C 
BRANCH  23  24
ATOM     24  C   UNL     1       3.500   9.665   3.584  1.00  0.00     0.070 C 
BRANCH  24  25
ATOM     25  C   UNL     1       2.083   9.189   3.361  1.00  0.00    -0.045 A 
ATOM     26  C   UNL     1       1.018   9.743   4.082  1.00  0.00     0.004 A 
ATOM     27  C   UNL     1       1.816   8.177   2.427  1.00  0.00     0.004 A 
ATOM     28  C   UNL     1      -0.286   9.286   3.883  1.00  0.00     0.000 A 
ATOM     29  C   UNL     1       0.511   7.722   2.227  1.00  0.00     0.000 A 
ATOM     30  C   UNL     1      -0.538   8.275   2.958  1.00  0.00     0.000 A 
ENDBRANCH  24  25
ENDBRANCH  23  24
BRANCH  23  31
ATOM     31  C   UNL     1       3.599  11.460   1.700  1.00  0.00     0.243 C 
ATOM     32  O   UNL     1       3.669  12.599   2.155  1.00  0.00    -0.273 OA
ATOM     33  N   UNL     1       2.764  11.145   0.642  1.00  0.00    -0.341 N 
ATOM     34  H   UNL     1       2.744  10.177   0.311  1.00  0.00     0.164 HD
BRANCH  33  35
ATOM     35  C   UNL     1       1.948  12.142  -0.057  1.00  0.00     0.194 C 
BRANCH  35  36
ATOM     36  C   UNL     1       0.438  12.096   0.310  1.00  0.00     0.017 C 
ATOM     37  C   UNL     1       0.210  12.460   1.788  1.00  0.00     0.010 C 
ATOM     38  C   UNL     1      -0.200  10.722   0.072  1.00  0.00     0.010 C 
ENDBRANCH  35  36
BRANCH  35  39
ATOM     39  C   UNL     1       2.172  12.127  -1.595  1.00  0.00     0.329 C 
ATOM     40  O   UNL     1       2.436  11.120  -2.240  1.00  0.00    -0.250 OA
BRANCH  39  41
ATOM     41  O   UNL     1       1.956  13.352  -2.163  1.00  0.00    -0.458 OA
BRANCH  41  42
ATOM     42  C   UNL     1       2.132  13.433  -3.598  1.00  0.00     0.205 CG0
ATOM     43  C   UNL     1       3.586  13.825  -3.856  1.00  0.00     0.056 C 
ATOM     44  G   UNL     1       1.134  14.466  -4.158  1.00  0.00     0.000 G0
ENDBRANCH  41  42
ENDBRANCH  39  41
ENDBRANCH  35  39
ENDBRANCH  33  35
ENDBRANCH  23  31
ENDBRANCH  21  23
ENDBRANCH  19  21
ENDBRANCH  14  19
ENDBRANCH   7  14
ENDBRANCH   2   5
BRANCH   3  45
ATOM     45  C   UNL     1       5.802   4.809   9.564  1.00  0.00     0.171 C 
BRANCH  45  46
ATOM     46  N   UNL     1       5.039   3.629   9.950  1.00  0.00    -0.342 N 
ATOM     47  C   UNL     1       5.629   2.411  10.174  1.00  0.00     0.247 C 
ATOM     48  O   UNL     1       6.848   2.243  10.138  1.00  0.00    -0.273 OA
ATOM     49  H   UNL     1       4.031   3.738  10.046  1.00  0.00     0.164 HD
BRANCH  47  50
ATOM     50  C   UNL     1       4.654   1.257  10.448  1.00  0.00     0.212 CG0
ATOM     51  G   UNL     1       5.172   0.491  11.682  1.00  0.00     0.000 G0
BRANCH  50  52
ATOM     52  N   UNL     1       3.355   1.887  10.664  1.00  0.00    -0.339 N 
ATOM     53  C   UNL     1       2.446   2.108   9.657  1.00  0.00     0.243 C 
ATOM     54  O   UNL     1       2.680   1.837   8.483  1.00  0.00    -0.273 OA
ATOM     55  H   UNL     1       3.147   2.235  11.597  1.00  0.00     0.164 HD
BRANCH  53  56
ATOM     56  C   UNL     1       1.181   2.866  10.109  1.00  0.00     0.182 C 
BRANCH  56  57
ATOM     57  N   UNL     1       0.196   1.947  10.691  1.00  0.00    -0.344 N 
ATOM     58  C   UNL     1      -0.017   1.858  12.044  1.00  0.00     0.220 C 
ATOM     59  O   UNL     1       0.647   2.484  12.864  1.00  0.00    -0.275 OA
ATOM     60  H   UNL     1      -0.442   1.489  10.046  1.00  0.00     0.164 HD
BRANCH  58  61
ATOM     61  C   UNL     1      -1.122   0.887  12.416  1.00  0.00     0.100 C 
BRANCH  61  62
ATOM     62  C   UNL     1      -2.526   1.392  12.080  1.00  0.00     0.010 C 
BRANCH  62  63
ATOM     63  C   UNL     1      -3.511   0.287  11.681  1.00  0.00     0.000 C 
BRANCH  63  64
ATOM     64  C   UNL     1      -2.977  -0.678  10.623  1.00  0.00    -0.003 C 
ATOM     65  C   UNL     1      -2.970  -0.039   9.242  1.00  0.00     0.004 C 
ENDBRANCH  63  64
ENDBRANCH  62  63
ENDBRANCH  61  62
ENDBRANCH  58  61
ENDBRANCH  56  57
BRANCH  56  66
ATOM     66  C   UNL     1       0.591   3.699   8.973  1.00  0.00     0.157 C 
BRANCH  66  67
ATOM     67  C   UNL     1      -0.582   3.006   8.342  1.00  0.00     0.305 C 
ATOM     68  O   UNL     1      -1.762   3.171   8.610  1.00  0.00    -0.252 OA
BRANCH  67  69
ATOM     69  O   UNL     1      -0.210   2.166   7.357  1.00  0.00    -0.481 OA
ATOM     70  H   UNL     1      -0.102   1.297   7.797  1.00  0.00     0.296 HD
ENDBRANCH  67  69
ENDBRANCH  66  67
ENDBRANCH  56  66
ENDBRANCH  53  56
ENDBRANCH  50  52
ENDBRANCH  47  50
ENDBRANCH  45  46
BRANCH  45  71
ATOM     71  C   UNL     1       5.821   5.860  10.680  1.00  0.00     0.037 C 
BRANCH  71  72
ATOM     72  C   UNL     1       7.052   5.723  11.579  1.00  0.00     0.026 C 
BRANCH  72  73
ATOM     73  C   UNL     1       6.776   4.811  12.772  1.00  0.00     0.146 C 
BRANCH  73  74
ATOM     74  N   UNL     1       5.330   4.758  12.970  1.00  0.00    -0.254 NA
ATOM     75  C   UNL     1       4.837   3.703  13.504  1.00  0.00     0.185 C 
ATOM     76  N   UNL     1       3.510   3.625  13.700  1.00  0.00    -0.370 N 
ATOM     77  N   UNL     1       5.469   2.594  13.925  1.00  0.00    -0.370 N 
ATOM     78  H   UNL     1       2.957   4.417  13.403  1.00  0.00     0.159 HD
ATOM     79  H   UNL     1       3.040   2.782  13.975  1.00  0.00     0.159 HD
ATOM     80  H   UNL     1       6.472   2.512  13.845  1.00  0.00     0.159 HD
ATOM     81  H   UNL     1       4.988   1.873  14.437  1.00  0.00     0.159 HD
ENDBRANCH  73  74
ENDBRANCH  72  73
ENDBRANCH  71  72
ENDBRANCH  45  71
ENDBRANCH   3  45
TORSDOF 20
ENDMDL
MODEL 3
REMARK VINA RESULT:    -5.735      3.471      5.633
REMARK INTER + INTRA:         -23.909
REMARK INTER:                 -18.566
REMARK INTRA:                  -5.343
REMARK UNBOUND:                -7.444
REMARK SMILES CCCCCC(=O)N[C@H](CC(=O)O)C(=O)N[C@H]1C(=O)N[C@H](CCCN=C(N)N)C(=O)N[C@@H]2CC[C@H](O)N(C2=O)[C@@H](CC(C)C)C(=O)N(C)[C@@H](Cc2ccccc2)C(=O)N[C@H](C(C)C)C(=O)O[C@@H]1C
REMARK SMILES IDX 30 1 31 2 29 3 32 5 35 6 37 7 34 8 38 9 33 10 39 11 36 12
REMARK SMILES IDX 40 14 41 15 42 16 43 17 44 18 45 19 46 20 47 21 48 22 49 23
REMARK SMILES IDX 50 24 51 25 52 26 56 27 53 28 55 29 54 30 57 31 58 32 59 33
REMARK SMILES IDX 60 35 61 36 62 37 63 38 64 39 65 40 66 41 67 42 68 43 21 45
REMARK SMILES IDX 20 46 18 47 19 48 17 50 16 52 14 53 15 54 9 56 8 57 6 58
REMARK SMILES IDX 7 59 5 61 4 62 3 63 2 64 1 65 10 66 11 67 12 68 13 69 22 71
REMARK SMILES IDX 23 72 24 73 25 74 26 75 27 76 28 77
REMARK H PARENT 31 4 36 13 59 34 20 49 16 55 8 60 13 70 27 78 27 79 28 80
REMARK H PARENT 28 81
REMARK Flexibility Score:  259.900
ROOT
ATOM      1  O   UNL     1       0.854   3.802  11.098  1.00  0.00    -0.273 OA
ATOM      2  N   UNL     1       3.021   4.421  10.708  1.00  0.00    -0.343 N 
ATOM      3  C   UNL     1       1.952   4.149  11.535  1.00  0.00     0.243 C 
ATOM      4  H   UNL     1       3.914   4.690  11.103  1.00  0.00     0.164 HD
ENDROOT
BRANCH   2   5
ATOM      5  C   UNL     1       2.857   4.425   9.259  1.00  0.00     0.171 C 
ATOM      6  C   UNL     1       4.605   3.643   7.082  1.00  0.00     0.214 C 
ATOM      7  N   UNL     1       4.620   5.010   7.550  1.00  0.00    -0.303 N 
ATOM      8  C   UNL     1       3.255   2.964   7.250  1.00  0.00     0.057 C 
ATOM      9  C   UNL     1       3.848   5.438   8.618  1.00  0.00     0.247 C 
ATOM     10  C   UNL     1       2.841   3.000   8.706  1.00  0.00     0.040 C 
ATOM     11  O   UNL     1       3.931   6.588   9.067  1.00  0.00    -0.272 OA
BRANCH   6  12
ATOM     12  O   UNL     1       5.602   2.937   7.783  1.00  0.00    -0.373 OA
ATOM     13  H   UNL     1       5.144   2.281   8.352  1.00  0.00     0.213 HD
ENDBRANCH   6  12
BRANCH   7  14
ATOM     14  C   UNL     1       5.611   5.918   6.934  1.00  0.00     0.177 C 
BRANCH  14  15
ATOM     15  C   UNL     1       7.085   5.578   7.230  1.00  0.00     0.038 C 
BRANCH  15  16
ATOM     16  C   UNL     1       7.764   6.168   8.487  1.00  0.00    -0.015 C 
ATOM     17  C   UNL     1       7.500   5.329   9.741  1.00  0.00     0.007 C 
ATOM     18  C   UNL     1       7.243   7.588   8.740  1.00  0.00     0.007 C 
ENDBRANCH  15  16
ENDBRANCH  14  15
BRANCH  14  19
ATOM     19  C   UNL     1       5.065   6.479   5.576  1.00  0.00     0.245 C 
ATOM     20  O   UNL     1       5.116   5.718   4.596  1.00  0.00    -0.272 OA
BRANCH  19  21
ATOM     21  N   UNL     1       4.644   7.784   5.394  1.00  0.00    -0.332 N 
ATOM     22  C   UNL     1       4.182   8.675   6.444  1.00  0.00     0.147 C 
BRANCH  21  23
ATOM     23  C   UNL     1       4.649   8.331   4.009  1.00  0.00     0.178 C 
BRANCH  23  24
ATOM     24  C   UNL     1       3.592   9.421   3.741  1.00  0.00     0.070 C 
BRANCH  24  25
ATOM     25  C   UNL     1       2.202   8.956   3.374  1.00  0.00    -0.045 A 
ATOM     26  C   UNL     1       2.009   7.979   2.390  1.00  0.00     0.004 A 
ATOM     27  C   UNL     1       1.080   9.504   4.015  1.00  0.00     0.004 A 
ATOM     28  C   UNL     1       0.720   7.567   2.044  1.00  0.00     0.000 A 
ATOM     29  C   UNL     1      -0.207   9.090   3.670  1.00  0.00     0.000 A 
ATOM     30  C   UNL     1      -0.386   8.124   2.682  1.00  0.00     0.000 A 
ENDBRANCH  24  25
ENDBRANCH  23  24
BRANCH  23  31
ATOM     31  C   UNL     1       6.071   8.662   3.497  1.00  0.00     0.243 C 
ATOM     32  O   UNL     1       6.549   8.213   2.459  1.00  0.00    -0.273 OA
ATOM     33  N   UNL     1       6.837   9.369   4.409  1.00  0.00    -0.341 N 
ATOM     34  H   UNL     1       6.384   9.713   5.259  1.00  0.00     0.164 HD
BRANCH  33  35
ATOM     35  C   UNL     1       8.250   9.690   4.187  1.00  0.00     0.194 C 
BRANCH  35  36
ATOM     36  C   UNL     1       9.126   9.619   5.469  1.00  0.00     0.017 C 
ATOM     37  C   UNL     1       8.535  10.481   6.599  1.00  0.00     0.010 C 
ATOM     38  C   UNL     1      10.568  10.087   5.242  1.00  0.00     0.010 C 
ENDBRANCH  35  36
BRANCH  35  39
ATOM     39  C   UNL     1       8.446  11.029   3.423  1.00  0.00     0.329 C 
ATOM     40  O   UNL     1       8.077  12.120   3.844  1.00  0.00    -0.250 OA
BRANCH  39  41
ATOM     41  O   UNL     1       9.155  10.869   2.265  1.00  0.00    -0.458 OA
BRANCH  41  42
ATOM     42  C   UNL     1       8.696  11.628   1.122  1.00  0.00     0.205 CG0
ATOM     43  C   UNL     1       7.485  10.896   0.547  1.00  0.00     0.056 C 
ATOM     44  G   UNL     1       9.853  11.740   0.109  1.00  0.00     0.000 G0
ENDBRANCH  41  42
ENDBRANCH  39  41
ENDBRANCH  35  39
ENDBRANCH  33  35
ENDBRANCH  23  31
ENDBRANCH  21  23
ENDBRANCH  19  21
ENDBRANCH  14  19
ENDBRANCH   7  14
ENDBRANCH   2   5
BRANCH   3  45
ATOM     45  C   UNL     1       2.232   4.286  13.037  1.00  0.00     0.171 C 
BRANCH  45  46
ATOM     46  N   UNL     1       1.146   3.582  13.706  1.00  0.00    -0.342 N 
ATOM     47  C   UNL     1       1.213   3.208  15.025  1.00  0.00     0.247 C 
ATOM     48  O   UNL     1       2.159   3.504  15.756  1.00  0.00    -0.273 OA
ATOM     49  H   UNL     1       0.319   3.367  13.152  1.00  0.00     0.164 HD
BRANCH  47  50
ATOM     50  C   UNL     1       0.029   2.367  15.523  1.00  0.00     0.212 CG0
ATOM     51  G   UNL     1      -0.513   3.033  16.803  1.00  0.00     0.000 G0
BRANCH  50  52
ATOM     52  N   UNL     1      -0.933   2.359  14.424  1.00  0.00    -0.339 N 
ATOM     53  C   UNL     1      -2.258   2.687  14.578  1.00  0.00     0.243 C 
ATOM     54  O   UNL     1      -2.750   2.962  15.669  1.00  0.00    -0.273 OA
ATOM     55  H   UNL     1      -0.610   2.032  13.516  1.00  0.00     0.164 HD
BRANCH  53  56
ATOM     56  C   UNL     1      -3.098   2.522  13.295  1.00  0.00     0.182 C 
BRANCH  56  57
ATOM     57  N   UNL     1      -2.282   1.999  12.195  1.00  0.00    -0.344 N 
ATOM     58  C   UNL     1      -2.601   0.842  11.527  1.00  0.00     0.220 C 
ATOM     59  O   UNL     1      -3.544   0.128  11.850  1.00  0.00    -0.275 OA
ATOM     60  H   UNL     1      -1.554   2.609  11.831  1.00  0.00     0.164 HD
BRANCH  58  61
ATOM     61  C   UNL     1      -1.650   0.523  10.388  1.00  0.00     0.100 C 
BRANCH  61  62
ATOM     62  C   UNL     1      -1.941   1.303   9.106  1.00  0.00     0.010 C 
BRANCH  62  63
ATOM     63  C   UNL     1      -0.697   1.613   8.264  1.00  0.00     0.000 C 
BRANCH  63  64
ATOM     64  C   UNL     1      -0.646   3.041   7.723  1.00  0.00    -0.003 C 
ATOM     65  C   UNL     1      -2.000   3.726   7.836  1.00  0.00     0.004 C 
ENDBRANCH  63  64
ENDBRANCH  62  63
ENDBRANCH  61  62
ENDBRANCH  58  61
ENDBRANCH  56  57
BRANCH  56  66
ATOM     66  C   UNL     1      -3.807   3.822  12.919  1.00  0.00     0.157 C 
BRANCH  66  67
ATOM     67  C   UNL     1      -2.821   4.928  12.673  1.00  0.00     0.305 C 
ATOM     68  O   UNL     1      -2.106   5.067  11.692  1.00  0.00    -0.252 OA
BRANCH  67  69
ATOM     69  O   UNL     1      -2.821   5.843  13.661  1.00  0.00    -0.481 OA
ATOM     70  H   UNL     1      -3.128   5.355  14.454  1.00  0.00     0.296 HD
ENDBRANCH  67  69
ENDBRANCH  66  67
ENDBRANCH  56  66
ENDBRANCH  53  56
ENDBRANCH  50  52
ENDBRANCH  47  50
ENDBRANCH  45  46
BRANCH  45  71
ATOM     71  C   UNL     1       2.279   5.765  13.438  1.00  0.00     0.037 C 
BRANCH  71  72
ATOM     72  C   UNL     1       0.937   6.465  13.212  1.00  0.00     0.026 C 
BRANCH  72  73
ATOM     73  C   UNL     1       1.097   7.722  12.359  1.00  0.00     0.146 C 
BRANCH  73  74
ATOM     74  N   UNL     1       1.619   8.781  13.218  1.00  0.00    -0.254 NA
ATOM     75  C   UNL     1       0.811   9.705  13.588  1.00  0.00     0.185 C 
ATOM     76  N   UNL     1       1.262  10.692  14.379  1.00  0.00    -0.370 N 
ATOM     77  N   UNL     1      -0.492   9.854  13.296  1.00  0.00    -0.370 N 
ATOM     78  H   UNL     1       2.237  10.660  14.641  1.00  0.00     0.159 HD
ATOM     79  H   UNL     1       0.731  11.519  14.589  1.00  0.00     0.159 HD
ATOM     80  H   UNL     1      -0.968   9.183  12.712  1.00  0.00     0.159 HD
ATOM     81  H   UNL     1      -1.056  10.560  13.740  1.00  0.00     0.159 HD
ENDBRANCH  73  74
ENDBRANCH  72  73
ENDBRANCH  71  72
ENDBRANCH  45  71
ENDBRANCH   3  45
TORSDOF 20
ENDMDL
MODEL 4
REMARK VINA RESULT:    -5.596      7.245     11.135
REMARK INTER + INTRA:         -23.508
REMARK INTER:                 -15.709
REMARK INTRA:                  -7.799
REMARK UNBOUND:                -7.444
REMARK SMILES CCCCCC(=O)N[C@H](CC(=O)O)C(=O)N[C@H]1C(=O)N[C@H](CCCN=C(N)N)C(=O)N[C@@H]2CC[C@H](O)N(C2=O)[C@@H](CC(C)C)C(=O)N(C)[C@@H](Cc2ccccc2)C(=O)N[C@H](C(C)C)C(=O)O[C@@H]1C
REMARK SMILES IDX 30 1 31 2 29 3 32 5 35 6 37 7 34 8 38 9 33 10 39 11 36 12
REMARK SMILES IDX 40 14 41 15 42 16 43 17 44 18 45 19 46 20 47 21 48 22 49 23
REMARK SMILES IDX 50 24 51 25 52 26 56 27 53 28 55 29 54 30 57 31 58 32 59 33
REMARK SMILES IDX 60 35 61 36 62 37 63 38 64 39 65 40 66 41 67 42 68 43 21 45
REMARK SMILES IDX 20 46 18 47 19 48 17 50 16 52 14 53 15 54 9 56 8 57 6 58
REMARK SMILES IDX 7 59 5 61 4 62 3 63 2 64 1 65 10 66 11 67 12 68 13 69 22 71
REMARK SMILES IDX 23 72 24 73 25 74 26 75 27 76 28 77
REMARK H PARENT 31 4 36 13 59 34 20 49 16 55 8 60 13 70 27 78 27 79 28 80
REMARK H PARENT 28 81
REMARK Flexibility Score:  259.900
ROOT
ATOM      1  O   UNL     1       1.618  10.574   1.537  1.00  0.00    -0.273 OA
ATOM      2  N   UNL     1       3.026   8.943   2.302  1.00  0.00    -0.343 N 
ATOM      3  C   UNL     1       1.815   9.393   1.821  1.00  0.00     0.243 C 
ATOM      4  H   UNL     1       3.156   7.961   2.511  1.00  0.00     0.164 HD
ENDROOT
BRANCH   2   5
ATOM      5  C   UNL     1       4.099   9.882   2.608  1.00  0.00     0.171 C 
ATOM      6  C   UNL     1       6.973   9.578   2.829  1.00  0.00     0.214 C 
ATOM      7  N   UNL     1       6.150   9.416   4.004  1.00  0.00    -0.303 N 
ATOM      8  C   UNL     1       6.390  10.549   1.815  1.00  0.00     0.057 C 
ATOM      9  C   UNL     1       4.767   9.497   3.959  1.00  0.00     0.247 C 
ATOM     10  C   UNL     1       5.010  10.088   1.399  1.00  0.00     0.040 C 
ATOM     11  O   UNL     1       4.064   9.271   4.953  1.00  0.00    -0.272 OA
BRANCH   6  12
ATOM     12  O   UNL     1       7.150   8.307   2.248  1.00  0.00    -0.373 OA
ATOM     13  H   UNL     1       8.001   8.330   1.761  1.00  0.00     0.213 HD
ENDBRANCH   6  12
BRANCH   7  14
ATOM     14  C   UNL     1       6.833   9.008   5.250  1.00  0.00     0.177 C 
BRANCH  14  15
ATOM     15  C   UNL     1       7.385   7.570   5.255  1.00  0.00     0.038 C 
BRANCH  15  16
ATOM     16  C   UNL     1       6.529   6.427   5.845  1.00  0.00    -0.015 C 
ATOM     17  C   UNL     1       7.373   5.218   6.259  1.00  0.00     0.007 C 
ATOM     18  C   UNL     1       5.500   5.962   4.807  1.00  0.00     0.007 C 
ENDBRANCH  15  16
ENDBRANCH  14  15
BRANCH  14  19
ATOM     19  C   UNL     1       7.520  10.246   5.923  1.00  0.00     0.245 C 
ATOM     20  O   UNL     1       7.313  11.354   5.400  1.00  0.00    -0.272 OA
BRANCH  19  21
ATOM     21  N   UNL     1       8.413  10.155   6.976  1.00  0.00    -0.332 N 
ATOM     22  C   UNL     1       8.159  10.589   8.337  1.00  0.00     0.147 C 
BRANCH  21  23
ATOM     23  C   UNL     1       9.756   9.573   6.700  1.00  0.00     0.178 C 
BRANCH  23  24
ATOM     24  C   UNL     1      10.825  10.596   6.263  1.00  0.00     0.070 C 
BRANCH  24  25
ATOM     25  C   UNL     1      11.185  10.632   4.796  1.00  0.00    -0.045 A 
ATOM     26  C   UNL     1      10.626   9.713   3.897  1.00  0.00     0.004 A 
ATOM     27  C   UNL     1      12.092  11.587   4.313  1.00  0.00     0.004 A 
ATOM     28  C   UNL     1      10.977   9.742   2.546  1.00  0.00     0.000 A 
ATOM     29  C   UNL     1      12.440  11.615   2.961  1.00  0.00     0.000 A 
ATOM     30  C   UNL     1      11.885  10.690   2.080  1.00  0.00     0.000 A 
ENDBRANCH  24  25
ENDBRANCH  23  24
BRANCH  23  31
ATOM     31  C   UNL     1      10.217   8.574   7.787  1.00  0.00     0.243 C 
ATOM     32  O   UNL     1       9.721   7.462   7.953  1.00  0.00    -0.273 OA
ATOM     33  N   UNL     1      11.120   9.114   8.688  1.00  0.00    -0.341 N 
ATOM     34  H   UNL     1      11.493  10.048   8.500  1.00  0.00     0.164 HD
BRANCH  33  35
ATOM     35  C   UNL     1      11.601   8.390   9.868  1.00  0.00     0.194 C 
BRANCH  35  36
ATOM     36  C   UNL     1      11.007   8.899  11.211  1.00  0.00     0.017 C 
ATOM     37  C   UNL     1       9.575   8.377  11.422  1.00  0.00     0.010 C 
ATOM     38  C   UNL     1      10.957  10.429  11.309  1.00  0.00     0.010 C 
ENDBRANCH  35  36
BRANCH  35  39
ATOM     39  C   UNL     1      13.152   8.294   9.918  1.00  0.00     0.329 C 
ATOM     40  O   UNL     1      13.906   9.201   9.587  1.00  0.00    -0.250 OA
BRANCH  39  41
ATOM     41  O   UNL     1      13.582   7.114  10.458  1.00  0.00    -0.458 OA
BRANCH  41  42
ATOM     42  C   UNL     1      15.001   6.843  10.358  1.00  0.00     0.205 CG0
ATOM     43  C   UNL     1      15.165   5.604   9.479  1.00  0.00     0.056 C 
ATOM     44  G   UNL     1      15.564   6.636  11.778  1.00  0.00     0.000 G0
ENDBRANCH  41  42
ENDBRANCH  39  41
ENDBRANCH  35  39
ENDBRANCH  33  35
ENDBRANCH  23  31
ENDBRANCH  21  23
ENDBRANCH  19  21
ENDBRANCH  14  19
ENDBRANCH   7  14
ENDBRANCH   2   5
BRANCH   3  45
ATOM     45  C   UNL     1       0.737   8.315   1.645  1.00  0.00     0.171 C 
BRANCH  45  46
ATOM     46  N   UNL     1      -0.232   8.876   0.712  1.00  0.00    -0.342 N 
ATOM     47  C   UNL     1      -0.375   8.409  -0.570  1.00  0.00     0.247 C 
ATOM     48  O   UNL     1       0.249   7.439  -1.002  1.00  0.00    -0.273 OA
ATOM     49  H   UNL     1      -0.809   9.645   1.047  1.00  0.00     0.164 HD
BRANCH  47  50
ATOM     50  C   UNL     1      -1.355   9.203  -1.445  1.00  0.00     0.212 CG0
ATOM     51  G   UNL     1      -2.761   8.607  -1.231  1.00  0.00     0.000 G0
BRANCH  50  52
ATOM     52  N   UNL     1      -1.242  10.589  -0.999  1.00  0.00    -0.339 N 
ATOM     53  C   UNL     1      -0.602  11.566  -1.722  1.00  0.00     0.243 C 
ATOM     54  O   UNL     1      -0.026  11.335  -2.782  1.00  0.00    -0.273 OA
ATOM     55  H   UNL     1      -1.602  10.819  -0.075  1.00  0.00     0.164 HD
BRANCH  53  56
ATOM     56  C   UNL     1      -0.534  12.932  -1.009  1.00  0.00     0.182 C 
BRANCH  56  57
ATOM     57  N   UNL     1       0.779  13.138  -0.391  1.00  0.00    -0.344 N 
ATOM     58  C   UNL     1       1.820  13.737  -1.057  1.00  0.00     0.220 C 
ATOM     59  O   UNL     1       1.749  14.074  -2.234  1.00  0.00    -0.275 OA
ATOM     60  H   UNL     1       0.849  12.968   0.609  1.00  0.00     0.164 HD
BRANCH  58  61
ATOM     61  C   UNL     1       3.065  13.901  -0.205  1.00  0.00     0.100 C 
BRANCH  61  62
ATOM     62  C   UNL     1       4.164  12.885  -0.519  1.00  0.00     0.010 C 
BRANCH  62  63
ATOM     63  C   UNL     1       5.345  13.462  -1.310  1.00  0.00     0.000 C 
BRANCH  63  64
ATOM     64  C   UNL     1       6.659  13.507  -0.532  1.00  0.00    -0.003 C 
ATOM     65  C   UNL     1       6.526  14.339   0.735  1.00  0.00     0.004 C 
ENDBRANCH  63  64
ENDBRANCH  62  63
ENDBRANCH  61  62
ENDBRANCH  58  61
ENDBRANCH  56  57
BRANCH  56  66
ATOM     66  C   UNL     1      -1.676  13.098  -0.008  1.00  0.00     0.157 C 
BRANCH  66  67
ATOM     67  C   UNL     1      -1.182  12.974   1.405  1.00  0.00     0.305 C 
ATOM     68  O   UNL     1      -1.039  13.879   2.213  1.00  0.00    -0.252 OA
BRANCH  67  69
ATOM     69  O   UNL     1      -0.938  11.696   1.752  1.00  0.00    -0.481 OA
ATOM     70  H   UNL     1       0.016  11.564   1.568  1.00  0.00     0.296 HD
ENDBRANCH  67  69
ENDBRANCH  66  67
ENDBRANCH  56  66
ENDBRANCH  53  56
ENDBRANCH  50  52
ENDBRANCH  47  50
ENDBRANCH  45  46
BRANCH  45  71
ATOM     71  C   UNL     1       0.093   7.978   2.994  1.00  0.00     0.037 C 
BRANCH  71  72
ATOM     72  C   UNL     1      -1.195   8.771   3.231  1.00  0.00     0.026 C 
BRANCH  72  73
ATOM     73  C   UNL     1      -1.251   9.337   4.649  1.00  0.00     0.146 C 
BRANCH  73  74
ATOM     74  N   UNL     1      -1.086  10.785   4.559  1.00  0.00    -0.254 NA
ATOM     75  C   UNL     1       0.064  11.276   4.842  1.00  0.00     0.185 C 
ATOM     76  N   UNL     1       0.246  12.604   4.767  1.00  0.00    -0.370 N 
ATOM     77  N   UNL     1       1.184  10.638   5.224  1.00  0.00    -0.370 N 
ATOM     78  H   UNL     1      -0.550  13.161   4.493  1.00  0.00     0.159 HD
ATOM     79  H   UNL     1       1.068  13.070   5.110  1.00  0.00     0.159 HD
ATOM     80  H   UNL     1       1.196   9.633   5.320  1.00  0.00     0.159 HD
ATOM     81  H   UNL     1       2.063  11.120   5.308  1.00  0.00     0.159 HD
ENDBRANCH  73  74
ENDBRANCH  72  73
ENDBRANCH  71  72
ENDBRANCH  45  71
ENDBRANCH   3  45
TORSDOF 20
ENDMDL
MODEL 5
REMARK VINA RESULT:    -5.534      3.233      5.774
REMARK INTER + INTRA:         -23.331
REMARK INTER:                 -16.527
REMARK INTRA:                  -6.803
REMARK UNBOUND:                -7.444
REMARK SMILES CCCCCC(=O)N[C@H](CC(=O)O)C(=O)N[C@H]1C(=O)N[C@H](CCCN=C(N)N)C(=O)N[C@@H]2CC[C@H](O)N(C2=O)[C@@H](CC(C)C)C(=O)N(C)[C@@H](Cc2ccccc2)C(=O)N[C@H](C(C)C)C(=O)O[C@@H]1C
REMARK SMILES IDX 30 1 31 2 29 3 32 5 35 6 37 7 34 8 38 9 33 10 39 11 36 12
REMARK SMILES IDX 40 14 41 15 42 16 43 17 44 18 45 19 46 20 47 21 48 22 49 23
REMARK SMILES IDX 50 24 51 25 52 26 56 27 53 28 55 29 54 30 57 31 58 32 59 33
REMARK SMILES IDX 60 35 61 36 62 37 63 38 64 39 65 40 66 41 67 42 68 43 21 45
REMARK SMILES IDX 20 46 18 47 19 48 17 50 16 52 14 53 15 54 9 56 8 57 6 58
REMARK SMILES IDX 7 59 5 61 4 62 3 63 2 64 1 65 10 66 11 67 12 68 13 69 22 71
REMARK SMILES IDX 23 72 24 73 25 74 26 75 27 76 28 77
REMARK H PARENT 31 4 36 13 59 34 20 49 16 55 8 60 13 70 27 78 27 79 28 80
REMARK H PARENT 28 81
REMARK Flexibility Score:  259.900
ROOT
ATOM      1  O   UNL     1       1.302   5.621  11.150  1.00  0.00    -0.273 OA
ATOM      2  N   UNL     1       3.307   4.622  10.688  1.00  0.00    -0.343 N 
ATOM      3  C   UNL     1       2.385   5.186  11.544  1.00  0.00     0.243 C 
ATOM      4  H   UNL     1       4.182   4.262  11.050  1.00  0.00     0.164 HD
ENDROOT
BRANCH   2   5
ATOM      5  C   UNL     1       3.083   4.627   9.247  1.00  0.00     0.171 C 
ATOM      6  C   UNL     1       4.793   4.002   6.991  1.00  0.00     0.214 C 
ATOM      7  N   UNL     1       4.724   5.361   7.475  1.00  0.00    -0.303 N 
ATOM      8  C   UNL     1       3.507   3.221   7.206  1.00  0.00     0.057 C 
ATOM      9  C   UNL     1       3.967   5.719   8.579  1.00  0.00     0.247 C 
ATOM     10  C   UNL     1       3.153   3.211   8.677  1.00  0.00     0.040 C 
ATOM     11  O   UNL     1       3.981   6.868   9.040  1.00  0.00    -0.272 OA
BRANCH   6  12
ATOM     12  O   UNL     1       5.869   3.368   7.642  1.00  0.00    -0.373 OA
ATOM     13  H   UNL     1       5.600   3.231   8.575  1.00  0.00     0.213 HD
ENDBRANCH   6  12
BRANCH   7  14
ATOM     14  C   UNL     1       5.616   6.349   6.831  1.00  0.00     0.177 C 
BRANCH  14  15
ATOM     15  C   UNL     1       7.115   6.184   7.150  1.00  0.00     0.038 C 
BRANCH  15  16
ATOM     16  C   UNL     1       7.771   7.094   8.212  1.00  0.00    -0.015 C 
ATOM     17  C   UNL     1       7.064   8.447   8.340  1.00  0.00     0.007 C 
ATOM     18  C   UNL     1       9.237   7.351   7.840  1.00  0.00     0.007 C 
ENDBRANCH  15  16
ENDBRANCH  14  15
BRANCH  14  19
ATOM     19  C   UNL     1       5.027   6.794   5.449  1.00  0.00     0.245 C 
ATOM     20  O   UNL     1       5.124   5.984   4.512  1.00  0.00    -0.272 OA
BRANCH  19  21
ATOM     21  N   UNL     1       4.519   8.057   5.198  1.00  0.00    -0.332 N 
ATOM     22  C   UNL     1       3.988   8.966   6.198  1.00  0.00     0.147 C 
BRANCH  21  23
ATOM     23  C   UNL     1       4.499   8.531   3.786  1.00  0.00     0.178 C 
BRANCH  23  24
ATOM     24  C   UNL     1       3.373   9.531   3.457  1.00  0.00     0.070 C 
BRANCH  24  25
ATOM     25  C   UNL     1       2.015   8.955   3.130  1.00  0.00    -0.045 A 
ATOM     26  C   UNL     1       0.877   9.349   3.846  1.00  0.00     0.004 A 
ATOM     27  C   UNL     1       1.876   8.010   2.103  1.00  0.00     0.004 A 
ATOM     28  C   UNL     1      -0.372   8.799   3.549  1.00  0.00     0.000 A 
ATOM     29  C   UNL     1       0.627   7.462   1.806  1.00  0.00     0.000 A 
ATOM     30  C   UNL     1      -0.496   7.855   2.532  1.00  0.00     0.000 A 
ENDBRANCH  24  25
ENDBRANCH  23  24
BRANCH  23  31
ATOM     31  C   UNL     1       5.900   8.932   3.265  1.00  0.00     0.243 C 
ATOM     32  O   UNL     1       6.607   8.208   2.568  1.00  0.00    -0.273 OA
ATOM     33  N   UNL     1       6.374  10.115   3.806  1.00  0.00    -0.341 N 
ATOM     34  H   UNL     1       5.740  10.672   4.384  1.00  0.00     0.164 HD
BRANCH  33  35
ATOM     35  C   UNL     1       7.722  10.628   3.548  1.00  0.00     0.194 C 
BRANCH  35  36
ATOM     36  C   UNL     1       8.500  11.042   4.829  1.00  0.00     0.017 C 
ATOM     37  C   UNL     1       9.489   9.945   5.261  1.00  0.00     0.010 C 
ATOM     38  C   UNL     1       7.585  11.331   6.024  1.00  0.00     0.010 C 
ENDBRANCH  35  36
BRANCH  35  39
ATOM     39  C   UNL     1       7.740  11.748   2.471  1.00  0.00     0.329 C 
ATOM     40  O   UNL     1       7.522  12.931   2.708  1.00  0.00    -0.250 OA
BRANCH  39  41
ATOM     41  O   UNL     1       8.111  11.281   1.240  1.00  0.00    -0.458 OA
BRANCH  41  42
ATOM     42  C   UNL     1       8.640  12.261   0.315  1.00  0.00     0.205 CG0
ATOM     43  C   UNL     1       7.677  12.335  -0.868  1.00  0.00     0.056 C 
ATOM     44  G   UNL     1      10.058  11.826  -0.105  1.00  0.00     0.000 G0
ENDBRANCH  41  42
ENDBRANCH  39  41
ENDBRANCH  35  39
ENDBRANCH  33  35
ENDBRANCH  23  31
ENDBRANCH  21  23
ENDBRANCH  19  21
ENDBRANCH  14  19
ENDBRANCH   7  14
ENDBRANCH   2   5
BRANCH   3  45
ATOM     45  C   UNL     1       2.792   5.214  13.023  1.00  0.00     0.171 C 
BRANCH  45  46
ATOM     46  N   UNL     1       1.630   4.737  13.761  1.00  0.00    -0.342 N 
ATOM     47  C   UNL     1       1.741   3.982  14.901  1.00  0.00     0.247 C 
ATOM     48  O   UNL     1       2.823   3.715  15.423  1.00  0.00    -0.273 OA
ATOM     49  H   UNL     1       0.712   4.984  13.394  1.00  0.00     0.164 HD
BRANCH  47  50
ATOM     50  C   UNL     1       0.411   3.466  15.470  1.00  0.00     0.212 CG0
ATOM     51  G   UNL     1       0.031   4.369  16.661  1.00  0.00     0.000 G0
BRANCH  50  52
ATOM     52  N   UNL     1      -0.540   3.538  14.365  1.00  0.00    -0.339 N 
ATOM     53  C   UNL     1      -1.887   3.313  14.511  1.00  0.00     0.243 C 
ATOM     54  O   UNL     1      -2.390   2.979  15.581  1.00  0.00    -0.273 OA
ATOM     55  H   UNL     1      -0.169   3.702  13.431  1.00  0.00     0.164 HD
BRANCH  53  56
ATOM     56  C   UNL     1      -2.679   3.359  13.189  1.00  0.00     0.182 C 
BRANCH  56  57
ATOM     57  N   UNL     1      -1.908   2.763  12.093  1.00  0.00    -0.344 N 
ATOM     58  C   UNL     1      -1.981   1.427  11.783  1.00  0.00     0.220 C 
ATOM     59  O   UNL     1      -2.636   0.628  12.444  1.00  0.00    -0.275 OA
ATOM     60  H   UNL     1      -1.435   3.404  11.461  1.00  0.00     0.164 HD
BRANCH  58  61
ATOM     61  C   UNL     1      -1.145   1.042  10.577  1.00  0.00     0.100 C 
BRANCH  61  62
ATOM     62  C   UNL     1      -1.952   0.907   9.285  1.00  0.00     0.010 C 
BRANCH  62  63
ATOM     63  C   UNL     1      -1.252   1.476   8.045  1.00  0.00     0.000 C 
BRANCH  63  64
ATOM     64  C   UNL     1      -0.618   2.850   8.258  1.00  0.00    -0.003 C 
ATOM     65  C   UNL     1      -1.628   3.967   8.041  1.00  0.00     0.004 C 
ENDBRANCH  63  64
ENDBRANCH  62  63
ENDBRANCH  61  62
ENDBRANCH  58  61
ENDBRANCH  56  57
BRANCH  56  66
ATOM     66  C   UNL     1      -3.142   4.778  12.863  1.00  0.00     0.157 C 
BRANCH  66  67
ATOM     67  C   UNL     1      -2.172   5.471  11.950  1.00  0.00     0.305 C 
ATOM     68  O   UNL     1      -2.341   5.743  10.771  1.00  0.00    -0.252 OA
BRANCH  67  69
ATOM     69  O   UNL     1      -1.043   5.838  12.586  1.00  0.00    -0.481 OA
ATOM     70  H   UNL     1      -0.501   5.022  12.624  1.00  0.00     0.296 HD
ENDBRANCH  67  69
ENDBRANCH  66  67
ENDBRANCH  56  66
ENDBRANCH  53  56
ENDBRANCH  50  52
ENDBRANCH  47  50
ENDBRANCH  45  46
BRANCH  45  71
ATOM     71  C   UNL     1       3.184   6.636  13.442  1.00  0.00     0.037 C 
BRANCH  71  72
ATOM     72  C   UNL     1       4.664   6.925  13.182  1.00  0.00     0.026 C 
BRANCH  72  73
ATOM     73  C   UNL     1       5.490   5.640  13.153  1.00  0.00     0.146 C 
BRANCH  73  74
ATOM     74  N   UNL     1       5.949   5.434  11.783  1.00  0.00    -0.254 NA
ATOM     75  C   UNL     1       6.720   4.437  11.553  1.00  0.00     0.185 C 
ATOM     76  N   UNL     1       7.158   4.220  10.302  1.00  0.00    -0.370 N 
ATOM     77  N   UNL     1       7.191   3.517  12.413  1.00  0.00    -0.370 N 
ATOM     78  H   UNL     1       6.856   4.873   9.593  1.00  0.00     0.159 HD
ATOM     79  H   UNL     1       7.873   3.553  10.074  1.00  0.00     0.159 HD
ATOM     80  H   UNL     1       6.941   3.552  13.390  1.00  0.00     0.159 HD
ATOM     81  H   UNL     1       7.699   2.708  12.096  1.00  0.00     0.159 HD
ENDBRANCH  73  74
ENDBRANCH  72  73
ENDBRANCH  71  72
ENDBRANCH  45  71
ENDBRANCH   3  45
TORSDOF 20
ENDMDL
MODEL 6
REMARK VINA RESULT:    -5.485      6.962     12.286
REMARK INTER + INTRA:         -23.190
REMARK INTER:                 -17.275
REMARK INTRA:                  -5.915
REMARK UNBOUND:                -7.444
REMARK SMILES CCCCCC(=O)N[C@H](CC(=O)O)C(=O)N[C@H]1C(=O)N[C@H](CCCN=C(N)N)C(=O)N[C@@H]2CC[C@H](O)N(C2=O)[C@@H](CC(C)C)C(=O)N(C)[C@@H](Cc2ccccc2)C(=O)N[C@H](C(C)C)C(=O)O[C@@H]1C
REMARK SMILES IDX 30 1 31 2 29 3 32 5 35 6 37 7 34 8 38 9 33 10 39 11 36 12
REMARK SMILES IDX 40 14 41 15 42 16 43 17 44 18 45 19 46 20 47 21 48 22 49 23
REMARK SMILES IDX 50 24 51 25 52 26 56 27 53 28 55 29 54 30 57 31 58 32 59 33
REMARK SMILES IDX 60 35 61 36 62 37 63 38 64 39 65 40 66 41 67 42 68 43 21 45
REMARK SMILES IDX 20 46 18 47 19 48 17 50 16 52 14 53 15 54 9 56 8 57 6 58
REMARK SMILES IDX 7 59 5 61 4 62 3 63 2 64 1 65 10 66 11 67 12 68 13 69 22 71
REMARK SMILES IDX 23 72 24 73 25 74 26 75 27 76 28 77
REMARK H PARENT 31 4 36 13 59 34 20 49 16 55 8 60 13 70 27 78 27 79 28 80
REMARK H PARENT 28 81
REMARK Flexibility Score:  259.900
ROOT
ATOM      1  O   UNL     1       1.925  11.071   1.776  1.00  0.00    -0.273 OA
ATOM      2  N   UNL     1       2.988   9.071   2.099  1.00  0.00    -0.343 N 
ATOM      3  C   UNL     1       1.944   9.847   1.643  1.00  0.00     0.243 C 
ATOM      4  H   UNL     1       2.976   8.069   1.958  1.00  0.00     0.164 HD
ENDROOT
BRANCH   2   5
ATOM      5  C   UNL     1       4.072   9.667   2.872  1.00  0.00     0.171 C 
ATOM      6  C   UNL     1       6.804   8.841   3.384  1.00  0.00     0.214 C 
ATOM      7  N   UNL     1       5.756   8.433   4.291  1.00  0.00    -0.303 N 
ATOM      8  C   UNL     1       6.529  10.176   2.710  1.00  0.00     0.057 C 
ATOM      9  C   UNL     1       4.424   8.749   4.078  1.00  0.00     0.247 C 
ATOM     10  C   UNL     1       5.215  10.112   1.962  1.00  0.00     0.040 C 
ATOM     11  O   UNL     1       3.523   8.323   4.813  1.00  0.00    -0.272 OA
BRANCH   6  12
ATOM     12  O   UNL     1       6.958   7.825   2.420  1.00  0.00    -0.373 OA
ATOM     13  H   UNL     1       6.065   7.460   2.242  1.00  0.00     0.213 HD
ENDBRANCH   6  12
BRANCH   7  14
ATOM     14  C   UNL     1       6.141   7.528   5.395  1.00  0.00     0.177 C 
BRANCH  14  15
ATOM     15  C   UNL     1       5.851   6.034   5.149  1.00  0.00     0.038 C 
BRANCH  15  16
ATOM     16  C   UNL     1       5.183   5.195   6.261  1.00  0.00    -0.015 C 
ATOM     17  C   UNL     1       4.512   6.067   7.327  1.00  0.00     0.007 C 
ATOM     18  C   UNL     1       6.235   4.317   6.951  1.00  0.00     0.007 C 
ENDBRANCH  15  16
ENDBRANCH  14  15
BRANCH  14  19
ATOM     19  C   UNL     1       7.387   8.097   6.156  1.00  0.00     0.245 C 
ATOM     20  O   UNL     1       8.230   7.271   6.545  1.00  0.00    -0.272 OA
BRANCH  19  21
ATOM     21  N   UNL     1       7.536   9.427   6.507  1.00  0.00    -0.332 N 
ATOM     22  C   UNL     1       6.492  10.275   7.055  1.00  0.00     0.147 C 
BRANCH  21  23
ATOM     23  C   UNL     1       8.869  10.057   6.300  1.00  0.00     0.178 C 
BRANCH  23  24
ATOM     24  C   UNL     1       8.895  11.179   5.241  1.00  0.00     0.070 C 
BRANCH  24  25
ATOM     25  C   UNL     1       9.916  11.056   4.134  1.00  0.00    -0.045 A 
ATOM     26  C   UNL     1      10.499   9.819   3.829  1.00  0.00     0.004 A 
ATOM     27  C   UNL     1      10.300  12.187   3.397  1.00  0.00     0.004 A 
ATOM     28  C   UNL     1      11.454   9.718   2.815  1.00  0.00     0.000 A 
ATOM     29  C   UNL     1      11.254  12.083   2.384  1.00  0.00     0.000 A 
ATOM     30  C   UNL     1      11.833  10.849   2.096  1.00  0.00     0.000 A 
ENDBRANCH  24  25
ENDBRANCH  23  24
BRANCH  23  31
ATOM     31  C   UNL     1       9.589  10.396   7.627  1.00  0.00     0.243 C 
ATOM     32  O   UNL     1       9.241  11.297   8.386  1.00  0.00    -0.273 OA
ATOM     33  N   UNL     1      10.781   9.713   7.799  1.00  0.00    -0.341 N 
ATOM     34  H   UNL     1      11.020   8.977   7.130  1.00  0.00     0.164 HD
BRANCH  33  35
ATOM     35  C   UNL     1      11.688   9.961   8.923  1.00  0.00     0.194 C 
BRANCH  35  36
ATOM     36  C   UNL     1      12.908  10.858   8.568  1.00  0.00     0.017 C 
ATOM     37  C   UNL     1      12.897  12.164   9.380  1.00  0.00     0.010 C 
ATOM     38  C   UNL     1      12.965  11.240   7.084  1.00  0.00     0.010 C 
ENDBRANCH  35  36
BRANCH  35  39
ATOM     39  C   UNL     1      12.120   8.653   9.643  1.00  0.00     0.329 C 
ATOM     40  O   UNL     1      11.919   7.528   9.201  1.00  0.00    -0.250 OA
BRANCH  39  41
ATOM     41  O   UNL     1      12.828   8.898  10.787  1.00  0.00    -0.458 OA
BRANCH  41  42
ATOM     42  C   UNL     1      14.003   8.080  11.001  1.00  0.00     0.205 CG0
ATOM     43  C   UNL     1      15.009   8.435   9.907  1.00  0.00     0.056 C 
ATOM     44  G   UNL     1      13.584   6.597  10.959  1.00  0.00     0.000 G0
ENDBRANCH  41  42
ENDBRANCH  39  41
ENDBRANCH  35  39
ENDBRANCH  33  35
ENDBRANCH  23  31
ENDBRANCH  21  23
ENDBRANCH  19  21
ENDBRANCH  14  19
ENDBRANCH   7  14
ENDBRANCH   2   5
BRANCH   3  45
ATOM     45  C   UNL     1       0.815   9.081   0.939  1.00  0.00     0.171 C 
BRANCH  45  46
ATOM     46  N   UNL     1       0.069  10.082   0.188  1.00  0.00    -0.342 N 
ATOM     47  C   UNL     1      -0.731   9.757  -0.878  1.00  0.00     0.247 C 
ATOM     48  O   UNL     1      -0.934   8.595  -1.232  1.00  0.00    -0.273 OA
ATOM     49  H   UNL     1       0.164  11.052   0.483  1.00  0.00     0.164 HD
BRANCH  47  50
ATOM     50  C   UNL     1      -1.339  10.954  -1.623  1.00  0.00     0.212 CG0
ATOM     51  G   UNL     1      -2.108  11.804  -0.592  1.00  0.00     0.000 G0
BRANCH  50  52
ATOM     52  N   UNL     1      -0.207  11.656  -2.221  1.00  0.00    -0.339 N 
ATOM     53  C   UNL     1       0.180  11.490  -3.529  1.00  0.00     0.243 C 
ATOM     54  O   UNL     1      -0.367  10.692  -4.285  1.00  0.00    -0.273 OA
ATOM     55  H   UNL     1       0.356  12.249  -1.614  1.00  0.00     0.164 HD
BRANCH  53  56
ATOM     56  C   UNL     1       1.454  12.270  -3.910  1.00  0.00     0.182 C 
BRANCH  56  57
ATOM     57  N   UNL     1       2.508  11.363  -4.374  1.00  0.00    -0.344 N 
ATOM     58  C   UNL     1       3.086  11.480  -5.615  1.00  0.00     0.220 C 
ATOM     59  O   UNL     1       2.713  12.301  -6.446  1.00  0.00    -0.275 OA
ATOM     60  H   UNL     1       2.915  10.737  -3.684  1.00  0.00     0.164 HD
BRANCH  58  61
ATOM     61  C   UNL     1       4.194  10.472  -5.860  1.00  0.00     0.100 C 
BRANCH  61  62
ATOM     62  C   UNL     1       3.996   9.633  -7.122  1.00  0.00     0.010 C 
BRANCH  62  63
ATOM     63  C   UNL     1       4.942   9.998  -8.273  1.00  0.00     0.000 C 
BRANCH  63  64
ATOM     64  C   UNL     1       4.307  10.875  -9.352  1.00  0.00    -0.003 C 
ATOM     65  C   UNL     1       2.869  10.462  -9.628  1.00  0.00     0.004 C 
ENDBRANCH  63  64
ENDBRANCH  62  63
ENDBRANCH  61  62
ENDBRANCH  58  61
ENDBRANCH  56  57
BRANCH  56  66
ATOM     66  C   UNL     1       1.927  13.165  -2.765  1.00  0.00     0.157 C 
BRANCH  66  67
ATOM     67  C   UNL     1       3.077  12.541  -2.027  1.00  0.00     0.305 C 
ATOM     68  O   UNL     1       4.262  12.810  -2.155  1.00  0.00    -0.252 OA
BRANCH  67  69
ATOM     69  O   UNL     1       2.670  11.636  -1.116  1.00  0.00    -0.481 OA
ATOM     70  H   UNL     1       2.153  12.154  -0.463  1.00  0.00     0.296 HD
ENDBRANCH  67  69
ENDBRANCH  66  67
ENDBRANCH  56  66
ENDBRANCH  53  56
ENDBRANCH  50  52
ENDBRANCH  47  50
ENDBRANCH  45  46
BRANCH  45  71
ATOM     71  C   UNL     1      -0.070   8.370   1.968  1.00  0.00     0.037 C 
BRANCH  71  72
ATOM     72  C   UNL     1      -0.409   9.272   3.157  1.00  0.00     0.026 C 
BRANCH  72  73
ATOM     73  C   UNL     1      -1.772   9.939   2.984  1.00  0.00     0.146 C 
BRANCH  73  74
ATOM     74  N   UNL     1      -1.545  11.299   2.504  1.00  0.00    -0.254 NA
ATOM     75  C   UNL     1      -2.560  11.966   2.093  1.00  0.00     0.185 C 
ATOM     76  N   UNL     1      -2.383  13.221   1.647  1.00  0.00    -0.370 N 
ATOM     77  N   UNL     1      -3.849  11.592   2.033  1.00  0.00    -0.370 N 
ATOM     78  H   UNL     1      -1.439  13.579   1.651  1.00  0.00     0.159 HD
ATOM     79  H   UNL     1      -3.099  13.748   1.179  1.00  0.00     0.159 HD
ATOM     80  H   UNL     1      -4.132  10.673   2.340  1.00  0.00     0.159 HD
ATOM     81  H   UNL     1      -4.579  12.245   1.799  1.00  0.00     0.159 HD
ENDBRANCH  73  74
ENDBRANCH  72  73
ENDBRANCH  71  72
ENDBRANCH  45  71
ENDBRANCH   3  45
TORSDOF 20
ENDMDL
MODEL 7
REMARK VINA RESULT:    -5.458      6.366     12.627
REMARK INTER + INTRA:         -23.113
REMARK INTER:                 -17.870
REMARK INTRA:                  -5.243
REMARK UNBOUND:                -7.444
REMARK SMILES CCCCCC(=O)N[C@H](CC(=O)O)C(=O)N[C@H]1C(=O)N[C@H](CCCN=C(N)N)C(=O)N[C@@H]2CC[C@H](O)N(C2=O)[C@@H](CC(C)C)C(=O)N(C)[C@@H](Cc2ccccc2)C(=O)N[C@H](C(C)C)C(=O)O[C@@H]1C
REMARK SMILES IDX 30 1 31 2 29 3 32 5 35 6 37 7 34 8 38 9 33 10 39 11 36 12
REMARK SMILES IDX 40 14 41 15 42 16 43 17 44 18 45 19 46 20 47 21 48 22 49 23
REMARK SMILES IDX 50 24 51 25 52 26 56 27 53 28 55 29 54 30 57 31 58 32 59 33
REMARK SMILES IDX 60 35 61 36 62 37 63 38 64 39 65 40 66 41 67 42 68 43 21 45
REMARK SMILES IDX 20 46 18 47 19 48 17 50 16 52 14 53 15 54 9 56 8 57 6 58
REMARK SMILES IDX 7 59 5 61 4 62 3 63 2 64 1 65 10 66 11 67 12 68 13 69 22 71
REMARK SMILES IDX 23 72 24 73 25 74 26 75 27 76 28 77
REMARK H PARENT 31 4 36 13 59 34 20 49 16 55 8 60 13 70 27 78 27 79 28 80
REMARK H PARENT 28 81
REMARK Flexibility Score:  259.900
ROOT
ATOM      1  O   UNL     1       2.243  11.554   3.774  1.00  0.00    -0.273 OA
ATOM      2  N   UNL     1       2.289   9.396   4.531  1.00  0.00    -0.343 N 
ATOM      3  C   UNL     1       1.639  10.556   4.168  1.00  0.00     0.243 C 
ATOM      4  H   UNL     1       1.758   8.590   4.836  1.00  0.00     0.164 HD
ENDROOT
BRANCH   2   5
ATOM      5  C   UNL     1       3.746   9.344   4.575  1.00  0.00     0.171 C 
ATOM      6  C   UNL     1       5.629   7.150   4.787  1.00  0.00     0.214 C 
ATOM      7  N   UNL     1       5.151   7.795   5.988  1.00  0.00    -0.303 N 
ATOM      8  C   UNL     1       5.681   8.080   3.585  1.00  0.00     0.057 C 
ATOM      9  C   UNL     1       4.213   8.814   5.961  1.00  0.00     0.247 C 
ATOM     10  C   UNL     1       4.309   8.664   3.328  1.00  0.00     0.040 C 
ATOM     11  O   UNL     1       3.745   9.302   6.997  1.00  0.00    -0.272 OA
BRANCH   6  12
ATOM     12  O   UNL     1       4.786   6.052   4.523  1.00  0.00    -0.373 OA
ATOM     13  H   UNL     1       4.521   6.113   3.581  1.00  0.00     0.213 HD
ENDBRANCH   6  12
BRANCH   7  14
ATOM     14  C   UNL     1       5.594   7.223   7.277  1.00  0.00     0.177 C 
BRANCH  14  15
ATOM     15  C   UNL     1       6.479   8.147   8.136  1.00  0.00     0.038 C 
BRANCH  15  16
ATOM     16  C   UNL     1       7.697   8.846   7.493  1.00  0.00    -0.015 C 
ATOM     17  C   UNL     1       8.722   7.848   6.946  1.00  0.00     0.007 C 
ATOM     18  C   UNL     1       8.397   9.730   8.533  1.00  0.00     0.007 C 
ENDBRANCH  15  16
ENDBRANCH  14  15
BRANCH  14  19
ATOM     19  C   UNL     1       4.514   6.230   7.831  1.00  0.00     0.245 C 
ATOM     20  O   UNL     1       3.507   6.735   8.356  1.00  0.00    -0.272 OA
BRANCH  19  21
ATOM     21  N   UNL     1       4.675   4.857   7.866  1.00  0.00    -0.332 N 
ATOM     22  C   UNL     1       5.467   4.077   6.932  1.00  0.00     0.147 C 
BRANCH  21  23
ATOM     23  C   UNL     1       3.973   4.101   8.940  1.00  0.00     0.178 C 
BRANCH  23  24
ATOM     24  C   UNL     1       3.102   2.930   8.442  1.00  0.00     0.070 C 
BRANCH  24  25
ATOM     25  C   UNL     1       1.603   3.091   8.552  1.00  0.00    -0.045 A 
ATOM     26  C   UNL     1       0.743   2.423   7.672  1.00  0.00     0.004 A 
ATOM     27  C   UNL     1       1.052   3.921   9.540  1.00  0.00     0.004 A 
ATOM     28  C   UNL     1      -0.640   2.591   7.769  1.00  0.00     0.000 A 
ATOM     29  C   UNL     1      -0.330   4.087   9.637  1.00  0.00     0.000 A 
ATOM     30  C   UNL     1      -1.175   3.424   8.749  1.00  0.00     0.000 A 
ENDBRANCH  24  25
ENDBRANCH  23  24
BRANCH  23  31
ATOM     31  C   UNL     1       4.890   3.766  10.140  1.00  0.00     0.243 C 
ATOM     32  O   UNL     1       5.432   4.611  10.848  1.00  0.00    -0.273 OA
ATOM     33  N   UNL     1       5.202   2.420  10.239  1.00  0.00    -0.341 N 
ATOM     34  H   UNL     1       4.723   1.764   9.618  1.00  0.00     0.164 HD
BRANCH  33  35
ATOM     35  C   UNL     1       6.148   1.890  11.226  1.00  0.00     0.194 C 
BRANCH  35  36
ATOM     36  C   UNL     1       7.604   1.753  10.699  1.00  0.00     0.017 C 
ATOM     37  C   UNL     1       8.520   2.835  11.299  1.00  0.00     0.010 C 
ATOM     38  C   UNL     1       7.708   1.859   9.173  1.00  0.00     0.010 C 
ENDBRANCH  35  36
BRANCH  35  39
ATOM     39  C   UNL     1       5.645   0.578  11.890  1.00  0.00     0.329 C 
ATOM     40  O   UNL     1       5.099  -0.334  11.281  1.00  0.00    -0.250 OA
BRANCH  39  41
ATOM     41  O   UNL     1       5.959   0.516  13.220  1.00  0.00    -0.458 OA
BRANCH  41  42
ATOM     42  C   UNL     1       6.625  -0.690  13.665  1.00  0.00     0.205 CG0
ATOM     43  C   UNL     1       8.035  -0.673  13.078  1.00  0.00     0.056 C 
ATOM     44  G   UNL     1       5.805  -1.908  13.195  1.00  0.00     0.000 G0
ENDBRANCH  41  42
ENDBRANCH  39  41
ENDBRANCH  35  39
ENDBRANCH  33  35
ENDBRANCH  23  31
ENDBRANCH  21  23
ENDBRANCH  19  21
ENDBRANCH  14  19
ENDBRANCH   7  14
ENDBRANCH   2   5
BRANCH   3  45
ATOM     45  C   UNL     1       0.108  10.510   4.269  1.00  0.00     0.171 C 
BRANCH  45  46
ATOM     46  N   UNL     1      -0.377  11.549   3.370  1.00  0.00    -0.342 N 
ATOM     47  C   UNL     1      -1.428  11.348   2.511  1.00  0.00     0.247 C 
ATOM     48  O   UNL     1      -2.081  10.305   2.487  1.00  0.00    -0.273 OA
ATOM     49  H   UNL     1       0.100  12.448   3.398  1.00  0.00     0.164 HD
BRANCH  47  50
ATOM     50  C   UNL     1      -1.717  12.513   1.554  1.00  0.00     0.212 CG0
ATOM     51  G   UNL     1      -1.041  13.772   2.133  1.00  0.00     0.000 G0
BRANCH  50  52
ATOM     52  N   UNL     1      -1.166  12.104   0.265  1.00  0.00    -0.339 N 
ATOM     53  C   UNL     1      -0.301  12.880  -0.468  1.00  0.00     0.243 C 
ATOM     54  O   UNL     1       0.037  14.007  -0.117  1.00  0.00    -0.273 OA
ATOM     55  H   UNL     1      -1.495  11.227  -0.133  1.00  0.00     0.164 HD
BRANCH  53  56
ATOM     56  C   UNL     1       0.077  12.277  -1.836  1.00  0.00     0.182 C 
BRANCH  56  57
ATOM     57  N   UNL     1       0.001  10.813  -1.806  1.00  0.00    -0.344 N 
ATOM     58  C   UNL     1      -0.834  10.102  -2.632  1.00  0.00     0.220 C 
ATOM     59  O   UNL     1      -1.625  10.641  -3.399  1.00  0.00    -0.275 OA
ATOM     60  H   UNL     1       0.708  10.326  -1.261  1.00  0.00     0.164 HD
BRANCH  58  61
ATOM     61  C   UNL     1      -0.705   8.599  -2.469  1.00  0.00     0.100 C 
BRANCH  61  62
ATOM     62  C   UNL     1       0.224   8.180  -1.330  1.00  0.00     0.010 C 
BRANCH  62  63
ATOM     63  C   UNL     1      -0.451   8.138   0.047  1.00  0.00     0.000 C 
BRANCH  63  64
ATOM     64  C   UNL     1       0.515   8.268   1.223  1.00  0.00    -0.003 C 
ATOM     65  C   UNL     1       0.041   7.462   2.423  1.00  0.00     0.004 C 
ENDBRANCH  63  64
ENDBRANCH  62  63
ENDBRANCH  61  62
ENDBRANCH  58  61
ENDBRANCH  56  57
BRANCH  56  66
ATOM     66  C   UNL     1       1.443  12.773  -2.309  1.00  0.00     0.157 C 
BRANCH  66  67
ATOM     67  C   UNL     1       1.796  12.198  -3.650  1.00  0.00     0.305 C 
ATOM     68  O   UNL     1       2.829  11.619  -3.950  1.00  0.00    -0.252 OA
BRANCH  67  69
ATOM     69  O   UNL     1       0.799  12.334  -4.545  1.00  0.00    -0.481 OA
ATOM     70  H   UNL     1       1.238  12.651  -5.362  1.00  0.00     0.296 HD
ENDBRANCH  67  69
ENDBRANCH  66  67
ENDBRANCH  56  66
ENDBRANCH  53  56
ENDBRANCH  50  52
ENDBRANCH  47  50
ENDBRANCH  45  46
BRANCH  45  71
ATOM     71  C   UNL     1      -0.339  10.757   5.714  1.00  0.00     0.037 C 
BRANCH  71  72
ATOM     72  C   UNL     1      -0.721  12.220   5.956  1.00  0.00     0.026 C 
BRANCH  72  73
ATOM     73  C   UNL     1       0.102  12.834   7.086  1.00  0.00     0.146 C 
BRANCH  73  74
ATOM     74  N   UNL     1       1.395  13.228   6.534  1.00  0.00    -0.254 NA
ATOM     75  C   UNL     1       2.443  12.647   6.989  1.00  0.00     0.185 C 
ATOM     76  N   UNL     1       3.646  12.987   6.500  1.00  0.00    -0.370 N 
ATOM     77  N   UNL     1       2.538  11.694   7.933  1.00  0.00    -0.370 N 
ATOM     78  H   UNL     1       3.665  13.704   5.789  1.00  0.00     0.159 HD
ATOM     79  H   UNL     1       4.514  12.683   6.905  1.00  0.00     0.159 HD
ATOM     80  H   UNL     1       1.711  11.337   8.387  1.00  0.00     0.159 HD
ATOM     81  H   UNL     1       3.409  11.228   8.127  1.00  0.00     0.159 HD
ENDBRANCH  73  74
ENDBRANCH  72  73
ENDBRANCH  71  72
ENDBRANCH  45  71
ENDBRANCH   3  45
TORSDOF 20
ENDMDL
MODEL 8
REMARK VINA RESULT:    -5.444      2.989      4.560
REMARK INTER + INTRA:         -23.073
REMARK INTER:                 -17.336
REMARK INTRA:                  -5.737
REMARK UNBOUND:                -7.444
REMARK SMILES CCCCCC(=O)N[C@H](CC(=O)O)C(=O)N[C@H]1C(=O)N[C@H](CCCN=C(N)N)C(=O)N[C@@H]2CC[C@H](O)N(C2=O)[C@@H](CC(C)C)C(=O)N(C)[C@@H](Cc2ccccc2)C(=O)N[C@H](C(C)C)C(=O)O[C@@H]1C
REMARK SMILES IDX 30 1 31 2 29 3 32 5 35 6 37 7 34 8 38 9 33 10 39 11 36 12
REMARK SMILES IDX 40 14 41 15 42 16 43 17 44 18 45 19 46 20 47 21 48 22 49 23
REMARK SMILES IDX 50 24 51 25 52 26 56 27 53 28 55 29 54 30 57 31 58 32 59 33
REMARK SMILES IDX 60 35 61 36 62 37 63 38 64 39 65 40 66 41 67 42 68 43 21 45
REMARK SMILES IDX 20 46 18 47 19 48 17 50 16 52 14 53 15 54 9 56 8 57 6 58
REMARK SMILES IDX 7 59 5 61 4 62 3 63 2 64 1 65 10 66 11 67 12 68 13 69 22 71
REMARK SMILES IDX 23 72 24 73 25 74 26 75 27 76 28 77
REMARK H PARENT 31 4 36 13 59 34 20 49 16 55 8 60 13 70 27 78 27 79 28 80
REMARK H PARENT 28 81
REMARK Flexibility Score:  259.900
ROOT
ATOM      1  O   UNL     1       2.039   4.177   8.889  1.00  0.00    -0.273 OA
ATOM      2  N   UNL     1       4.196   4.908   9.091  1.00  0.00    -0.343 N 
ATOM      3  C   UNL     1       3.042   4.338   9.584  1.00  0.00     0.243 C 
ATOM      4  H   UNL     1       5.008   5.011   9.688  1.00  0.00     0.164 HD
ENDROOT
BRANCH   2   5
ATOM      5  C   UNL     1       4.234   5.460   7.741  1.00  0.00     0.171 C 
ATOM      6  C   UNL     1       6.411   6.311   6.026  1.00  0.00     0.214 C 
ATOM      7  N   UNL     1       5.780   7.270   6.902  1.00  0.00    -0.303 N 
ATOM      8  C   UNL     1       5.472   5.206   5.567  1.00  0.00     0.057 C 
ATOM      9  C   UNL     1       4.769   6.920   7.782  1.00  0.00     0.247 C 
ATOM     10  C   UNL     1       4.900   4.487   6.769  1.00  0.00     0.040 C 
ATOM     11  O   UNL     1       4.294   7.728   8.590  1.00  0.00    -0.272 OA
BRANCH   6  12
ATOM     12  O   UNL     1       7.515   5.765   6.710  1.00  0.00    -0.373 OA
ATOM     13  H   UNL     1       7.290   4.834   6.923  1.00  0.00     0.213 HD
ENDBRANCH   6  12
BRANCH   7  14
ATOM     14  C   UNL     1       6.357   8.631   6.932  1.00  0.00     0.177 C 
BRANCH  14  15
ATOM     15  C   UNL     1       7.623   8.788   7.796  1.00  0.00     0.038 C 
BRANCH  15  16
ATOM     16  C   UNL     1       7.674   8.139   9.197  1.00  0.00    -0.015 C 
ATOM     17  C   UNL     1       7.378   9.142  10.316  1.00  0.00     0.007 C 
ATOM     18  C   UNL     1       9.066   7.542   9.442  1.00  0.00     0.007 C 
ENDBRANCH  15  16
ENDBRANCH  14  15
BRANCH  14  19
ATOM     19  C   UNL     1       6.089   9.365   5.573  1.00  0.00     0.245 C 
ATOM     20  O   UNL     1       6.990   9.307   4.719  1.00  0.00    -0.272 OA
BRANCH  19  21
ATOM     21  N   UNL     1       4.977  10.150   5.326  1.00  0.00    -0.332 N 
ATOM     22  C   UNL     1       4.441  11.158   6.223  1.00  0.00     0.147 C 
BRANCH  21  23
ATOM     23  C   UNL     1       4.253   9.946   4.041  1.00  0.00     0.178 C 
BRANCH  23  24
ATOM     24  C   UNL     1       2.773  10.380   4.058  1.00  0.00     0.070 C 
BRANCH  24  25
ATOM     25  C   UNL     1       1.768   9.423   3.461  1.00  0.00    -0.045 A 
ATOM     26  C   UNL     1       2.149   8.507   2.471  1.00  0.00     0.004 A 
ATOM     27  C   UNL     1       0.431   9.443   3.888  1.00  0.00     0.004 A 
ATOM     28  C   UNL     1       1.210   7.638   1.912  1.00  0.00     0.000 A 
ATOM     29  C   UNL     1      -0.506   8.572   3.328  1.00  0.00     0.000 A 
ATOM     30  C   UNL     1      -0.116   7.672   2.338  1.00  0.00     0.000 A 
ENDBRANCH  24  25
ENDBRANCH  23  24
BRANCH  23  31
ATOM     31  C   UNL     1       5.058  10.426   2.811  1.00  0.00     0.243 C 
ATOM     32  O   UNL     1       5.566   9.672   1.985  1.00  0.00    -0.273 OA
ATOM     33  N   UNL     1       5.320  11.786   2.818  1.00  0.00    -0.341 N 
ATOM     34  H   UNL     1       4.873  12.362   3.535  1.00  0.00     0.164 HD
BRANCH  33  35
ATOM     35  C   UNL     1       6.165  12.442   1.816  1.00  0.00     0.194 C 
BRANCH  35  36
ATOM     36  C   UNL     1       7.273  13.352   2.418  1.00  0.00     0.017 C 
ATOM     37  C   UNL     1       8.435  12.519   2.986  1.00  0.00     0.010 C 
ATOM     38  C   UNL     1       6.763  14.258   3.546  1.00  0.00     0.010 C 
ENDBRANCH  35  36
BRANCH  35  39
ATOM     39  C   UNL     1       5.338  13.178   0.726  1.00  0.00     0.329 C 
ATOM     40  O   UNL     1       4.114  13.158   0.662  1.00  0.00    -0.250 OA
BRANCH  39  41
ATOM     41  O   UNL     1       6.124  13.925  -0.107  1.00  0.00    -0.458 OA
BRANCH  41  42
ATOM     42  C   UNL     1       6.175  13.502  -1.491  1.00  0.00     0.205 CG0
ATOM     43  C   UNL     1       7.421  12.633  -1.654  1.00  0.00     0.056 C 
ATOM     44  G   UNL     1       6.209  14.755  -2.388  1.00  0.00     0.000 G0
ENDBRANCH  41  42
ENDBRANCH  39  41
ENDBRANCH  35  39
ENDBRANCH  33  35
ENDBRANCH  23  31
ENDBRANCH  21  23
ENDBRANCH  19  21
ENDBRANCH  14  19
ENDBRANCH   7  14
ENDBRANCH   2   5
BRANCH   3  45
ATOM     45  C   UNL     1       3.103   3.897  11.052  1.00  0.00     0.171 C 
BRANCH  45  46
ATOM     46  N   UNL     1       2.606   2.527  11.073  1.00  0.00    -0.342 N 
ATOM     47  C   UNL     1       3.441   1.440  11.023  1.00  0.00     0.247 C 
ATOM     48  O   UNL     1       4.669   1.539  11.030  1.00  0.00    -0.273 OA
ATOM     49  H   UNL     1       1.597   2.399  11.123  1.00  0.00     0.164 HD
BRANCH  47  50
ATOM     50  C   UNL     1       2.734   0.080  10.928  1.00  0.00     0.212 CG0
ATOM     51  G   UNL     1       2.625  -0.490  12.356  1.00  0.00     0.000 G0
BRANCH  50  52
ATOM     52  N   UNL     1       1.437   0.358  10.317  1.00  0.00    -0.339 N 
ATOM     53  C   UNL     1       0.245  -0.079  10.842  1.00  0.00     0.243 C 
ATOM     54  O   UNL     1       0.183  -0.786  11.844  1.00  0.00    -0.273 OA
ATOM     55  H   UNL     1       1.430   0.846   9.423  1.00  0.00     0.164 HD
BRANCH  53  56
ATOM     56  C   UNL     1      -0.985   0.262   9.976  1.00  0.00     0.182 C 
BRANCH  56  57
ATOM     57  N   UNL     1      -1.242   1.706   9.973  1.00  0.00    -0.344 N 
ATOM     58  C   UNL     1      -1.199   2.458   8.825  1.00  0.00     0.220 C 
ATOM     59  O   UNL     1      -0.871   1.993   7.738  1.00  0.00    -0.275 OA
ATOM     60  H   UNL     1      -1.615   2.109  10.828  1.00  0.00     0.164 HD
BRANCH  58  61
ATOM     61  C   UNL     1      -1.556   3.916   9.048  1.00  0.00     0.100 C 
BRANCH  61  62
ATOM     62  C   UNL     1      -1.137   4.451  10.417  1.00  0.00     0.010 C 
BRANCH  62  63
ATOM     63  C   UNL     1      -2.306   4.692  11.381  1.00  0.00     0.000 C 
BRANCH  63  64
ATOM     64  C   UNL     1      -2.252   6.034  12.109  1.00  0.00    -0.003 C 
ATOM     65  C   UNL     1      -1.004   6.819  11.734  1.00  0.00     0.004 C 
ENDBRANCH  63  64
ENDBRANCH  62  63
ENDBRANCH  61  62
ENDBRANCH  58  61
ENDBRANCH  56  57
BRANCH  56  66
ATOM     66  C   UNL     1      -2.211  -0.542  10.404  1.00  0.00     0.157 C 
BRANCH  66  67
ATOM     67  C   UNL     1      -2.796  -0.005  11.678  1.00  0.00     0.305 C 
ATOM     68  O   UNL     1      -3.436   1.027  11.813  1.00  0.00    -0.252 OA
BRANCH  67  69
ATOM     69  O   UNL     1      -2.589  -0.828  12.723  1.00  0.00    -0.481 OA
ATOM     70  H   UNL     1      -1.982  -0.334  13.315  1.00  0.00     0.296 HD
ENDBRANCH  67  69
ENDBRANCH  66  67
ENDBRANCH  56  66
ENDBRANCH  53  56
ENDBRANCH  50  52
ENDBRANCH  47  50
ENDBRANCH  45  46
BRANCH  45  71
ATOM     71  C   UNL     1       2.247   4.822  11.923  1.00  0.00     0.037 C 
BRANCH  71  72
ATOM     72  C   UNL     1       2.125   4.310  13.361  1.00  0.00     0.026 C 
BRANCH  72  73
ATOM     73  C   UNL     1       0.664   4.161  13.781  1.00  0.00     0.146 C 
BRANCH  73  74
ATOM     74  N   UNL     1       0.258   2.787  13.504  1.00  0.00    -0.254 NA
ATOM     75  C   UNL     1      -0.538   2.219  14.334  1.00  0.00     0.185 C 
ATOM     76  N   UNL     1      -0.931   0.955  14.107  1.00  0.00    -0.370 N 
ATOM     77  N   UNL     1      -1.076   2.714  15.462  1.00  0.00    -0.370 N 
ATOM     78  H   UNL     1      -0.565   0.504  13.280  1.00  0.00     0.159 HD
ATOM     79  H   UNL     1      -1.431   0.401  14.779  1.00  0.00     0.159 HD
ATOM     80  H   UNL     1      -0.872   3.657  15.758  1.00  0.00     0.159 HD
ATOM     81  H   UNL     1      -1.782   2.212  15.975  1.00  0.00     0.159 HD
ENDBRANCH  73  74
ENDBRANCH  72  73
ENDBRANCH  71  72
ENDBRANCH  45  71
ENDBRANCH   3  45
TORSDOF 20
ENDMDL
MODEL 9
REMARK VINA RESULT:    -5.353      7.680     11.721
REMARK INTER + INTRA:         -22.811
REMARK INTER:                 -17.250
REMARK INTRA:                  -5.561
REMARK UNBOUND:                -7.444
REMARK SMILES CCCCCC(=O)N[C@H](CC(=O)O)C(=O)N[C@H]1C(=O)N[C@H](CCCN=C(N)N)C(=O)N[C@@H]2CC[C@H](O)N(C2=O)[C@@H](CC(C)C)C(=O)N(C)[C@@H](Cc2ccccc2)C(=O)N[C@H](C(C)C)C(=O)O[C@@H]1C
REMARK SMILES IDX 30 1 31 2 29 3 32 5 35 6 37 7 34 8 38 9 33 10 39 11 36 12
REMARK SMILES IDX 40 14 41 15 42 16 43 17 44 18 45 19 46 20 47 21 48 22 49 23
REMARK SMILES IDX 50 24 51 25 52 26 56 27 53 28 55 29 54 30 57 31 58 32 59 33
REMARK SMILES IDX 60 35 61 36 62 37 63 38 64 39 65 40 66 41 67 42 68 43 21 45
REMARK SMILES IDX 20 46 18 47 19 48 17 50 16 52 14 53 15 54 9 56 8 57 6 58
REMARK SMILES IDX 7 59 5 61 4 62 3 63 2 64 1 65 10 66 11 67 12 68 13 69 22 71
REMARK SMILES IDX 23 72 24 73 25 74 26 75 27 76 28 77
REMARK H PARENT 31 4 36 13 59 34 20 49 16 55 8 60 13 70 27 78 27 79 28 80
REMARK H PARENT 28 81
REMARK Flexibility Score:  259.900
ROOT
ATOM      1  O   UNL     1      -1.584  11.011   5.786  1.00  0.00    -0.273 OA
ATOM      2  N   UNL     1       0.166  12.445   5.452  1.00  0.00    -0.343 N 
ATOM      3  C   UNL     1      -0.999  11.819   5.064  1.00  0.00     0.243 C 
ATOM      4  H   UNL     1       0.612  13.115   4.837  1.00  0.00     0.164 HD
ENDROOT
BRANCH   2   5
ATOM      5  C   UNL     1       0.824  12.081   6.702  1.00  0.00     0.171 C 
ATOM      6  C   UNL     1       3.559  12.334   7.629  1.00  0.00     0.214 C 
ATOM      7  N   UNL     1       3.147  11.126   6.953  1.00  0.00    -0.303 N 
ATOM      8  C   UNL     1       2.433  13.007   8.398  1.00  0.00     0.057 C 
ATOM      9  C   UNL     1       1.871  10.960   6.440  1.00  0.00     0.247 C 
ATOM     10  C   UNL     1       1.289  13.324   7.459  1.00  0.00     0.040 C 
ATOM     11  O   UNL     1       1.552   9.959   5.787  1.00  0.00    -0.272 OA
BRANCH   6  12
ATOM     12  O   UNL     1       4.087  13.211   6.660  1.00  0.00    -0.373 OA
ATOM     13  H   UNL     1       4.054  12.742   5.800  1.00  0.00     0.213 HD
ENDBRANCH   6  12
BRANCH   7  14
ATOM     14  C   UNL     1       4.193  10.114   6.693  1.00  0.00     0.177 C 
BRANCH  14  15
ATOM     15  C   UNL     1       4.037   8.794   7.474  1.00  0.00     0.038 C 
BRANCH  15  16
ATOM     16  C   UNL     1       4.614   8.682   8.902  1.00  0.00    -0.015 C 
ATOM     17  C   UNL     1       3.614   9.128   9.973  1.00  0.00     0.007 C 
ATOM     18  C   UNL     1       5.869   9.556   9.024  1.00  0.00     0.007 C 
ENDBRANCH  15  16
ENDBRANCH  14  15
BRANCH  14  19
ATOM     19  C   UNL     1       4.719  10.241   5.222  1.00  0.00     0.245 C 
ATOM     20  O   UNL     1       4.951  11.389   4.808  1.00  0.00    -0.272 OA
BRANCH  19  21
ATOM     21  N   UNL     1       4.826   9.174   4.347  1.00  0.00    -0.332 N 
ATOM     22  C   UNL     1       3.740   8.294   3.953  1.00  0.00     0.147 C 
BRANCH  21  23
ATOM     23  C   UNL     1       6.165   8.887   3.761  1.00  0.00     0.178 C 
BRANCH  23  24
ATOM     24  C   UNL     1       6.604   7.411   3.848  1.00  0.00     0.070 C 
BRANCH  24  25
ATOM     25  C   UNL     1       6.623   6.778   5.220  1.00  0.00    -0.045 A 
ATOM     26  C   UNL     1       7.459   7.276   6.228  1.00  0.00     0.004 A 
ATOM     27  C   UNL     1       5.804   5.675   5.502  1.00  0.00     0.004 A 
ATOM     28  C   UNL     1       7.483   6.675   7.488  1.00  0.00     0.000 A 
ATOM     29  C   UNL     1       5.829   5.076   6.762  1.00  0.00     0.000 A 
ATOM     30  C   UNL     1       6.671   5.575   7.754  1.00  0.00     0.000 A 
ENDBRANCH  24  25
ENDBRANCH  23  24
BRANCH  23  31
ATOM     31  C   UNL     1       6.373   9.548   2.378  1.00  0.00     0.243 C 
ATOM     32  O   UNL     1       7.201   9.170   1.553  1.00  0.00    -0.273 OA
ATOM     33  N   UNL     1       5.667  10.729   2.217  1.00  0.00    -0.341 N 
ATOM     34  H   UNL     1       4.996  10.995   2.941  1.00  0.00     0.164 HD
BRANCH  33  35
ATOM     35  C   UNL     1       5.803  11.586   1.036  1.00  0.00     0.194 C 
BRANCH  35  36
ATOM     36  C   UNL     1       6.806  12.761   1.216  1.00  0.00     0.017 C 
ATOM     37  C   UNL     1       7.648  12.976  -0.054  1.00  0.00     0.010 C 
ATOM     38  C   UNL     1       7.779  12.551   2.382  1.00  0.00     0.010 C 
ENDBRANCH  35  36
BRANCH  35  39
ATOM     39  C   UNL     1       4.431  12.073   0.490  1.00  0.00     0.329 C 
ATOM     40  O   UNL     1       4.071  11.944  -0.674  1.00  0.00    -0.250 OA
BRANCH  39  41
ATOM     41  O   UNL     1       3.632  12.584   1.475  1.00  0.00    -0.458 OA
BRANCH  41  42
ATOM     42  C   UNL     1       2.389  11.883   1.720  1.00  0.00     0.205 CG0
ATOM     43  C   UNL     1       2.546  10.471   1.158  1.00  0.00     0.056 C 
ATOM     44  G   UNL     1       1.243  12.662   1.046  1.00  0.00     0.000 G0
ENDBRANCH  41  42
ENDBRANCH  39  41
ENDBRANCH  35  39
ENDBRANCH  33  35
ENDBRANCH  23  31
ENDBRANCH  21  23
ENDBRANCH  19  21
ENDBRANCH  14  19
ENDBRANCH   7  14
ENDBRANCH   2   5
BRANCH   3  45
ATOM     45  C   UNL     1      -1.528  12.214   3.679  1.00  0.00     0.171 C 
BRANCH  45  46
ATOM     46  N   UNL     1      -0.360  12.643   2.919  1.00  0.00    -0.342 N 
ATOM     47  C   UNL     1      -0.118  12.214   1.638  1.00  0.00     0.247 C 
ATOM     48  O   UNL     1      -0.901  11.499   1.013  1.00  0.00    -0.273 OA
ATOM     49  H   UNL     1       0.286  13.281   3.379  1.00  0.00     0.164 HD
BRANCH  47  50
ATOM     50  C   UNL     1       1.222  12.670   1.043  1.00  0.00     0.212 CG0
ATOM     51  G   UNL     1       2.342  11.899   1.769  1.00  0.00     0.000 G0
BRANCH  50  52
ATOM     52  N   UNL     1       1.140  12.363  -0.382  1.00  0.00    -0.339 N 
ATOM     53  C   UNL     1       1.284  13.308  -1.369  1.00  0.00     0.243 C 
ATOM     54  O   UNL     1       1.441  14.501  -1.124  1.00  0.00    -0.273 OA
ATOM     55  H   UNL     1       0.901  11.409  -0.647  1.00  0.00     0.164 HD
BRANCH  53  56
ATOM     56  C   UNL     1       1.071  12.763  -2.796  1.00  0.00     0.182 C 
BRANCH  56  57
ATOM     57  N   UNL     1       0.577  11.383  -2.764  1.00  0.00    -0.344 N 
ATOM     58  C   UNL     1      -0.740  11.078  -2.524  1.00  0.00     0.220 C 
ATOM     59  O   UNL     1      -1.578  11.929  -2.247  1.00  0.00    -0.275 OA
ATOM     60  H   UNL     1       1.214  10.659  -3.086  1.00  0.00     0.164 HD
BRANCH  58  61
ATOM     61  C   UNL     1      -1.036   9.591  -2.596  1.00  0.00     0.100 C 
BRANCH  61  62
ATOM     62  C   UNL     1       0.134   8.708  -2.163  1.00  0.00     0.010 C 
BRANCH  62  63
ATOM     63  C   UNL     1       0.006   8.150  -0.740  1.00  0.00     0.000 C 
BRANCH  63  64
ATOM     64  C   UNL     1      -1.431   7.880  -0.299  1.00  0.00    -0.003 C 
ATOM     65  C   UNL     1      -1.621   8.165   1.184  1.00  0.00     0.004 C 
ENDBRANCH  63  64
ENDBRANCH  62  63
ENDBRANCH  61  62
ENDBRANCH  58  61
ENDBRANCH  56  57
BRANCH  56  66
ATOM     66  C   UNL     1       2.334  12.905  -3.643  1.00  0.00     0.157 C 
BRANCH  66  67
ATOM     67  C   UNL     1       2.096  13.793  -4.830  1.00  0.00     0.305 C 
ATOM     68  O   UNL     1       2.429  14.962  -4.949  1.00  0.00    -0.252 OA
BRANCH  67  69
ATOM     69  O   UNL     1       1.490  13.143  -5.842  1.00  0.00    -0.481 OA
ATOM     70  H   UNL     1       1.015  12.400  -5.413  1.00  0.00     0.296 HD
ENDBRANCH  67  69
ENDBRANCH  66  67
ENDBRANCH  56  66
ENDBRANCH  53  56
ENDBRANCH  50  52
ENDBRANCH  47  50
ENDBRANCH  45  46
BRANCH  45  71
ATOM     71  C   UNL     1      -2.564  13.337   3.803  1.00  0.00     0.037 C 
BRANCH  71  72
ATOM     72  C   UNL     1      -2.111  14.619   3.102  1.00  0.00     0.026 C 
BRANCH  72  73
ATOM     73  C   UNL     1      -2.822  14.807   1.763  1.00  0.00     0.146 C 
BRANCH  73  74
ATOM     74  N   UNL     1      -4.048  14.015   1.793  1.00  0.00    -0.254 NA
ATOM     75  C   UNL     1      -4.182  13.085   0.921  1.00  0.00     0.185 C 
ATOM     76  N   UNL     1      -5.298  12.338   0.924  1.00  0.00    -0.370 N 
ATOM     77  N   UNL     1      -3.335  12.714  -0.055  1.00  0.00    -0.370 N 
ATOM     78  H   UNL     1      -5.993  12.557   1.624  1.00  0.00     0.159 HD
ATOM     79  H   UNL     1      -5.536  11.695   0.190  1.00  0.00     0.159 HD
ATOM     80  H   UNL     1      -2.451  13.185  -0.175  1.00  0.00     0.159 HD
ATOM     81  H   UNL     1      -3.497  11.889  -0.609  1.00  0.00     0.159 HD
ENDBRANCH  73  74
ENDBRANCH  72  73
ENDBRANCH  71  72
ENDBRANCH  45  71
ENDBRANCH   3  45
TORSDOF 20
ENDMDL
MODEL 10
REMARK VINA RESULT:    -5.306      5.365      8.492
REMARK INTER + INTRA:         -22.677
REMARK INTER:                 -16.112
REMARK INTRA:                  -6.565
REMARK UNBOUND:                -7.444
REMARK SMILES CCCCCC(=O)N[C@H](CC(=O)O)C(=O)N[C@H]1C(=O)N[C@H](CCCN=C(N)N)C(=O)N[C@@H]2CC[C@H](O)N(C2=O)[C@@H](CC(C)C)C(=O)N(C)[C@@H](Cc2ccccc2)C(=O)N[C@H](C(C)C)C(=O)O[C@@H]1C
REMARK SMILES IDX 30 1 31 2 29 3 32 5 35 6 37 7 34 8 38 9 33 10 39 11 36 12
REMARK SMILES IDX 40 14 41 15 42 16 43 17 44 18 45 19 46 20 47 21 48 22 49 23
REMARK SMILES IDX 50 24 51 25 52 26 56 27 53 28 55 29 54 30 57 31 58 32 59 33
REMARK SMILES IDX 60 35 61 36 62 37 63 38 64 39 65 40 66 41 67 42 68 43 21 45
REMARK SMILES IDX 20 46 18 47 19 48 17 50 16 52 14 53 15 54 9 56 8 57 6 58
REMARK SMILES IDX 7 59 5 61 4 62 3 63 2 64 1 65 10 66 11 67 12 68 13 69 22 71
REMARK SMILES IDX 23 72 24 73 25 74 26 75 27 76 28 77
REMARK H PARENT 31 4 36 13 59 34 20 49 16 55 8 60 13 70 27 78 27 79 28 80
REMARK H PARENT 28 81
REMARK Flexibility Score:  259.900
ROOT
ATOM      1  O   UNL     1       2.669   1.620   8.901  1.00  0.00    -0.273 OA
ATOM      2  N   UNL     1       3.203   0.761  10.952  1.00  0.00    -0.343 N 
ATOM      3  C   UNL     1       2.361   1.410  10.074  1.00  0.00     0.243 C 
ATOM      4  H   UNL     1       2.911   0.593  11.906  1.00  0.00     0.164 HD
ENDROOT
BRANCH   2   5
ATOM      5  C   UNL     1       4.558   0.399  10.550  1.00  0.00     0.171 C 
ATOM      6  C   UNL     1       6.926  -0.329  12.057  1.00  0.00     0.214 C 
ATOM      7  N   UNL     1       6.697   1.057  11.719  1.00  0.00    -0.303 N 
ATOM      8  C   UNL     1       6.346  -1.300  11.040  1.00  0.00     0.057 C 
ATOM      9  C   UNL     1       5.562   1.479  11.045  1.00  0.00     0.247 C 
ATOM     10  C   UNL     1       4.860  -1.060  10.891  1.00  0.00     0.040 C 
ATOM     11  O   UNL     1       5.331   2.677  10.836  1.00  0.00    -0.272 OA
BRANCH   6  12
ATOM     12  O   UNL     1       6.369  -0.559  13.330  1.00  0.00    -0.373 OA
ATOM     13  H   UNL     1       5.685   0.130  13.473  1.00  0.00     0.213 HD
ENDBRANCH   6  12
BRANCH   7  14
ATOM     14  C   UNL     1       7.659   2.044  12.251  1.00  0.00     0.177 C 
BRANCH  14  15
ATOM     15  C   UNL     1       7.893   1.978  13.773  1.00  0.00     0.038 C 
BRANCH  15  16
ATOM     16  C   UNL     1       9.307   2.241  14.338  1.00  0.00    -0.015 C 
ATOM     17  C   UNL     1      10.109   0.950  14.527  1.00  0.00     0.007 C 
ATOM     18  C   UNL     1       9.200   2.943  15.697  1.00  0.00     0.007 C 
ENDBRANCH  15  16
ENDBRANCH  14  15
BRANCH  14  19
ATOM     19  C   UNL     1       8.755   2.369  11.178  1.00  0.00     0.245 C 
ATOM     20  O   UNL     1       9.352   1.401  10.679  1.00  0.00    -0.272 OA
BRANCH  19  21
ATOM     21  N   UNL     1       9.159   3.651  10.852  1.00  0.00    -0.332 N 
ATOM     22  C   UNL     1      10.232   4.387  11.498  1.00  0.00     0.147 C 
BRANCH  21  23
ATOM     23  C   UNL     1       8.435   4.351   9.755  1.00  0.00     0.178 C 
BRANCH  23  24
ATOM     24  C   UNL     1       7.644   3.424   8.810  1.00  0.00     0.070 C 
BRANCH  24  25
ATOM     25  C   UNL     1       6.890   4.079   7.675  1.00  0.00    -0.045 A 
ATOM     26  C   UNL     1       7.545   4.930   6.776  1.00  0.00     0.004 A 
ATOM     27  C   UNL     1       5.517   3.845   7.510  1.00  0.00     0.004 A 
ATOM     28  C   UNL     1       6.838   5.545   5.740  1.00  0.00     0.000 A 
ATOM     29  C   UNL     1       4.812   4.459   6.474  1.00  0.00     0.000 A 
ATOM     30  C   UNL     1       5.473   5.311   5.591  1.00  0.00     0.000 A 
ENDBRANCH  24  25
ENDBRANCH  23  24
BRANCH  23  31
ATOM     31  C   UNL     1       7.660   5.598  10.243  1.00  0.00     0.243 C 
ATOM     32  O   UNL     1       7.890   6.743   9.861  1.00  0.00    -0.273 OA
ATOM     33  N   UNL     1       6.799   5.338  11.296  1.00  0.00    -0.341 N 
ATOM     34  H   UNL     1       6.653   4.364  11.574  1.00  0.00     0.164 HD
BRANCH  33  35
ATOM     35  C   UNL     1       6.052   6.387  11.996  1.00  0.00     0.194 C 
BRANCH  35  36
ATOM     36  C   UNL     1       6.543   6.656  13.446  1.00  0.00     0.017 C 
ATOM     37  C   UNL     1       7.115   8.077  13.588  1.00  0.00     0.010 C 
ATOM     38  C   UNL     1       7.628   5.676  13.909  1.00  0.00     0.010 C 
ENDBRANCH  35  36
BRANCH  35  39
ATOM     39  C   UNL     1       4.514   6.167  11.934  1.00  0.00     0.329 C 
ATOM     40  O   UNL     1       3.782   6.677  11.095  1.00  0.00    -0.250 OA
BRANCH  39  41
ATOM     41  O   UNL     1       4.079   5.271  12.871  1.00  0.00    -0.458 OA
BRANCH  41  42
ATOM     42  C   UNL     1       2.767   5.514  13.430  1.00  0.00     0.205 CG0
ATOM     43  C   UNL     1       2.969   6.169  14.795  1.00  0.00     0.056 C 
ATOM     44  G   UNL     1       2.016   4.171  13.526  1.00  0.00     0.000 G0
ENDBRANCH  41  42
ENDBRANCH  39  41
ENDBRANCH  35  39
ENDBRANCH  33  35
ENDBRANCH  23  31
ENDBRANCH  21  23
ENDBRANCH  19  21
ENDBRANCH  14  19
ENDBRANCH   7  14
ENDBRANCH   2   5
BRANCH   3  45
ATOM     45  C   UNL     1       1.005   1.832  10.656  1.00  0.00     0.171 C 
BRANCH  45  46
ATOM     46  N   UNL     1       1.301   2.422  11.955  1.00  0.00    -0.342 N 
ATOM     47  C   UNL     1       1.617   3.749  12.106  1.00  0.00     0.247 C 
ATOM     48  O   UNL     1       1.603   4.550  11.170  1.00  0.00    -0.273 OA
ATOM     49  H   UNL     1       1.268   1.806  12.765  1.00  0.00     0.164 HD
BRANCH  47  50
ATOM     50  C   UNL     1       2.019   4.164  13.528  1.00  0.00     0.212 CG0
ATOM     51  G   UNL     1       2.743   5.522  13.432  1.00  0.00     0.000 G0
BRANCH  50  52
ATOM     52  N   UNL     1       0.771   4.227  14.283  1.00  0.00    -0.339 N 
ATOM     53  C   UNL     1       0.553   3.526  15.444  1.00  0.00     0.243 C 
ATOM     54  O   UNL     1       1.379   2.746  15.911  1.00  0.00    -0.273 OA
ATOM     55  H   UNL     1       0.006   4.771  13.888  1.00  0.00     0.164 HD
BRANCH  53  56
ATOM     56  C   UNL     1      -0.870   3.684  16.016  1.00  0.00     0.182 C 
BRANCH  56  57
ATOM     57  N   UNL     1      -1.831   4.003  14.955  1.00  0.00    -0.344 N 
ATOM     58  C   UNL     1      -2.128   3.122  13.943  1.00  0.00     0.220 C 
ATOM     59  O   UNL     1      -1.561   2.043  13.814  1.00  0.00    -0.275 OA
ATOM     60  H   UNL     1      -2.395   4.839  15.080  1.00  0.00     0.164 HD
BRANCH  58  61
ATOM     61  C   UNL     1      -3.192   3.638  12.991  1.00  0.00     0.100 C 
BRANCH  61  62
ATOM     62  C   UNL     1      -3.094   5.138  12.711  1.00  0.00     0.010 C 
BRANCH  62  63
ATOM     63  C   UNL     1      -2.330   5.488  11.428  1.00  0.00     0.000 C 
BRANCH  63  64
ATOM     64  C   UNL     1      -1.770   4.279  10.681  1.00  0.00    -0.003 C 
ATOM     65  C   UNL     1      -1.627   4.563   9.193  1.00  0.00     0.004 C 
ENDBRANCH  63  64
ENDBRANCH  62  63
ENDBRANCH  61  62
ENDBRANCH  58  61
ENDBRANCH  56  57
BRANCH  56  66
ATOM     66  C   UNL     1      -0.908   4.704  17.152  1.00  0.00     0.157 C 
BRANCH  66  67
ATOM     67  C   UNL     1      -1.171   6.088  16.633  1.00  0.00     0.305 C 
ATOM     68  O   UNL     1      -0.402   6.790  15.994  1.00  0.00    -0.252 OA
BRANCH  67  69
ATOM     69  O   UNL     1      -2.423   6.506  16.901  1.00  0.00    -0.481 OA
ATOM     70  H   UNL     1      -2.906   6.408  16.054  1.00  0.00     0.296 HD
ENDBRANCH  67  69
ENDBRANCH  66  67
ENDBRANCH  56  66
ENDBRANCH  53  56
ENDBRANCH  50  52
ENDBRANCH  47  50
ENDBRANCH  45  46
BRANCH  45  71
ATOM     71  C   UNL     1       0.078   0.618  10.784  1.00  0.00     0.037 C 
BRANCH  71  72
ATOM     72  C   UNL     1      -1.117   0.704   9.831  1.00  0.00     0.026 C 
BRANCH  72  73
ATOM     73  C   UNL     1      -2.159  -0.368  10.142  1.00  0.00     0.146 C 
BRANCH  73  74
ATOM     74  N   UNL     1      -1.734  -1.068  11.350  1.00  0.00    -0.254 NA
ATOM     75  C   UNL     1      -2.398  -0.863  12.427  1.00  0.00     0.185 C 
ATOM     76  N   UNL     1      -2.032  -1.493  13.555  1.00  0.00    -0.370 N 
ATOM     77  N   UNL     1      -3.467  -0.071  12.622  1.00  0.00    -0.370 N 
ATOM     78  H   UNL     1      -1.230  -2.104  13.497  1.00  0.00     0.159 HD
ATOM     79  H   UNL     1      -2.409  -1.273  14.460  1.00  0.00     0.159 HD
ATOM     80  H   UNL     1      -3.857   0.463  11.860  1.00  0.00     0.159 HD
ATOM     81  H   UNL     1      -3.979  -0.078  13.489  1.00  0.00     0.159 HD
ENDBRANCH  73  74
ENDBRANCH  72  73
ENDBRANCH  71  72
ENDBRANCH  45  71
ENDBRANCH   3  45
TORSDOF 20
ENDMDL
MODEL 11
REMARK VINA RESULT:    -5.230      3.274      4.386
REMARK INTER + INTRA:         -22.458
REMARK INTER:                 -16.545
REMARK INTRA:                  -5.914
REMARK UNBOUND:                -7.444
REMARK SMILES CCCCCC(=O)N[C@H](CC(=O)O)C(=O)N[C@H]1C(=O)N[C@H](CCCN=C(N)N)C(=O)N[C@@H]2CC[C@H](O)N(C2=O)[C@@H](CC(C)C)C(=O)N(C)[C@@H](Cc2ccccc2)C(=O)N[C@H](C(C)C)C(=O)O[C@@H]1C
REMARK SMILES IDX 30 1 31 2 29 3 32 5 35 6 37 7 34 8 38 9 33 10 39 11 36 12
REMARK SMILES IDX 40 14 41 15 42 16 43 17 44 18 45 19 46 20 47 21 48 22 49 23
REMARK SMILES IDX 50 24 51 25 52 26 56 27 53 28 55 29 54 30 57 31 58 32 59 33
REMARK SMILES IDX 60 35 61 36 62 37 63 38 64 39 65 40 66 41 67 42 68 43 21 45
REMARK SMILES IDX 20 46 18 47 19 48 17 50 16 52 14 53 15 54 9 56 8 57 6 58
REMARK SMILES IDX 7 59 5 61 4 62 3 63 2 64 1 65 10 66 11 67 12 68 13 69 22 71
REMARK SMILES IDX 23 72 24 73 25 74 26 75 27 76 28 77
REMARK H PARENT 31 4 36 13 59 34 20 49 16 55 8 60 13 70 27 78 27 79 28 80
REMARK H PARENT 28 81
REMARK Flexibility Score:  259.900
ROOT
ATOM      1  O   UNL     1       2.742   3.266   8.077  1.00  0.00    -0.273 OA
ATOM      2  N   UNL     1       4.419   4.745   8.558  1.00  0.00    -0.343 N 
ATOM      3  C   UNL     1       3.532   3.743   8.892  1.00  0.00     0.243 C 
ATOM      4  H   UNL     1       5.065   5.103   9.251  1.00  0.00     0.164 HD
ENDROOT
BRANCH   2   5
ATOM      5  C   UNL     1       4.373   5.368   7.240  1.00  0.00     0.171 C 
ATOM      6  C   UNL     1       6.289   6.954   5.750  1.00  0.00     0.214 C 
ATOM      7  N   UNL     1       5.335   7.615   6.609  1.00  0.00    -0.303 N 
ATOM      8  C   UNL     1       5.772   5.647   5.169  1.00  0.00     0.057 C 
ATOM      9  C   UNL     1       4.426   6.916   7.386  1.00  0.00     0.247 C 
ATOM     10  C   UNL     1       5.372   4.711   6.288  1.00  0.00     0.040 C 
ATOM     11  O   UNL     1       3.670   7.485   8.184  1.00  0.00    -0.272 OA
BRANCH   6  12
ATOM     12  O   UNL     1       7.460   6.729   6.501  1.00  0.00    -0.373 OA
ATOM     13  H   UNL     1       7.701   5.785   6.382  1.00  0.00     0.213 HD
ENDBRANCH   6  12
BRANCH   7  14
ATOM     14  C   UNL     1       5.458   9.082   6.743  1.00  0.00     0.177 C 
BRANCH  14  15
ATOM     15  C   UNL     1       6.890   9.602   6.976  1.00  0.00     0.038 C 
BRANCH  15  16
ATOM     16  C   UNL     1       7.348   9.955   8.408  1.00  0.00    -0.015 C 
ATOM     17  C   UNL     1       6.184   9.990   9.402  1.00  0.00     0.007 C 
ATOM     18  C   UNL     1       8.024  11.332   8.411  1.00  0.00     0.007 C 
ENDBRANCH  15  16
ENDBRANCH  14  15
BRANCH  14  19
ATOM     19  C   UNL     1       4.360   9.801   5.885  1.00  0.00     0.245 C 
ATOM     20  O   UNL     1       3.537  10.498   6.500  1.00  0.00    -0.272 OA
BRANCH  19  21
ATOM     21  N   UNL     1       4.199   9.611   4.524  1.00  0.00    -0.332 N 
ATOM     22  C   UNL     1       3.127   8.857   3.899  1.00  0.00     0.147 C 
BRANCH  21  23
ATOM     23  C   UNL     1       5.209  10.216   3.612  1.00  0.00     0.178 C 
BRANCH  23  24
ATOM     24  C   UNL     1       5.941   9.210   2.701  1.00  0.00     0.070 C 
BRANCH  24  25
ATOM     25  C   UNL     1       7.435   9.379   2.549  1.00  0.00    -0.045 A 
ATOM     26  C   UNL     1       8.273   9.397   3.672  1.00  0.00     0.004 A 
ATOM     27  C   UNL     1       8.005   9.527   1.276  1.00  0.00     0.004 A 
ATOM     28  C   UNL     1       9.650   9.571   3.524  1.00  0.00     0.000 A 
ATOM     29  C   UNL     1       9.382   9.700   1.130  1.00  0.00     0.000 A 
ATOM     30  C   UNL     1      10.204   9.724   2.255  1.00  0.00     0.000 A 
ENDBRANCH  24  25
ENDBRANCH  23  24
BRANCH  23  31
ATOM     31  C   UNL     1       4.692  11.487   2.896  1.00  0.00     0.243 C 
ATOM     32  O   UNL     1       4.418  12.536   3.473  1.00  0.00    -0.273 OA
ATOM     33  N   UNL     1       4.384  11.283   1.562  1.00  0.00    -0.341 N 
ATOM     34  H   UNL     1       4.631  10.385   1.138  1.00  0.00     0.164 HD
BRANCH  33  35
ATOM     35  C   UNL     1       3.769  12.312   0.718  1.00  0.00     0.194 C 
BRANCH  35  36
ATOM     36  C   UNL     1       2.450  11.861   0.028  1.00  0.00     0.017 C 
ATOM     37  C   UNL     1       1.356  12.935   0.158  1.00  0.00     0.010 C 
ATOM     38  C   UNL     1       1.883  10.557   0.601  1.00  0.00     0.010 C 
ENDBRANCH  35  36
BRANCH  35  39
ATOM     39  C   UNL     1       4.771  12.932  -0.295  1.00  0.00     0.329 C 
ATOM     40  O   UNL     1       5.687  13.683   0.019  1.00  0.00    -0.250 OA
BRANCH  39  41
ATOM     41  O   UNL     1       4.571  12.478  -1.569  1.00  0.00    -0.458 OA
BRANCH  41  42
ATOM     42  C   UNL     1       4.650  13.468  -2.622  1.00  0.00     0.205 CG0
ATOM     43  C   UNL     1       5.683  12.975  -3.633  1.00  0.00     0.056 C 
ATOM     44  G   UNL     1       5.036  14.823  -1.996  1.00  0.00     0.000 G0
ENDBRANCH  41  42
ENDBRANCH  39  41
ENDBRANCH  35  39
ENDBRANCH  33  35
ENDBRANCH  23  31
ENDBRANCH  21  23
ENDBRANCH  19  21
ENDBRANCH  14  19
ENDBRANCH   7  14
ENDBRANCH   2   5
BRANCH   3  45
ATOM     45  C   UNL     1       3.613   3.250  10.342  1.00  0.00     0.171 C 
BRANCH  45  46
ATOM     46  N   UNL     1       2.865   2.000  10.376  1.00  0.00    -0.342 N 
ATOM     47  C   UNL     1       3.392   0.841  10.888  1.00  0.00     0.247 C 
ATOM     48  O   UNL     1       4.501   0.789  11.420  1.00  0.00    -0.273 OA
ATOM     49  H   UNL     1       1.920   2.013   9.996  1.00  0.00     0.164 HD
BRANCH  47  50
ATOM     50  C   UNL     1       2.506  -0.402  10.725  1.00  0.00     0.212 CG0
ATOM     51  G   UNL     1       2.755  -1.316  11.941  1.00  0.00     0.000 G0
BRANCH  50  52
ATOM     52  N   UNL     1       1.137   0.101  10.651  1.00  0.00    -0.339 N 
ATOM     53  C   UNL     1       0.106  -0.401  11.408  1.00  0.00     0.243 C 
ATOM     54  O   UNL     1       0.246  -1.353  12.170  1.00  0.00    -0.273 OA
ATOM     55  H   UNL     1       0.933   0.817   9.957  1.00  0.00     0.164 HD
BRANCH  53  56
ATOM     56  C   UNL     1      -1.266   0.231  11.095  1.00  0.00     0.182 C 
BRANCH  56  57
ATOM     57  N   UNL     1      -1.113   1.598  10.588  1.00  0.00    -0.344 N 
ATOM     58  C   UNL     1      -1.579   1.982   9.354  1.00  0.00     0.220 C 
ATOM     59  O   UNL     1      -2.087   1.195   8.563  1.00  0.00    -0.275 OA
ATOM     60  H   UNL     1      -0.792   2.301  11.249  1.00  0.00     0.164 HD
BRANCH  58  61
ATOM     61  C   UNL     1      -1.364   3.455   9.062  1.00  0.00     0.100 C 
BRANCH  61  62
ATOM     62  C   UNL     1      -0.167   4.061   9.796  1.00  0.00     0.010 C 
BRANCH  62  63
ATOM     63  C   UNL     1      -0.532   5.193  10.764  1.00  0.00     0.000 C 
BRANCH  63  64
ATOM     64  C   UNL     1      -2.021   5.533  10.798  1.00  0.00    -0.003 C 
ATOM     65  C   UNL     1      -2.639   5.189  12.146  1.00  0.00     0.004 C 
ENDBRANCH  63  64
ENDBRANCH  62  63
ENDBRANCH  61  62
ENDBRANCH  58  61
ENDBRANCH  56  57
BRANCH  56  66
ATOM     66  C   UNL     1      -2.201   0.164  12.302  1.00  0.00     0.157 C 
BRANCH  66  67
ATOM     67  C   UNL     1      -2.238   1.474  13.034  1.00  0.00     0.305 C 
ATOM     68  O   UNL     1      -1.280   2.163  13.353  1.00  0.00    -0.252 OA
BRANCH  67  69
ATOM     69  O   UNL     1      -3.495   1.884  13.287  1.00  0.00    -0.481 OA
ATOM     70  H   UNL     1      -3.470   2.857  13.167  1.00  0.00     0.296 HD
ENDBRANCH  67  69
ENDBRANCH  66  67
ENDBRANCH  56  66
ENDBRANCH  53  56
ENDBRANCH  50  52
ENDBRANCH  47  50
ENDBRANCH  45  46
BRANCH  45  71
ATOM     71  C   UNL     1       3.015   4.292  11.294  1.00  0.00     0.037 C 
BRANCH  71  72
ATOM     72  C   UNL     1       2.342   3.645  12.507  1.00  0.00     0.026 C 
BRANCH  72  73
ATOM     73  C   UNL     1       2.438   4.536  13.743  1.00  0.00     0.146 C 
BRANCH  73  74
ATOM     74  N   UNL     1       1.107   5.073  14.012  1.00  0.00    -0.254 NA
ATOM     75  C   UNL     1       0.943   6.341  13.920  1.00  0.00     0.185 C 
ATOM     76  N   UNL     1      -0.270   6.864  14.160  1.00  0.00    -0.370 N 
ATOM     77  N   UNL     1       1.842   7.289  13.603  1.00  0.00    -0.370 N 
ATOM     78  H   UNL     1      -1.005   6.219  14.414  1.00  0.00     0.159 HD
ATOM     79  H   UNL     1      -0.440   7.851  14.249  1.00  0.00     0.159 HD
ATOM     80  H   UNL     1       2.797   7.041  13.393  1.00  0.00     0.159 HD
ATOM     81  H   UNL     1       1.569   8.245  13.449  1.00  0.00     0.159 HD
ENDBRANCH  73  74
ENDBRANCH  72  73
ENDBRANCH  71  72
ENDBRANCH  45  71
ENDBRANCH   3  45
TORSDOF 20
ENDMDL
MODEL 12
REMARK VINA RESULT:    -5.220      4.586      7.025
REMARK INTER + INTRA:         -22.429
REMARK INTER:                 -15.998
REMARK INTRA:                  -6.430
REMARK UNBOUND:                -7.444
REMARK SMILES CCCCCC(=O)N[C@H](CC(=O)O)C(=O)N[C@H]1C(=O)N[C@H](CCCN=C(N)N)C(=O)N[C@@H]2CC[C@H](O)N(C2=O)[C@@H](CC(C)C)C(=O)N(C)[C@@H](Cc2ccccc2)C(=O)N[C@H](C(C)C)C(=O)O[C@@H]1C
REMARK SMILES IDX 30 1 31 2 29 3 32 5 35 6 37 7 34 8 38 9 33 10 39 11 36 12
REMARK SMILES IDX 40 14 41 15 42 16 43 17 44 18 45 19 46 20 47 21 48 22 49 23
REMARK SMILES IDX 50 24 51 25 52 26 56 27 53 28 55 29 54 30 57 31 58 32 59 33
REMARK SMILES IDX 60 35 61 36 62 37 63 38 64 39 65 40 66 41 67 42 68 43 21 45
REMARK SMILES IDX 20 46 18 47 19 48 17 50 16 52 14 53 15 54 9 56 8 57 6 58
REMARK SMILES IDX 7 59 5 61 4 62 3 63 2 64 1 65 10 66 11 67 12 68 13 69 22 71
REMARK SMILES IDX 23 72 24 73 25 74 26 75 27 76 28 77
REMARK H PARENT 31 4 36 13 59 34 20 49 16 55 8 60 13 70 27 78 27 79 28 80
REMARK H PARENT 28 81
REMARK Flexibility Score:  259.900
ROOT
ATOM      1  O   UNL     1       3.925   4.528   7.886  1.00  0.00    -0.273 OA
ATOM      2  N   UNL     1       5.504   6.121   7.438  1.00  0.00    -0.343 N 
ATOM      3  C   UNL     1       4.931   5.149   8.230  1.00  0.00     0.243 C 
ATOM      4  H   UNL     1       6.340   6.601   7.748  1.00  0.00     0.164 HD
ENDROOT
BRANCH   2   5
ATOM      5  C   UNL     1       4.862   6.540   6.197  1.00  0.00     0.171 C 
ATOM      6  C   UNL     1       5.775   8.139   3.957  1.00  0.00     0.214 C 
ATOM      7  N   UNL     1       5.107   8.783   5.064  1.00  0.00    -0.303 N 
ATOM      8  C   UNL     1       5.318   6.707   3.730  1.00  0.00     0.057 C 
ATOM      9  C   UNL     1       4.691   8.086   6.188  1.00  0.00     0.247 C 
ATOM     10  C   UNL     1       5.535   5.894   4.987  1.00  0.00     0.040 C 
ATOM     11  O   UNL     1       4.198   8.658   7.169  1.00  0.00    -0.272 OA
BRANCH   6  12
ATOM     12  O   UNL     1       7.160   8.180   4.208  1.00  0.00    -0.373 OA
ATOM     13  H   UNL     1       7.591   7.609   3.537  1.00  0.00     0.213 HD
ENDBRANCH   6  12
BRANCH   7  14
ATOM     14  C   UNL     1       5.009  10.257   5.023  1.00  0.00     0.177 C 
BRANCH  14  15
ATOM     15  C   UNL     1       6.338  10.996   4.770  1.00  0.00     0.038 C 
BRANCH  15  16
ATOM     16  C   UNL     1       7.251  11.350   5.964  1.00  0.00    -0.015 C 
ATOM     17  C   UNL     1       6.893  12.700   6.593  1.00  0.00     0.007 C 
ATOM     18  C   UNL     1       8.712  11.409   5.500  1.00  0.00     0.007 C 
ENDBRANCH  15  16
ENDBRANCH  14  15
BRANCH  14  19
ATOM     19  C   UNL     1       3.609  10.694   4.470  1.00  0.00     0.245 C 
ATOM     20  O   UNL     1       2.889  11.360   5.233  1.00  0.00    -0.272 OA
BRANCH  19  21
ATOM     21  N   UNL     1       3.102  10.290   3.248  1.00  0.00    -0.332 N 
ATOM     22  C   UNL     1       2.202   9.170   3.038  1.00  0.00     0.147 C 
BRANCH  21  23
ATOM     23  C   UNL     1       3.515  11.051   2.037  1.00  0.00     0.178 C 
BRANCH  23  24
ATOM     24  C   UNL     1       4.608  10.371   1.188  1.00  0.00     0.070 C 
BRANCH  24  25
ATOM     25  C   UNL     1       6.008  10.930   1.292  1.00  0.00    -0.045 A 
ATOM     26  C   UNL     1       7.124  10.087   1.226  1.00  0.00     0.004 A 
ATOM     27  C   UNL     1       6.208  12.308   1.462  1.00  0.00     0.004 A 
ATOM     28  C   UNL     1       8.414  10.610   1.340  1.00  0.00     0.000 A 
ATOM     29  C   UNL     1       7.498  12.829   1.575  1.00  0.00     0.000 A 
ATOM     30  C   UNL     1       8.600  11.979   1.516  1.00  0.00     0.000 A 
ENDBRANCH  24  25
ENDBRANCH  23  24
BRANCH  23  31
ATOM     31  C   UNL     1       2.313  11.602   1.232  1.00  0.00     0.243 C 
ATOM     32  O   UNL     1       1.515  12.428   1.668  1.00  0.00    -0.273 OA
ATOM     33  N   UNL     1       2.103  10.944   0.032  1.00  0.00    -0.341 N 
ATOM     34  H   UNL     1       2.800  10.261  -0.276  1.00  0.00     0.164 HD
BRANCH  33  35
ATOM     35  C   UNL     1       0.955  11.216  -0.838  1.00  0.00     0.194 C 
BRANCH  35  36
ATOM     36  C   UNL     1      -0.249  10.258  -0.619  1.00  0.00     0.017 C 
ATOM     37  C   UNL     1      -1.254  10.843   0.389  1.00  0.00     0.010 C 
ATOM     38  C   UNL     1       0.165   8.874  -0.103  1.00  0.00     0.010 C 
ENDBRANCH  35  36
BRANCH  35  39
ATOM     39  C   UNL     1       1.352  11.316  -2.337  1.00  0.00     0.329 C 
ATOM     40  O   UNL     1       1.890  10.412  -2.966  1.00  0.00    -0.250 OA
BRANCH  39  41
ATOM     41  O   UNL     1       0.956  12.497  -2.903  1.00  0.00    -0.458 OA
BRANCH  41  42
ATOM     42  C   UNL     1       1.758  12.979  -4.007  1.00  0.00     0.205 CG0
ATOM     43  C   UNL     1       2.877  13.834  -3.417  1.00  0.00     0.056 C 
ATOM     44  G   UNL     1       0.848  13.777  -4.963  1.00  0.00     0.000 G0
ENDBRANCH  41  42
ENDBRANCH  39  41
ENDBRANCH  35  39
ENDBRANCH  33  35
ENDBRANCH  23  31
ENDBRANCH  21  23
ENDBRANCH  19  21
ENDBRANCH  14  19
ENDBRANCH   7  14
ENDBRANCH   2   5
BRANCH   3  45
ATOM     45  C   UNL     1       5.647   4.880   9.561  1.00  0.00     0.171 C 
BRANCH  45  46
ATOM     46  N   UNL     1       4.750   4.021  10.324  1.00  0.00    -0.342 N 
ATOM     47  C   UNL     1       5.092   2.745  10.695  1.00  0.00     0.247 C 
ATOM     48  O   UNL     1       6.202   2.260  10.477  1.00  0.00    -0.273 OA
ATOM     49  H   UNL     1       3.841   4.404  10.575  1.00  0.00     0.164 HD
BRANCH  47  50
ATOM     50  C   UNL     1       3.975   1.948  11.384  1.00  0.00     0.212 CG0
ATOM     51  G   UNL     1       4.202   2.044  12.906  1.00  0.00     0.000 G0
BRANCH  50  52
ATOM     52  N   UNL     1       2.727   2.568  10.947  1.00  0.00    -0.339 N 
ATOM     53  C   UNL     1       1.851   1.970  10.074  1.00  0.00     0.243 C 
ATOM     54  O   UNL     1       2.078   0.882   9.550  1.00  0.00    -0.273 OA
ATOM     55  H   UNL     1       2.536   3.518  11.260  1.00  0.00     0.164 HD
BRANCH  53  56
ATOM     56  C   UNL     1       0.645   2.851   9.692  1.00  0.00     0.182 C 
BRANCH  56  57
ATOM     57  N   UNL     1      -0.329   2.914  10.787  1.00  0.00    -0.344 N 
ATOM     58  C   UNL     1      -0.958   4.081  11.147  1.00  0.00     0.220 C 
ATOM     59  O   UNL     1      -0.696   5.162  10.630  1.00  0.00    -0.275 OA
ATOM     60  H   UNL     1      -0.648   2.028  11.170  1.00  0.00     0.164 HD
BRANCH  58  61
ATOM     61  C   UNL     1      -1.968   3.900  12.264  1.00  0.00     0.100 C 
BRANCH  61  62
ATOM     62  C   UNL     1      -1.903   2.529  12.938  1.00  0.00     0.010 C 
BRANCH  62  63
ATOM     63  C   UNL     1      -3.125   1.641  12.673  1.00  0.00     0.000 C 
BRANCH  63  64
ATOM     64  C   UNL     1      -2.787   0.253  12.133  1.00  0.00    -0.003 C 
ATOM     65  C   UNL     1      -3.694  -0.128  10.973  1.00  0.00     0.004 C 
ENDBRANCH  63  64
ENDBRANCH  62  63
ENDBRANCH  61  62
ENDBRANCH  58  61
ENDBRANCH  56  57
BRANCH  56  66
ATOM     66  C   UNL     1       0.010   2.394   8.380  1.00  0.00     0.157 C 
BRANCH  66  67
ATOM     67  C   UNL     1      -1.216   1.563   8.630  1.00  0.00     0.305 C 
ATOM     68  O   UNL     1      -2.375   1.885   8.419  1.00  0.00    -0.252 OA
BRANCH  67  69
ATOM     69  O   UNL     1      -0.915   0.334   9.091  1.00  0.00    -0.481 OA
ATOM     70  H   UNL     1      -1.374  -0.281   8.480  1.00  0.00     0.296 HD
ENDBRANCH  67  69
ENDBRANCH  66  67
ENDBRANCH  56  66
ENDBRANCH  53  56
ENDBRANCH  50  52
ENDBRANCH  47  50
ENDBRANCH  45  46
BRANCH  45  71
ATOM     71  C   UNL     1       5.927   6.197  10.293  1.00  0.00     0.037 C 
BRANCH  71  72
ATOM     72  C   UNL     1       7.424   6.510  10.362  1.00  0.00     0.026 C 
BRANCH  72  73
ATOM     73  C   UNL     1       7.741   7.872   9.748  1.00  0.00     0.146 C 
BRANCH  73  74
ATOM     74  N   UNL     1       9.071   7.794   9.152  1.00  0.00    -0.254 NA
ATOM     75  C   UNL     1       9.165   7.906   7.879  1.00  0.00     0.185 C 
ATOM     76  N   UNL     1      10.376   7.840   7.302  1.00  0.00    -0.370 N 
ATOM     77  N   UNL     1       8.189   8.091   6.973  1.00  0.00    -0.370 N 
ATOM     78  H   UNL     1      11.167   7.695   7.913  1.00  0.00     0.159 HD
ATOM     79  H   UNL     1      10.513   7.775   6.309  1.00  0.00     0.159 HD
ATOM     80  H   UNL     1       7.226   8.163   7.263  1.00  0.00     0.159 HD
ATOM     81  H   UNL     1       8.395   8.281   6.006  1.00  0.00     0.159 HD
ENDBRANCH  73  74
ENDBRANCH  72  73
ENDBRANCH  71  72
ENDBRANCH  45  71
ENDBRANCH   3  45
TORSDOF 20
ENDMDL
MODEL 13
REMARK VINA RESULT:    -5.218      5.612     12.973
REMARK INTER + INTRA:         -22.424
REMARK INTER:                 -16.816
REMARK INTRA:                  -5.608
REMARK UNBOUND:                -7.444
REMARK SMILES CCCCCC(=O)N[C@H](CC(=O)O)C(=O)N[C@H]1C(=O)N[C@H](CCCN=C(N)N)C(=O)N[C@@H]2CC[C@H](O)N(C2=O)[C@@H](CC(C)C)C(=O)N(C)[C@@H](Cc2ccccc2)C(=O)N[C@H](C(C)C)C(=O)O[C@@H]1C
REMARK SMILES IDX 30 1 31 2 29 3 32 5 35 6 37 7 34 8 38 9 33 10 39 11 36 12
REMARK SMILES IDX 40 14 41 15 42 16 43 17 44 18 45 19 46 20 47 21 48 22 49 23
REMARK SMILES IDX 50 24 51 25 52 26 56 27 53 28 55 29 54 30 57 31 58 32 59 33
REMARK SMILES IDX 60 35 61 36 62 37 63 38 64 39 65 40 66 41 67 42 68 43 21 45
REMARK SMILES IDX 20 46 18 47 19 48 17 50 16 52 14 53 15 54 9 56 8 57 6 58
REMARK SMILES IDX 7 59 5 61 4 62 3 63 2 64 1 65 10 66 11 67 12 68 13 69 22 71
REMARK SMILES IDX 23 72 24 73 25 74 26 75 27 76 28 77
REMARK H PARENT 31 4 36 13 59 34 20 49 16 55 8 60 13 70 27 78 27 79 28 80
REMARK H PARENT 28 81
REMARK Flexibility Score:  259.900
ROOT
ATOM      1  O   UNL     1       5.918  11.175   0.478  1.00  0.00    -0.273 OA
ATOM      2  N   UNL     1       4.992  11.440   2.553  1.00  0.00    -0.343 N 
ATOM      3  C   UNL     1       5.491  11.920   1.361  1.00  0.00     0.243 C 
ATOM      4  H   UNL     1       4.636  12.082   3.250  1.00  0.00     0.164 HD
ENDROOT
BRANCH   2   5
ATOM      5  C   UNL     1       5.060  10.017   2.867  1.00  0.00     0.171 C 
ATOM      6  C   UNL     1       4.136   8.460   5.131  1.00  0.00     0.214 C 
ATOM      7  N   UNL     1       5.475   9.001   5.140  1.00  0.00    -0.303 N 
ATOM      8  C   UNL     1       3.624   8.144   3.735  1.00  0.00     0.057 C 
ATOM      9  C   UNL     1       5.962   9.795   4.114  1.00  0.00     0.247 C 
ATOM     10  C   UNL     1       3.666   9.391   2.879  1.00  0.00     0.040 C 
ATOM     11  O   UNL     1       7.079  10.326   4.170  1.00  0.00    -0.272 OA
BRANCH   6  12
ATOM     12  O   UNL     1       3.291   9.391   5.766  1.00  0.00    -0.373 OA
ATOM     13  H   UNL     1       2.651   8.878   6.305  1.00  0.00     0.213 HD
ENDBRANCH   6  12
BRANCH   7  14
ATOM     14  C   UNL     1       6.273   8.796   6.367  1.00  0.00     0.177 C 
BRANCH  14  15
ATOM     15  C   UNL     1       5.764   9.545   7.614  1.00  0.00     0.038 C 
BRANCH  15  16
ATOM     16  C   UNL     1       6.633  10.657   8.242  1.00  0.00    -0.015 C 
ATOM     17  C   UNL     1       6.006  12.046   8.088  1.00  0.00     0.007 C 
ATOM     18  C   UNL     1       8.013  10.676   7.573  1.00  0.00     0.007 C 
ENDBRANCH  15  16
ENDBRANCH  14  15
BRANCH  14  19
ATOM     19  C   UNL     1       6.912   7.364   6.368  1.00  0.00     0.245 C 
ATOM     20  O   UNL     1       7.009   6.795   5.268  1.00  0.00    -0.272 OA
BRANCH  19  21
ATOM     21  N   UNL     1       7.259   6.675   7.516  1.00  0.00    -0.332 N 
ATOM     22  C   UNL     1       8.457   6.900   8.305  1.00  0.00     0.147 C 
BRANCH  21  23
ATOM     23  C   UNL     1       6.340   5.602   7.988  1.00  0.00     0.178 C 
BRANCH  23  24
ATOM     24  C   UNL     1       4.983   5.546   7.257  1.00  0.00     0.070 C 
BRANCH  24  25
ATOM     25  C   UNL     1       3.913   4.666   7.860  1.00  0.00    -0.045 A 
ATOM     26  C   UNL     1       3.196   5.079   8.990  1.00  0.00     0.004 A 
ATOM     27  C   UNL     1       3.625   3.414   7.295  1.00  0.00     0.004 A 
ATOM     28  C   UNL     1       2.220   4.252   9.551  1.00  0.00     0.000 A 
ATOM     29  C   UNL     1       2.649   2.590   7.856  1.00  0.00     0.000 A 
ATOM     30  C   UNL     1       1.949   3.008   8.985  1.00  0.00     0.000 A 
ENDBRANCH  24  25
ENDBRANCH  23  24
BRANCH  23  31
ATOM     31  C   UNL     1       7.046   4.235   8.157  1.00  0.00     0.243 C 
ATOM     32  O   UNL     1       7.749   3.714   7.295  1.00  0.00    -0.273 OA
ATOM     33  N   UNL     1       6.666   3.554   9.301  1.00  0.00    -0.341 N 
ATOM     34  H   UNL     1       6.074   4.039   9.980  1.00  0.00     0.164 HD
BRANCH  33  35
ATOM     35  C   UNL     1       7.115   2.193   9.607  1.00  0.00     0.194 C 
BRANCH  35  36
ATOM     36  C   UNL     1       6.174   1.079   9.068  1.00  0.00     0.017 C 
ATOM     37  C   UNL     1       5.033   0.783  10.058  1.00  0.00     0.010 C 
ATOM     38  C   UNL     1       6.899  -0.245   8.795  1.00  0.00     0.010 C 
ENDBRANCH  35  36
BRANCH  35  39
ATOM     39  C   UNL     1       7.444   1.996  11.113  1.00  0.00     0.329 C 
ATOM     40  O   UNL     1       6.913   2.627  12.020  1.00  0.00    -0.250 OA
BRANCH  39  41
ATOM     41  O   UNL     1       8.332   0.977  11.322  1.00  0.00    -0.458 OA
BRANCH  41  42
ATOM     42  C   UNL     1       8.221   0.280  12.586  1.00  0.00     0.205 CG0
ATOM     43  C   UNL     1       9.637   0.099  13.130  1.00  0.00     0.056 C 
ATOM     44  G   UNL     1       7.506  -1.064  12.345  1.00  0.00     0.000 G0
ENDBRANCH  41  42
ENDBRANCH  39  41
ENDBRANCH  35  39
ENDBRANCH  33  35
ENDBRANCH  23  31
ENDBRANCH  21  23
ENDBRANCH  19  21
ENDBRANCH  14  19
ENDBRANCH   7  14
ENDBRANCH   2   5
BRANCH   3  45
ATOM     45  C   UNL     1       5.459  13.446   1.201  1.00  0.00     0.171 C 
BRANCH  45  46
ATOM     46  N   UNL     1       4.656  13.701   0.013  1.00  0.00    -0.342 N 
ATOM     47  C   UNL     1       3.305  13.463  -0.028  1.00  0.00     0.247 C 
ATOM     48  O   UNL     1       2.662  13.088   0.953  1.00  0.00    -0.273 OA
ATOM     49  H   UNL     1       5.139  14.065  -0.806  1.00  0.00     0.164 HD
BRANCH  47  50
ATOM     50  C   UNL     1       2.649  13.671  -1.401  1.00  0.00     0.212 CG0
ATOM     51  G   UNL     1       3.674  13.257  -2.476  1.00  0.00     0.000 G0
BRANCH  50  52
ATOM     52  N   UNL     1       1.452  12.835  -1.392  1.00  0.00    -0.339 N 
ATOM     53  C   UNL     1       1.384  11.607  -2.004  1.00  0.00     0.243 C 
ATOM     54  O   UNL     1       2.314  11.139  -2.655  1.00  0.00    -0.273 OA
ATOM     55  H   UNL     1       0.612  13.217  -0.963  1.00  0.00     0.164 HD
BRANCH  53  56
ATOM     56  C   UNL     1      -0.009  10.948  -1.935  1.00  0.00     0.182 C 
BRANCH  56  57
ATOM     57  N   UNL     1      -0.292  10.454  -0.584  1.00  0.00    -0.344 N 
ATOM     58  C   UNL     1      -1.036  11.171   0.321  1.00  0.00     0.220 C 
ATOM     59  O   UNL     1      -1.452  12.301   0.090  1.00  0.00    -0.275 OA
ATOM     60  H   UNL     1      -0.053   9.486  -0.388  1.00  0.00     0.164 HD
BRANCH  58  61
ATOM     61  C   UNL     1      -1.251  10.442   1.635  1.00  0.00     0.100 C 
BRANCH  61  62
ATOM     62  C   UNL     1       0.047  10.023   2.326  1.00  0.00     0.010 C 
BRANCH  62  63
ATOM     63  C   UNL     1      -0.043   8.684   3.070  1.00  0.00     0.000 C 
BRANCH  63  64
ATOM     64  C   UNL     1      -0.125   7.463   2.155  1.00  0.00    -0.003 C 
ATOM     65  C   UNL     1       0.996   7.464   1.126  1.00  0.00     0.004 C 
ENDBRANCH  63  64
ENDBRANCH  62  63
ENDBRANCH  61  62
ENDBRANCH  58  61
ENDBRANCH  56  57
BRANCH  56  66
ATOM     66  C   UNL     1      -0.165   9.857  -2.992  1.00  0.00     0.157 C 
BRANCH  66  67
ATOM     67  C   UNL     1      -0.649  10.426  -4.295  1.00  0.00     0.305 C 
ATOM     68  O   UNL     1      -1.626  11.141  -4.464  1.00  0.00    -0.252 OA
BRANCH  67  69
ATOM     69  O   UNL     1       0.158  10.107  -5.324  1.00  0.00    -0.481 OA
ATOM     70  H   UNL     1      -0.369  10.308  -6.127  1.00  0.00     0.296 HD
ENDBRANCH  67  69
ENDBRANCH  66  67
ENDBRANCH  56  66
ENDBRANCH  53  56
ENDBRANCH  50  52
ENDBRANCH  47  50
ENDBRANCH  45  46
BRANCH  45  71
ATOM     71  C   UNL     1       6.881  13.997   1.052  1.00  0.00     0.037 C 
BRANCH  71  72
ATOM     72  C   UNL     1       7.790  13.566   2.205  1.00  0.00     0.026 C 
BRANCH  72  73
ATOM     73  C   UNL     1       9.110  12.992   1.694  1.00  0.00     0.146 C 
BRANCH  73  74
ATOM     74  N   UNL     1       9.055  11.541   1.844  1.00  0.00    -0.254 NA
ATOM     75  C   UNL     1       9.306  10.822   0.814  1.00  0.00     0.185 C 
ATOM     76  N   UNL     1       9.265   9.484   0.921  1.00  0.00    -0.370 N 
ATOM     77  N   UNL     1       9.624  11.214  -0.433  1.00  0.00    -0.370 N 
ATOM     78  H   UNL     1       9.025   9.105   1.826  1.00  0.00     0.159 HD
ATOM     79  H   UNL     1       9.307   8.864   0.132  1.00  0.00     0.159 HD
ATOM     80  H   UNL     1       9.696  12.194  -0.660  1.00  0.00     0.159 HD
ATOM     81  H   UNL     1       9.915  10.554  -1.136  1.00  0.00     0.159 HD
ENDBRANCH  73  74
ENDBRANCH  72  73
ENDBRANCH  71  72
ENDBRANCH  45  71
ENDBRANCH   3  45
TORSDOF 20
ENDMDL
MODEL 14
REMARK VINA RESULT:    -5.214      5.555      7.537
REMARK INTER + INTRA:         -22.412
REMARK INTER:                 -16.926
REMARK INTRA:                  -5.486
REMARK UNBOUND:                -7.444
REMARK SMILES CCCCCC(=O)N[C@H](CC(=O)O)C(=O)N[C@H]1C(=O)N[C@H](CCCN=C(N)N)C(=O)N[C@@H]2CC[C@H](O)N(C2=O)[C@@H](CC(C)C)C(=O)N(C)[C@@H](Cc2ccccc2)C(=O)N[C@H](C(C)C)C(=O)O[C@@H]1C
REMARK SMILES IDX 30 1 31 2 29 3 32 5 35 6 37 7 34 8 38 9 33 10 39 11 36 12
REMARK SMILES IDX 40 14 41 15 42 16 43 17 44 18 45 19 46 20 47 21 48 22 49 23
REMARK SMILES IDX 50 24 51 25 52 26 56 27 53 28 55 29 54 30 57 31 58 32 59 33
REMARK SMILES IDX 60 35 61 36 62 37 63 38 64 39 65 40 66 41 67 42 68 43 21 45
REMARK SMILES IDX 20 46 18 47 19 48 17 50 16 52 14 53 15 54 9 56 8 57 6 58
REMARK SMILES IDX 7 59 5 61 4 62 3 63 2 64 1 65 10 66 11 67 12 68 13 69 22 71
REMARK SMILES IDX 23 72 24 73 25 74 26 75 27 76 28 77
REMARK H PARENT 31 4 36 13 59 34 20 49 16 55 8 60 13 70 27 78 27 79 28 80
REMARK H PARENT 28 81
REMARK Flexibility Score:  259.900
ROOT
ATOM      1  O   UNL     1       5.111   3.852   7.877  1.00  0.00    -0.273 OA
ATOM      2  N   UNL     1       6.280   5.814   7.749  1.00  0.00    -0.343 N 
ATOM      3  C   UNL     1       5.700   4.773   8.443  1.00  0.00     0.243 C 
ATOM      4  H   UNL     1       6.769   6.547   8.247  1.00  0.00     0.164 HD
ENDROOT
BRANCH   2   5
ATOM      5  C   UNL     1       6.112   5.927   6.304  1.00  0.00     0.171 C 
ATOM      6  C   UNL     1       6.744   8.031   4.413  1.00  0.00     0.214 C 
ATOM      7  N   UNL     1       5.438   7.999   5.029  1.00  0.00    -0.303 N 
ATOM      8  C   UNL     1       7.366   6.654   4.249  1.00  0.00     0.057 C 
ATOM      9  C   UNL     1       5.089   7.052   5.979  1.00  0.00     0.247 C 
ATOM     10  C   UNL     1       7.466   5.973   5.597  1.00  0.00     0.040 C 
ATOM     11  O   UNL     1       3.999   7.083   6.566  1.00  0.00    -0.272 OA
BRANCH   6  12
ATOM     12  O   UNL     1       7.572   8.856   5.200  1.00  0.00    -0.373 OA
ATOM     13  H   UNL     1       7.692   9.696   4.709  1.00  0.00     0.213 HD
ENDBRANCH   6  12
BRANCH   7  14
ATOM     14  C   UNL     1       4.521   9.116   4.717  1.00  0.00     0.177 C 
BRANCH  14  15
ATOM     15  C   UNL     1       4.951  10.491   5.265  1.00  0.00     0.038 C 
BRANCH  15  16
ATOM     16  C   UNL     1       3.970  11.302   6.140  1.00  0.00    -0.015 C 
ATOM     17  C   UNL     1       4.621  11.813   7.429  1.00  0.00     0.007 C 
ATOM     18  C   UNL     1       2.771  10.425   6.523  1.00  0.00     0.007 C 
ENDBRANCH  15  16
ENDBRANCH  14  15
BRANCH  14  19
ATOM     19  C   UNL     1       3.814   8.869   3.340  1.00  0.00     0.245 C 
ATOM     20  O   UNL     1       3.579   7.688   3.035  1.00  0.00    -0.272 OA
BRANCH  19  21
ATOM     21  N   UNL     1       3.548   9.868   2.420  1.00  0.00    -0.332 N 
ATOM     22  C   UNL     1       4.543  10.700   1.768  1.00  0.00     0.147 C 
BRANCH  21  23
ATOM     23  C   UNL     1       2.125  10.129   2.068  1.00  0.00     0.178 C 
BRANCH  23  24
ATOM     24  C   UNL     1       1.474  11.297   2.837  1.00  0.00     0.070 C 
BRANCH  24  25
ATOM     25  C   UNL     1       0.347  10.955   3.784  1.00  0.00    -0.045 A 
ATOM     26  C   UNL     1      -0.159  11.913   4.673  1.00  0.00     0.004 A 
ATOM     27  C   UNL     1      -0.206   9.666   3.789  1.00  0.00     0.004 A 
ATOM     28  C   UNL     1      -1.189  11.583   5.557  1.00  0.00     0.000 A 
ATOM     29  C   UNL     1      -1.237   9.339   4.672  1.00  0.00     0.000 A 
ATOM     30  C   UNL     1      -1.725  10.298   5.557  1.00  0.00     0.000 A 
ENDBRANCH  24  25
ENDBRANCH  23  24
BRANCH  23  31
ATOM     31  C   UNL     1       1.870  10.132   0.542  1.00  0.00     0.243 C 
ATOM     32  O   UNL     1       2.297   9.274  -0.227  1.00  0.00    -0.273 OA
ATOM     33  N   UNL     1       1.271  11.292   0.083  1.00  0.00    -0.341 N 
ATOM     34  H   UNL     1       0.942  11.974   0.772  1.00  0.00     0.164 HD
BRANCH  33  35
ATOM     35  C   UNL     1       1.043  11.565  -1.338  1.00  0.00     0.194 C 
BRANCH  35  36
ATOM     36  C   UNL     1       1.326  13.036  -1.756  1.00  0.00     0.017 C 
ATOM     37  C   UNL     1       2.467  13.115  -2.786  1.00  0.00     0.010 C 
ATOM     38  C   UNL     1       1.709  13.936  -0.576  1.00  0.00     0.010 C 
ENDBRANCH  35  36
BRANCH  35  39
ATOM     39  C   UNL     1      -0.353  11.083  -1.823  1.00  0.00     0.329 C 
ATOM     40  O   UNL     1      -1.111  10.391  -1.153  1.00  0.00    -0.250 OA
BRANCH  39  41
ATOM     41  O   UNL     1      -0.680  11.588  -3.051  1.00  0.00    -0.458 OA
BRANCH  41  42
ATOM     42  C   UNL     1      -0.874  10.622  -4.111  1.00  0.00     0.205 CG0
ATOM     43  C   UNL     1       0.503  10.300  -4.689  1.00  0.00     0.056 C 
ATOM     44  G   UNL     1      -1.826  11.228  -5.161  1.00  0.00     0.000 G0
ENDBRANCH  41  42
ENDBRANCH  39  41
ENDBRANCH  35  39
ENDBRANCH  33  35
ENDBRANCH  23  31
ENDBRANCH  21  23
ENDBRANCH  19  21
ENDBRANCH  14  19
ENDBRANCH   7  14
ENDBRANCH   2   5
BRANCH   3  45
ATOM     45  C   UNL     1       5.860   4.831   9.968  1.00  0.00     0.171 C 
BRANCH  45  46
ATOM     46  N   UNL     1       4.995   3.783  10.494  1.00  0.00    -0.342 N 
ATOM     47  C   UNL     1       5.487   2.599  10.983  1.00  0.00     0.247 C 
ATOM     48  O   UNL     1       6.693   2.366  11.081  1.00  0.00    -0.273 OA
ATOM     49  H   UNL     1       3.992   3.958  10.484  1.00  0.00     0.164 HD
BRANCH  47  50
ATOM     50  C   UNL     1       4.423   1.566  11.378  1.00  0.00     0.212 CG0
ATOM     51  G   UNL     1       4.622   1.237  12.871  1.00  0.00     0.000 G0
BRANCH  50  52
ATOM     52  N   UNL     1       3.139   2.202  11.094  1.00  0.00    -0.339 N 
ATOM     53  C   UNL     1       2.185   1.647  10.276  1.00  0.00     0.243 C 
ATOM     54  O   UNL     1       2.363   0.591   9.674  1.00  0.00    -0.273 OA
ATOM     55  H   UNL     1       2.977   3.132  11.475  1.00  0.00     0.164 HD
BRANCH  53  56
ATOM     56  C   UNL     1       0.948   2.541  10.057  1.00  0.00     0.182 C 
BRANCH  56  57
ATOM     57  N   UNL     1      -0.267   1.892  10.559  1.00  0.00    -0.344 N 
ATOM     58  C   UNL     1      -1.121   2.509  11.440  1.00  0.00     0.220 C 
ATOM     59  O   UNL     1      -0.891   3.613  11.924  1.00  0.00    -0.275 OA
ATOM     60  H   UNL     1      -0.545   1.024  10.109  1.00  0.00     0.164 HD
BRANCH  58  61
ATOM     61  C   UNL     1      -2.342   1.675  11.778  1.00  0.00     0.100 C 
BRANCH  61  62
ATOM     62  C   UNL     1      -2.591   0.523  10.804  1.00  0.00     0.010 C 
BRANCH  62  63
ATOM     63  C   UNL     1      -2.555  -0.866  11.454  1.00  0.00     0.000 C 
BRANCH  63  64
ATOM     64  C   UNL     1      -1.154  -1.349  11.826  1.00  0.00    -0.003 C 
ATOM     65  C   UNL     1      -0.878  -1.161  13.310  1.00  0.00     0.004 C 
ENDBRANCH  63  64
ENDBRANCH  62  63
ENDBRANCH  61  62
ENDBRANCH  58  61
ENDBRANCH  56  57
BRANCH  56  66
ATOM     66  C   UNL     1       0.814   2.963   8.595  1.00  0.00     0.157 C 
BRANCH  66  67
ATOM     67  C   UNL     1      -0.528   2.581   8.040  1.00  0.00     0.305 C 
ATOM     68  O   UNL     1      -0.879   1.471   7.670  1.00  0.00    -0.252 OA
BRANCH  67  69
ATOM     69  O   UNL     1      -1.389   3.616   8.024  1.00  0.00    -0.481 OA
ATOM     70  H   UNL     1      -1.460   3.897   8.961  1.00  0.00     0.296 HD
ENDBRANCH  67  69
ENDBRANCH  66  67
ENDBRANCH  56  66
ENDBRANCH  53  56
ENDBRANCH  50  52
ENDBRANCH  47  50
ENDBRANCH  45  46
BRANCH  45  71
ATOM     71  C   UNL     1       5.458   6.213  10.494  1.00  0.00     0.037 C 
BRANCH  71  72
ATOM     72  C   UNL     1       4.006   6.245  10.980  1.00  0.00     0.026 C 
BRANCH  72  73
ATOM     73  C   UNL     1       3.839   7.165  12.187  1.00  0.00     0.146 C 
BRANCH  73  74
ATOM     74  N   UNL     1       4.070   8.535  11.740  1.00  0.00    -0.254 NA
ATOM     75  C   UNL     1       3.050   9.298  11.593  1.00  0.00     0.185 C 
ATOM     76  N   UNL     1       3.230  10.564  11.184  1.00  0.00    -0.370 N 
ATOM     77  N   UNL     1       1.750   9.018  11.796  1.00  0.00    -0.370 N 
ATOM     78  H   UNL     1       4.180  10.855  11.002  1.00  0.00     0.159 HD
ATOM     79  H   UNL     1       2.477  11.170  10.910  1.00  0.00     0.159 HD
ATOM     80  H   UNL     1       1.464   8.103  12.109  1.00  0.00     0.159 HD
ATOM     81  H   UNL     1       1.044   9.735  11.759  1.00  0.00     0.159 HD
ENDBRANCH  73  74
ENDBRANCH  72  73
ENDBRANCH  71  72
ENDBRANCH  45  71
ENDBRANCH   3  45
TORSDOF 20
ENDMDL
MODEL 15
REMARK VINA RESULT:    -5.213      3.325      4.935
REMARK INTER + INTRA:         -22.408
REMARK INTER:                 -15.976
REMARK INTRA:                  -6.432
REMARK UNBOUND:                -7.444
REMARK SMILES CCCCCC(=O)N[C@H](CC(=O)O)C(=O)N[C@H]1C(=O)N[C@H](CCCN=C(N)N)C(=O)N[C@@H]2CC[C@H](O)N(C2=O)[C@@H](CC(C)C)C(=O)N(C)[C@@H](Cc2ccccc2)C(=O)N[C@H](C(C)C)C(=O)O[C@@H]1C
REMARK SMILES IDX 30 1 31 2 29 3 32 5 35 6 37 7 34 8 38 9 33 10 39 11 36 12
REMARK SMILES IDX 40 14 41 15 42 16 43 17 44 18 45 19 46 20 47 21 48 22 49 23
REMARK SMILES IDX 50 24 51 25 52 26 56 27 53 28 55 29 54 30 57 31 58 32 59 33
REMARK SMILES IDX 60 35 61 36 62 37 63 38 64 39 65 40 66 41 67 42 68 43 21 45
REMARK SMILES IDX 20 46 18 47 19 48 17 50 16 52 14 53 15 54 9 56 8 57 6 58
REMARK SMILES IDX 7 59 5 61 4 62 3 63 2 64 1 65 10 66 11 67 12 68 13 69 22 71
REMARK SMILES IDX 23 72 24 73 25 74 26 75 27 76 28 77
REMARK H PARENT 31 4 36 13 59 34 20 49 16 55 8 60 13 70 27 78 27 79 28 80
REMARK H PARENT 28 81
REMARK Flexibility Score:  259.900
ROOT
ATOM      1  O   UNL     1       3.641   3.419   7.236  1.00  0.00    -0.273 OA
ATOM      2  N   UNL     1       4.757   5.342   7.772  1.00  0.00    -0.343 N 
ATOM      3  C   UNL     1       3.934   4.277   8.069  1.00  0.00     0.243 C 
ATOM      4  H   UNL     1       4.989   6.021   8.486  1.00  0.00     0.164 HD
ENDROOT
BRANCH   2   5
ATOM      5  C   UNL     1       5.223   5.562   6.407  1.00  0.00     0.171 C 
ATOM      6  C   UNL     1       7.442   7.068   5.307  1.00  0.00     0.214 C 
ATOM      7  N   UNL     1       6.158   7.710   5.467  1.00  0.00    -0.303 N 
ATOM      8  C   UNL     1       7.340   5.573   5.049  1.00  0.00     0.057 C 
ATOM      9  C   UNL     1       5.070   7.064   6.033  1.00  0.00     0.247 C 
ATOM     10  C   UNL     1       6.585   4.909   6.181  1.00  0.00     0.040 C 
ATOM     11  O   UNL     1       3.999   7.647   6.246  1.00  0.00    -0.272 OA
BRANCH   6  12
ATOM     12  O   UNL     1       8.196   7.317   6.471  1.00  0.00    -0.373 OA
ATOM     13  H   UNL     1       7.704   6.922   7.222  1.00  0.00     0.213 HD
ENDBRANCH   6  12
BRANCH   7  14
ATOM     14  C   UNL     1       6.082   9.149   5.136  1.00  0.00     0.177 C 
BRANCH  14  15
ATOM     15  C   UNL     1       7.026  10.059   5.945  1.00  0.00     0.038 C 
BRANCH  15  16
ATOM     16  C   UNL     1       6.507  11.413   6.478  1.00  0.00    -0.015 C 
ATOM     17  C   UNL     1       6.922  11.666   7.930  1.00  0.00     0.007 C 
ATOM     18  C   UNL     1       4.975  11.446   6.403  1.00  0.00     0.007 C 
ENDBRANCH  15  16
ENDBRANCH  14  15
BRANCH  14  19
ATOM     19  C   UNL     1       5.711   9.340   3.625  1.00  0.00     0.245 C 
ATOM     20  O   UNL     1       4.575   8.978   3.278  1.00  0.00    -0.272 OA
BRANCH  19  21
ATOM     21  N   UNL     1       6.604   9.775   2.662  1.00  0.00    -0.332 N 
ATOM     22  C   UNL     1       7.638   8.965   2.044  1.00  0.00     0.147 C 
BRANCH  21  23
ATOM     23  C   UNL     1       6.513  11.195   2.220  1.00  0.00     0.178 C 
BRANCH  23  24
ATOM     24  C   UNL     1       7.852  11.960   2.229  1.00  0.00     0.070 C 
BRANCH  24  25
ATOM     25  C   UNL     1       8.170  12.776   3.460  1.00  0.00    -0.045 A 
ATOM     26  C   UNL     1       7.345  13.839   3.849  1.00  0.00     0.004 A 
ATOM     27  C   UNL     1       9.305  12.481   4.231  1.00  0.00     0.004 A 
ATOM     28  C   UNL     1       7.655  14.600   4.979  1.00  0.00     0.000 A 
ATOM     29  C   UNL     1       9.613  13.242   5.360  1.00  0.00     0.000 A 
ATOM     30  C   UNL     1       8.789  14.302   5.731  1.00  0.00     0.000 A 
ENDBRANCH  24  25
ENDBRANCH  23  24
BRANCH  23  31
ATOM     31  C   UNL     1       5.669  11.375   0.936  1.00  0.00     0.243 C 
ATOM     32  O   UNL     1       4.814  10.577   0.558  1.00  0.00    -0.273 OA
ATOM     33  N   UNL     1       6.088  12.428   0.141  1.00  0.00    -0.341 N 
ATOM     34  H   UNL     1       6.808  13.055   0.507  1.00  0.00     0.164 HD
BRANCH  33  35
ATOM     35  C   UNL     1       5.513  12.713  -1.176  1.00  0.00     0.194 C 
BRANCH  35  36
ATOM     36  C   UNL     1       6.435  13.553  -2.104  1.00  0.00     0.017 C 
ATOM     37  C   UNL     1       7.019  12.694  -3.239  1.00  0.00     0.010 C 
ATOM     38  C   UNL     1       7.614  14.196  -1.362  1.00  0.00     0.010 C 
ENDBRANCH  35  36
BRANCH  35  39
ATOM     39  C   UNL     1       4.081  13.311  -1.086  1.00  0.00     0.329 C 
ATOM     40  O   UNL     1       3.745  14.169  -0.278  1.00  0.00    -0.250 OA
BRANCH  39  41
ATOM     41  O   UNL     1       3.256  12.835  -2.068  1.00  0.00    -0.458 OA
BRANCH  41  42
ATOM     42  C   UNL     1       2.509  13.826  -2.814  1.00  0.00     0.205 CG0
ATOM     43  C   UNL     1       1.751  13.089  -3.916  1.00  0.00     0.056 C 
ATOM     44  G   UNL     1       3.498  14.869  -3.373  1.00  0.00     0.000 G0
ENDBRANCH  41  42
ENDBRANCH  39  41
ENDBRANCH  35  39
ENDBRANCH  33  35
ENDBRANCH  23  31
ENDBRANCH  21  23
ENDBRANCH  19  21
ENDBRANCH  14  19
ENDBRANCH   7  14
ENDBRANCH   2   5
BRANCH   3  45
ATOM     45  C   UNL     1       3.427   4.223   9.517  1.00  0.00     0.171 C 
BRANCH  45  46
ATOM     46  N   UNL     1       2.959   2.859   9.719  1.00  0.00    -0.342 N 
ATOM     47  C   UNL     1       3.550   2.002  10.613  1.00  0.00     0.247 C 
ATOM     48  O   UNL     1       4.469   2.344  11.359  1.00  0.00    -0.273 OA
ATOM     49  H   UNL     1       2.163   2.552   9.162  1.00  0.00     0.164 HD
BRANCH  47  50
ATOM     50  C   UNL     1       3.001   0.568  10.600  1.00  0.00     0.212 CG0
ATOM     51  G   UNL     1       3.076   0.026  12.041  1.00  0.00     0.000 G0
BRANCH  50  52
ATOM     52  N   UNL     1       1.635   0.679  10.095  1.00  0.00    -0.339 N 
ATOM     53  C   UNL     1       0.543   0.166  10.752  1.00  0.00     0.243 C 
ATOM     54  O   UNL     1       0.639  -0.475  11.795  1.00  0.00    -0.273 OA
ATOM     55  H   UNL     1       1.503   1.102   9.179  1.00  0.00     0.164 HD
BRANCH  53  56
ATOM     56  C   UNL     1      -0.784   0.328   9.984  1.00  0.00     0.182 C 
BRANCH  56  57
ATOM     57  N   UNL     1      -1.109   1.745   9.788  1.00  0.00    -0.344 N 
ATOM     58  C   UNL     1      -1.161   2.323   8.544  1.00  0.00     0.220 C 
ATOM     59  O   UNL     1      -0.868   1.717   7.518  1.00  0.00    -0.275 OA
ATOM     60  H   UNL     1      -1.455   2.254  10.598  1.00  0.00     0.164 HD
BRANCH  58  61
ATOM     61  C   UNL     1      -1.574   3.783   8.575  1.00  0.00     0.100 C 
BRANCH  61  62
ATOM     62  C   UNL     1      -1.293   4.474   9.909  1.00  0.00     0.010 C 
BRANCH  62  63
ATOM     63  C   UNL     1      -2.001   5.825  10.077  1.00  0.00     0.000 C 
BRANCH  63  64
ATOM     64  C   UNL     1      -2.372   6.162  11.520  1.00  0.00    -0.003 C 
ATOM     65  C   UNL     1      -1.621   5.280  12.508  1.00  0.00     0.004 C 
ENDBRANCH  63  64
ENDBRANCH  62  63
ENDBRANCH  61  62
ENDBRANCH  58  61
ENDBRANCH  56  57
BRANCH  56  66
ATOM     66  C   UNL     1      -1.920  -0.436  10.662  1.00  0.00     0.157 C 
BRANCH  66  67
ATOM     67  C   UNL     1      -3.218  -0.243   9.931  1.00  0.00     0.305 C 
ATOM     68  O   UNL     1      -3.393  -0.299   8.723  1.00  0.00    -0.252 OA
BRANCH  67  69
ATOM     69  O   UNL     1      -4.252  -0.037  10.768  1.00  0.00    -0.481 OA
ATOM     70  H   UNL     1      -3.859   0.418  11.543  1.00  0.00     0.296 HD
ENDBRANCH  67  69
ENDBRANCH  66  67
ENDBRANCH  56  66
ENDBRANCH  53  56
ENDBRANCH  50  52
ENDBRANCH  47  50
ENDBRANCH  45  46
BRANCH  45  71
ATOM     71  C   UNL     1       2.304   5.244   9.727  1.00  0.00     0.037 C 
BRANCH  71  72
ATOM     72  C   UNL     1       2.213   5.709  11.183  1.00  0.00     0.026 C 
BRANCH  72  73
ATOM     73  C   UNL     1       2.793   7.111  11.361  1.00  0.00     0.146 C 
BRANCH  73  74
ATOM     74  N   UNL     1       3.326   7.541  10.071  1.00  0.00    -0.254 NA
ATOM     75  C   UNL     1       4.226   8.453  10.070  1.00  0.00     0.185 C 
ATOM     76  N   UNL     1       4.737   8.869   8.900  1.00  0.00    -0.370 N 
ATOM     77  N   UNL     1       4.775   9.100  11.113  1.00  0.00    -0.370 N 
ATOM     78  H   UNL     1       4.372   8.438   8.062  1.00  0.00     0.159 HD
ATOM     79  H   UNL     1       5.333   9.673   8.810  1.00  0.00     0.159 HD
ATOM     80  H   UNL     1       4.490   8.888  12.057  1.00  0.00     0.159 HD
ATOM     81  H   UNL     1       5.561   9.719  10.996  1.00  0.00     0.159 HD
ENDBRANCH  73  74
ENDBRANCH  72  73
ENDBRANCH  71  72
ENDBRANCH  45  71
ENDBRANCH   3  45
TORSDOF 20
ENDMDL
MODEL 16
REMARK VINA RESULT:    -5.168      2.046      2.852
REMARK INTER + INTRA:         -22.280
REMARK INTER:                 -15.847
REMARK INTRA:                  -6.433
REMARK UNBOUND:                -7.444
REMARK SMILES CCCCCC(=O)N[C@H](CC(=O)O)C(=O)N[C@H]1C(=O)N[C@H](CCCN=C(N)N)C(=O)N[C@@H]2CC[C@H](O)N(C2=O)[C@@H](CC(C)C)C(=O)N(C)[C@@H](Cc2ccccc2)C(=O)N[C@H](C(C)C)C(=O)O[C@@H]1C
REMARK SMILES IDX 30 1 31 2 29 3 32 5 35 6 37 7 34 8 38 9 33 10 39 11 36 12
REMARK SMILES IDX 40 14 41 15 42 16 43 17 44 18 45 19 46 20 47 21 48 22 49 23
REMARK SMILES IDX 50 24 51 25 52 26 56 27 53 28 55 29 54 30 57 31 58 32 59 33
REMARK SMILES IDX 60 35 61 36 62 37 63 38 64 39 65 40 66 41 67 42 68 43 21 45
REMARK SMILES IDX 20 46 18 47 19 48 17 50 16 52 14 53 15 54 9 56 8 57 6 58
REMARK SMILES IDX 7 59 5 61 4 62 3 63 2 64 1 65 10 66 11 67 12 68 13 69 22 71
REMARK SMILES IDX 23 72 24 73 25 74 26 75 27 76 28 77
REMARK H PARENT 31 4 36 13 59 34 20 49 16 55 8 60 13 70 27 78 27 79 28 80
REMARK H PARENT 28 81
REMARK Flexibility Score:  259.900
ROOT
ATOM      1  O   UNL     1       1.962   4.625   9.096  1.00  0.00    -0.273 OA
ATOM      2  N   UNL     1       4.249   4.621   9.087  1.00  0.00    -0.343 N 
ATOM      3  C   UNL     1       3.023   4.437   9.691  1.00  0.00     0.243 C 
ATOM      4  H   UNL     1       5.102   4.443   9.602  1.00  0.00     0.164 HD
ENDROOT
BRANCH   2   5
ATOM      5  C   UNL     1       4.336   5.168   7.737  1.00  0.00     0.171 C 
ATOM      6  C   UNL     1       6.580   5.756   5.998  1.00  0.00     0.214 C 
ATOM      7  N   UNL     1       6.079   6.782   6.882  1.00  0.00    -0.303 N 
ATOM      8  C   UNL     1       5.510   4.774   5.549  1.00  0.00     0.057 C 
ATOM      9  C   UNL     1       5.044   6.553   7.774  1.00  0.00     0.247 C 
ATOM     10  C   UNL     1       4.870   4.125   6.757  1.00  0.00     0.040 C 
ATOM     11  O   UNL     1       4.677   7.411   8.588  1.00  0.00    -0.272 OA
BRANCH   6  12
ATOM     12  O   UNL     1       7.619   5.081   6.668  1.00  0.00    -0.373 OA
ATOM     13  H   UNL     1       7.481   5.223   7.629  1.00  0.00     0.213 HD
ENDBRANCH   6  12
BRANCH   7  14
ATOM     14  C   UNL     1       6.815   8.064   6.907  1.00  0.00     0.177 C 
BRANCH  14  15
ATOM     15  C   UNL     1       7.855   8.201   8.035  1.00  0.00     0.038 C 
BRANCH  15  16
ATOM     16  C   UNL     1       9.006   9.222   7.890  1.00  0.00    -0.015 C 
ATOM     17  C   UNL     1      10.360   8.547   7.658  1.00  0.00     0.007 C 
ATOM     18  C   UNL     1       9.106  10.075   9.160  1.00  0.00     0.007 C 
ENDBRANCH  15  16
ENDBRANCH  14  15
BRANCH  14  19
ATOM     19  C   UNL     1       6.973   8.628   5.453  1.00  0.00     0.245 C 
ATOM     20  O   UNL     1       8.096   8.523   4.932  1.00  0.00    -0.272 OA
BRANCH  19  21
ATOM     21  N   UNL     1       5.982   9.321   4.782  1.00  0.00    -0.332 N 
ATOM     22  C   UNL     1       4.632   8.841   4.542  1.00  0.00     0.147 C 
BRANCH  21  23
ATOM     23  C   UNL     1       6.316  10.670   4.247  1.00  0.00     0.178 C 
BRANCH  23  24
ATOM     24  C   UNL     1       6.998  11.615   5.257  1.00  0.00     0.070 C 
BRANCH  24  25
ATOM     25  C   UNL     1       6.380  12.981   5.448  1.00  0.00    -0.045 A 
ATOM     26  C   UNL     1       5.529  13.238   6.530  1.00  0.00     0.004 A 
ATOM     27  C   UNL     1       6.649  14.012   4.536  1.00  0.00     0.004 A 
ATOM     28  C   UNL     1       4.948  14.498   6.689  1.00  0.00     0.000 A 
ATOM     29  C   UNL     1       6.069  15.272   4.697  1.00  0.00     0.000 A 
ATOM     30  C   UNL     1       5.216  15.512   5.773  1.00  0.00     0.000 A 
ENDBRANCH  24  25
ENDBRANCH  23  24
BRANCH  23  31
ATOM     31  C   UNL     1       6.982  10.617   2.851  1.00  0.00     0.243 C 
ATOM     32  O   UNL     1       6.457  10.120   1.858  1.00  0.00    -0.273 OA
ATOM     33  N   UNL     1       8.308  11.015   2.856  1.00  0.00    -0.341 N 
ATOM     34  H   UNL     1       8.691  11.416   3.716  1.00  0.00     0.164 HD
BRANCH  33  35
ATOM     35  C   UNL     1       9.170  10.936   1.674  1.00  0.00     0.194 C 
BRANCH  35  36
ATOM     36  C   UNL     1      10.646  10.558   1.988  1.00  0.00     0.017 C 
ATOM     37  C   UNL     1      10.753   9.119   2.521  1.00  0.00     0.010 C 
ATOM     38  C   UNL     1      11.298  11.481   3.025  1.00  0.00     0.010 C 
ENDBRANCH  35  36
BRANCH  35  39
ATOM     39  C   UNL     1       9.074  12.201   0.777  1.00  0.00     0.329 C 
ATOM     40  O   UNL     1       8.594  13.267   1.144  1.00  0.00    -0.250 OA
BRANCH  39  41
ATOM     41  O   UNL     1       9.664  12.020  -0.444  1.00  0.00    -0.458 OA
BRANCH  41  42
ATOM     42  C   UNL     1       9.510  13.099  -1.397  1.00  0.00     0.205 CG0
ATOM     43  C   UNL     1       9.331  12.465  -2.775  1.00  0.00     0.056 C 
ATOM     44  G   UNL     1      10.757  14.003  -1.321  1.00  0.00     0.000 G0
ENDBRANCH  41  42
ENDBRANCH  39  41
ENDBRANCH  35  39
ENDBRANCH  33  35
ENDBRANCH  23  31
ENDBRANCH  21  23
ENDBRANCH  19  21
ENDBRANCH  14  19
ENDBRANCH   7  14
ENDBRANCH   2   5
BRANCH   3  45
ATOM     45  C   UNL     1       3.075   3.960  11.148  1.00  0.00     0.171 C 
BRANCH  45  46
ATOM     46  N   UNL     1       2.625   2.575  11.126  1.00  0.00    -0.342 N 
ATOM     47  C   UNL     1       3.461   1.534  10.807  1.00  0.00     0.247 C 
ATOM     48  O   UNL     1       4.664   1.686  10.590  1.00  0.00    -0.273 OA
ATOM     49  H   UNL     1       1.649   2.398  11.355  1.00  0.00     0.164 HD
BRANCH  47  50
ATOM     50  C   UNL     1       2.783   0.160  10.713  1.00  0.00     0.212 CG0
ATOM     51  G   UNL     1       2.980  -0.552  12.066  1.00  0.00     0.000 G0
BRANCH  50  52
ATOM     52  N   UNL     1       1.383   0.437  10.405  1.00  0.00    -0.339 N 
ATOM     53  C   UNL     1       0.333  -0.109  11.103  1.00  0.00     0.243 C 
ATOM     54  O   UNL     1       0.493  -0.920  12.011  1.00  0.00    -0.273 OA
ATOM     55  H   UNL     1       1.183   1.016   9.591  1.00  0.00     0.164 HD
BRANCH  53  56
ATOM     56  C   UNL     1      -1.054   0.261  10.541  1.00  0.00     0.182 C 
BRANCH  56  57
ATOM     57  N   UNL     1      -1.469   1.592  10.996  1.00  0.00    -0.344 N 
ATOM     58  C   UNL     1      -1.067   2.744  10.365  1.00  0.00     0.220 C 
ATOM     59  O   UNL     1      -0.279   2.745   9.426  1.00  0.00    -0.275 OA
ATOM     60  H   UNL     1      -2.199   1.630  11.703  1.00  0.00     0.164 HD
BRANCH  58  61
ATOM     61  C   UNL     1      -1.664   4.001  10.971  1.00  0.00     0.100 C 
BRANCH  61  62
ATOM     62  C   UNL     1      -1.627   5.212  10.039  1.00  0.00     0.010 C 
BRANCH  62  63
ATOM     63  C   UNL     1      -2.151   6.507  10.671  1.00  0.00     0.000 C 
BRANCH  63  64
ATOM     64  C   UNL     1      -1.986   6.575  12.189  1.00  0.00    -0.003 C 
ATOM     65  C   UNL     1      -0.695   7.282  12.576  1.00  0.00     0.004 C 
ENDBRANCH  63  64
ENDBRANCH  62  63
ENDBRANCH  61  62
ENDBRANCH  58  61
ENDBRANCH  56  57
BRANCH  56  66
ATOM     66  C   UNL     1      -2.094  -0.810  10.866  1.00  0.00     0.157 C 
BRANCH  66  67
ATOM     67  C   UNL     1      -2.761  -0.538  12.184  1.00  0.00     0.305 C 
ATOM     68  O   UNL     1      -3.618   0.302  12.412  1.00  0.00    -0.252 OA
BRANCH  67  69
ATOM     69  O   UNL     1      -2.349  -1.380  13.150  1.00  0.00    -0.481 OA
ATOM     70  H   UNL     1      -3.099  -1.998  13.280  1.00  0.00     0.296 HD
ENDBRANCH  67  69
ENDBRANCH  66  67
ENDBRANCH  56  66
ENDBRANCH  53  56
ENDBRANCH  50  52
ENDBRANCH  47  50
ENDBRANCH  45  46
BRANCH  45  71
ATOM     71  C   UNL     1       2.172   4.833  12.027  1.00  0.00     0.037 C 
BRANCH  71  72
ATOM     72  C   UNL     1       2.057   4.289  13.453  1.00  0.00     0.026 C 
BRANCH  72  73
ATOM     73  C   UNL     1       0.600   4.054  13.848  1.00  0.00     0.146 C 
BRANCH  73  74
ATOM     74  N   UNL     1       0.303   2.640  13.636  1.00  0.00    -0.254 NA
ATOM     75  C   UNL     1      -0.506   2.071  14.451  1.00  0.00     0.185 C 
ATOM     76  N   UNL     1      -0.801   0.771  14.282  1.00  0.00    -0.370 N 
ATOM     77  N   UNL     1      -1.147   2.594  15.511  1.00  0.00    -0.370 N 
ATOM     78  H   UNL     1      -0.354   0.298  13.510  1.00  0.00     0.159 HD
ATOM     79  H   UNL     1      -1.306   0.226  14.958  1.00  0.00     0.159 HD
ATOM     80  H   UNL     1      -1.024   3.565  15.757  1.00  0.00     0.159 HD
ATOM     81  H   UNL     1      -1.851   2.077  16.011  1.00  0.00     0.159 HD
ENDBRANCH  73  74
ENDBRANCH  72  73
ENDBRANCH  71  72
ENDBRANCH  45  71
ENDBRANCH   3  45
TORSDOF 20
ENDMDL
MODEL 17
REMARK VINA RESULT:    -5.165      2.432      3.461
REMARK INTER + INTRA:         -22.272
REMARK INTER:                 -15.839
REMARK INTRA:                  -6.434
REMARK UNBOUND:                -7.444
REMARK SMILES CCCCCC(=O)N[C@H](CC(=O)O)C(=O)N[C@H]1C(=O)N[C@H](CCCN=C(N)N)C(=O)N[C@@H]2CC[C@H](O)N(C2=O)[C@@H](CC(C)C)C(=O)N(C)[C@@H](Cc2ccccc2)C(=O)N[C@H](C(C)C)C(=O)O[C@@H]1C
REMARK SMILES IDX 30 1 31 2 29 3 32 5 35 6 37 7 34 8 38 9 33 10 39 11 36 12
REMARK SMILES IDX 40 14 41 15 42 16 43 17 44 18 45 19 46 20 47 21 48 22 49 23
REMARK SMILES IDX 50 24 51 25 52 26 56 27 53 28 55 29 54 30 57 31 58 32 59 33
REMARK SMILES IDX 60 35 61 36 62 37 63 38 64 39 65 40 66 41 67 42 68 43 21 45
REMARK SMILES IDX 20 46 18 47 19 48 17 50 16 52 14 53 15 54 9 56 8 57 6 58
REMARK SMILES IDX 7 59 5 61 4 62 3 63 2 64 1 65 10 66 11 67 12 68 13 69 22 71
REMARK SMILES IDX 23 72 24 73 25 74 26 75 27 76 28 77
REMARK H PARENT 31 4 36 13 59 34 20 49 16 55 8 60 13 70 27 78 27 79 28 80
REMARK H PARENT 28 81
REMARK Flexibility Score:  259.900
ROOT
ATOM      1  O   UNL     1       3.555   3.432   7.303  1.00  0.00    -0.273 OA
ATOM      2  N   UNL     1       4.734   5.282   7.950  1.00  0.00    -0.343 N 
ATOM      3  C   UNL     1       3.860   4.241   8.180  1.00  0.00     0.243 C 
ATOM      4  H   UNL     1       4.973   5.920   8.699  1.00  0.00     0.164 HD
ENDROOT
BRANCH   2   5
ATOM      5  C   UNL     1       5.247   5.538   6.609  1.00  0.00     0.171 C 
ATOM      6  C   UNL     1       7.635   6.865   5.640  1.00  0.00     0.214 C 
ATOM      7  N   UNL     1       6.424   7.629   5.826  1.00  0.00    -0.303 N 
ATOM      8  C   UNL     1       7.380   5.410   5.282  1.00  0.00     0.057 C 
ATOM      9  C   UNL     1       5.263   7.069   6.333  1.00  0.00     0.247 C 
ATOM     10  C   UNL     1       6.537   4.759   6.357  1.00  0.00     0.040 C 
ATOM     11  O   UNL     1       4.256   7.748   6.571  1.00  0.00    -0.272 OA
BRANCH   6  12
ATOM     12  O   UNL     1       8.388   6.956   6.827  1.00  0.00    -0.373 OA
ATOM     13  H   UNL     1       9.329   6.827   6.582  1.00  0.00     0.213 HD
ENDBRANCH   6  12
BRANCH   7  14
ATOM     14  C   UNL     1       6.507   9.086   5.590  1.00  0.00     0.177 C 
BRANCH  14  15
ATOM     15  C   UNL     1       7.384   9.864   6.590  1.00  0.00     0.038 C 
BRANCH  15  16
ATOM     16  C   UNL     1       6.811  10.237   7.976  1.00  0.00    -0.015 C 
ATOM     17  C   UNL     1       6.971  11.727   8.292  1.00  0.00     0.007 C 
ATOM     18  C   UNL     1       7.530   9.434   9.067  1.00  0.00     0.007 C 
ENDBRANCH  15  16
ENDBRANCH  14  15
BRANCH  14  19
ATOM     19  C   UNL     1       6.385   9.397   4.058  1.00  0.00     0.245 C 
ATOM     20  O   UNL     1       5.238   9.556   3.609  1.00  0.00    -0.272 OA
BRANCH  19  21
ATOM     21  N   UNL     1       7.456   9.391   3.182  1.00  0.00    -0.332 N 
ATOM     22  C   UNL     1       8.186   8.212   2.752  1.00  0.00     0.147 C 
BRANCH  21  23
ATOM     23  C   UNL     1       7.916  10.698   2.636  1.00  0.00     0.178 C 
BRANCH  23  24
ATOM     24  C   UNL     1       9.413  10.997   2.854  1.00  0.00     0.070 C 
BRANCH  24  25
ATOM     25  C   UNL     1       9.888  11.127   4.283  1.00  0.00    -0.045 A 
ATOM     26  C   UNL     1       9.617  12.283   5.027  1.00  0.00     0.004 A 
ATOM     27  C   UNL     1      10.614  10.088   4.884  1.00  0.00     0.004 A 
ATOM     28  C   UNL     1      10.074  12.402   6.341  1.00  0.00     0.000 A 
ATOM     29  C   UNL     1      11.069  10.209   6.198  1.00  0.00     0.000 A 
ATOM     30  C   UNL     1      10.801  11.367   6.925  1.00  0.00     0.000 A 
ENDBRANCH  24  25
ENDBRANCH  23  24
BRANCH  23  31
ATOM     31  C   UNL     1       7.399  10.968   1.203  1.00  0.00     0.243 C 
ATOM     32  O   UNL     1       6.388  10.457   0.730  1.00  0.00    -0.273 OA
ATOM     33  N   UNL     1       8.282  11.699   0.426  1.00  0.00    -0.341 N 
ATOM     34  H   UNL     1       9.112  12.094   0.875  1.00  0.00     0.164 HD
BRANCH  33  35
ATOM     35  C   UNL     1       8.056  11.973  -0.996  1.00  0.00     0.194 C 
BRANCH  35  36
ATOM     36  C   UNL     1       9.345  12.340  -1.785  1.00  0.00     0.017 C 
ATOM     37  C   UNL     1      10.391  11.214  -1.703  1.00  0.00     0.010 C 
ATOM     38  C   UNL     1      10.015  13.625  -1.283  1.00  0.00     0.010 C 
ENDBRANCH  35  36
BRANCH  35  39
ATOM     39  C   UNL     1       6.918  13.004  -1.233  1.00  0.00     0.329 C 
ATOM     40  O   UNL     1       6.718  13.981  -0.521  1.00  0.00    -0.250 OA
BRANCH  39  41
ATOM     41  O   UNL     1       6.215  12.749  -2.378  1.00  0.00    -0.458 OA
BRANCH  41  42
ATOM     42  C   UNL     1       6.165  13.819  -3.352  1.00  0.00     0.205 CG0
ATOM     43  C   UNL     1       4.764  13.814  -3.960  1.00  0.00     0.056 C 
ATOM     44  G   UNL     1       7.266  13.577  -4.403  1.00  0.00     0.000 G0
ENDBRANCH  41  42
ENDBRANCH  39  41
ENDBRANCH  35  39
ENDBRANCH  33  35
ENDBRANCH  23  31
ENDBRANCH  21  23
ENDBRANCH  19  21
ENDBRANCH  14  19
ENDBRANCH   7  14
ENDBRANCH   2   5
BRANCH   3  45
ATOM     45  C   UNL     1       3.309   4.149   9.609  1.00  0.00     0.171 C 
BRANCH  45  46
ATOM     46  N   UNL     1       2.840   2.778   9.763  1.00  0.00    -0.342 N 
ATOM     47  C   UNL     1       3.444   1.884  10.611  1.00  0.00     0.247 C 
ATOM     48  O   UNL     1       4.376   2.193  11.354  1.00  0.00    -0.273 OA
ATOM     49  H   UNL     1       2.035   2.496   9.207  1.00  0.00     0.164 HD
BRANCH  47  50
ATOM     50  C   UNL     1       2.892   0.453  10.548  1.00  0.00     0.212 CG0
ATOM     51  G   UNL     1       3.082  -0.183  11.939  1.00  0.00     0.000 G0
BRANCH  50  52
ATOM     52  N   UNL     1       1.489   0.594  10.164  1.00  0.00    -0.339 N 
ATOM     53  C   UNL     1       0.447   0.117  10.923  1.00  0.00     0.243 C 
ATOM     54  O   UNL     1       0.619  -0.514  11.962  1.00  0.00    -0.273 OA
ATOM     55  H   UNL     1       1.286   1.010   9.258  1.00  0.00     0.164 HD
BRANCH  53  56
ATOM     56  C   UNL     1      -0.939   0.306  10.273  1.00  0.00     0.182 C 
BRANCH  56  57
ATOM     57  N   UNL     1      -1.405   1.688  10.421  1.00  0.00    -0.344 N 
ATOM     58  C   UNL     1      -0.966   2.704   9.606  1.00  0.00     0.220 C 
ATOM     59  O   UNL     1      -0.103   2.542   8.751  1.00  0.00    -0.275 OA
ATOM     60  H   UNL     1      -2.191   1.845  11.046  1.00  0.00     0.164 HD
BRANCH  58  61
ATOM     61  C   UNL     1      -1.626   4.039   9.901  1.00  0.00     0.100 C 
BRANCH  61  62
ATOM     62  C   UNL     1      -1.216   4.645  11.243  1.00  0.00     0.010 C 
BRANCH  62  63
ATOM     63  C   UNL     1      -2.379   5.256  12.036  1.00  0.00     0.000 C 
BRANCH  63  64
ATOM     64  C   UNL     1      -3.139   4.256  12.905  1.00  0.00    -0.003 C 
ATOM     65  C   UNL     1      -2.186   3.382  13.708  1.00  0.00     0.004 C 
ENDBRANCH  63  64
ENDBRANCH  62  63
ENDBRANCH  61  62
ENDBRANCH  58  61
ENDBRANCH  56  57
BRANCH  56  66
ATOM     66  C   UNL     1      -1.951  -0.704  10.810  1.00  0.00     0.157 C 
BRANCH  66  67
ATOM     67  C   UNL     1      -3.274  -0.052  11.090  1.00  0.00     0.305 C 
ATOM     68  O   UNL     1      -4.195   0.105  10.303  1.00  0.00    -0.252 OA
BRANCH  67  69
ATOM     69  O   UNL     1      -3.395   0.328  12.377  1.00  0.00    -0.481 OA
ATOM     70  H   UNL     1      -3.063  -0.435  12.895  1.00  0.00     0.296 HD
ENDBRANCH  67  69
ENDBRANCH  66  67
ENDBRANCH  56  66
ENDBRANCH  53  56
ENDBRANCH  50  52
ENDBRANCH  47  50
ENDBRANCH  45  46
BRANCH  45  71
ATOM     71  C   UNL     1       2.176   5.160   9.811  1.00  0.00     0.037 C 
BRANCH  71  72
ATOM     72  C   UNL     1       2.589   6.313  10.729  1.00  0.00     0.026 C 
BRANCH  72  73
ATOM     73  C   UNL     1       2.007   6.149  12.132  1.00  0.00     0.146 C 
BRANCH  73  74
ATOM     74  N   UNL     1       3.011   5.484  12.957  1.00  0.00    -0.254 NA
ATOM     75  C   UNL     1       2.730   4.323  13.422  1.00  0.00     0.185 C 
ATOM     76  N   UNL     1       3.634   3.685  14.184  1.00  0.00    -0.370 N 
ATOM     77  N   UNL     1       1.611   3.596  13.261  1.00  0.00    -0.370 N 
ATOM     78  H   UNL     1       4.503   4.167  14.362  1.00  0.00     0.159 HD
ATOM     79  H   UNL     1       3.431   2.846  14.698  1.00  0.00     0.159 HD
ATOM     80  H   UNL     1       0.845   3.948  12.707  1.00  0.00     0.159 HD
ATOM     81  H   UNL     1       1.549   2.643  13.580  1.00  0.00     0.159 HD
ENDBRANCH  73  74
ENDBRANCH  72  73
ENDBRANCH  71  72
ENDBRANCH  45  71
ENDBRANCH   3  45
TORSDOF 20
ENDMDL
MODEL 18
REMARK VINA RESULT:    -5.164      5.291      7.631
REMARK INTER + INTRA:         -22.267
REMARK INTER:                 -17.331
REMARK INTRA:                  -4.936
REMARK UNBOUND:                -7.444
REMARK SMILES CCCCCC(=O)N[C@H](CC(=O)O)C(=O)N[C@H]1C(=O)N[C@H](CCCN=C(N)N)C(=O)N[C@@H]2CC[C@H](O)N(C2=O)[C@@H](CC(C)C)C(=O)N(C)[C@@H](Cc2ccccc2)C(=O)N[C@H](C(C)C)C(=O)O[C@@H]1C
REMARK SMILES IDX 30 1 31 2 29 3 32 5 35 6 37 7 34 8 38 9 33 10 39 11 36 12
REMARK SMILES IDX 40 14 41 15 42 16 43 17 44 18 45 19 46 20 47 21 48 22 49 23
REMARK SMILES IDX 50 24 51 25 52 26 56 27 53 28 55 29 54 30 57 31 58 32 59 33
REMARK SMILES IDX 60 35 61 36 62 37 63 38 64 39 65 40 66 41 67 42 68 43 21 45
REMARK SMILES IDX 20 46 18 47 19 48 17 50 16 52 14 53 15 54 9 56 8 57 6 58
REMARK SMILES IDX 7 59 5 61 4 62 3 63 2 64 1 65 10 66 11 67 12 68 13 69 22 71
REMARK SMILES IDX 23 72 24 73 25 74 26 75 27 76 28 77
REMARK H PARENT 31 4 36 13 59 34 20 49 16 55 8 60 13 70 27 78 27 79 28 80
REMARK H PARENT 28 81
REMARK Flexibility Score:  259.900
ROOT
ATOM      1  O   UNL     1       3.624   4.872   7.995  1.00  0.00    -0.273 OA
ATOM      2  N   UNL     1       5.574   5.865   7.331  1.00  0.00    -0.343 N 
ATOM      3  C   UNL     1       4.807   5.134   8.213  1.00  0.00     0.243 C 
ATOM      4  H   UNL     1       6.548   6.049   7.537  1.00  0.00     0.164 HD
ENDROOT
BRANCH   2   5
ATOM      5  C   UNL     1       4.973   6.466   6.146  1.00  0.00     0.171 C 
ATOM      6  C   UNL     1       6.006   8.257   4.114  1.00  0.00     0.214 C 
ATOM      7  N   UNL     1       5.367   8.807   5.286  1.00  0.00    -0.303 N 
ATOM      8  C   UNL     1       5.464   6.893   3.717  1.00  0.00     0.057 C 
ATOM      9  C   UNL     1       4.897   8.010   6.318  1.00  0.00     0.247 C 
ATOM     10  C   UNL     1       5.618   5.926   4.870  1.00  0.00     0.040 C 
ATOM     11  O   UNL     1       4.429   8.492   7.358  1.00  0.00    -0.272 OA
BRANCH   6  12
ATOM     12  O   UNL     1       7.389   8.182   4.372  1.00  0.00    -0.373 OA
ATOM     13  H   UNL     1       7.692   7.303   4.061  1.00  0.00     0.213 HD
ENDBRANCH   6  12
BRANCH   7  14
ATOM     14  C   UNL     1       5.361  10.279   5.419  1.00  0.00     0.177 C 
BRANCH  14  15
ATOM     15  C   UNL     1       6.651  10.891   5.998  1.00  0.00     0.038 C 
BRANCH  15  16
ATOM     16  C   UNL     1       6.553  11.984   7.086  1.00  0.00    -0.015 C 
ATOM     17  C   UNL     1       5.287  11.849   7.938  1.00  0.00     0.007 C 
ATOM     18  C   UNL     1       6.545  13.370   6.429  1.00  0.00     0.007 C 
ENDBRANCH  15  16
ENDBRANCH  14  15
BRANCH  14  19
ATOM     19  C   UNL     1       4.477  10.923   4.295  1.00  0.00     0.245 C 
ATOM     20  O   UNL     1       4.985  11.854   3.648  1.00  0.00    -0.272 OA
BRANCH  19  21
ATOM     21  N   UNL     1       3.153  10.589   4.070  1.00  0.00    -0.332 N 
ATOM     22  C   UNL     1       2.096  10.617   5.065  1.00  0.00     0.147 C 
BRANCH  21  23
ATOM     23  C   UNL     1       2.769  10.153   2.699  1.00  0.00     0.178 C 
BRANCH  23  24
ATOM     24  C   UNL     1       2.193   8.725   2.614  1.00  0.00     0.070 C 
BRANCH  24  25
ATOM     25  C   UNL     1       0.784   8.581   2.086  1.00  0.00    -0.045 A 
ATOM     26  C   UNL     1       0.541   7.978   0.845  1.00  0.00     0.004 A 
ATOM     27  C   UNL     1      -0.304   9.057   2.833  1.00  0.00     0.004 A 
ATOM     28  C   UNL     1      -0.762   7.865   0.356  1.00  0.00     0.000 A 
ATOM     29  C   UNL     1      -1.606   8.941   2.344  1.00  0.00     0.000 A 
ATOM     30  C   UNL     1      -1.833   8.348   1.104  1.00  0.00     0.000 A 
ENDBRANCH  24  25
ENDBRANCH  23  24
BRANCH  23  31
ATOM     31  C   UNL     1       1.965  11.227   1.927  1.00  0.00     0.243 C 
ATOM     32  O   UNL     1       1.287  12.097   2.467  1.00  0.00    -0.273 OA
ATOM     33  N   UNL     1       1.925  11.011   0.560  1.00  0.00    -0.341 N 
ATOM     34  H   UNL     1       2.508  10.267   0.169  1.00  0.00     0.164 HD
BRANCH  33  35
ATOM     35  C   UNL     1       1.127  11.832  -0.355  1.00  0.00     0.194 C 
BRANCH  35  36
ATOM     36  C   UNL     1      -0.400  11.542  -0.300  1.00  0.00     0.017 C 
ATOM     37  C   UNL     1      -0.895  10.902  -1.608  1.00  0.00     0.010 C 
ATOM     38  C   UNL     1      -1.244  12.799  -0.055  1.00  0.00     0.010 C 
ENDBRANCH  35  36
BRANCH  35  39
ATOM     39  C   UNL     1       1.670  11.804  -1.811  1.00  0.00     0.329 C 
ATOM     40  O   UNL     1       2.191  10.824  -2.331  1.00  0.00    -0.250 OA
BRANCH  39  41
ATOM     41  O   UNL     1       1.424  12.971  -2.480  1.00  0.00    -0.458 OA
BRANCH  41  42
ATOM     42  C   UNL     1       1.798  12.999  -3.879  1.00  0.00     0.205 CG0
ATOM     43  C   UNL     1       3.104  13.785  -3.984  1.00  0.00     0.056 C 
ATOM     44  G   UNL     1       0.653  13.649  -4.681  1.00  0.00     0.000 G0
ENDBRANCH  41  42
ENDBRANCH  39  41
ENDBRANCH  35  39
ENDBRANCH  33  35
ENDBRANCH  23  31
ENDBRANCH  21  23
ENDBRANCH  19  21
ENDBRANCH  14  19
ENDBRANCH   7  14
ENDBRANCH   2   5
BRANCH   3  45
ATOM     45  C   UNL     1       5.536   4.651   9.473  1.00  0.00     0.171 C 
BRANCH  45  46
ATOM     46  N   UNL     1       4.646   3.677  10.094  1.00  0.00    -0.342 N 
ATOM     47  C   UNL     1       5.010   2.369  10.293  1.00  0.00     0.247 C 
ATOM     48  O   UNL     1       6.135   1.941  10.030  1.00  0.00    -0.273 OA
ATOM     49  H   UNL     1       3.725   4.004  10.378  1.00  0.00     0.164 HD
BRANCH  47  50
ATOM     50  C   UNL     1       3.901   1.462  10.844  1.00  0.00     0.212 CG0
ATOM     51  G   UNL     1       4.241   1.149  12.314  1.00  0.00     0.000 G0
BRANCH  50  52
ATOM     52  N   UNL     1       2.663   2.222  10.687  1.00  0.00    -0.339 N 
ATOM     53  C   UNL     1       1.465   1.649  10.334  1.00  0.00     0.243 C 
ATOM     54  O   UNL     1       1.354   0.455  10.070  1.00  0.00    -0.273 OA
ATOM     55  H   UNL     1       2.714   3.234  10.783  1.00  0.00     0.164 HD
BRANCH  53  56
ATOM     56  C   UNL     1       0.318   2.662  10.144  1.00  0.00     0.182 C 
BRANCH  56  57
ATOM     57  N   UNL     1      -0.988   2.007  10.267  1.00  0.00    -0.344 N 
ATOM     58  C   UNL     1      -1.647   1.898  11.468  1.00  0.00     0.220 C 
ATOM     59  O   UNL     1      -1.160   2.274  12.528  1.00  0.00    -0.275 OA
ATOM     60  H   UNL     1      -1.470   1.774   9.403  1.00  0.00     0.164 HD
BRANCH  58  61
ATOM     61  C   UNL     1      -3.008   1.236  11.349  1.00  0.00     0.100 C 
BRANCH  61  62
ATOM     62  C   UNL     1      -3.350   0.317  12.522  1.00  0.00     0.010 C 
BRANCH  62  63
ATOM     63  C   UNL     1      -2.710  -1.075  12.435  1.00  0.00     0.000 C 
BRANCH  63  64
ATOM     64  C   UNL     1      -1.380  -1.200  13.177  1.00  0.00    -0.003 C 
ATOM     65  C   UNL     1      -0.208  -1.264  12.209  1.00  0.00     0.004 C 
ENDBRANCH  63  64
ENDBRANCH  62  63
ENDBRANCH  61  62
ENDBRANCH  58  61
ENDBRANCH  56  57
BRANCH  56  66
ATOM     66  C   UNL     1       0.457   3.427   8.829  1.00  0.00     0.157 C 
BRANCH  66  67
ATOM     67  C   UNL     1      -0.613   3.032   7.854  1.00  0.00     0.305 C 
ATOM     68  O   UNL     1      -1.499   3.746   7.408  1.00  0.00    -0.252 OA
BRANCH  67  69
ATOM     69  O   UNL     1      -0.484   1.756   7.442  1.00  0.00    -0.481 OA
ATOM     70  H   UNL     1      -0.133   1.823   6.529  1.00  0.00     0.296 HD
ENDBRANCH  67  69
ENDBRANCH  66  67
ENDBRANCH  56  66
ENDBRANCH  53  56
ENDBRANCH  50  52
ENDBRANCH  47  50
ENDBRANCH  45  46
BRANCH  45  71
ATOM     71  C   UNL     1       5.824   5.830  10.409  1.00  0.00     0.037 C 
BRANCH  71  72
ATOM     72  C   UNL     1       7.325   6.072  10.585  1.00  0.00     0.026 C 
BRANCH  72  73
ATOM     73  C   UNL     1       8.152   5.048   9.811  1.00  0.00     0.146 C 
BRANCH  73  74
ATOM     74  N   UNL     1       9.045   4.387  10.758  1.00  0.00    -0.254 NA
ATOM     75  C   UNL     1       9.344   3.159  10.543  1.00  0.00     0.185 C 
ATOM     76  N   UNL     1      10.164   2.524  11.396  1.00  0.00    -0.370 N 
ATOM     77  N   UNL     1       8.947   2.356   9.541  1.00  0.00    -0.370 N 
ATOM     78  H   UNL     1      10.504   3.056  12.185  1.00  0.00     0.159 HD
ATOM     79  H   UNL     1      10.326   1.533  11.374  1.00  0.00     0.159 HD
ATOM     80  H   UNL     1       8.330   2.700   8.821  1.00  0.00     0.159 HD
ATOM     81  H   UNL     1       9.341   1.438   9.411  1.00  0.00     0.159 HD
ENDBRANCH  73  74
ENDBRANCH  72  73
ENDBRANCH  71  72
ENDBRANCH  45  71
ENDBRANCH   3  45
TORSDOF 20
ENDMDL
MODEL 19
REMARK VINA RESULT:    -5.128      6.534     11.695
REMARK INTER + INTRA:         -22.165
REMARK INTER:                 -14.665
REMARK INTRA:                  -7.500
REMARK UNBOUND:                -7.444
REMARK SMILES CCCCCC(=O)N[C@H](CC(=O)O)C(=O)N[C@H]1C(=O)N[C@H](CCCN=C(N)N)C(=O)N[C@@H]2CC[C@H](O)N(C2=O)[C@@H](CC(C)C)C(=O)N(C)[C@@H](Cc2ccccc2)C(=O)N[C@H](C(C)C)C(=O)O[C@@H]1C
REMARK SMILES IDX 30 1 31 2 29 3 32 5 35 6 37 7 34 8 38 9 33 10 39 11 36 12
REMARK SMILES IDX 40 14 41 15 42 16 43 17 44 18 45 19 46 20 47 21 48 22 49 23
REMARK SMILES IDX 50 24 51 25 52 26 56 27 53 28 55 29 54 30 57 31 58 32 59 33
REMARK SMILES IDX 60 35 61 36 62 37 63 38 64 39 65 40 66 41 67 42 68 43 21 45
REMARK SMILES IDX 20 46 18 47 19 48 17 50 16 52 14 53 15 54 9 56 8 57 6 58
REMARK SMILES IDX 7 59 5 61 4 62 3 63 2 64 1 65 10 66 11 67 12 68 13 69 22 71
REMARK SMILES IDX 23 72 24 73 25 74 26 75 27 76 28 77
REMARK H PARENT 31 4 36 13 59 34 20 49 16 55 8 60 13 70 27 78 27 79 28 80
REMARK H PARENT 28 81
REMARK Flexibility Score:  259.900
ROOT
ATOM      1  O   UNL     1       5.675  10.038   5.284  1.00  0.00    -0.273 OA
ATOM      2  N   UNL     1       4.343   8.178   5.312  1.00  0.00    -0.343 N 
ATOM      3  C   UNL     1       4.634   9.474   4.944  1.00  0.00     0.243 C 
ATOM      4  H   UNL     1       3.484   7.742   5.001  1.00  0.00     0.164 HD
ENDROOT
BRANCH   2   5
ATOM      5  C   UNL     1       5.215   7.455   6.232  1.00  0.00     0.171 C 
ATOM      6  C   UNL     1       5.284   4.692   7.109  1.00  0.00     0.214 C 
ATOM      7  N   UNL     1       4.516   5.657   7.861  1.00  0.00    -0.303 N 
ATOM      8  C   UNL     1       6.493   5.297   6.412  1.00  0.00     0.057 C 
ATOM      9  C   UNL     1       4.399   6.981   7.469  1.00  0.00     0.247 C 
ATOM     10  C   UNL     1       6.049   6.411   5.490  1.00  0.00     0.040 C 
ATOM     11  O   UNL     1       3.670   7.781   8.070  1.00  0.00    -0.272 OA
BRANCH   6  12
ATOM     12  O   UNL     1       4.422   4.094   6.169  1.00  0.00    -0.373 OA
ATOM     13  H   UNL     1       4.591   3.128   6.197  1.00  0.00     0.213 HD
ENDBRANCH   6  12
BRANCH   7  14
ATOM     14  C   UNL     1       3.728   5.145   9.001  1.00  0.00     0.177 C 
BRANCH  14  15
ATOM     15  C   UNL     1       2.980   3.823   8.740  1.00  0.00     0.038 C 
BRANCH  15  16
ATOM     16  C   UNL     1       1.749   3.461   9.601  1.00  0.00    -0.015 C 
ATOM     17  C   UNL     1       2.049   2.349  10.610  1.00  0.00     0.007 C 
ATOM     18  C   UNL     1       0.603   2.993   8.696  1.00  0.00     0.007 C 
ENDBRANCH  15  16
ENDBRANCH  14  15
BRANCH  14  19
ATOM     19  C   UNL     1       4.402   5.553  10.356  1.00  0.00     0.245 C 
ATOM     20  O   UNL     1       5.644   5.549  10.386  1.00  0.00    -0.272 OA
BRANCH  19  21
ATOM     21  N   UNL     1       3.701   5.800  11.523  1.00  0.00    -0.332 N 
ATOM     22  C   UNL     1       3.868   5.083  12.774  1.00  0.00     0.147 C 
BRANCH  21  23
ATOM     23  C   UNL     1       2.678   6.882  11.504  1.00  0.00     0.178 C 
BRANCH  23  24
ATOM     24  C   UNL     1       1.535   6.707  12.525  1.00  0.00     0.070 C 
BRANCH  24  25
ATOM     25  C   UNL     1       0.406   5.780  12.143  1.00  0.00    -0.045 A 
ATOM     26  C   UNL     1      -0.462   6.101  11.091  1.00  0.00     0.004 A 
ATOM     27  C   UNL     1       0.207   4.580  12.843  1.00  0.00     0.004 A 
ATOM     28  C   UNL     1      -1.514   5.246  10.754  1.00  0.00     0.000 A 
ATOM     29  C   UNL     1      -0.844   3.727  12.505  1.00  0.00     0.000 A 
ATOM     30  C   UNL     1      -1.706   4.062  11.462  1.00  0.00     0.000 A 
ENDBRANCH  24  25
ENDBRANCH  23  24
BRANCH  23  31
ATOM     31  C   UNL     1       3.298   8.298  11.456  1.00  0.00     0.243 C 
ATOM     32  O   UNL     1       4.340   8.612  12.026  1.00  0.00    -0.273 OA
ATOM     33  N   UNL     1       2.477   9.242  10.862  1.00  0.00    -0.341 N 
ATOM     34  H   UNL     1       1.618   8.921  10.408  1.00  0.00     0.164 HD
BRANCH  33  35
ATOM     35  C   UNL     1       2.806  10.669  10.812  1.00  0.00     0.194 C 
BRANCH  35  36
ATOM     36  C   UNL     1       1.900  11.562  11.704  1.00  0.00     0.017 C 
ATOM     37  C   UNL     1       2.348  13.033  11.662  1.00  0.00     0.010 C 
ATOM     38  C   UNL     1       1.885  11.129  13.176  1.00  0.00     0.010 C 
ENDBRANCH  35  36
BRANCH  35  39
ATOM     39  C   UNL     1       2.901  11.209   9.357  1.00  0.00     0.329 C 
ATOM     40  O   UNL     1       3.946  11.564   8.824  1.00  0.00    -0.250 OA
BRANCH  39  41
ATOM     41  O   UNL     1       1.700  11.163   8.706  1.00  0.00    -0.458 OA
BRANCH  41  42
ATOM     42  C   UNL     1       1.436  12.237   7.771  1.00  0.00     0.205 CG0
ATOM     43  C   UNL     1       0.399  13.155   8.415  1.00  0.00     0.056 C 
ATOM     44  G   UNL     1       0.939  11.624   6.447  1.00  0.00     0.000 G0
ENDBRANCH  41  42
ENDBRANCH  39  41
ENDBRANCH  35  39
ENDBRANCH  33  35
ENDBRANCH  23  31
ENDBRANCH  21  23
ENDBRANCH  19  21
ENDBRANCH  14  19
ENDBRANCH   7  14
ENDBRANCH   2   5
BRANCH   3  45
ATOM     45  C   UNL     1       3.581  10.158   4.062  1.00  0.00     0.171 C 
BRANCH  45  46
ATOM     46  N   UNL     1       2.425  10.371   4.922  1.00  0.00    -0.342 N 
ATOM     47  C   UNL     1       2.122  11.597   5.458  1.00  0.00     0.247 C 
ATOM     48  O   UNL     1       2.759  12.618   5.194  1.00  0.00    -0.273 OA
ATOM     49  H   UNL     1       1.837   9.563   5.121  1.00  0.00     0.164 HD
BRANCH  47  50
ATOM     50  C   UNL     1       0.941  11.604   6.439  1.00  0.00     0.212 CG0
ATOM     51  G   UNL     1       1.430  12.239   7.756  1.00  0.00     0.000 G0
BRANCH  50  52
ATOM     52  N   UNL     1      -0.108  12.378   5.780  1.00  0.00    -0.339 N 
ATOM     53  C   UNL     1      -1.234  11.812   5.233  1.00  0.00     0.243 C 
ATOM     54  O   UNL     1      -1.421  10.599   5.209  1.00  0.00    -0.273 OA
ATOM     55  H   UNL     1       0.041  13.379   5.669  1.00  0.00     0.164 HD
BRANCH  53  56
ATOM     56  C   UNL     1      -2.157  12.819   4.516  1.00  0.00     0.182 C 
BRANCH  56  57
ATOM     57  N   UNL     1      -1.597  13.214   3.219  1.00  0.00    -0.344 N 
ATOM     58  C   UNL     1      -2.346  13.227   2.068  1.00  0.00     0.220 C 
ATOM     59  O   UNL     1      -3.509  12.841   2.028  1.00  0.00    -0.275 OA
ATOM     60  H   UNL     1      -0.672  13.635   3.226  1.00  0.00     0.164 HD
BRANCH  58  61
ATOM     61  C   UNL     1      -1.579  13.726   0.857  1.00  0.00     0.100 C 
BRANCH  61  62
ATOM     62  C   UNL     1      -1.140  12.614  -0.095  1.00  0.00     0.010 C 
BRANCH  62  63
ATOM     63  C   UNL     1       0.066  12.978  -0.972  1.00  0.00     0.000 C 
BRANCH  63  64
ATOM     64  C   UNL     1       1.121  13.826  -0.265  1.00  0.00    -0.003 C 
ATOM     65  C   UNL     1       2.330  14.066  -1.158  1.00  0.00     0.004 C 
ENDBRANCH  63  64
ENDBRANCH  62  63
ENDBRANCH  61  62
ENDBRANCH  58  61
ENDBRANCH  56  57
BRANCH  56  66
ATOM     66  C   UNL     1      -2.467  14.024   5.402  1.00  0.00     0.157 C 
BRANCH  66  67
ATOM     67  C   UNL     1      -1.815  15.269   4.874  1.00  0.00     0.305 C 
ATOM     68  O   UNL     1      -2.364  16.197   4.300  1.00  0.00    -0.252 OA
BRANCH  67  69
ATOM     69  O   UNL     1      -0.496  15.309   5.142  1.00  0.00    -0.481 OA
ATOM     70  H   UNL     1      -0.392  14.786   5.965  1.00  0.00     0.296 HD
ENDBRANCH  67  69
ENDBRANCH  66  67
ENDBRANCH  56  66
ENDBRANCH  53  56
ENDBRANCH  50  52
ENDBRANCH  47  50
ENDBRANCH  45  46
BRANCH  45  71
ATOM     71  C   UNL     1       3.236   9.273   2.859  1.00  0.00     0.037 C 
BRANCH  71  72
ATOM     72  C   UNL     1       3.078  10.086   1.572  1.00  0.00     0.026 C 
BRANCH  72  73
ATOM     73  C   UNL     1       1.607  10.333   1.241  1.00  0.00     0.146 C 
BRANCH  73  74
ATOM     74  N   UNL     1       0.809   9.840   2.360  1.00  0.00    -0.254 NA
ATOM     75  C   UNL     1      -0.183   9.073   2.096  1.00  0.00     0.185 C 
ATOM     76  N   UNL     1      -0.936   8.604   3.104  1.00  0.00    -0.370 N 
ATOM     77  N   UNL     1      -0.619   8.637   0.902  1.00  0.00    -0.370 N 
ATOM     78  H   UNL     1      -0.680   8.891   4.038  1.00  0.00     0.159 HD
ATOM     79  H   UNL     1      -1.806   8.122   2.967  1.00  0.00     0.159 HD
ATOM     80  H   UNL     1      -0.147   8.907   0.052  1.00  0.00     0.159 HD
ATOM     81  H   UNL     1      -1.343   7.942   0.826  1.00  0.00     0.159 HD
ENDBRANCH  73  74
ENDBRANCH  72  73
ENDBRANCH  71  72
ENDBRANCH  45  71
ENDBRANCH   3  45
TORSDOF 20
ENDMDL
MODEL 20
REMARK VINA RESULT:    -5.115      3.660     11.870
REMARK INTER + INTRA:         -22.128
REMARK INTER:                 -14.591
REMARK INTRA:                  -7.537
REMARK UNBOUND:                -7.444
REMARK SMILES CCCCCC(=O)N[C@H](CC(=O)O)C(=O)N[C@H]1C(=O)N[C@H](CCCN=C(N)N)C(=O)N[C@@H]2CC[C@H](O)N(C2=O)[C@@H](CC(C)C)C(=O)N(C)[C@@H](Cc2ccccc2)C(=O)N[C@H](C(C)C)C(=O)O[C@@H]1C
REMARK SMILES IDX 30 1 31 2 29 3 32 5 35 6 37 7 34 8 38 9 33 10 39 11 36 12
REMARK SMILES IDX 40 14 41 15 42 16 43 17 44 18 45 19 46 20 47 21 48 22 49 23
REMARK SMILES IDX 50 24 51 25 52 26 56 27 53 28 55 29 54 30 57 31 58 32 59 33
REMARK SMILES IDX 60 35 61 36 62 37 63 38 64 39 65 40 66 41 67 42 68 43 21 45
REMARK SMILES IDX 20 46 18 47 19 48 17 50 16 52 14 53 15 54 9 56 8 57 6 58
REMARK SMILES IDX 7 59 5 61 4 62 3 63 2 64 1 65 10 66 11 67 12 68 13 69 22 71
REMARK SMILES IDX 23 72 24 73 25 74 26 75 27 76 28 77
REMARK H PARENT 31 4 36 13 59 34 20 49 16 55 8 60 13 70 27 78 27 79 28 80
REMARK H PARENT 28 81
REMARK Flexibility Score:  259.900
ROOT
ATOM      1  O   UNL     1       4.179   5.692  11.658  1.00  0.00    -0.273 OA
ATOM      2  N   UNL     1       3.060   7.566  12.343  1.00  0.00    -0.343 N 
ATOM      3  C   UNL     1       3.992   6.906  11.570  1.00  0.00     0.243 C 
ATOM      4  H   UNL     1       2.923   8.563  12.233  1.00  0.00     0.164 HD
ENDROOT
BRANCH   2   5
ATOM      5  C   UNL     1       2.333   6.860  13.393  1.00  0.00     0.171 C 
ATOM      6  C   UNL     1       1.679   4.064  13.791  1.00  0.00     0.214 C 
ATOM      7  N   UNL     1       0.755   4.916  13.079  1.00  0.00    -0.303 N 
ATOM      8  C   UNL     1       2.500   4.806  14.834  1.00  0.00     0.057 C 
ATOM      9  C   UNL     1       1.028   6.247  12.810  1.00  0.00     0.247 C 
ATOM     10  C   UNL     1       3.263   5.935  14.177  1.00  0.00     0.040 C 
ATOM     11  O   UNL     1       0.270   6.947  12.125  1.00  0.00    -0.272 OA
BRANCH   6  12
ATOM     12  O   UNL     1       2.524   3.457  12.841  1.00  0.00    -0.373 OA
ATOM     13  H   UNL     1       1.978   2.814  12.340  1.00  0.00     0.213 HD
ENDBRANCH   6  12
BRANCH   7  14
ATOM     14  C   UNL     1      -0.448   4.272  12.511  1.00  0.00     0.177 C 
BRANCH  14  15
ATOM     15  C   UNL     1      -1.709   4.340  13.394  1.00  0.00     0.038 C 
BRANCH  15  16
ATOM     16  C   UNL     1      -2.336   3.033  13.929  1.00  0.00    -0.015 C 
ATOM     17  C   UNL     1      -1.288   1.948  14.192  1.00  0.00     0.007 C 
ATOM     18  C   UNL     1      -3.346   2.488  12.911  1.00  0.00     0.007 C 
ENDBRANCH  15  16
ENDBRANCH  14  15
BRANCH  14  19
ATOM     19  C   UNL     1      -0.431   4.372  10.946  1.00  0.00     0.245 C 
ATOM     20  O   UNL     1      -1.479   4.753  10.399  1.00  0.00    -0.272 OA
BRANCH  19  21
ATOM     21  N   UNL     1       0.630   3.960  10.159  1.00  0.00    -0.332 N 
ATOM     22  C   UNL     1       1.576   4.838   9.493  1.00  0.00     0.147 C 
BRANCH  21  23
ATOM     23  C   UNL     1       0.821   2.497   9.960  1.00  0.00     0.178 C 
BRANCH  23  24
ATOM     24  C   UNL     1      -0.404   1.758   9.383  1.00  0.00     0.070 C 
BRANCH  24  25
ATOM     25  C   UNL     1      -1.023   0.680  10.242  1.00  0.00    -0.045 A 
ATOM     26  C   UNL     1      -2.370   0.325  10.087  1.00  0.00     0.004 A 
ATOM     27  C   UNL     1      -0.256   0.020  11.213  1.00  0.00     0.004 A 
ATOM     28  C   UNL     1      -2.939  -0.661  10.896  1.00  0.00     0.000 A 
ATOM     29  C   UNL     1      -0.826  -0.966  12.020  1.00  0.00     0.000 A 
ATOM     30  C   UNL     1      -2.169  -1.303  11.862  1.00  0.00     0.000 A 
ENDBRANCH  24  25
ENDBRANCH  23  24
BRANCH  23  31
ATOM     31  C   UNL     1       2.169   2.151   9.283  1.00  0.00     0.243 C 
ATOM     32  O   UNL     1       2.282   1.824   8.104  1.00  0.00    -0.273 OA
ATOM     33  N   UNL     1       3.227   2.061  10.171  1.00  0.00    -0.341 N 
ATOM     34  H   UNL     1       3.071   2.341  11.143  1.00  0.00     0.164 HD
BRANCH  33  35
ATOM     35  C   UNL     1       4.570   1.630   9.773  1.00  0.00     0.194 C 
BRANCH  35  36
ATOM     36  C   UNL     1       5.085   0.373  10.529  1.00  0.00     0.017 C 
ATOM     37  C   UNL     1       6.385  -0.162   9.904  1.00  0.00     0.010 C 
ATOM     38  C   UNL     1       4.074  -0.780  10.542  1.00  0.00     0.010 C 
ENDBRANCH  35  36
BRANCH  35  39
ATOM     39  C   UNL     1       5.604   2.791   9.806  1.00  0.00     0.329 C 
ATOM     40  O   UNL     1       6.080   3.257  10.834  1.00  0.00    -0.250 OA
BRANCH  39  41
ATOM     41  O   UNL     1       5.991   3.178   8.552  1.00  0.00    -0.458 OA
BRANCH  41  42
ATOM     42  C   UNL     1       5.139   4.142   7.888  1.00  0.00     0.205 CG0
ATOM     43  C   UNL     1       4.749   3.548   6.536  1.00  0.00     0.056 C 
ATOM     44  G   UNL     1       5.912   5.468   7.748  1.00  0.00     0.000 G0
ENDBRANCH  41  42
ENDBRANCH  39  41
ENDBRANCH  35  39
ENDBRANCH  33  35
ENDBRANCH  23  31
ENDBRANCH  21  23
ENDBRANCH  19  21
ENDBRANCH  14  19
ENDBRANCH   7  14
ENDBRANCH   2   5
BRANCH   3  45
ATOM     45  C   UNL     1       4.764   7.786  10.578  1.00  0.00     0.171 C 
BRANCH  45  46
ATOM     46  N   UNL     1       5.492   6.864   9.717  1.00  0.00    -0.342 N 
ATOM     47  C   UNL     1       5.085   6.573   8.439  1.00  0.00     0.247 C 
ATOM     48  O   UNL     1       4.122   7.123   7.903  1.00  0.00    -0.273 OA
ATOM     49  H   UNL     1       6.328   6.429  10.102  1.00  0.00     0.164 HD
BRANCH  47  50
ATOM     50  C   UNL     1       5.904   5.486   7.728  1.00  0.00     0.212 CG0
ATOM     51  G   UNL     1       5.155   4.150   7.900  1.00  0.00     0.000 G0
BRANCH  50  52
ATOM     52  N   UNL     1       6.000   5.919   6.336  1.00  0.00    -0.339 N 
ATOM     53  C   UNL     1       7.069   6.621   5.836  1.00  0.00     0.243 C 
ATOM     54  O   UNL     1       8.008   6.987   6.537  1.00  0.00    -0.273 OA
ATOM     55  H   UNL     1       5.201   5.742   5.730  1.00  0.00     0.164 HD
BRANCH  53  56
ATOM     56  C   UNL     1       6.907   7.043   4.361  1.00  0.00     0.182 C 
BRANCH  56  57
ATOM     57  N   UNL     1       7.257   8.455   4.176  1.00  0.00    -0.344 N 
ATOM     58  C   UNL     1       8.124   8.877   3.197  1.00  0.00     0.220 C 
ATOM     59  O   UNL     1       8.720   8.099   2.460  1.00  0.00    -0.275 OA
ATOM     60  H   UNL     1       6.711   9.137   4.696  1.00  0.00     0.164 HD
BRANCH  58  61
ATOM     61  C   UNL     1       8.293  10.384   3.152  1.00  0.00     0.100 C 
BRANCH  61  62
ATOM     62  C   UNL     1       8.205  10.972   1.744  1.00  0.00     0.010 C 
BRANCH  62  63
ATOM     63  C   UNL     1       6.774  11.101   1.207  1.00  0.00     0.000 C 
BRANCH  63  64
ATOM     64  C   UNL     1       6.048  12.369   1.656  1.00  0.00    -0.003 C 
ATOM     65  C   UNL     1       4.537  12.183   1.627  1.00  0.00     0.004 C 
ENDBRANCH  63  64
ENDBRANCH  62  63
ENDBRANCH  61  62
ENDBRANCH  58  61
ENDBRANCH  56  57
BRANCH  56  66
ATOM     66  C   UNL     1       5.509   6.722   3.837  1.00  0.00     0.157 C 
BRANCH  66  67
ATOM     67  C   UNL     1       4.608   7.921   3.921  1.00  0.00     0.305 C 
ATOM     68  O   UNL     1       3.939   8.268   4.883  1.00  0.00    -0.252 OA
BRANCH  67  69
ATOM     69  O   UNL     1       4.633   8.660   2.796  1.00  0.00    -0.481 OA
ATOM     70  H   UNL     1       5.398   9.263   2.911  1.00  0.00     0.296 HD
ENDBRANCH  67  69
ENDBRANCH  66  67
ENDBRANCH  56  66
ENDBRANCH  53  56
ENDBRANCH  50  52
ENDBRANCH  47  50
ENDBRANCH  45  46
BRANCH  45  71
ATOM     71  C   UNL     1       5.713   8.729  11.327  1.00  0.00     0.037 C 
BRANCH  71  72
ATOM     72  C   UNL     1       5.288  10.194  11.199  1.00  0.00     0.026 C 
BRANCH  72  73
ATOM     73  C   UNL     1       4.486  10.436   9.922  1.00  0.00     0.146 C 
BRANCH  73  74
ATOM     74  N   UNL     1       5.432  10.568   8.819  1.00  0.00    -0.254 NA
ATOM     75  C   UNL     1       5.004  10.340   7.632  1.00  0.00     0.185 C 
ATOM     76  N   UNL     1       5.850  10.456   6.596  1.00  0.00    -0.370 N 
ATOM     77  N   UNL     1       3.771   9.983   7.232  1.00  0.00    -0.370 N 
ATOM     78  H   UNL     1       6.803  10.714   6.810  1.00  0.00     0.159 HD
ATOM     79  H   UNL     1       5.628  10.155   5.663  1.00  0.00     0.159 HD
ATOM     80  H   UNL     1       3.028   9.863   7.904  1.00  0.00     0.159 HD
ATOM     81  H   UNL     1       3.522   9.944   6.258  1.00  0.00     0.159 HD
ENDBRANCH  73  74
ENDBRANCH  72  73
ENDBRANCH  71  72
ENDBRANCH  45  71
ENDBRANCH   3  45
TORSDOF 20
ENDMDL
MODEL 21
REMARK VINA RESULT:    -5.078      7.497     13.824
REMARK INTER + INTRA:         -22.021
REMARK INTER:                 -15.760
REMARK INTRA:                  -6.261
REMARK UNBOUND:                -7.444
REMARK SMILES CCCCCC(=O)N[C@H](CC(=O)O)C(=O)N[C@H]1C(=O)N[C@H](CCCN=C(N)N)C(=O)N[C@@H]2CC[C@H](O)N(C2=O)[C@@H](CC(C)C)C(=O)N(C)[C@@H](Cc2ccccc2)C(=O)N[C@H](C(C)C)C(=O)O[C@@H]1C
REMARK SMILES IDX 30 1 31 2 29 3 32 5 35 6 37 7 34 8 38 9 33 10 39 11 36 12
REMARK SMILES IDX 40 14 41 15 42 16 43 17 44 18 45 19 46 20 47 21 48 22 49 23
REMARK SMILES IDX 50 24 51 25 52 26 56 27 53 28 55 29 54 30 57 31 58 32 59 33
REMARK SMILES IDX 60 35 61 36 62 37 63 38 64 39 65 40 66 41 67 42 68 43 21 45
REMARK SMILES IDX 20 46 18 47 19 48 17 50 16 52 14 53 15 54 9 56 8 57 6 58
REMARK SMILES IDX 7 59 5 61 4 62 3 63 2 64 1 65 10 66 11 67 12 68 13 69 22 71
REMARK SMILES IDX 23 72 24 73 25 74 26 75 27 76 28 77
REMARK H PARENT 31 4 36 13 59 34 20 49 16 55 8 60 13 70 27 78 27 79 28 80
REMARK H PARENT 28 81
REMARK Flexibility Score:  259.900
ROOT
ATOM      1  O   UNL     1       2.180   9.549  -1.675  1.00  0.00    -0.273 OA
ATOM      2  N   UNL     1       0.589  10.081  -0.121  1.00  0.00    -0.343 N 
ATOM      3  C   UNL     1       1.278  10.296  -1.295  1.00  0.00     0.243 C 
ATOM      4  H   UNL     1      -0.157  10.708   0.153  1.00  0.00     0.164 HD
ENDROOT
BRANCH   2   5
ATOM      5  C   UNL     1       0.989   9.013   0.789  1.00  0.00     0.171 C 
ATOM      6  C   UNL     1       0.566   8.589   3.626  1.00  0.00     0.214 C 
ATOM      7  N   UNL     1       1.750   9.285   3.181  1.00  0.00    -0.303 N 
ATOM      8  C   UNL     1       0.056   7.566   2.623  1.00  0.00     0.057 C 
ATOM      9  C   UNL     1       1.989   9.566   1.845  1.00  0.00     0.247 C 
ATOM     10  C   UNL     1      -0.229   8.244   1.300  1.00  0.00     0.040 C 
ATOM     11  O   UNL     1       2.962  10.238   1.479  1.00  0.00    -0.272 OA
BRANCH   6  12
ATOM     12  O   UNL     1      -0.426   9.553   3.893  1.00  0.00    -0.373 OA
ATOM     13  H   UNL     1      -0.701   9.432   4.827  1.00  0.00     0.213 HD
ENDBRANCH   6  12
BRANCH   7  14
ATOM     14  C   UNL     1       2.644   9.826   4.227  1.00  0.00     0.177 C 
BRANCH  14  15
ATOM     15  C   UNL     1       1.943  10.644   5.330  1.00  0.00     0.038 C 
BRANCH  15  16
ATOM     16  C   UNL     1       2.790  11.321   6.430  1.00  0.00    -0.015 C 
ATOM     17  C   UNL     1       1.929  11.914   7.548  1.00  0.00     0.007 C 
ATOM     18  C   UNL     1       3.628  12.451   5.817  1.00  0.00     0.007 C 
ENDBRANCH  15  16
ENDBRANCH  14  15
BRANCH  14  19
ATOM     19  C   UNL     1       3.866   8.869   4.446  1.00  0.00     0.245 C 
ATOM     20  O   UNL     1       3.717   7.950   5.268  1.00  0.00    -0.272 OA
BRANCH  19  21
ATOM     21  N   UNL     1       5.109   9.061   3.868  1.00  0.00    -0.332 N 
ATOM     22  C   UNL     1       5.804   8.103   3.027  1.00  0.00     0.147 C 
BRANCH  21  23
ATOM     23  C   UNL     1       5.807  10.350   4.131  1.00  0.00     0.178 C 
BRANCH  23  24
ATOM     24  C   UNL     1       6.915  10.277   5.202  1.00  0.00     0.070 C 
BRANCH  24  25
ATOM     25  C   UNL     1       6.658   9.391   6.399  1.00  0.00    -0.045 A 
ATOM     26  C   UNL     1       7.210   8.106   6.472  1.00  0.00     0.004 A 
ATOM     27  C   UNL     1       5.854   9.846   7.455  1.00  0.00     0.004 A 
ATOM     28  C   UNL     1       6.954   7.287   7.574  1.00  0.00     0.000 A 
ATOM     29  C   UNL     1       5.600   9.026   8.557  1.00  0.00     0.000 A 
ATOM     30  C   UNL     1       6.148   7.747   8.613  1.00  0.00     0.000 A 
ENDBRANCH  24  25
ENDBRANCH  23  24
BRANCH  23  31
ATOM     31  C   UNL     1       6.201  11.099   2.836  1.00  0.00     0.243 C 
ATOM     32  O   UNL     1       7.257  10.921   2.234  1.00  0.00    -0.273 OA
ATOM     33  N   UNL     1       5.337  12.130   2.508  1.00  0.00    -0.341 N 
ATOM     34  H   UNL     1       4.475  12.232   3.050  1.00  0.00     0.164 HD
BRANCH  33  35
ATOM     35  C   UNL     1       5.576  13.048   1.391  1.00  0.00     0.194 C 
BRANCH  35  36
ATOM     36  C   UNL     1       6.249  14.387   1.803  1.00  0.00     0.017 C 
ATOM     37  C   UNL     1       7.648  14.526   1.178  1.00  0.00     0.010 C 
ATOM     38  C   UNL     1       6.408  14.542   3.320  1.00  0.00     0.010 C 
ENDBRANCH  35  36
BRANCH  35  39
ATOM     39  C   UNL     1       4.307  13.279   0.524  1.00  0.00     0.329 C 
ATOM     40  O   UNL     1       3.163  13.081   0.917  1.00  0.00    -0.250 OA
BRANCH  39  41
ATOM     41  O   UNL     1       4.603  13.811  -0.700  1.00  0.00    -0.458 OA
BRANCH  41  42
ATOM     42  C   UNL     1       4.879  12.865  -1.761  1.00  0.00     0.205 CG0
ATOM     43  C   UNL     1       6.387  12.878  -1.999  1.00  0.00     0.056 C 
ATOM     44  G   UNL     1       4.081  13.282  -3.012  1.00  0.00     0.000 G0
ENDBRANCH  41  42
ENDBRANCH  39  41
ENDBRANCH  35  39
ENDBRANCH  33  35
ENDBRANCH  23  31
ENDBRANCH  21  23
ENDBRANCH  19  21
ENDBRANCH  14  19
ENDBRANCH   7  14
ENDBRANCH   2   5
BRANCH   3  45
ATOM     45  C   UNL     1       0.827  11.517  -2.107  1.00  0.00     0.171 C 
BRANCH  45  46
ATOM     46  N   UNL     1       1.982  12.404  -2.159  1.00  0.00    -0.342 N 
ATOM     47  C   UNL     1       2.871  12.393  -3.204  1.00  0.00     0.247 C 
ATOM     48  O   UNL     1       2.720  11.690  -4.204  1.00  0.00    -0.273 OA
ATOM     49  H   UNL     1       2.114  13.043  -1.378  1.00  0.00     0.164 HD
BRANCH  47  50
ATOM     50  C   UNL     1       4.093  13.306  -3.027  1.00  0.00     0.212 CG0
ATOM     51  G   UNL     1       4.844  12.843  -1.763  1.00  0.00     0.000 G0
BRANCH  50  52
ATOM     52  N   UNL     1       4.874  13.154  -4.251  1.00  0.00    -0.339 N 
ATOM     53  C   UNL     1       4.839  14.054  -5.288  1.00  0.00     0.243 C 
ATOM     54  O   UNL     1       4.101  15.036  -5.287  1.00  0.00    -0.273 OA
ATOM     55  H   UNL     1       5.421  12.302  -4.360  1.00  0.00     0.164 HD
BRANCH  53  56
ATOM     56  C   UNL     1       5.681  13.637  -6.511  1.00  0.00     0.182 C 
BRANCH  56  57
ATOM     57  N   UNL     1       5.768  12.177  -6.617  1.00  0.00    -0.344 N 
ATOM     58  C   UNL     1       4.933  11.447  -7.428  1.00  0.00     0.220 C 
ATOM     59  O   UNL     1       4.013  11.954  -8.061  1.00  0.00    -0.275 OA
ATOM     60  H   UNL     1       6.576  11.732  -6.191  1.00  0.00     0.164 HD
BRANCH  58  61
ATOM     61  C   UNL     1       5.241   9.961  -7.426  1.00  0.00     0.100 C 
BRANCH  61  62
ATOM     62  C   UNL     1       4.171   9.111  -6.740  1.00  0.00     0.010 C 
BRANCH  62  63
ATOM     63  C   UNL     1       4.717   8.164  -5.664  1.00  0.00     0.000 C 
BRANCH  63  64
ATOM     64  C   UNL     1       6.038   7.491  -6.032  1.00  0.00    -0.003 C 
ATOM     65  C   UNL     1       5.811   6.256  -6.891  1.00  0.00     0.004 C 
ENDBRANCH  63  64
ENDBRANCH  62  63
ENDBRANCH  61  62
ENDBRANCH  58  61
ENDBRANCH  56  57
BRANCH  56  66
ATOM     66  C   UNL     1       7.059  14.297  -6.493  1.00  0.00     0.157 C 
BRANCH  66  67
ATOM     67  C   UNL     1       7.128  15.436  -7.469  1.00  0.00     0.305 C 
ATOM     68  O   UNL     1       8.125  15.851  -8.042  1.00  0.00    -0.252 OA
BRANCH  67  69
ATOM     69  O   UNL     1       5.918  15.972  -7.718  1.00  0.00    -0.481 OA
ATOM     70  H   UNL     1       5.668  16.423  -6.884  1.00  0.00     0.296 HD
ENDBRANCH  67  69
ENDBRANCH  66  67
ENDBRANCH  56  66
ENDBRANCH  53  56
ENDBRANCH  50  52
ENDBRANCH  47  50
ENDBRANCH  45  46
BRANCH  45  71
ATOM     71  C   UNL     1      -0.374  12.192  -1.434  1.00  0.00     0.037 C 
BRANCH  71  72
ATOM     72  C   UNL     1       0.051  13.341  -0.517  1.00  0.00     0.026 C 
BRANCH  72  73
ATOM     73  C   UNL     1      -0.807  13.398   0.745  1.00  0.00     0.146 C 
BRANCH  73  74
ATOM     74  N   UNL     1      -1.408  12.081   0.935  1.00  0.00    -0.254 NA
ATOM     75  C   UNL     1      -2.172  11.913   1.951  1.00  0.00     0.185 C 
ATOM     76  N   UNL     1      -2.741  10.713   2.153  1.00  0.00    -0.370 N 
ATOM     77  N   UNL     1      -2.516  12.796   2.905  1.00  0.00    -0.370 N 
ATOM     78  H   UNL     1      -2.527   9.987   1.484  1.00  0.00     0.159 HD
ATOM     79  H   UNL     1      -3.228  10.466   2.996  1.00  0.00     0.159 HD
ATOM     80  H   UNL     1      -2.166  13.741   2.880  1.00  0.00     0.159 HD
ATOM     81  H   UNL     1      -3.218  12.582   3.594  1.00  0.00     0.159 HD
ENDBRANCH  73  74
ENDBRANCH  72  73
ENDBRANCH  71  72
ENDBRANCH  45  71
ENDBRANCH   3  45
TORSDOF 20
ENDMDL
MODEL 22
REMARK VINA RESULT:    -5.066      7.768     13.862
REMARK INTER + INTRA:         -21.986
REMARK INTER:                 -15.398
REMARK INTRA:                  -6.589
REMARK UNBOUND:                -7.444
REMARK SMILES CCCCCC(=O)N[C@H](CC(=O)O)C(=O)N[C@H]1C(=O)N[C@H](CCCN=C(N)N)C(=O)N[C@@H]2CC[C@H](O)N(C2=O)[C@@H](CC(C)C)C(=O)N(C)[C@@H](Cc2ccccc2)C(=O)N[C@H](C(C)C)C(=O)O[C@@H]1C
REMARK SMILES IDX 30 1 31 2 29 3 32 5 35 6 37 7 34 8 38 9 33 10 39 11 36 12
REMARK SMILES IDX 40 14 41 15 42 16 43 17 44 18 45 19 46 20 47 21 48 22 49 23
REMARK SMILES IDX 50 24 51 25 52 26 56 27 53 28 55 29 54 30 57 31 58 32 59 33
REMARK SMILES IDX 60 35 61 36 62 37 63 38 64 39 65 40 66 41 67 42 68 43 21 45
REMARK SMILES IDX 20 46 18 47 19 48 17 50 16 52 14 53 15 54 9 56 8 57 6 58
REMARK SMILES IDX 7 59 5 61 4 62 3 63 2 64 1 65 10 66 11 67 12 68 13 69 22 71
REMARK SMILES IDX 23 72 24 73 25 74 26 75 27 76 28 77
REMARK H PARENT 31 4 36 13 59 34 20 49 16 55 8 60 13 70 27 78 27 79 28 80
REMARK H PARENT 28 81
REMARK Flexibility Score:  259.900
ROOT
ATOM      1  O   UNL     1       1.415   9.787  -2.328  1.00  0.00    -0.273 OA
ATOM      2  N   UNL     1       1.302  10.674  -0.224  1.00  0.00    -0.343 N 
ATOM      3  C   UNL     1       1.270  10.768  -1.598  1.00  0.00     0.243 C 
ATOM      4  H   UNL     1       1.163  11.500   0.345  1.00  0.00     0.164 HD
ENDROOT
BRANCH   2   5
ATOM      5  C   UNL     1       1.632   9.411   0.427  1.00  0.00     0.171 C 
ATOM      6  C   UNL     1       1.320   8.464   3.149  1.00  0.00     0.214 C 
ATOM      7  N   UNL     1       2.547   9.120   2.762  1.00  0.00    -0.303 N 
ATOM      8  C   UNL     1       0.649   7.719   2.006  1.00  0.00     0.057 C 
ATOM      9  C   UNL     1       2.741   9.641   1.493  1.00  0.00     0.247 C 
ATOM     10  C   UNL     1       0.367   8.674   0.867  1.00  0.00     0.040 C 
ATOM     11  O   UNL     1       3.760  10.278   1.194  1.00  0.00    -0.272 OA
BRANCH   6  12
ATOM     12  O   UNL     1       0.455   9.444   3.674  1.00  0.00    -0.373 OA
ATOM     13  H   UNL     1      -0.244   9.600   3.002  1.00  0.00     0.213 HD
ENDBRANCH   6  12
BRANCH   7  14
ATOM     14  C   UNL     1       3.549   9.350   3.824  1.00  0.00     0.177 C 
BRANCH  14  15
ATOM     15  C   UNL     1       2.970   9.727   5.201  1.00  0.00     0.038 C 
BRANCH  15  16
ATOM     16  C   UNL     1       2.633  11.204   5.507  1.00  0.00    -0.015 C 
ATOM     17  C   UNL     1       3.815  12.140   5.240  1.00  0.00     0.007 C 
ATOM     18  C   UNL     1       2.227  11.349   6.979  1.00  0.00     0.007 C 
ENDBRANCH  15  16
ENDBRANCH  14  15
BRANCH  14  19
ATOM     19  C   UNL     1       4.810   8.449   3.586  1.00  0.00     0.245 C 
ATOM     20  O   UNL     1       4.701   7.246   3.878  1.00  0.00    -0.272 OA
BRANCH  19  21
ATOM     21  N   UNL     1       6.041   8.936   3.185  1.00  0.00    -0.332 N 
ATOM     22  C   UNL     1       7.064   8.174   2.493  1.00  0.00     0.147 C 
BRANCH  21  23
ATOM     23  C   UNL     1       6.360  10.358   3.492  1.00  0.00     0.178 C 
BRANCH  23  24
ATOM     24  C   UNL     1       7.339  10.560   4.667  1.00  0.00     0.070 C 
BRANCH  24  25
ATOM     25  C   UNL     1       7.173   9.654   5.865  1.00  0.00    -0.045 A 
ATOM     26  C   UNL     1       6.284   9.984   6.896  1.00  0.00     0.004 A 
ATOM     27  C   UNL     1       7.915   8.467   5.962  1.00  0.00     0.004 A 
ATOM     28  C   UNL     1       6.149   9.149   8.008  1.00  0.00     0.000 A 
ATOM     29  C   UNL     1       7.778   7.634   7.073  1.00  0.00     0.000 A 
ATOM     30  C   UNL     1       6.897   7.977   8.097  1.00  0.00     0.000 A 
ENDBRANCH  24  25
ENDBRANCH  23  24
BRANCH  23  31
ATOM     31  C   UNL     1       6.678  11.192   2.228  1.00  0.00     0.243 C 
ATOM     32  O   UNL     1       7.727  11.106   1.594  1.00  0.00    -0.273 OA
ATOM     33  N   UNL     1       5.750  12.187   1.974  1.00  0.00    -0.341 N 
ATOM     34  H   UNL     1       4.898  12.212   2.540  1.00  0.00     0.164 HD
BRANCH  33  35
ATOM     35  C   UNL     1       5.908  13.172   0.901  1.00  0.00     0.194 C 
BRANCH  35  36
ATOM     36  C   UNL     1       6.502  14.531   1.368  1.00  0.00     0.017 C 
ATOM     37  C   UNL     1       8.001  14.630   1.035  1.00  0.00     0.010 C 
ATOM     38  C   UNL     1       6.351  14.770   2.876  1.00  0.00     0.010 C 
ENDBRANCH  35  36
BRANCH  35  39
ATOM     39  C   UNL     1       4.610  13.363   0.068  1.00  0.00     0.329 C 
ATOM     40  O   UNL     1       3.480  13.198   0.511  1.00  0.00    -0.250 OA
BRANCH  39  41
ATOM     41  O   UNL     1       4.865  13.821  -1.196  1.00  0.00    -0.458 OA
BRANCH  41  42
ATOM     42  C   UNL     1       5.160  12.815  -2.194  1.00  0.00     0.205 CG0
ATOM     43  C   UNL     1       6.678  12.763  -2.352  1.00  0.00     0.056 C 
ATOM     44  G   UNL     1       4.444  13.199  -3.505  1.00  0.00     0.000 G0
ENDBRANCH  41  42
ENDBRANCH  39  41
ENDBRANCH  35  39
ENDBRANCH  33  35
ENDBRANCH  23  31
ENDBRANCH  21  23
ENDBRANCH  19  21
ENDBRANCH  14  19
ENDBRANCH   7  14
ENDBRANCH   2   5
BRANCH   3  45
ATOM     45  C   UNL     1       1.019  12.175  -2.156  1.00  0.00     0.171 C 
BRANCH  45  46
ATOM     46  N   UNL     1       2.338  12.759  -2.359  1.00  0.00    -0.342 N 
ATOM     47  C   UNL     1       3.032  12.619  -3.535  1.00  0.00     0.247 C 
ATOM     48  O   UNL     1       2.563  12.056  -4.524  1.00  0.00    -0.273 OA
ATOM     49  H   UNL     1       2.740  13.283  -1.583  1.00  0.00     0.164 HD
BRANCH  47  50
ATOM     50  C   UNL     1       4.455  13.195  -3.522  1.00  0.00     0.212 CG0
ATOM     51  G   UNL     1       5.109  12.795  -2.184  1.00  0.00     0.000 G0
BRANCH  50  52
ATOM     52  N   UNL     1       5.121  12.615  -4.685  1.00  0.00    -0.339 N 
ATOM     53  C   UNL     1       5.394  13.323  -5.830  1.00  0.00     0.243 C 
ATOM     54  O   UNL     1       5.050  14.491  -5.984  1.00  0.00    -0.273 OA
ATOM     55  H   UNL     1       5.331  11.619  -4.662  1.00  0.00     0.164 HD
BRANCH  53  56
ATOM     56  C   UNL     1       6.023  12.477  -6.956  1.00  0.00     0.182 C 
BRANCH  56  57
ATOM     57  N   UNL     1       5.025  11.598  -7.574  1.00  0.00    -0.344 N 
ATOM     58  C   UNL     1       4.784  11.595  -8.927  1.00  0.00     0.220 C 
ATOM     59  O   UNL     1       5.331  12.374  -9.700  1.00  0.00    -0.275 OA
ATOM     60  H   UNL     1       4.626  10.870  -6.988  1.00  0.00     0.164 HD
BRANCH  58  61
ATOM     61  C   UNL     1       3.754  10.565  -9.352  1.00  0.00     0.100 C 
BRANCH  61  62
ATOM     62  C   UNL     1       4.168   9.122  -9.061  1.00  0.00     0.010 C 
BRANCH  62  63
ATOM     63  C   UNL     1       3.631   8.099 -10.069  1.00  0.00     0.000 C 
BRANCH  63  64
ATOM     64  C   UNL     1       3.638   6.658  -9.564  1.00  0.00    -0.003 C 
ATOM     65  C   UNL     1       4.525   5.771 -10.426  1.00  0.00     0.004 C 
ENDBRANCH  63  64
ENDBRANCH  62  63
ENDBRANCH  61  62
ENDBRANCH  58  61
ENDBRANCH  56  57
BRANCH  56  66
ATOM     66  C   UNL     1       7.244  11.704  -6.460  1.00  0.00     0.157 C 
BRANCH  66  67
ATOM     67  C   UNL     1       7.005  10.222  -6.505  1.00  0.00     0.305 C 
ATOM     68  O   UNL     1       7.462   9.431  -7.316  1.00  0.00    -0.252 OA
BRANCH  67  69
ATOM     69  O   UNL     1       6.235   9.797  -5.486  1.00  0.00    -0.481 OA
ATOM     70  H   UNL     1       6.855   9.342  -4.877  1.00  0.00     0.296 HD
ENDBRANCH  67  69
ENDBRANCH  66  67
ENDBRANCH  56  66
ENDBRANCH  53  56
ENDBRANCH  50  52
ENDBRANCH  47  50
ENDBRANCH  45  46
BRANCH  45  71
ATOM     71  C   UNL     1       0.182  12.999  -1.170  1.00  0.00     0.037 C 
BRANCH  71  72
ATOM     72  C   UNL     1      -1.320  12.790  -1.376  1.00  0.00     0.026 C 
BRANCH  72  73
ATOM     73  C   UNL     1      -1.921  11.919  -0.274  1.00  0.00     0.146 C 
BRANCH  73  74
ATOM     74  N   UNL     1      -1.149  12.144   0.944  1.00  0.00    -0.254 NA
ATOM     75  C   UNL     1      -1.614  11.674   2.043  1.00  0.00     0.185 C 
ATOM     76  N   UNL     1      -0.926  11.864   3.180  1.00  0.00    -0.370 N 
ATOM     77  N   UNL     1      -2.746  10.981   2.253  1.00  0.00    -0.370 N 
ATOM     78  H   UNL     1      -0.063  12.384   3.112  1.00  0.00     0.159 HD
ATOM     79  H   UNL     1      -1.294  11.655   4.091  1.00  0.00     0.159 HD
ATOM     80  H   UNL     1      -3.363  10.759   1.486  1.00  0.00     0.159 HD
ATOM     81  H   UNL     1      -2.951  10.562   3.146  1.00  0.00     0.159 HD
ENDBRANCH  73  74
ENDBRANCH  72  73
ENDBRANCH  71  72
ENDBRANCH  45  71
ENDBRANCH   3  45
TORSDOF 20
ENDMDL
MODEL 23
REMARK VINA RESULT:    -5.059      7.270     10.930
REMARK INTER + INTRA:         -21.968
REMARK INTER:                 -17.756
REMARK INTRA:                  -4.212
REMARK UNBOUND:                -7.444
REMARK SMILES CCCCCC(=O)N[C@H](CC(=O)O)C(=O)N[C@H]1C(=O)N[C@H](CCCN=C(N)N)C(=O)N[C@@H]2CC[C@H](O)N(C2=O)[C@@H](CC(C)C)C(=O)N(C)[C@@H](Cc2ccccc2)C(=O)N[C@H](C(C)C)C(=O)O[C@@H]1C
REMARK SMILES IDX 30 1 31 2 29 3 32 5 35 6 37 7 34 8 38 9 33 10 39 11 36 12
REMARK SMILES IDX 40 14 41 15 42 16 43 17 44 18 45 19 46 20 47 21 48 22 49 23
REMARK SMILES IDX 50 24 51 25 52 26 56 27 53 28 55 29 54 30 57 31 58 32 59 33
REMARK SMILES IDX 60 35 61 36 62 37 63 38 64 39 65 40 66 41 67 42 68 43 21 45
REMARK SMILES IDX 20 46 18 47 19 48 17 50 16 52 14 53 15 54 9 56 8 57 6 58
REMARK SMILES IDX 7 59 5 61 4 62 3 63 2 64 1 65 10 66 11 67 12 68 13 69 22 71
REMARK SMILES IDX 23 72 24 73 25 74 26 75 27 76 28 77
REMARK H PARENT 31 4 36 13 59 34 20 49 16 55 8 60 13 70 27 78 27 79 28 80
REMARK H PARENT 28 81
REMARK Flexibility Score:  259.900
ROOT
ATOM      1  O   UNL     1      -1.047  10.675   5.297  1.00  0.00    -0.273 OA
ATOM      2  N   UNL     1       0.857  11.934   5.431  1.00  0.00    -0.343 N 
ATOM      3  C   UNL     1      -0.344  11.583   4.853  1.00  0.00     0.243 C 
ATOM      4  H   UNL     1       1.402  12.697   5.048  1.00  0.00     0.164 HD
ENDROOT
BRANCH   2   5
ATOM      5  C   UNL     1       1.406  11.154   6.535  1.00  0.00     0.171 C 
ATOM      6  C   UNL     1       4.004  11.128   7.820  1.00  0.00     0.214 C 
ATOM      7  N   UNL     1       3.754  10.243   6.707  1.00  0.00    -0.303 N 
ATOM      8  C   UNL     1       2.759  11.437   8.636  1.00  0.00     0.057 C 
ATOM      9  C   UNL     1       2.553  10.241   6.016  1.00  0.00     0.247 C 
ATOM     10  C   UNL     1       1.699  12.044   7.742  1.00  0.00     0.040 C 
ATOM     11  O   UNL     1       2.377   9.541   5.010  1.00  0.00    -0.272 OA
BRANCH   6  12
ATOM     12  O   UNL     1       4.565  12.315   7.309  1.00  0.00    -0.373 OA
ATOM     13  H   UNL     1       5.153  12.679   8.005  1.00  0.00     0.213 HD
ENDBRANCH   6  12
BRANCH   7  14
ATOM     14  C   UNL     1       4.891   9.429   6.229  1.00  0.00     0.177 C 
BRANCH  14  15
ATOM     15  C   UNL     1       4.787   7.919   6.522  1.00  0.00     0.038 C 
BRANCH  15  16
ATOM     16  C   UNL     1       4.452   7.444   7.953  1.00  0.00    -0.015 C 
ATOM     17  C   UNL     1       5.473   7.932   8.985  1.00  0.00     0.007 C 
ATOM     18  C   UNL     1       4.422   5.911   7.996  1.00  0.00     0.007 C 
ENDBRANCH  15  16
ENDBRANCH  14  15
BRANCH  14  19
ATOM     19  C   UNL     1       5.505  10.060   4.932  1.00  0.00     0.245 C 
ATOM     20  O   UNL     1       5.282  11.267   4.738  1.00  0.00    -0.272 OA
BRANCH  19  21
ATOM     21  N   UNL     1       6.169   9.333   3.960  1.00  0.00    -0.332 N 
ATOM     22  C   UNL     1       5.836   7.982   3.544  1.00  0.00     0.147 C 
BRANCH  21  23
ATOM     23  C   UNL     1       7.330   9.974   3.283  1.00  0.00     0.178 C 
BRANCH  23  24
ATOM     24  C   UNL     1       8.613   9.119   3.254  1.00  0.00     0.070 C 
BRANCH  24  25
ATOM     25  C   UNL     1       9.932   9.854   3.312  1.00  0.00    -0.045 A 
ATOM     26  C   UNL     1      10.278  10.620   4.433  1.00  0.00     0.004 A 
ATOM     27  C   UNL     1      10.830   9.782   2.237  1.00  0.00     0.004 A 
ATOM     28  C   UNL     1      11.491  11.310   4.471  1.00  0.00     0.000 A 
ATOM     29  C   UNL     1      12.043  10.471   2.278  1.00  0.00     0.000 A 
ATOM     30  C   UNL     1      12.371  11.237   3.394  1.00  0.00     0.000 A 
ENDBRANCH  24  25
ENDBRANCH  23  24
BRANCH  23  31
ATOM     31  C   UNL     1       6.955  10.632   1.934  1.00  0.00     0.243 C 
ATOM     32  O   UNL     1       7.319  10.208   0.839  1.00  0.00    -0.273 OA
ATOM     33  N   UNL     1       6.322  11.855   2.071  1.00  0.00    -0.341 N 
ATOM     34  H   UNL     1       6.049  12.157   3.010  1.00  0.00     0.164 HD
BRANCH  33  35
ATOM     35  C   UNL     1       5.982  12.711   0.932  1.00  0.00     0.194 C 
BRANCH  35  36
ATOM     36  C   UNL     1       6.925  13.934   0.751  1.00  0.00     0.017 C 
ATOM     37  C   UNL     1       7.510  13.984  -0.671  1.00  0.00     0.010 C 
ATOM     38  C   UNL     1       8.103  13.938   1.733  1.00  0.00     0.010 C 
ENDBRANCH  35  36
BRANCH  35  39
ATOM     39  C   UNL     1       4.484  13.128   0.923  1.00  0.00     0.329 C 
ATOM     40  O   UNL     1       3.967  13.809   0.046  1.00  0.00    -0.250 OA
BRANCH  39  41
ATOM     41  O   UNL     1       3.785  12.575   1.960  1.00  0.00    -0.458 OA
BRANCH  41  42
ATOM     42  C   UNL     1       2.750  11.627   1.603  1.00  0.00     0.205 CG0
ATOM     43  C   UNL     1       3.432  10.452   0.905  1.00  0.00     0.056 C 
ATOM     44  G   UNL     1       1.725  12.338   0.697  1.00  0.00     0.000 G0
ENDBRANCH  41  42
ENDBRANCH  39  41
ENDBRANCH  35  39
ENDBRANCH  33  35
ENDBRANCH  23  31
ENDBRANCH  21  23
ENDBRANCH  19  21
ENDBRANCH  14  19
ENDBRANCH   7  14
ENDBRANCH   2   5
BRANCH   3  45
ATOM     45  C   UNL     1      -0.754  12.417   3.632  1.00  0.00     0.171 C 
BRANCH  45  46
ATOM     46  N   UNL     1       0.424  12.470   2.777  1.00  0.00    -0.342 N 
ATOM     47  C   UNL     1       0.347  12.370   1.411  1.00  0.00     0.247 C 
ATOM     48  O   UNL     1      -0.723  12.303   0.805  1.00  0.00    -0.273 OA
ATOM     49  H   UNL     1       1.327  12.581   3.235  1.00  0.00     0.164 HD
BRANCH  47  50
ATOM     50  C   UNL     1       1.700  12.320   0.685  1.00  0.00     0.212 CG0
ATOM     51  G   UNL     1       2.706  11.620   1.621  1.00  0.00     0.000 G0
BRANCH  50  52
ATOM     52  N   UNL     1       1.452  11.582  -0.550  1.00  0.00    -0.339 N 
ATOM     53  C   UNL     1       1.287  12.188  -1.772  1.00  0.00     0.243 C 
ATOM     54  O   UNL     1       1.282  13.408  -1.911  1.00  0.00    -0.273 OA
ATOM     55  H   UNL     1       1.334  10.573  -0.483  1.00  0.00     0.164 HD
BRANCH  53  56
ATOM     56  C   UNL     1       0.950  11.211  -2.917  1.00  0.00     0.182 C 
BRANCH  56  57
ATOM     57  N   UNL     1       0.540   9.905  -2.391  1.00  0.00    -0.344 N 
ATOM     58  C   UNL     1      -0.754   9.635  -2.017  1.00  0.00     0.220 C 
ATOM     59  O   UNL     1      -1.638  10.485  -2.027  1.00  0.00    -0.275 OA
ATOM     60  H   UNL     1       1.215   9.147  -2.461  1.00  0.00     0.164 HD
BRANCH  58  61
ATOM     61  C   UNL     1      -0.961   8.204  -1.558  1.00  0.00     0.100 C 
BRANCH  61  62
ATOM     62  C   UNL     1      -0.573   7.962  -0.099  1.00  0.00     0.010 C 
BRANCH  62  63
ATOM     63  C   UNL     1      -1.689   8.269   0.907  1.00  0.00     0.000 C 
BRANCH  63  64
ATOM     64  C   UNL     1      -1.193   8.793   2.254  1.00  0.00    -0.003 C 
ATOM     65  C   UNL     1       0.074   8.075   2.696  1.00  0.00     0.004 C 
ENDBRANCH  63  64
ENDBRANCH  62  63
ENDBRANCH  61  62
ENDBRANCH  58  61
ENDBRANCH  56  57
BRANCH  56  66
ATOM     66  C   UNL     1       2.104  11.095  -3.912  1.00  0.00     0.157 C 
BRANCH  66  67
ATOM     67  C   UNL     1       1.746  10.190  -5.056  1.00  0.00     0.305 C 
ATOM     68  O   UNL     1       1.959   8.990  -5.134  1.00  0.00    -0.252 OA
BRANCH  67  69
ATOM     69  O   UNL     1       1.085  10.838  -6.033  1.00  0.00    -0.481 OA
ATOM     70  H   UNL     1       0.308  11.237  -5.588  1.00  0.00     0.296 HD
ENDBRANCH  67  69
ENDBRANCH  66  67
ENDBRANCH  56  66
ENDBRANCH  53  56
ENDBRANCH  50  52
ENDBRANCH  47  50
ENDBRANCH  45  46
BRANCH  45  71
ATOM     71  C   UNL     1      -1.200  13.818   4.067  1.00  0.00     0.037 C 
BRANCH  71  72
ATOM     72  C   UNL     1      -2.489  13.782   4.891  1.00  0.00     0.026 C 
BRANCH  72  73
ATOM     73  C   UNL     1      -3.599  13.026   4.162  1.00  0.00     0.146 C 
BRANCH  73  74
ATOM     74  N   UNL     1      -3.803  13.671   2.869  1.00  0.00    -0.254 NA
ATOM     75  C   UNL     1      -3.849  12.925   1.828  1.00  0.00     0.185 C 
ATOM     76  N   UNL     1      -4.037  13.489   0.624  1.00  0.00    -0.370 N 
ATOM     77  N   UNL     1      -3.732  11.588   1.741  1.00  0.00    -0.370 N 
ATOM     78  H   UNL     1      -4.127  14.494   0.599  1.00  0.00     0.159 HD
ATOM     79  H   UNL     1      -3.939  12.990  -0.243  1.00  0.00     0.159 HD
ATOM     80  H   UNL     1      -3.590  11.030   2.569  1.00  0.00     0.159 HD
ATOM     81  H   UNL     1      -3.900  11.098   0.877  1.00  0.00     0.159 HD
ENDBRANCH  73  74
ENDBRANCH  72  73
ENDBRANCH  71  72
ENDBRANCH  45  71
ENDBRANCH   3  45
TORSDOF 20
ENDMDL
MODEL 24
REMARK VINA RESULT:    -5.057      5.426     13.091
REMARK INTER + INTRA:         -21.960
REMARK INTER:                 -15.125
REMARK INTRA:                  -6.835
REMARK UNBOUND:                -7.444
REMARK SMILES CCCCCC(=O)N[C@H](CC(=O)O)C(=O)N[C@H]1C(=O)N[C@H](CCCN=C(N)N)C(=O)N[C@@H]2CC[C@H](O)N(C2=O)[C@@H](CC(C)C)C(=O)N(C)[C@@H](Cc2ccccc2)C(=O)N[C@H](C(C)C)C(=O)O[C@@H]1C
REMARK SMILES IDX 30 1 31 2 29 3 32 5 35 6 37 7 34 8 38 9 33 10 39 11 36 12
REMARK SMILES IDX 40 14 41 15 42 16 43 17 44 18 45 19 46 20 47 21 48 22 49 23
REMARK SMILES IDX 50 24 51 25 52 26 56 27 53 28 55 29 54 30 57 31 58 32 59 33
REMARK SMILES IDX 60 35 61 36 62 37 63 38 64 39 65 40 66 41 67 42 68 43 21 45
REMARK SMILES IDX 20 46 18 47 19 48 17 50 16 52 14 53 15 54 9 56 8 57 6 58
REMARK SMILES IDX 7 59 5 61 4 62 3 63 2 64 1 65 10 66 11 67 12 68 13 69 22 71
REMARK SMILES IDX 23 72 24 73 25 74 26 75 27 76 28 77
REMARK H PARENT 31 4 36 13 59 34 20 49 16 55 8 60 13 70 27 78 27 79 28 80
REMARK H PARENT 28 81
REMARK Flexibility Score:  259.900
ROOT
ATOM      1  O   UNL     1       6.436  10.603   0.596  1.00  0.00    -0.273 OA
ATOM      2  N   UNL     1       5.772  10.855   2.770  1.00  0.00    -0.343 N 
ATOM      3  C   UNL     1       6.266  11.331   1.574  1.00  0.00     0.243 C 
ATOM      4  H   UNL     1       5.631  11.486   3.549  1.00  0.00     0.164 HD
ENDROOT
BRANCH   2   5
ATOM      5  C   UNL     1       5.539   9.427   2.961  1.00  0.00     0.171 C 
ATOM      6  C   UNL     1       4.609   7.876   5.227  1.00  0.00     0.214 C 
ATOM      7  N   UNL     1       6.025   8.095   5.050  1.00  0.00    -0.303 N 
ATOM      8  C   UNL     1       3.837   7.843   3.917  1.00  0.00     0.057 C 
ATOM      9  C   UNL     1       6.534   8.869   4.019  1.00  0.00     0.247 C 
ATOM     10  C   UNL     1       4.053   9.136   3.162  1.00  0.00     0.040 C 
ATOM     11  O   UNL     1       7.742   9.123   3.924  1.00  0.00    -0.272 OA
BRANCH   6  12
ATOM     12  O   UNL     1       4.116   8.897   6.063  1.00  0.00    -0.373 OA
ATOM     13  H   UNL     1       4.845   9.149   6.669  1.00  0.00     0.213 HD
ENDBRANCH   6  12
BRANCH   7  14
ATOM     14  C   UNL     1       6.921   7.579   6.106  1.00  0.00     0.177 C 
BRANCH  14  15
ATOM     15  C   UNL     1       6.961   8.416   7.399  1.00  0.00     0.038 C 
BRANCH  15  16
ATOM     16  C   UNL     1       8.309   8.640   8.119  1.00  0.00    -0.015 C 
ATOM     17  C   UNL     1       8.279   9.854   9.052  1.00  0.00     0.007 C 
ATOM     18  C   UNL     1       9.420   8.857   7.084  1.00  0.00     0.007 C 
ENDBRANCH  15  16
ENDBRANCH  14  15
BRANCH  14  19
ATOM     19  C   UNL     1       6.999   6.014   6.036  1.00  0.00     0.245 C 
ATOM     20  O   UNL     1       7.797   5.531   5.216  1.00  0.00    -0.272 OA
BRANCH  19  21
ATOM     21  N   UNL     1       6.163   5.168   6.743  1.00  0.00    -0.332 N 
ATOM     22  C   UNL     1       5.099   4.362   6.170  1.00  0.00     0.147 C 
BRANCH  21  23
ATOM     23  C   UNL     1       6.352   5.074   8.217  1.00  0.00     0.178 C 
BRANCH  23  24
ATOM     24  C   UNL     1       5.085   5.356   9.050  1.00  0.00     0.070 C 
BRANCH  24  25
ATOM     25  C   UNL     1       4.985   6.708   9.716  1.00  0.00    -0.045 A 
ATOM     26  C   UNL     1       4.005   7.630   9.327  1.00  0.00     0.004 A 
ATOM     27  C   UNL     1       5.882   7.063  10.735  1.00  0.00     0.004 A 
ATOM     28  C   UNL     1       3.930   8.884   9.936  1.00  0.00     0.000 A 
ATOM     29  C   UNL     1       5.806   8.317  11.343  1.00  0.00     0.000 A 
ATOM     30  C   UNL     1       4.831   9.228  10.941  1.00  0.00     0.000 A 
ENDBRANCH  24  25
ENDBRANCH  23  24
BRANCH  23  31
ATOM     31  C   UNL     1       7.147   3.818   8.645  1.00  0.00     0.243 C 
ATOM     32  O   UNL     1       8.124   3.383   8.039  1.00  0.00    -0.273 OA
ATOM     33  N   UNL     1       6.550   3.109   9.673  1.00  0.00    -0.341 N 
ATOM     34  H   UNL     1       5.735   3.519  10.136  1.00  0.00     0.164 HD
BRANCH  33  35
ATOM     35  C   UNL     1       7.061   1.825  10.161  1.00  0.00     0.194 C 
BRANCH  35  36
ATOM     36  C   UNL     1       6.100   0.627   9.922  1.00  0.00     0.017 C 
ATOM     37  C   UNL     1       6.617  -0.289   8.798  1.00  0.00     0.010 C 
ATOM     38  C   UNL     1       4.678   1.058   9.545  1.00  0.00     0.010 C 
ENDBRANCH  35  36
BRANCH  35  39
ATOM     39  C   UNL     1       7.544   1.896  11.637  1.00  0.00     0.329 C 
ATOM     40  O   UNL     1       8.125   2.859  12.123  1.00  0.00    -0.250 OA
BRANCH  39  41
ATOM     41  O   UNL     1       7.171   0.796  12.359  1.00  0.00    -0.458 OA
BRANCH  41  42
ATOM     42  C   UNL     1       8.235   0.079  13.030  1.00  0.00     0.205 CG0
ATOM     43  C   UNL     1       9.012  -0.684  11.959  1.00  0.00     0.056 C 
ATOM     44  G   UNL     1       7.609  -0.857  14.083  1.00  0.00     0.000 G0
ENDBRANCH  41  42
ENDBRANCH  39  41
ENDBRANCH  35  39
ENDBRANCH  33  35
ENDBRANCH  23  31
ENDBRANCH  21  23
ENDBRANCH  19  21
ENDBRANCH  14  19
ENDBRANCH   7  14
ENDBRANCH   2   5
BRANCH   3  45
ATOM     45  C   UNL     1       6.569  12.834   1.541  1.00  0.00     0.171 C 
BRANCH  45  46
ATOM     46  N   UNL     1       5.689  13.391   0.522  1.00  0.00    -0.342 N 
ATOM     47  C   UNL     1       4.321  13.315   0.609  1.00  0.00     0.247 C 
ATOM     48  O   UNL     1       3.739  12.838   1.584  1.00  0.00    -0.273 OA
ATOM     49  H   UNL     1       6.129  13.845  -0.276  1.00  0.00     0.164 HD
BRANCH  47  50
ATOM     50  C   UNL     1       3.562  13.844  -0.616  1.00  0.00     0.212 CG0
ATOM     51  G   UNL     1       4.577  13.997  -1.765  1.00  0.00     0.000 G0
BRANCH  50  52
ATOM     52  N   UNL     1       2.525  12.853  -0.889  1.00  0.00    -0.339 N 
ATOM     53  C   UNL     1       2.176  12.454  -2.157  1.00  0.00     0.243 C 
ATOM     54  O   UNL     1       2.677  12.943  -3.166  1.00  0.00    -0.273 OA
ATOM     55  H   UNL     1       1.995  12.491  -0.098  1.00  0.00     0.164 HD
BRANCH  53  56
ATOM     56  C   UNL     1       0.996  11.462  -2.200  1.00  0.00     0.182 C 
BRANCH  56  57
ATOM     57  N   UNL     1       1.327  10.220  -1.494  1.00  0.00    -0.344 N 
ATOM     58  C   UNL     1       0.971  10.000  -0.186  1.00  0.00     0.220 C 
ATOM     59  O   UNL     1       0.420  10.852   0.504  1.00  0.00    -0.275 OA
ATOM     60  H   UNL     1       1.690   9.454  -2.055  1.00  0.00     0.164 HD
BRANCH  58  61
ATOM     61  C   UNL     1       1.364   8.625   0.322  1.00  0.00     0.100 C 
BRANCH  61  62
ATOM     62  C   UNL     1       0.184   7.797   0.832  1.00  0.00     0.010 C 
BRANCH  62  63
ATOM     63  C   UNL     1       0.252   7.465   2.328  1.00  0.00     0.000 C 
BRANCH  63  64
ATOM     64  C   UNL     1       0.342   8.688   3.239  1.00  0.00    -0.003 C 
ATOM     65  C   UNL     1      -0.996   8.990   3.897  1.00  0.00     0.004 C 
ENDBRANCH  63  64
ENDBRANCH  62  63
ENDBRANCH  61  62
ENDBRANCH  58  61
ENDBRANCH  56  57
BRANCH  56  66
ATOM     66  C   UNL     1       0.534  11.205  -3.633  1.00  0.00     0.157 C 
BRANCH  66  67
ATOM     67  C   UNL     1      -0.955  11.021  -3.699  1.00  0.00     0.305 C 
ATOM     68  O   UNL     1      -1.627  10.838  -4.703  1.00  0.00    -0.252 OA
BRANCH  67  69
ATOM     69  O   UNL     1      -1.526  11.025  -2.480  1.00  0.00    -0.481 OA
ATOM     70  H   UNL     1      -0.815  10.736  -1.870  1.00  0.00     0.296 HD
ENDBRANCH  67  69
ENDBRANCH  66  67
ENDBRANCH  56  66
ENDBRANCH  53  56
ENDBRANCH  50  52
ENDBRANCH  47  50
ENDBRANCH  45  46
BRANCH  45  71
ATOM     71  C   UNL     1       8.045  13.074   1.204  1.00  0.00     0.037 C 
BRANCH  71  72
ATOM     72  C   UNL     1       8.218  13.921  -0.059  1.00  0.00     0.026 C 
BRANCH  72  73
ATOM     73  C   UNL     1       8.574  13.059  -1.268  1.00  0.00     0.146 C 
BRANCH  73  74
ATOM     74  N   UNL     1       7.328  12.656  -1.912  1.00  0.00    -0.254 NA
ATOM     75  C   UNL     1       6.887  13.383  -2.871  1.00  0.00     0.185 C 
ATOM     76  N   UNL     1       5.744  13.037  -3.485  1.00  0.00    -0.370 N 
ATOM     77  N   UNL     1       7.416  14.503  -3.394  1.00  0.00    -0.370 N 
ATOM     78  H   UNL     1       5.276  12.208  -3.147  1.00  0.00     0.159 HD
ATOM     79  H   UNL     1       5.265  13.630  -4.139  1.00  0.00     0.159 HD
ATOM     80  H   UNL     1       8.280  14.880  -3.034  1.00  0.00     0.159 HD
ATOM     81  H   UNL     1       7.039  14.926  -4.227  1.00  0.00     0.159 HD
ENDBRANCH  73  74
ENDBRANCH  72  73
ENDBRANCH  71  72
ENDBRANCH  45  71
ENDBRANCH   3  45
TORSDOF 20
ENDMDL
MODEL 25
REMARK VINA RESULT:    -5.041      5.086      7.049
REMARK INTER + INTRA:         -21.917
REMARK INTER:                 -16.952
REMARK INTRA:                  -4.965
REMARK UNBOUND:                -7.444
REMARK SMILES CCCCCC(=O)N[C@H](CC(=O)O)C(=O)N[C@H]1C(=O)N[C@H](CCCN=C(N)N)C(=O)N[C@@H]2CC[C@H](O)N(C2=O)[C@@H](CC(C)C)C(=O)N(C)[C@@H](Cc2ccccc2)C(=O)N[C@H](C(C)C)C(=O)O[C@@H]1C
REMARK SMILES IDX 30 1 31 2 29 3 32 5 35 6 37 7 34 8 38 9 33 10 39 11 36 12
REMARK SMILES IDX 40 14 41 15 42 16 43 17 44 18 45 19 46 20 47 21 48 22 49 23
REMARK SMILES IDX 50 24 51 25 52 26 56 27 53 28 55 29 54 30 57 31 58 32 59 33
REMARK SMILES IDX 60 35 61 36 62 37 63 38 64 39 65 40 66 41 67 42 68 43 21 45
REMARK SMILES IDX 20 46 18 47 19 48 17 50 16 52 14 53 15 54 9 56 8 57 6 58
REMARK SMILES IDX 7 59 5 61 4 62 3 63 2 64 1 65 10 66 11 67 12 68 13 69 22 71
REMARK SMILES IDX 23 72 24 73 25 74 26 75 27 76 28 77
REMARK H PARENT 31 4 36 13 59 34 20 49 16 55 8 60 13 70 27 78 27 79 28 80
REMARK H PARENT 28 81
REMARK Flexibility Score:  259.900
ROOT
ATOM      1  O   UNL     1       3.671   5.739   8.870  1.00  0.00    -0.273 OA
ATOM      2  N   UNL     1       5.468   6.968   8.171  1.00  0.00    -0.343 N 
ATOM      3  C   UNL     1       4.701   6.357   9.140  1.00  0.00     0.243 C 
ATOM      4  H   UNL     1       6.318   7.456   8.428  1.00  0.00     0.164 HD
ENDROOT
BRANCH   2   5
ATOM      5  C   UNL     1       5.019   7.008   6.784  1.00  0.00     0.171 C 
ATOM      6  C   UNL     1       6.442   7.130   4.261  1.00  0.00     0.214 C 
ATOM      7  N   UNL     1       6.045   8.356   4.912  1.00  0.00    -0.303 N 
ATOM      8  C   UNL     1       5.507   5.966   4.548  1.00  0.00     0.057 C 
ATOM      9  C   UNL     1       5.408   8.371   6.143  1.00  0.00     0.247 C 
ATOM     10  C   UNL     1       5.419   5.735   6.041  1.00  0.00     0.040 C 
ATOM     11  O   UNL     1       5.149   9.427   6.734  1.00  0.00    -0.272 OA
BRANCH   6  12
ATOM     12  O   UNL     1       7.752   6.824   4.681  1.00  0.00    -0.373 OA
ATOM     13  H   UNL     1       7.680   6.406   5.566  1.00  0.00     0.213 HD
ENDBRANCH   6  12
BRANCH   7  14
ATOM     14  C   UNL     1       6.478   9.621   4.281  1.00  0.00     0.177 C 
BRANCH  14  15
ATOM     15  C   UNL     1       7.986   9.922   4.381  1.00  0.00     0.038 C 
BRANCH  15  16
ATOM     16  C   UNL     1       8.558  10.523   5.684  1.00  0.00    -0.015 C 
ATOM     17  C   UNL     1       7.778  11.756   6.149  1.00  0.00     0.007 C 
ATOM     18  C   UNL     1      10.020  10.933   5.468  1.00  0.00     0.007 C 
ENDBRANCH  15  16
ENDBRANCH  14  15
BRANCH  14  19
ATOM     19  C   UNL     1       5.566   9.954   3.050  1.00  0.00     0.245 C 
ATOM     20  O   UNL     1       5.873   9.426   1.968  1.00  0.00    -0.272 OA
BRANCH  19  21
ATOM     21  N   UNL     1       4.532  10.872   3.083  1.00  0.00    -0.332 N 
ATOM     22  C   UNL     1       4.489  12.065   3.910  1.00  0.00     0.147 C 
BRANCH  21  23
ATOM     23  C   UNL     1       3.353  10.623   2.208  1.00  0.00     0.178 C 
BRANCH  23  24
ATOM     24  C   UNL     1       1.988  10.737   2.918  1.00  0.00     0.070 C 
BRANCH  24  25
ATOM     25  C   UNL     1       0.922   9.741   2.524  1.00  0.00    -0.045 A 
ATOM     26  C   UNL     1      -0.402  10.149   2.320  1.00  0.00     0.004 A 
ATOM     27  C   UNL     1       1.247   8.385   2.362  1.00  0.00     0.004 A 
ATOM     28  C   UNL     1      -1.384   9.219   1.972  1.00  0.00     0.000 A 
ATOM     29  C   UNL     1       0.264   7.457   2.014  1.00  0.00     0.000 A 
ATOM     30  C   UNL     1      -1.051   7.875   1.822  1.00  0.00     0.000 A 
ENDBRANCH  24  25
ENDBRANCH  23  24
BRANCH  23  31
ATOM     31  C   UNL     1       3.443  11.357   0.849  1.00  0.00     0.243 C 
ATOM     32  O   UNL     1       4.398  12.048   0.504  1.00  0.00    -0.273 OA
ATOM     33  N   UNL     1       2.266  11.319   0.121  1.00  0.00    -0.341 N 
ATOM     34  H   UNL     1       1.503  10.730   0.462  1.00  0.00     0.164 HD
BRANCH  33  35
ATOM     35  C   UNL     1       2.084  12.044  -1.140  1.00  0.00     0.194 C 
BRANCH  35  36
ATOM     36  C   UNL     1       1.232  13.338  -1.010  1.00  0.00     0.017 C 
ATOM     37  C   UNL     1       2.124  14.591  -0.956  1.00  0.00     0.010 C 
ATOM     38  C   UNL     1       0.342  13.354   0.238  1.00  0.00     0.010 C 
ENDBRANCH  35  36
BRANCH  35  39
ATOM     39  C   UNL     1       1.575  11.128  -2.288  1.00  0.00     0.329 C 
ATOM     40  O   UNL     1       1.672   9.906  -2.285  1.00  0.00    -0.250 OA
BRANCH  39  41
ATOM     41  O   UNL     1       0.927  11.830  -3.266  1.00  0.00    -0.458 OA
BRANCH  41  42
ATOM     42  C   UNL     1       1.622  11.960  -4.529  1.00  0.00     0.205 CG0
ATOM     43  C   UNL     1       2.147  13.392  -4.614  1.00  0.00     0.056 C 
ATOM     44  G   UNL     1       0.639  11.625  -5.668  1.00  0.00     0.000 G0
ENDBRANCH  41  42
ENDBRANCH  39  41
ENDBRANCH  35  39
ENDBRANCH  33  35
ENDBRANCH  23  31
ENDBRANCH  21  23
ENDBRANCH  19  21
ENDBRANCH  14  19
ENDBRANCH   7  14
ENDBRANCH   2   5
BRANCH   3  45
ATOM     45  C   UNL     1       5.232   6.481  10.574  1.00  0.00     0.171 C 
BRANCH  45  46
ATOM     46  N   UNL     1       5.112   5.151  11.155  1.00  0.00    -0.342 N 
ATOM     47  C   UNL     1       6.116   4.219  11.076  1.00  0.00     0.247 C 
ATOM     48  O   UNL     1       7.215   4.461  10.575  1.00  0.00    -0.273 OA
ATOM     49  H   UNL     1       4.239   4.927  11.629  1.00  0.00     0.164 HD
BRANCH  47  50
ATOM     50  C   UNL     1       5.763   2.833  11.635  1.00  0.00     0.212 CG0
ATOM     51  G   UNL     1       6.575   2.631  12.930  1.00  0.00     0.000 G0
BRANCH  50  52
ATOM     52  N   UNL     1       4.320   2.859  11.856  1.00  0.00    -0.339 N 
ATOM     53  C   UNL     1       3.467   1.888  11.391  1.00  0.00     0.243 C 
ATOM     54  O   UNL     1       3.849   0.945  10.703  1.00  0.00    -0.273 OA
ATOM     55  H   UNL     1       3.928   3.673  12.325  1.00  0.00     0.164 HD
BRANCH  53  56
ATOM     56  C   UNL     1       1.978   2.173  11.673  1.00  0.00     0.182 C 
BRANCH  56  57
ATOM     57  N   UNL     1       1.115   1.421  10.756  1.00  0.00    -0.344 N 
ATOM     58  C   UNL     1       0.175   0.523  11.200  1.00  0.00     0.220 C 
ATOM     59  O   UNL     1       0.042   0.233  12.385  1.00  0.00    -0.275 OA
ATOM     60  H   UNL     1       1.123   1.704   9.780  1.00  0.00     0.164 HD
BRANCH  58  61
ATOM     61  C   UNL     1      -0.643  -0.095  10.081  1.00  0.00     0.100 C 
BRANCH  61  62
ATOM     62  C   UNL     1      -2.064   0.458   9.980  1.00  0.00     0.010 C 
BRANCH  62  63
ATOM     63  C   UNL     1      -2.379   1.139   8.642  1.00  0.00     0.000 C 
BRANCH  63  64
ATOM     64  C   UNL     1      -1.212   1.926   8.050  1.00  0.00    -0.003 C 
ATOM     65  C   UNL     1      -1.630   3.340   7.671  1.00  0.00     0.004 C 
ENDBRANCH  63  64
ENDBRANCH  62  63
ENDBRANCH  61  62
ENDBRANCH  58  61
ENDBRANCH  56  57
BRANCH  56  66
ATOM     66  C   UNL     1       1.680   3.671  11.646  1.00  0.00     0.157 C 
BRANCH  66  67
ATOM     67  C   UNL     1       0.726   4.016  10.539  1.00  0.00     0.305 C 
ATOM     68  O   UNL     1      -0.468   4.249  10.647  1.00  0.00    -0.252 OA
BRANCH  67  69
ATOM     69  O   UNL     1       1.339   4.104   9.344  1.00  0.00    -0.481 OA
ATOM     70  H   UNL     1       2.136   4.651   9.510  1.00  0.00     0.296 HD
ENDBRANCH  67  69
ENDBRANCH  66  67
ENDBRANCH  56  66
ENDBRANCH  53  56
ENDBRANCH  50  52
ENDBRANCH  47  50
ENDBRANCH  45  46
BRANCH  45  71
ATOM     71  C   UNL     1       4.417   7.516  11.357  1.00  0.00     0.037 C 
BRANCH  71  72
ATOM     72  C   UNL     1       2.912   7.362  11.121  1.00  0.00     0.026 C 
BRANCH  72  73
ATOM     73  C   UNL     1       2.148   7.242  12.437  1.00  0.00     0.146 C 
BRANCH  73  74
ATOM     74  N   UNL     1       0.722   7.203  12.125  1.00  0.00    -0.254 NA
ATOM     75  C   UNL     1      -0.076   7.854  12.888  1.00  0.00     0.185 C 
ATOM     76  N   UNL     1      -1.393   7.839  12.625  1.00  0.00    -0.370 N 
ATOM     77  N   UNL     1       0.209   8.594  13.973  1.00  0.00    -0.370 N 
ATOM     78  H   UNL     1      -1.694   7.298  11.827  1.00  0.00     0.159 HD
ATOM     79  H   UNL     1      -2.087   8.201  13.255  1.00  0.00     0.159 HD
ATOM     80  H   UNL     1       1.161   8.700  14.288  1.00  0.00     0.159 HD
ATOM     81  H   UNL     1      -0.492   9.156  14.428  1.00  0.00     0.159 HD
ENDBRANCH  73  74
ENDBRANCH  72  73
ENDBRANCH  71  72
ENDBRANCH  45  71
ENDBRANCH   3  45
TORSDOF 20
ENDMDL
MODEL 26
REMARK VINA RESULT:    -5.029      7.450     11.093
REMARK INTER + INTRA:         -21.881
REMARK INTER:                 -15.016
REMARK INTRA:                  -6.865
REMARK UNBOUND:                -7.444
REMARK SMILES CCCCCC(=O)N[C@H](CC(=O)O)C(=O)N[C@H]1C(=O)N[C@H](CCCN=C(N)N)C(=O)N[C@@H]2CC[C@H](O)N(C2=O)[C@@H](CC(C)C)C(=O)N(C)[C@@H](Cc2ccccc2)C(=O)N[C@H](C(C)C)C(=O)O[C@@H]1C
REMARK SMILES IDX 30 1 31 2 29 3 32 5 35 6 37 7 34 8 38 9 33 10 39 11 36 12
REMARK SMILES IDX 40 14 41 15 42 16 43 17 44 18 45 19 46 20 47 21 48 22 49 23
REMARK SMILES IDX 50 24 51 25 52 26 56 27 53 28 55 29 54 30 57 31 58 32 59 33
REMARK SMILES IDX 60 35 61 36 62 37 63 38 64 39 65 40 66 41 67 42 68 43 21 45
REMARK SMILES IDX 20 46 18 47 19 48 17 50 16 52 14 53 15 54 9 56 8 57 6 58
REMARK SMILES IDX 7 59 5 61 4 62 3 63 2 64 1 65 10 66 11 67 12 68 13 69 22 71
REMARK SMILES IDX 23 72 24 73 25 74 26 75 27 76 28 77
REMARK H PARENT 31 4 36 13 59 34 20 49 16 55 8 60 13 70 27 78 27 79 28 80
REMARK H PARENT 28 81
REMARK Flexibility Score:  259.900
ROOT
ATOM      1  O   UNL     1       3.770   8.962   4.888  1.00  0.00    -0.273 OA
ATOM      2  N   UNL     1       4.203   8.254   2.756  1.00  0.00    -0.343 N 
ATOM      3  C   UNL     1       3.401   8.825   3.721  1.00  0.00     0.243 C 
ATOM      4  H   UNL     1       3.872   8.171   1.803  1.00  0.00     0.164 HD
ENDROOT
BRANCH   2   5
ATOM      5  C   UNL     1       5.493   7.673   3.112  1.00  0.00     0.171 C 
ATOM      6  C   UNL     1       7.078   7.747   5.539  1.00  0.00     0.214 C 
ATOM      7  N   UNL     1       7.287   8.752   4.523  1.00  0.00    -0.303 N 
ATOM      8  C   UNL     1       6.613   6.412   4.978  1.00  0.00     0.057 C 
ATOM      9  C   UNL     1       6.530   8.805   3.363  1.00  0.00     0.247 C 
ATOM     10  C   UNL     1       5.334   6.604   4.193  1.00  0.00     0.040 C 
ATOM     11  O   UNL     1       6.656   9.719   2.538  1.00  0.00    -0.272 OA
BRANCH   6  12
ATOM     12  O   UNL     1       6.135   8.252   6.456  1.00  0.00    -0.373 OA
ATOM     13  H   UNL     1       6.200   9.230   6.426  1.00  0.00     0.213 HD
ENDBRANCH   6  12
BRANCH   7  14
ATOM     14  C   UNL     1       8.253   9.828   4.832  1.00  0.00     0.177 C 
BRANCH  14  15
ATOM     15  C   UNL     1       8.433  10.137   6.331  1.00  0.00     0.038 C 
BRANCH  15  16
ATOM     16  C   UNL     1       9.822   9.960   6.983  1.00  0.00    -0.015 C 
ATOM     17  C   UNL     1      10.079   8.518   7.429  1.00  0.00     0.007 C 
ATOM     18  C   UNL     1       9.937  10.871   8.212  1.00  0.00     0.007 C 
ENDBRANCH  15  16
ENDBRANCH  14  15
BRANCH  14  19
ATOM     19  C   UNL     1       9.393   9.861   3.756  1.00  0.00     0.245 C 
ATOM     20  O   UNL     1       9.691   8.778   3.223  1.00  0.00    -0.272 OA
BRANCH  19  21
ATOM     21  N   UNL     1      10.141  10.986   3.460  1.00  0.00    -0.332 N 
ATOM     22  C   UNL     1      11.191  11.544   4.294  1.00  0.00     0.147 C 
BRANCH  21  23
ATOM     23  C   UNL     1       9.849  11.701   2.187  1.00  0.00     0.178 C 
BRANCH  23  24
ATOM     24  C   UNL     1       9.557  10.782   0.983  1.00  0.00     0.070 C 
BRANCH  24  25
ATOM     25  C   UNL     1       9.488  11.433  -0.379  1.00  0.00    -0.045 A 
ATOM     26  C   UNL     1      10.628  11.526  -1.188  1.00  0.00     0.004 A 
ATOM     27  C   UNL     1       8.277  11.960  -0.852  1.00  0.00     0.004 A 
ATOM     28  C   UNL     1      10.560  12.145  -2.438  1.00  0.00     0.000 A 
ATOM     29  C   UNL     1       8.210  12.576  -2.102  1.00  0.00     0.000 A 
ATOM     30  C   UNL     1       9.354  12.671  -2.893  1.00  0.00     0.000 A 
ENDBRANCH  24  25
ENDBRANCH  23  24
BRANCH  23  31
ATOM     31  C   UNL     1       8.857  12.874   2.367  1.00  0.00     0.243 C 
ATOM     32  O   UNL     1       9.098  14.034   2.044  1.00  0.00    -0.273 OA
ATOM     33  N   UNL     1       7.731  12.538   3.100  1.00  0.00    -0.341 N 
ATOM     34  H   UNL     1       7.587  11.556   3.346  1.00  0.00     0.164 HD
BRANCH  33  35
ATOM     35  C   UNL     1       6.714  13.517   3.495  1.00  0.00     0.194 C 
BRANCH  35  36
ATOM     36  C   UNL     1       7.042  14.277   4.812  1.00  0.00     0.017 C 
ATOM     37  C   UNL     1       7.444  15.735   4.530  1.00  0.00     0.010 C 
ATOM     38  C   UNL     1       8.180  13.633   5.613  1.00  0.00     0.010 C 
ENDBRANCH  35  36
BRANCH  35  39
ATOM     39  C   UNL     1       5.281  12.915   3.514  1.00  0.00     0.329 C 
ATOM     40  O   UNL     1       4.866  12.157   4.383  1.00  0.00    -0.250 OA
BRANCH  39  41
ATOM     41  O   UNL     1       4.502  13.395   2.498  1.00  0.00    -0.458 OA
BRANCH  41  42
ATOM     42  C   UNL     1       4.418  12.570   1.311  1.00  0.00     0.205 CG0
ATOM     43  C   UNL     1       5.120  13.324   0.183  1.00  0.00     0.056 C 
ATOM     44  G   UNL     1       2.931  12.300   1.004  1.00  0.00     0.000 G0
ENDBRANCH  41  42
ENDBRANCH  39  41
ENDBRANCH  35  39
ENDBRANCH  33  35
ENDBRANCH  23  31
ENDBRANCH  21  23
ENDBRANCH  19  21
ENDBRANCH  14  19
ENDBRANCH   7  14
ENDBRANCH   2   5
BRANCH   3  45
ATOM     45  C   UNL     1       2.025   9.299   3.234  1.00  0.00     0.171 C 
BRANCH  45  46
ATOM     46  N   UNL     1       2.237  10.634   2.691  1.00  0.00    -0.342 N 
ATOM     47  C   UNL     1       2.637  10.846   1.395  1.00  0.00     0.247 C 
ATOM     48  O   UNL     1       2.774   9.933   0.580  1.00  0.00    -0.273 OA
ATOM     49  H   UNL     1       2.080  11.422   3.316  1.00  0.00     0.164 HD
BRANCH  47  50
ATOM     50  C   UNL     1       2.930  12.310   1.037  1.00  0.00     0.212 CG0
ATOM     51  G   UNL     1       4.429  12.563   1.297  1.00  0.00     0.000 G0
BRANCH  50  52
ATOM     52  N   UNL     1       2.557  12.450  -0.368  1.00  0.00    -0.339 N 
ATOM     53  C   UNL     1       1.452  13.149  -0.790  1.00  0.00     0.243 C 
ATOM     54  O   UNL     1       0.660  13.669  -0.009  1.00  0.00    -0.273 OA
ATOM     55  H   UNL     1       3.113  11.947  -1.057  1.00  0.00     0.164 HD
BRANCH  53  56
ATOM     56  C   UNL     1       1.213  13.085  -2.312  1.00  0.00     0.182 C 
BRANCH  56  57
ATOM     57  N   UNL     1       1.106  11.696  -2.770  1.00  0.00    -0.344 N 
ATOM     58  C   UNL     1      -0.102  11.057  -2.907  1.00  0.00     0.220 C 
ATOM     59  O   UNL     1      -1.166  11.575  -2.587  1.00  0.00    -0.275 OA
ATOM     60  H   UNL     1       1.950  11.267  -3.140  1.00  0.00     0.164 HD
BRANCH  58  61
ATOM     61  C   UNL     1       0.023   9.645  -3.451  1.00  0.00     0.100 C 
BRANCH  61  62
ATOM     62  C   UNL     1       0.389   8.606  -2.390  1.00  0.00     0.010 C 
BRANCH  62  63
ATOM     63  C   UNL     1      -0.749   8.275  -1.417  1.00  0.00     0.000 C 
BRANCH  63  64
ATOM     64  C   UNL     1      -0.397   8.489   0.055  1.00  0.00    -0.003 C 
ATOM     65  C   UNL     1       0.551   7.411   0.560  1.00  0.00     0.004 C 
ENDBRANCH  63  64
ENDBRANCH  62  63
ENDBRANCH  61  62
ENDBRANCH  58  61
ENDBRANCH  56  57
BRANCH  56  66
ATOM     66  C   UNL     1       2.279  13.865  -3.080  1.00  0.00     0.157 C 
BRANCH  66  67
ATOM     67  C   UNL     1       3.156  12.945  -3.880  1.00  0.00     0.305 C 
ATOM     68  O   UNL     1       3.096  12.736  -5.082  1.00  0.00    -0.252 OA
BRANCH  67  69
ATOM     69  O   UNL     1       4.110  12.365  -3.127  1.00  0.00    -0.481 OA
ATOM     70  H   UNL     1       4.436  11.616  -3.670  1.00  0.00     0.296 HD
ENDBRANCH  67  69
ENDBRANCH  66  67
ENDBRANCH  56  66
ENDBRANCH  53  56
ENDBRANCH  50  52
ENDBRANCH  47  50
ENDBRANCH  45  46
BRANCH  45  71
ATOM     71  C   UNL     1       1.024   9.314   4.395  1.00  0.00     0.037 C 
BRANCH  71  72
ATOM     72  C   UNL     1      -0.425   9.380   3.906  1.00  0.00     0.026 C 
BRANCH  72  73
ATOM     73  C   UNL     1      -0.937  10.818   3.864  1.00  0.00     0.146 C 
BRANCH  73  74
ATOM     74  N   UNL     1      -0.795  11.303   2.495  1.00  0.00    -0.254 NA
ATOM     75  C   UNL     1      -1.858  11.417   1.787  1.00  0.00     0.185 C 
ATOM     76  N   UNL     1      -1.760  11.862   0.524  1.00  0.00    -0.370 N 
ATOM     77  N   UNL     1      -3.131  11.147   2.125  1.00  0.00    -0.370 N 
ATOM     78  H   UNL     1      -0.834  12.082   0.187  1.00  0.00     0.159 HD
ATOM     79  H   UNL     1      -2.521  11.840  -0.131  1.00  0.00     0.159 HD
ATOM     80  H   UNL     1      -3.357  10.808   3.048  1.00  0.00     0.159 HD
ATOM     81  H   UNL     1      -3.900  11.386   1.520  1.00  0.00     0.159 HD
ENDBRANCH  73  74
ENDBRANCH  72  73
ENDBRANCH  71  72
ENDBRANCH  45  71
ENDBRANCH   3  45
TORSDOF 20
ENDMDL
MODEL 27
REMARK VINA RESULT:    -4.922      3.963      6.182
REMARK INTER + INTRA:         -21.575
REMARK INTER:                 -16.806
REMARK INTRA:                  -4.769
REMARK UNBOUND:                -7.444
REMARK SMILES CCCCCC(=O)N[C@H](CC(=O)O)C(=O)N[C@H]1C(=O)N[C@H](CCCN=C(N)N)C(=O)N[C@@H]2CC[C@H](O)N(C2=O)[C@@H](CC(C)C)C(=O)N(C)[C@@H](Cc2ccccc2)C(=O)N[C@H](C(C)C)C(=O)O[C@@H]1C
REMARK SMILES IDX 30 1 31 2 29 3 32 5 35 6 37 7 34 8 38 9 33 10 39 11 36 12
REMARK SMILES IDX 40 14 41 15 42 16 43 17 44 18 45 19 46 20 47 21 48 22 49 23
REMARK SMILES IDX 50 24 51 25 52 26 56 27 53 28 55 29 54 30 57 31 58 32 59 33
REMARK SMILES IDX 60 35 61 36 62 37 63 38 64 39 65 40 66 41 67 42 68 43 21 45
REMARK SMILES IDX 20 46 18 47 19 48 17 50 16 52 14 53 15 54 9 56 8 57 6 58
REMARK SMILES IDX 7 59 5 61 4 62 3 63 2 64 1 65 10 66 11 67 12 68 13 69 22 71
REMARK SMILES IDX 23 72 24 73 25 74 26 75 27 76 28 77
REMARK H PARENT 31 4 36 13 59 34 20 49 16 55 8 60 13 70 27 78 27 79 28 80
REMARK H PARENT 28 81
REMARK Flexibility Score:  259.900
ROOT
ATOM      1  O   UNL     1       1.780   4.224   9.159  1.00  0.00    -0.273 OA
ATOM      2  N   UNL     1       3.479   5.750   9.290  1.00  0.00    -0.343 N 
ATOM      3  C   UNL     1       2.350   5.124   9.776  1.00  0.00     0.243 C 
ATOM      4  H   UNL     1       3.930   6.477   9.831  1.00  0.00     0.164 HD
ENDROOT
BRANCH   2   5
ATOM      5  C   UNL     1       3.979   5.446   7.954  1.00  0.00     0.171 C 
ATOM      6  C   UNL     1       6.644   5.422   6.813  1.00  0.00     0.214 C 
ATOM      7  N   UNL     1       5.855   6.630   6.748  1.00  0.00    -0.303 N 
ATOM      8  C   UNL     1       5.805   4.154   6.805  1.00  0.00     0.057 C 
ATOM      9  C   UNL     1       4.595   6.725   7.318  1.00  0.00     0.247 C 
ATOM     10  C   UNL     1       4.830   4.177   7.962  1.00  0.00     0.040 C 
ATOM     11  O   UNL     1       3.961   7.788   7.334  1.00  0.00    -0.272 OA
BRANCH   6  12
ATOM     12  O   UNL     1       7.432   5.484   7.979  1.00  0.00    -0.373 OA
ATOM     13  H   UNL     1       7.185   6.309   8.449  1.00  0.00     0.213 HD
ENDBRANCH   6  12
BRANCH   7  14
ATOM     14  C   UNL     1       6.505   7.826   6.172  1.00  0.00     0.177 C 
BRANCH  14  15
ATOM     15  C   UNL     1       7.957   8.067   6.628  1.00  0.00     0.038 C 
BRANCH  15  16
ATOM     16  C   UNL     1       8.234   9.011   7.819  1.00  0.00    -0.015 C 
ATOM     17  C   UNL     1       8.846  10.343   7.378  1.00  0.00     0.007 C 
ATOM     18  C   UNL     1       9.203   8.338   8.800  1.00  0.00     0.007 C 
ENDBRANCH  15  16
ENDBRANCH  14  15
BRANCH  14  19
ATOM     19  C   UNL     1       5.947   8.109   4.735  1.00  0.00     0.245 C 
ATOM     20  O   UNL     1       5.975   7.164   3.928  1.00  0.00    -0.272 OA
BRANCH  19  21
ATOM     21  N   UNL     1       5.541   9.357   4.297  1.00  0.00    -0.332 N 
ATOM     22  C   UNL     1       6.028  10.627   4.804  1.00  0.00     0.147 C 
BRANCH  21  23
ATOM     23  C   UNL     1       4.509   9.416   3.225  1.00  0.00     0.178 C 
BRANCH  23  24
ATOM     24  C   UNL     1       3.117   9.885   3.694  1.00  0.00     0.070 C 
BRANCH  24  25
ATOM     25  C   UNL     1       1.918   9.190   3.093  1.00  0.00    -0.045 A 
ATOM     26  C   UNL     1       2.059   7.971   2.416  1.00  0.00     0.004 A 
ATOM     27  C   UNL     1       0.641   9.761   3.200  1.00  0.00     0.004 A 
ATOM     28  C   UNL     1       0.949   7.344   1.848  1.00  0.00     0.000 A 
ATOM     29  C   UNL     1      -0.468   9.132   2.633  1.00  0.00     0.000 A 
ATOM     30  C   UNL     1      -0.313   7.925   1.954  1.00  0.00     0.000 A 
ENDBRANCH  24  25
ENDBRANCH  23  24
BRANCH  23  31
ATOM     31  C   UNL     1       5.022  10.092   1.931  1.00  0.00     0.243 C 
ATOM     32  O   UNL     1       6.126   9.879   1.436  1.00  0.00    -0.273 OA
ATOM     33  N   UNL     1       4.198  11.106   1.472  1.00  0.00    -0.341 N 
ATOM     34  H   UNL     1       3.292  11.239   1.929  1.00  0.00     0.164 HD
BRANCH  33  35
ATOM     35  C   UNL     1       4.542  11.961   0.333  1.00  0.00     0.194 C 
BRANCH  35  36
ATOM     36  C   UNL     1       5.319  13.251   0.719  1.00  0.00     0.017 C 
ATOM     37  C   UNL     1       6.729  13.259   0.102  1.00  0.00     0.010 C 
ATOM     38  C   UNL     1       5.480  13.429   2.233  1.00  0.00     0.010 C 
ENDBRANCH  35  36
BRANCH  35  39
ATOM     39  C   UNL     1       3.317  12.271  -0.573  1.00  0.00     0.329 C 
ATOM     40  O   UNL     1       2.154  12.056  -0.251  1.00  0.00    -0.250 OA
BRANCH  39  41
ATOM     41  O   UNL     1       3.675  12.892  -1.737  1.00  0.00    -0.458 OA
BRANCH  41  42
ATOM     42  C   UNL     1       2.628  13.614  -2.428  1.00  0.00     0.205 CG0
ATOM     43  C   UNL     1       1.831  12.593  -3.238  1.00  0.00     0.056 C 
ATOM     44  G   UNL     1       3.277  14.694  -3.315  1.00  0.00     0.000 G0
ENDBRANCH  41  42
ENDBRANCH  39  41
ENDBRANCH  35  39
ENDBRANCH  33  35
ENDBRANCH  23  31
ENDBRANCH  21  23
ENDBRANCH  19  21
ENDBRANCH  14  19
ENDBRANCH   7  14
ENDBRANCH   2   5
BRANCH   3  45
ATOM     45  C   UNL     1       1.867   5.613  11.147  1.00  0.00     0.171 C 
BRANCH  45  46
ATOM     46  N   UNL     1       2.555   4.783  12.127  1.00  0.00    -0.342 N 
ATOM     47  C   UNL     1       3.525   5.279  12.961  1.00  0.00     0.247 C 
ATOM     48  O   UNL     1       3.831   6.471  12.995  1.00  0.00    -0.273 OA
ATOM     49  H   UNL     1       2.292   3.800  12.171  1.00  0.00     0.164 HD
BRANCH  47  50
ATOM     50  C   UNL     1       4.226   4.232  13.838  1.00  0.00     0.212 CG0
ATOM     51  G   UNL     1       3.449   4.138  15.166  1.00  0.00     0.000 G0
BRANCH  50  52
ATOM     52  N   UNL     1       4.197   2.994  13.064  1.00  0.00    -0.339 N 
ATOM     53  C   UNL     1       5.272   2.525  12.347  1.00  0.00     0.243 C 
ATOM     54  O   UNL     1       6.329   3.144  12.259  1.00  0.00    -0.273 OA
ATOM     55  H   UNL     1       3.313   2.492  13.007  1.00  0.00     0.164 HD
BRANCH  53  56
ATOM     56  C   UNL     1       4.977   1.245  11.541  1.00  0.00     0.182 C 
BRANCH  56  57
ATOM     57  N   UNL     1       3.533   1.029  11.403  1.00  0.00    -0.344 N 
ATOM     58  C   UNL     1       2.897   1.063  10.186  1.00  0.00     0.220 C 
ATOM     59  O   UNL     1       3.476   1.347   9.142  1.00  0.00    -0.275 OA
ATOM     60  H   UNL     1       3.038   0.693  12.224  1.00  0.00     0.164 HD
BRANCH  58  61
ATOM     61  C   UNL     1       1.414   0.755  10.274  1.00  0.00     0.100 C 
BRANCH  61  62
ATOM     62  C   UNL     1       0.750   1.281  11.547  1.00  0.00     0.010 C 
BRANCH  62  63
ATOM     63  C   UNL     1      -0.548   0.555  11.923  1.00  0.00     0.000 C 
BRANCH  63  64
ATOM     64  C   UNL     1      -1.685   0.744  10.921  1.00  0.00    -0.003 C 
ATOM     65  C   UNL     1      -3.036   0.427  11.547  1.00  0.00     0.004 C 
ENDBRANCH  63  64
ENDBRANCH  62  63
ENDBRANCH  61  62
ENDBRANCH  58  61
ENDBRANCH  56  57
BRANCH  56  66
ATOM     66  C   UNL     1       5.687   0.031  12.138  1.00  0.00     0.157 C 
BRANCH  66  67
ATOM     67  C   UNL     1       6.012  -0.984  11.080  1.00  0.00     0.305 C 
ATOM     68  O   UNL     1       7.121  -1.264  10.650  1.00  0.00    -0.252 OA
BRANCH  67  69
ATOM     69  O   UNL     1       4.919  -1.641  10.648  1.00  0.00    -0.481 OA
ATOM     70  H   UNL     1       4.215  -0.959  10.612  1.00  0.00     0.296 HD
ENDBRANCH  67  69
ENDBRANCH  66  67
ENDBRANCH  56  66
ENDBRANCH  53  56
ENDBRANCH  50  52
ENDBRANCH  47  50
ENDBRANCH  45  46
BRANCH  45  71
ATOM     71  C   UNL     1       0.345   5.474  11.258  1.00  0.00     0.037 C 
BRANCH  71  72
ATOM     72  C   UNL     1      -0.073   4.697  12.509  1.00  0.00     0.026 C 
BRANCH  72  73
ATOM     73  C   UNL     1      -1.528   4.241  12.425  1.00  0.00     0.146 C 
BRANCH  73  74
ATOM     74  N   UNL     1      -1.826   3.475  13.631  1.00  0.00    -0.254 NA
ATOM     75  C   UNL     1      -3.058   3.292  13.936  1.00  0.00     0.185 C 
ATOM     76  N   UNL     1      -3.364   2.590  15.039  1.00  0.00    -0.370 N 
ATOM     77  N   UNL     1      -4.159   3.714  13.291  1.00  0.00    -0.370 N 
ATOM     78  H   UNL     1      -2.591   2.241  15.588  1.00  0.00     0.159 HD
ATOM     79  H   UNL     1      -4.293   2.529  15.417  1.00  0.00     0.159 HD
ATOM     80  H   UNL     1      -4.082   4.251  12.440  1.00  0.00     0.159 HD
ATOM     81  H   UNL     1      -5.080   3.410  13.562  1.00  0.00     0.159 HD
ENDBRANCH  73  74
ENDBRANCH  72  73
ENDBRANCH  71  72
ENDBRANCH  45  71
ENDBRANCH   3  45
TORSDOF 20
ENDMDL
MODEL 28
REMARK VINA RESULT:    -4.867      8.052     13.963
REMARK INTER + INTRA:         -21.417
REMARK INTER:                 -15.588
REMARK INTRA:                  -5.829
REMARK UNBOUND:                -7.444
REMARK SMILES CCCCCC(=O)N[C@H](CC(=O)O)C(=O)N[C@H]1C(=O)N[C@H](CCCN=C(N)N)C(=O)N[C@@H]2CC[C@H](O)N(C2=O)[C@@H](CC(C)C)C(=O)N(C)[C@@H](Cc2ccccc2)C(=O)N[C@H](C(C)C)C(=O)O[C@@H]1C
REMARK SMILES IDX 30 1 31 2 29 3 32 5 35 6 37 7 34 8 38 9 33 10 39 11 36 12
REMARK SMILES IDX 40 14 41 15 42 16 43 17 44 18 45 19 46 20 47 21 48 22 49 23
REMARK SMILES IDX 50 24 51 25 52 26 56 27 53 28 55 29 54 30 57 31 58 32 59 33
REMARK SMILES IDX 60 35 61 36 62 37 63 38 64 39 65 40 66 41 67 42 68 43 21 45
REMARK SMILES IDX 20 46 18 47 19 48 17 50 16 52 14 53 15 54 9 56 8 57 6 58
REMARK SMILES IDX 7 59 5 61 4 62 3 63 2 64 1 65 10 66 11 67 12 68 13 69 22 71
REMARK SMILES IDX 23 72 24 73 25 74 26 75 27 76 28 77
REMARK H PARENT 31 4 36 13 59 34 20 49 16 55 8 60 13 70 27 78 27 79 28 80
REMARK H PARENT 28 81
REMARK Flexibility Score:  259.900
ROOT
ATOM      1  O   UNL     1       1.430   9.976  -2.234  1.00  0.00    -0.273 OA
ATOM      2  N   UNL     1       1.315  10.725  -0.076  1.00  0.00    -0.343 N 
ATOM      3  C   UNL     1       1.282  10.907  -1.441  1.00  0.00     0.243 C 
ATOM      4  H   UNL     1       1.175  11.512   0.546  1.00  0.00     0.164 HD
ENDROOT
BRANCH   2   5
ATOM      5  C   UNL     1       1.648   9.422   0.492  1.00  0.00     0.171 C 
ATOM      6  C   UNL     1       1.411   8.327   3.165  1.00  0.00     0.214 C 
ATOM      7  N   UNL     1       2.634   8.988   2.774  1.00  0.00    -0.303 N 
ATOM      8  C   UNL     1       0.692   7.656   2.005  1.00  0.00     0.057 C 
ATOM      9  C   UNL     1       2.795   9.577   1.531  1.00  0.00     0.247 C 
ATOM     10  C   UNL     1       0.388   8.678   0.932  1.00  0.00     0.040 C 
ATOM     11  O   UNL     1       3.813  10.217   1.235  1.00  0.00    -0.272 OA
BRANCH   6  12
ATOM     12  O   UNL     1       0.578   9.287   3.772  1.00  0.00    -0.373 OA
ATOM     13  H   UNL     1       0.037   8.816   4.442  1.00  0.00     0.213 HD
ENDBRANCH   6  12
BRANCH   7  14
ATOM     14  C   UNL     1       3.674   9.144   3.814  1.00  0.00     0.177 C 
BRANCH  14  15
ATOM     15  C   UNL     1       3.155   9.571   5.201  1.00  0.00     0.038 C 
BRANCH  15  16
ATOM     16  C   UNL     1       3.416  11.009   5.701  1.00  0.00    -0.015 C 
ATOM     17  C   UNL     1       2.194  11.615   6.399  1.00  0.00     0.007 C 
ATOM     18  C   UNL     1       3.788  11.911   4.517  1.00  0.00     0.007 C 
ENDBRANCH  15  16
ENDBRANCH  14  15
BRANCH  14  19
ATOM     19  C   UNL     1       4.856   8.148   3.555  1.00  0.00     0.245 C 
ATOM     20  O   UNL     1       4.551   6.969   3.311  1.00  0.00    -0.272 OA
BRANCH  19  21
ATOM     21  N   UNL     1       6.191   8.484   3.692  1.00  0.00    -0.332 N 
ATOM     22  C   UNL     1       7.277   7.546   3.914  1.00  0.00     0.147 C 
BRANCH  21  23
ATOM     23  C   UNL     1       6.558   9.925   3.620  1.00  0.00     0.178 C 
BRANCH  23  24
ATOM     24  C   UNL     1       7.653  10.364   4.613  1.00  0.00     0.070 C 
BRANCH  24  25
ATOM     25  C   UNL     1       9.041  10.581   4.055  1.00  0.00    -0.045 A 
ATOM     26  C   UNL     1       9.750   9.528   3.465  1.00  0.00     0.004 A 
ATOM     27  C   UNL     1       9.642  11.847   4.127  1.00  0.00     0.004 A 
ATOM     28  C   UNL     1      11.039   9.733   2.967  1.00  0.00     0.000 A 
ATOM     29  C   UNL     1      10.929  12.050   3.628  1.00  0.00     0.000 A 
ATOM     30  C   UNL     1      11.628  10.992   3.051  1.00  0.00     0.000 A 
ENDBRANCH  24  25
ENDBRANCH  23  24
BRANCH  23  31
ATOM     31  C   UNL     1       6.756  10.426   2.169  1.00  0.00     0.243 C 
ATOM     32  O   UNL     1       7.336   9.787   1.295  1.00  0.00    -0.273 OA
ATOM     33  N   UNL     1       6.383  11.746   1.984  1.00  0.00    -0.341 N 
ATOM     34  H   UNL     1       5.909  12.229   2.751  1.00  0.00     0.164 HD
BRANCH  33  35
ATOM     35  C   UNL     1       6.591  12.466   0.724  1.00  0.00     0.194 C 
BRANCH  35  36
ATOM     36  C   UNL     1       7.776  13.472   0.756  1.00  0.00     0.017 C 
ATOM     37  C   UNL     1       9.121  12.757   0.541  1.00  0.00     0.010 C 
ATOM     38  C   UNL     1       7.874  14.249   2.074  1.00  0.00     0.010 C 
ENDBRANCH  35  36
BRANCH  35  39
ATOM     39  C   UNL     1       5.287  13.122   0.188  1.00  0.00     0.329 C 
ATOM     40  O   UNL     1       4.256  13.231   0.840  1.00  0.00    -0.250 OA
BRANCH  39  41
ATOM     41  O   UNL     1       5.446  13.643  -1.066  1.00  0.00    -0.458 OA
BRANCH  41  42
ATOM     42  C   UNL     1       5.248  12.729  -2.171  1.00  0.00     0.205 CG0
ATOM     43  C   UNL     1       6.630  12.296  -2.655  1.00  0.00     0.056 C 
ATOM     44  G   UNL     1       4.438  13.450  -3.267  1.00  0.00     0.000 G0
ENDBRANCH  41  42
ENDBRANCH  39  41
ENDBRANCH  35  39
ENDBRANCH  33  35
ENDBRANCH  23  31
ENDBRANCH  21  23
ENDBRANCH  19  21
ENDBRANCH  14  19
ENDBRANCH   7  14
ENDBRANCH   2   5
BRANCH   3  45
ATOM     45  C   UNL     1       1.029  12.347  -1.906  1.00  0.00     0.171 C 
BRANCH  45  46
ATOM     46  N   UNL     1       2.347  12.937  -2.098  1.00  0.00    -0.342 N 
ATOM     47  C   UNL     1       3.009  12.884  -3.299  1.00  0.00     0.247 C 
ATOM     48  O   UNL     1       2.511  12.402  -4.317  1.00  0.00    -0.273 OA
ATOM     49  H   UNL     1       2.773  13.397  -1.295  1.00  0.00     0.164 HD
BRANCH  47  50
ATOM     50  C   UNL     1       4.437  13.448  -3.279  1.00  0.00     0.212 CG0
ATOM     51  G   UNL     1       5.209  12.727  -2.156  1.00  0.00     0.000 G0
BRANCH  50  52
ATOM     52  N   UNL     1       4.978  13.188  -4.610  1.00  0.00    -0.339 N 
ATOM     53  C   UNL     1       5.472  14.172  -5.431  1.00  0.00     0.243 C 
ATOM     54  O   UNL     1       5.448  15.362  -5.127  1.00  0.00    -0.273 OA
ATOM     55  H   UNL     1       4.923  12.235  -4.965  1.00  0.00     0.164 HD
BRANCH  53  56
ATOM     56  C   UNL     1       5.907  13.669  -6.823  1.00  0.00     0.182 C 
BRANCH  56  57
ATOM     57  N   UNL     1       5.796  12.210  -6.913  1.00  0.00    -0.344 N 
ATOM     58  C   UNL     1       5.432  11.570  -8.073  1.00  0.00     0.220 C 
ATOM     59  O   UNL     1       5.104  12.173  -9.088  1.00  0.00    -0.275 OA
ATOM     60  H   UNL     1       6.156  11.671  -6.129  1.00  0.00     0.164 HD
BRANCH  58  61
ATOM     61  C   UNL     1       5.440  10.057  -7.952  1.00  0.00     0.100 C 
BRANCH  61  62
ATOM     62  C   UNL     1       4.341   9.369  -8.762  1.00  0.00     0.010 C 
BRANCH  62  63
ATOM     63  C   UNL     1       4.557   7.863  -8.961  1.00  0.00     0.000 C 
BRANCH  63  64
ATOM     64  C   UNL     1       3.595   7.218  -9.957  1.00  0.00    -0.003 C 
ATOM     65  C   UNL     1       4.242   6.041 -10.672  1.00  0.00     0.004 C 
ENDBRANCH  63  64
ENDBRANCH  62  63
ENDBRANCH  61  62
ENDBRANCH  58  61
ENDBRANCH  56  57
BRANCH  56  66
ATOM     66  C   UNL     1       7.306  14.165  -7.185  1.00  0.00     0.157 C 
BRANCH  66  67
ATOM     67  C   UNL     1       8.366  13.346  -6.506  1.00  0.00     0.305 C 
ATOM     68  O   UNL     1       8.813  13.514  -5.382  1.00  0.00    -0.252 OA
BRANCH  67  69
ATOM     69  O   UNL     1       8.779  12.313  -7.264  1.00  0.00    -0.481 OA
ATOM     70  H   UNL     1       9.753  12.294  -7.153  1.00  0.00     0.296 HD
ENDBRANCH  67  69
ENDBRANCH  66  67
ENDBRANCH  56  66
ENDBRANCH  53  56
ENDBRANCH  50  52
ENDBRANCH  47  50
ENDBRANCH  45  46
BRANCH  45  71
ATOM     71  C   UNL     1       0.215  13.111  -0.856  1.00  0.00     0.037 C 
BRANCH  71  72
ATOM     72  C   UNL     1      -1.241  12.641  -0.801  1.00  0.00     0.026 C 
BRANCH  72  73
ATOM     73  C   UNL     1      -1.939  13.125   0.468  1.00  0.00     0.146 C 
BRANCH  73  74
ATOM     74  N   UNL     1      -2.493  11.958   1.146  1.00  0.00    -0.254 NA
ATOM     75  C   UNL     1      -1.813  11.440   2.101  1.00  0.00     0.185 C 
ATOM     76  N   UNL     1      -2.297  10.366   2.746  1.00  0.00    -0.370 N 
ATOM     77  N   UNL     1      -0.620  11.821   2.592  1.00  0.00    -0.370 N 
ATOM     78  H   UNL     1      -3.189  10.009   2.433  1.00  0.00     0.159 HD
ATOM     79  H   UNL     1      -1.761   9.824   3.399  1.00  0.00     0.159 HD
ATOM     80  H   UNL     1      -0.137  12.619   2.207  1.00  0.00     0.159 HD
ATOM     81  H   UNL     1      -0.235  11.406   3.424  1.00  0.00     0.159 HD
ENDBRANCH  73  74
ENDBRANCH  72  73
ENDBRANCH  71  72
ENDBRANCH  45  71
ENDBRANCH   3  45
TORSDOF 20
ENDMDL
MODEL 29
REMARK VINA RESULT:    -4.857      7.254     11.038
REMARK INTER + INTRA:         -21.388
REMARK INTER:                 -15.659
REMARK INTRA:                  -5.728
REMARK UNBOUND:                -7.444
REMARK SMILES CCCCCC(=O)N[C@H](CC(=O)O)C(=O)N[C@H]1C(=O)N[C@H](CCCN=C(N)N)C(=O)N[C@@H]2CC[C@H](O)N(C2=O)[C@@H](CC(C)C)C(=O)N(C)[C@@H](Cc2ccccc2)C(=O)N[C@H](C(C)C)C(=O)O[C@@H]1C
REMARK SMILES IDX 30 1 31 2 29 3 32 5 35 6 37 7 34 8 38 9 33 10 39 11 36 12
REMARK SMILES IDX 40 14 41 15 42 16 43 17 44 18 45 19 46 20 47 21 48 22 49 23
REMARK SMILES IDX 50 24 51 25 52 26 56 27 53 28 55 29 54 30 57 31 58 32 59 33
REMARK SMILES IDX 60 35 61 36 62 37 63 38 64 39 65 40 66 41 67 42 68 43 21 45
REMARK SMILES IDX 20 46 18 47 19 48 17 50 16 52 14 53 15 54 9 56 8 57 6 58
REMARK SMILES IDX 7 59 5 61 4 62 3 63 2 64 1 65 10 66 11 67 12 68 13 69 22 71
REMARK SMILES IDX 23 72 24 73 25 74 26 75 27 76 28 77
REMARK H PARENT 31 4 36 13 59 34 20 49 16 55 8 60 13 70 27 78 27 79 28 80
REMARK H PARENT 28 81
REMARK Flexibility Score:  259.900
ROOT
ATOM      1  O   UNL     1      -0.044  10.973   6.661  1.00  0.00    -0.273 OA
ATOM      2  N   UNL     1       1.812  11.241   5.352  1.00  0.00    -0.343 N 
ATOM      3  C   UNL     1       0.449  11.213   5.559  1.00  0.00     0.243 C 
ATOM      4  H   UNL     1       2.182  11.457   4.435  1.00  0.00     0.164 HD
ENDROOT
BRANCH   2   5
ATOM      5  C   UNL     1       2.733  10.866   6.420  1.00  0.00     0.171 C 
ATOM      6  C   UNL     1       5.589  11.223   6.765  1.00  0.00     0.214 C 
ATOM      7  N   UNL     1       5.094  10.020   6.136  1.00  0.00    -0.303 N 
ATOM      8  C   UNL     1       4.624  11.811   7.781  1.00  0.00     0.057 C 
ATOM      9  C   UNL     1       3.746   9.809   5.895  1.00  0.00     0.247 C 
ATOM     10  C   UNL     1       3.296  12.103   7.118  1.00  0.00     0.040 C 
ATOM     11  O   UNL     1       3.338   8.817   5.278  1.00  0.00    -0.272 OA
BRANCH   6  12
ATOM     12  O   UNL     1       5.864  12.158   5.748  1.00  0.00    -0.373 OA
ATOM     13  H   UNL     1       5.998  13.026   6.184  1.00  0.00     0.213 HD
ENDBRANCH   6  12
BRANCH   7  14
ATOM     14  C   UNL     1       6.102   9.071   5.618  1.00  0.00     0.177 C 
BRANCH  14  15
ATOM     15  C   UNL     1       5.939   7.615   6.098  1.00  0.00     0.038 C 
BRANCH  15  16
ATOM     16  C   UNL     1       5.942   6.468   5.063  1.00  0.00    -0.015 C 
ATOM     17  C   UNL     1       5.228   5.215   5.579  1.00  0.00     0.007 C 
ATOM     18  C   UNL     1       7.386   6.088   4.714  1.00  0.00     0.007 C 
ENDBRANCH  15  16
ENDBRANCH  14  15
BRANCH  14  19
ATOM     19  C   UNL     1       6.577   9.507   4.190  1.00  0.00     0.245 C 
ATOM     20  O   UNL     1       5.734   9.448   3.278  1.00  0.00    -0.272 OA
BRANCH  19  21
ATOM     21  N   UNL     1       7.884   9.837   3.879  1.00  0.00    -0.332 N 
ATOM     22  C   UNL     1       9.015   8.927   3.917  1.00  0.00     0.147 C 
BRANCH  21  23
ATOM     23  C   UNL     1       8.170  11.243   3.480  1.00  0.00     0.178 C 
BRANCH  23  24
ATOM     24  C   UNL     1       9.535  11.783   3.954  1.00  0.00     0.070 C 
BRANCH  24  25
ATOM     25  C   UNL     1       9.599  13.241   4.345  1.00  0.00    -0.045 A 
ATOM     26  C   UNL     1       9.558  13.626   5.691  1.00  0.00     0.004 A 
ATOM     27  C   UNL     1       9.697  14.235   3.359  1.00  0.00     0.004 A 
ATOM     28  C   UNL     1       9.601  14.977   6.043  1.00  0.00     0.000 A 
ATOM     29  C   UNL     1       9.741  15.584   3.712  1.00  0.00     0.000 A 
ATOM     30  C   UNL     1       9.690  15.954   5.054  1.00  0.00     0.000 A 
ENDBRANCH  24  25
ENDBRANCH  23  24
BRANCH  23  31
ATOM     31  C   UNL     1       7.836  11.530   1.996  1.00  0.00     0.243 C 
ATOM     32  O   UNL     1       8.526  11.153   1.052  1.00  0.00    -0.273 OA
ATOM     33  N   UNL     1       6.783  12.412   1.827  1.00  0.00    -0.341 N 
ATOM     34  H   UNL     1       6.249  12.695   2.653  1.00  0.00     0.164 HD
BRANCH  33  35
ATOM     35  C   UNL     1       6.368  12.919   0.516  1.00  0.00     0.194 C 
BRANCH  35  36
ATOM     36  C   UNL     1       6.847  14.367   0.215  1.00  0.00     0.017 C 
ATOM     37  C   UNL     1       8.305  14.384  -0.276  1.00  0.00     0.010 C 
ATOM     38  C   UNL     1       6.762  15.298   1.431  1.00  0.00     0.010 C 
ENDBRANCH  35  36
BRANCH  35  39
ATOM     39  C   UNL     1       4.844  12.747   0.263  1.00  0.00     0.329 C 
ATOM     40  O   UNL     1       4.362  12.385  -0.803  1.00  0.00    -0.250 OA
BRANCH  39  41
ATOM     41  O   UNL     1       4.103  12.962   1.392  1.00  0.00    -0.458 OA
BRANCH  41  42
ATOM     42  C   UNL     1       3.128  11.944   1.722  1.00  0.00     0.205 CG0
ATOM     43  C   UNL     1       3.559  10.658   1.020  1.00  0.00     0.056 C 
ATOM     44  G   UNL     1       1.738  12.428   1.264  1.00  0.00     0.000 G0
ENDBRANCH  41  42
ENDBRANCH  39  41
ENDBRANCH  35  39
ENDBRANCH  33  35
ENDBRANCH  23  31
ENDBRANCH  21  23
ENDBRANCH  19  21
ENDBRANCH  14  19
ENDBRANCH   7  14
ENDBRANCH   2   5
BRANCH   3  45
ATOM     45  C   UNL     1      -0.409  11.522   4.325  1.00  0.00     0.171 C 
BRANCH  45  46
ATOM     46  N   UNL     1       0.488  12.159   3.371  1.00  0.00    -0.342 N 
ATOM     47  C   UNL     1       0.636  11.706   2.084  1.00  0.00     0.247 C 
ATOM     48  O   UNL     1      -0.028  10.779   1.621  1.00  0.00    -0.273 OA
ATOM     49  H   UNL     1       1.017  12.967   3.696  1.00  0.00     0.164 HD
BRANCH  47  50
ATOM     50  C   UNL     1       1.717  12.424   1.263  1.00  0.00     0.212 CG0
ATOM     51  G   UNL     1       3.089  11.916   1.749  1.00  0.00     0.000 G0
BRANCH  50  52
ATOM     52  N   UNL     1       1.437  12.085  -0.130  1.00  0.00    -0.339 N 
ATOM     53  C   UNL     1       0.946  12.986  -1.044  1.00  0.00     0.243 C 
ATOM     54  O   UNL     1       0.654  14.140  -0.743  1.00  0.00    -0.273 OA
ATOM     55  H   UNL     1       1.554  11.114  -0.413  1.00  0.00     0.164 HD
BRANCH  53  56
ATOM     56  C   UNL     1       0.648  12.377  -2.428  1.00  0.00     0.182 C 
BRANCH  56  57
ATOM     57  N   UNL     1       0.577  10.914  -2.355  1.00  0.00    -0.344 N 
ATOM     58  C   UNL     1      -0.587  10.247  -2.058  1.00  0.00     0.220 C 
ATOM     59  O   UNL     1      -1.626  10.827  -1.762  1.00  0.00    -0.275 OA
ATOM     60  H   UNL     1       1.385  10.396  -2.692  1.00  0.00     0.164 HD
BRANCH  58  61
ATOM     61  C   UNL     1      -0.441   8.737  -2.096  1.00  0.00     0.100 C 
BRANCH  61  62
ATOM     62  C   UNL     1      -0.266   8.101  -0.717  1.00  0.00     0.010 C 
BRANCH  62  63
ATOM     63  C   UNL     1      -1.582   7.838   0.025  1.00  0.00     0.000 C 
BRANCH  63  64
ATOM     64  C   UNL     1      -1.510   8.073   1.533  1.00  0.00    -0.003 C 
ATOM     65  C   UNL     1      -0.246   7.469   2.129  1.00  0.00     0.004 C 
ENDBRANCH  63  64
ENDBRANCH  62  63
ENDBRANCH  61  62
ENDBRANCH  58  61
ENDBRANCH  56  57
BRANCH  56  66
ATOM     66  C   UNL     1       1.650  12.854  -3.478  1.00  0.00     0.157 C 
BRANCH  66  67
ATOM     67  C   UNL     1       1.272  12.372  -4.849  1.00  0.00     0.305 C 
ATOM     68  O   UNL     1       0.243  11.795  -5.165  1.00  0.00    -0.252 OA
BRANCH  67  69
ATOM     69  O   UNL     1       2.196  12.690  -5.776  1.00  0.00    -0.481 OA
ATOM     70  H   UNL     1       2.985  12.158  -5.535  1.00  0.00     0.296 HD
ENDBRANCH  67  69
ENDBRANCH  66  67
ENDBRANCH  56  66
ENDBRANCH  53  56
ENDBRANCH  50  52
ENDBRANCH  47  50
ENDBRANCH  45  46
BRANCH  45  71
ATOM     71  C   UNL     1      -1.577  12.440   4.704  1.00  0.00     0.037 C 
BRANCH  71  72
ATOM     72  C   UNL     1      -1.692  13.643   3.763  1.00  0.00     0.026 C 
BRANCH  72  73
ATOM     73  C   UNL     1      -3.000  13.615   2.976  1.00  0.00     0.146 C 
BRANCH  73  74
ATOM     74  N   UNL     1      -2.697  13.967   1.592  1.00  0.00    -0.254 NA
ATOM     75  C   UNL     1      -2.629  13.017   0.734  1.00  0.00     0.185 C 
ATOM     76  N   UNL     1      -2.353  13.309  -0.547  1.00  0.00    -0.370 N 
ATOM     77  N   UNL     1      -2.800  11.696   0.919  1.00  0.00    -0.370 N 
ATOM     78  H   UNL     1      -2.202  14.282  -0.772  1.00  0.00     0.159 HD
ATOM     79  H   UNL     1      -2.142  12.614  -1.241  1.00  0.00     0.159 HD
ATOM     80  H   UNL     1      -3.018  11.330   1.834  1.00  0.00     0.159 HD
ATOM     81  H   UNL     1      -2.837  11.055   0.145  1.00  0.00     0.159 HD
ENDBRANCH  73  74
ENDBRANCH  72  73
ENDBRANCH  71  72
ENDBRANCH  45  71
ENDBRANCH   3  45
TORSDOF 20
ENDMDL
MODEL 30
REMARK VINA RESULT:    -4.779      6.625     10.632
REMARK INTER + INTRA:         -21.162
REMARK INTER:                 -15.124
REMARK INTRA:                  -6.038
REMARK UNBOUND:                -7.444
REMARK SMILES CCCCCC(=O)N[C@H](CC(=O)O)C(=O)N[C@H]1C(=O)N[C@H](CCCN=C(N)N)C(=O)N[C@@H]2CC[C@H](O)N(C2=O)[C@@H](CC(C)C)C(=O)N(C)[C@@H](Cc2ccccc2)C(=O)N[C@H](C(C)C)C(=O)O[C@@H]1C
REMARK SMILES IDX 30 1 31 2 29 3 32 5 35 6 37 7 34 8 38 9 33 10 39 11 36 12
REMARK SMILES IDX 40 14 41 15 42 16 43 17 44 18 45 19 46 20 47 21 48 22 49 23
REMARK SMILES IDX 50 24 51 25 52 26 56 27 53 28 55 29 54 30 57 31 58 32 59 33
REMARK SMILES IDX 60 35 61 36 62 37 63 38 64 39 65 40 66 41 67 42 68 43 21 45
REMARK SMILES IDX 20 46 18 47 19 48 17 50 16 52 14 53 15 54 9 56 8 57 6 58
REMARK SMILES IDX 7 59 5 61 4 62 3 63 2 64 1 65 10 66 11 67 12 68 13 69 22 71
REMARK SMILES IDX 23 72 24 73 25 74 26 75 27 76 28 77
REMARK H PARENT 31 4 36 13 59 34 20 49 16 55 8 60 13 70 27 78 27 79 28 80
REMARK H PARENT 28 81
REMARK Flexibility Score:  259.900
ROOT
ATOM      1  O   UNL     1       4.526  11.341   3.302  1.00  0.00    -0.273 OA
ATOM      2  N   UNL     1       3.880   9.265   4.010  1.00  0.00    -0.343 N 
ATOM      3  C   UNL     1       3.629  10.522   3.504  1.00  0.00     0.243 C 
ATOM      4  H   UNL     1       3.119   8.612   4.150  1.00  0.00     0.164 HD
ENDROOT
BRANCH   2   5
ATOM      5  C   UNL     1       5.223   8.893   4.443  1.00  0.00     0.171 C 
ATOM      6  C   UNL     1       6.647   6.368   4.478  1.00  0.00     0.214 C 
ATOM      7  N   UNL     1       5.881   6.767   5.635  1.00  0.00    -0.303 N 
ATOM      8  C   UNL     1       7.207   7.543   3.692  1.00  0.00     0.057 C 
ATOM      9  C   UNL     1       5.136   7.935   5.666  1.00  0.00     0.247 C 
ATOM     10  C   UNL     1       6.079   8.453   3.257  1.00  0.00     0.040 C 
ATOM     11  O   UNL     1       4.414   8.228   6.628  1.00  0.00    -0.272 OA
BRANCH   6  12
ATOM     12  O   UNL     1       5.812   5.582   3.659  1.00  0.00    -0.373 OA
ATOM     13  H   UNL     1       4.919   5.986   3.687  1.00  0.00     0.213 HD
ENDBRANCH   6  12
BRANCH   7  14
ATOM     14  C   UNL     1       5.798   5.801   6.750  1.00  0.00     0.177 C 
BRANCH  14  15
ATOM     15  C   UNL     1       5.017   4.508   6.442  1.00  0.00     0.038 C 
BRANCH  15  16
ATOM     16  C   UNL     1       4.290   3.768   7.586  1.00  0.00    -0.015 C 
ATOM     17  C   UNL     1       3.918   4.700   8.743  1.00  0.00     0.007 C 
ATOM     18  C   UNL     1       5.190   2.654   8.138  1.00  0.00     0.007 C 
ENDBRANCH  15  16
ENDBRANCH  14  15
BRANCH  14  19
ATOM     19  C   UNL     1       7.082   5.893   7.646  1.00  0.00     0.245 C 
ATOM     20  O   UNL     1       7.842   4.911   7.637  1.00  0.00    -0.272 OA
BRANCH  19  21
ATOM     21  N   UNL     1       7.345   6.941   8.510  1.00  0.00    -0.332 N 
ATOM     22  C   UNL     1       8.228   8.060   8.234  1.00  0.00     0.147 C 
BRANCH  21  23
ATOM     23  C   UNL     1       6.682   6.926   9.843  1.00  0.00     0.178 C 
BRANCH  23  24
ATOM     24  C   UNL     1       7.444   6.148  10.935  1.00  0.00     0.070 C 
BRANCH  24  25
ATOM     25  C   UNL     1       7.018   4.720  11.186  1.00  0.00    -0.045 A 
ATOM     26  C   UNL     1       7.865   3.651  10.866  1.00  0.00     0.004 A 
ATOM     27  C   UNL     1       5.760   4.444  11.742  1.00  0.00     0.004 A 
ATOM     28  C   UNL     1       7.457   2.334  11.085  1.00  0.00     0.000 A 
ATOM     29  C   UNL     1       5.354   3.127  11.962  1.00  0.00     0.000 A 
ATOM     30  C   UNL     1       6.202   2.073  11.630  1.00  0.00     0.000 A 
ENDBRANCH  24  25
ENDBRANCH  23  24
BRANCH  23  31
ATOM     31  C   UNL     1       6.167   8.320  10.277  1.00  0.00     0.243 C 
ATOM     32  O   UNL     1       6.694   9.006  11.148  1.00  0.00    -0.273 OA
ATOM     33  N   UNL     1       4.942   8.653   9.724  1.00  0.00    -0.341 N 
ATOM     34  H   UNL     1       4.550   8.038   9.006  1.00  0.00     0.164 HD
BRANCH  33  35
ATOM     35  C   UNL     1       4.208   9.870  10.083  1.00  0.00     0.194 C 
BRANCH  35  36
ATOM     36  C   UNL     1       2.985   9.623  11.011  1.00  0.00     0.017 C 
ATOM     37  C   UNL     1       2.972  10.607  12.193  1.00  0.00     0.010 C 
ATOM     38  C   UNL     1       2.945   8.205  11.594  1.00  0.00     0.010 C 
ENDBRANCH  35  36
BRANCH  35  39
ATOM     39  C   UNL     1       3.832  10.729   8.843  1.00  0.00     0.329 C 
ATOM     40  O   UNL     1       4.625  11.434   8.231  1.00  0.00    -0.250 OA
BRANCH  39  41
ATOM     41  O   UNL     1       2.533  10.543   8.457  1.00  0.00    -0.458 OA
BRANCH  41  42
ATOM     42  C   UNL     1       1.840  11.711   7.955  1.00  0.00     0.205 CG0
ATOM     43  C   UNL     1       1.084  12.330   9.129  1.00  0.00     0.056 C 
ATOM     44  G   UNL     1       0.901  11.273   6.814  1.00  0.00     0.000 G0
ENDBRANCH  41  42
ENDBRANCH  39  41
ENDBRANCH  35  39
ENDBRANCH  33  35
ENDBRANCH  23  31
ENDBRANCH  21  23
ENDBRANCH  19  21
ENDBRANCH  14  19
ENDBRANCH   7  14
ENDBRANCH   2   5
BRANCH   3  45
ATOM     45  C   UNL     1       2.158  10.822   3.190  1.00  0.00     0.171 C 
BRANCH  45  46
ATOM     46  N   UNL     1       1.454  10.716   4.461  1.00  0.00    -0.342 N 
ATOM     47  C   UNL     1       1.639  11.614   5.482  1.00  0.00     0.247 C 
ATOM     48  O   UNL     1       2.353  12.611   5.374  1.00  0.00    -0.273 OA
ATOM     49  H   UNL     1       0.809   9.936   4.573  1.00  0.00     0.164 HD
BRANCH  47  50
ATOM     50  C   UNL     1       0.909  11.272   6.789  1.00  0.00     0.212 CG0
ATOM     51  G   UNL     1       1.803  11.732   7.958  1.00  0.00     0.000 G0
BRANCH  50  52
ATOM     52  N   UNL     1      -0.365  11.983   6.721  1.00  0.00    -0.339 N 
ATOM     53  C   UNL     1      -1.501  11.449   6.164  1.00  0.00     0.243 C 
ATOM     54  O   UNL     1      -1.518  10.344   5.628  1.00  0.00    -0.273 OA
ATOM     55  H   UNL     1      -0.386  12.947   7.049  1.00  0.00     0.164 HD
BRANCH  53  56
ATOM     56  C   UNL     1      -2.699  12.419   6.129  1.00  0.00     0.182 C 
BRANCH  56  57
ATOM     57  N   UNL     1      -3.019  12.811   4.753  1.00  0.00    -0.344 N 
ATOM     58  C   UNL     1      -2.076  13.329   3.897  1.00  0.00     0.220 C 
ATOM     59  O   UNL     1      -0.925  13.567   4.245  1.00  0.00    -0.275 OA
ATOM     60  H   UNL     1      -3.930  12.538   4.396  1.00  0.00     0.164 HD
BRANCH  58  61
ATOM     61  C   UNL     1      -2.616  13.609   2.507  1.00  0.00     0.100 C 
BRANCH  61  62
ATOM     62  C   UNL     1      -2.703  12.368   1.618  1.00  0.00     0.010 C 
BRANCH  62  63
ATOM     63  C   UNL     1      -1.930  12.486   0.298  1.00  0.00     0.000 C 
BRANCH  63  64
ATOM     64  C   UNL     1      -0.430  12.722   0.469  1.00  0.00    -0.003 C 
ATOM     65  C   UNL     1       0.231  13.077  -0.855  1.00  0.00     0.004 C 
ENDBRANCH  63  64
ENDBRANCH  62  63
ENDBRANCH  61  62
ENDBRANCH  58  61
ENDBRANCH  56  57
BRANCH  56  66
ATOM     66  C   UNL     1      -2.468  13.627   7.035  1.00  0.00     0.157 C 
BRANCH  66  67
ATOM     67  C   UNL     1      -3.586  13.786   8.025  1.00  0.00     0.305 C 
ATOM     68  O   UNL     1      -3.582  14.482   9.028  1.00  0.00    -0.252 OA
BRANCH  67  69
ATOM     69  O   UNL     1      -4.685  13.092   7.671  1.00  0.00    -0.481 OA
ATOM     70  H   UNL     1      -5.325  13.773   7.372  1.00  0.00     0.296 HD
ENDBRANCH  67  69
ENDBRANCH  66  67
ENDBRANCH  56  66
ENDBRANCH  53  56
ENDBRANCH  50  52
ENDBRANCH  47  50
ENDBRANCH  45  46
BRANCH  45  71
ATOM     71  C   UNL     1       1.618   9.824   2.159  1.00  0.00     0.037 C 
BRANCH  71  72
ATOM     72  C   UNL     1       0.854   8.673   2.818  1.00  0.00     0.026 C 
BRANCH  72  73
ATOM     73  C   UNL     1       0.214   7.757   1.777  1.00  0.00     0.146 C 
BRANCH  73  74
ATOM     74  N   UNL     1      -0.041   8.551   0.579  1.00  0.00    -0.254 NA
ATOM     75  C   UNL     1      -1.221   8.518   0.078  1.00  0.00     0.185 C 
ATOM     76  N   UNL     1      -1.486   9.239  -1.023  1.00  0.00    -0.370 N 
ATOM     77  N   UNL     1      -2.300   7.837   0.502  1.00  0.00    -0.370 N 
ATOM     78  H   UNL     1      -0.725   9.776  -1.413  1.00  0.00     0.159 HD
ATOM     79  H   UNL     1      -2.336   9.150  -1.551  1.00  0.00     0.159 HD
ATOM     80  H   UNL     1      -2.249   7.254   1.324  1.00  0.00     0.159 HD
ATOM     81  H   UNL     1      -3.208   7.979   0.092  1.00  0.00     0.159 HD
ENDBRANCH  73  74
ENDBRANCH  72  73
ENDBRANCH  71  72
ENDBRANCH  45  71
ENDBRANCH   3  45
TORSDOF 20
ENDMDL
MODEL 31
REMARK VINA RESULT:    -4.769      6.613      9.468
REMARK INTER + INTRA:         -21.135
REMARK INTER:                 -14.114
REMARK INTRA:                  -7.021
REMARK UNBOUND:                -7.444
REMARK SMILES CCCCCC(=O)N[C@H](CC(=O)O)C(=O)N[C@H]1C(=O)N[C@H](CCCN=C(N)N)C(=O)N[C@@H]2CC[C@H](O)N(C2=O)[C@@H](CC(C)C)C(=O)N(C)[C@@H](Cc2ccccc2)C(=O)N[C@H](C(C)C)C(=O)O[C@@H]1C
REMARK SMILES IDX 30 1 31 2 29 3 32 5 35 6 37 7 34 8 38 9 33 10 39 11 36 12
REMARK SMILES IDX 40 14 41 15 42 16 43 17 44 18 45 19 46 20 47 21 48 22 49 23
REMARK SMILES IDX 50 24 51 25 52 26 56 27 53 28 55 29 54 30 57 31 58 32 59 33
REMARK SMILES IDX 60 35 61 36 62 37 63 38 64 39 65 40 66 41 67 42 68 43 21 45
REMARK SMILES IDX 20 46 18 47 19 48 17 50 16 52 14 53 15 54 9 56 8 57 6 58
REMARK SMILES IDX 7 59 5 61 4 62 3 63 2 64 1 65 10 66 11 67 12 68 13 69 22 71
REMARK SMILES IDX 23 72 24 73 25 74 26 75 27 76 28 77
REMARK H PARENT 31 4 36 13 59 34 20 49 16 55 8 60 13 70 27 78 27 79 28 80
REMARK H PARENT 28 81
REMARK Flexibility Score:  259.900
ROOT
ATOM      1  O   UNL     1       6.596   3.329   7.769  1.00  0.00    -0.273 OA
ATOM      2  N   UNL     1       5.700   1.850   9.265  1.00  0.00    -0.343 N 
ATOM      3  C   UNL     1       5.649   2.977   8.473  1.00  0.00     0.243 C 
ATOM      4  H   UNL     1       4.896   1.582   9.820  1.00  0.00     0.164 HD
ENDROOT
BRANCH   2   5
ATOM      5  C   UNL     1       6.936   1.086   9.391  1.00  0.00     0.171 C 
ATOM      6  C   UNL     1       7.613  -1.330  10.844  1.00  0.00     0.214 C 
ATOM      7  N   UNL     1       7.794  -0.045  11.479  1.00  0.00    -0.303 N 
ATOM      8  C   UNL     1       7.777  -1.283   9.333  1.00  0.00     0.057 C 
ATOM      9  C   UNL     1       7.444   1.144  10.861  1.00  0.00     0.247 C 
ATOM     10  C   UNL     1       6.800  -0.290   8.742  1.00  0.00     0.040 C 
ATOM     11  O   UNL     1       7.522   2.234  11.443  1.00  0.00    -0.272 OA
BRANCH   6  12
ATOM     12  O   UNL     1       6.330  -1.801  11.186  1.00  0.00    -0.373 OA
ATOM     13  H   UNL     1       6.334  -1.971  12.152  1.00  0.00     0.213 HD
ENDBRANCH   6  12
BRANCH   7  14
ATOM     14  C   UNL     1       8.238  -0.051  12.889  1.00  0.00     0.177 C 
BRANCH  14  15
ATOM     15  C   UNL     1       7.438  -0.977  13.825  1.00  0.00     0.038 C 
BRANCH  15  16
ATOM     16  C   UNL     1       8.150  -2.161  14.515  1.00  0.00    -0.015 C 
ATOM     17  C   UNL     1       7.301  -3.435  14.513  1.00  0.00     0.007 C 
ATOM     18  C   UNL     1       8.467  -1.797  15.972  1.00  0.00     0.007 C 
ENDBRANCH  15  16
ENDBRANCH  14  15
BRANCH  14  19
ATOM     19  C   UNL     1       9.782   0.211  12.974  1.00  0.00     0.245 C 
ATOM     20  O   UNL     1      10.516  -0.565  12.339  1.00  0.00    -0.272 OA
BRANCH  19  21
ATOM     21  N   UNL     1      10.358   1.168  13.790  1.00  0.00    -0.332 N 
ATOM     22  C   UNL     1      10.733   0.975  15.180  1.00  0.00     0.147 C 
BRANCH  21  23
ATOM     23  C   UNL     1      10.610   2.516  13.211  1.00  0.00     0.178 C 
BRANCH  23  24
ATOM     24  C   UNL     1      10.565   2.576  11.670  1.00  0.00     0.070 C 
BRANCH  24  25
ATOM     25  C   UNL     1      11.888   2.643  10.945  1.00  0.00    -0.045 A 
ATOM     26  C   UNL     1      12.772   3.708  11.161  1.00  0.00     0.004 A 
ATOM     27  C   UNL     1      12.249   1.637  10.036  1.00  0.00     0.004 A 
ATOM     28  C   UNL     1      13.986   3.771  10.474  1.00  0.00     0.000 A 
ATOM     29  C   UNL     1      13.463   1.701   9.350  1.00  0.00     0.000 A 
ATOM     30  C   UNL     1      14.329   2.770   9.568  1.00  0.00     0.000 A 
ENDBRANCH  24  25
ENDBRANCH  23  24
BRANCH  23  31
ATOM     31  C   UNL     1       9.825   3.639  13.930  1.00  0.00     0.243 C 
ATOM     32  O   UNL     1      10.340   4.467  14.677  1.00  0.00    -0.273 OA
ATOM     33  N   UNL     1       8.451   3.519  13.806  1.00  0.00    -0.341 N 
ATOM     34  H   UNL     1       8.081   2.805  13.174  1.00  0.00     0.164 HD
BRANCH  33  35
ATOM     35  C   UNL     1       7.507   4.399  14.500  1.00  0.00     0.194 C 
BRANCH  35  36
ATOM     36  C   UNL     1       6.593   3.668  15.524  1.00  0.00     0.017 C 
ATOM     37  C   UNL     1       6.990   4.009  16.971  1.00  0.00     0.010 C 
ATOM     38  C   UNL     1       6.630   2.142  15.385  1.00  0.00     0.010 C 
ENDBRANCH  35  36
BRANCH  35  39
ATOM     39  C   UNL     1       6.688   5.288  13.522  1.00  0.00     0.329 C 
ATOM     40  O   UNL     1       7.186   5.964  12.630  1.00  0.00    -0.250 OA
BRANCH  39  41
ATOM     41  O   UNL     1       5.340   5.164  13.712  1.00  0.00    -0.458 OA
BRANCH  41  42
ATOM     42  C   UNL     1       4.493   5.910  12.805  1.00  0.00     0.205 CG0
ATOM     43  C   UNL     1       3.737   6.943  13.636  1.00  0.00     0.056 C 
ATOM     44  G   UNL     1       3.549   4.923  12.090  1.00  0.00     0.000 G0
ENDBRANCH  41  42
ENDBRANCH  39  41
ENDBRANCH  35  39
ENDBRANCH  33  35
ENDBRANCH  23  31
ENDBRANCH  21  23
ENDBRANCH  19  21
ENDBRANCH  14  19
ENDBRANCH   7  14
ENDBRANCH   2   5
BRANCH   3  45
ATOM     45  C   UNL     1       4.324   3.749   8.513  1.00  0.00     0.171 C 
BRANCH  45  46
ATOM     46  N   UNL     1       3.962   3.836   9.922  1.00  0.00    -0.342 N 
ATOM     47  C   UNL     1       3.780   5.036  10.563  1.00  0.00     0.247 C 
ATOM     48  O   UNL     1       3.838   6.120   9.981  1.00  0.00    -0.273 OA
ATOM     49  H   UNL     1       3.848   2.960  10.428  1.00  0.00     0.164 HD
BRANCH  47  50
ATOM     50  C   UNL     1       3.525   4.933  12.073  1.00  0.00     0.212 CG0
ATOM     51  G   UNL     1       4.468   5.931  12.775  1.00  0.00     0.000 G0
BRANCH  50  52
ATOM     52  N   UNL     1       2.111   5.252  12.252  1.00  0.00    -0.339 N 
ATOM     53  C   UNL     1       1.130   4.298  12.366  1.00  0.00     0.243 C 
ATOM     54  O   UNL     1       1.361   3.096  12.272  1.00  0.00    -0.273 OA
ATOM     55  H   UNL     1       1.841   6.233  12.226  1.00  0.00     0.164 HD
BRANCH  53  56
ATOM     56  C   UNL     1      -0.298   4.874  12.460  1.00  0.00     0.182 C 
BRANCH  56  57
ATOM     57  N   UNL     1      -1.303   3.818  12.301  1.00  0.00    -0.344 N 
ATOM     58  C   UNL     1      -2.129   3.428  13.327  1.00  0.00     0.220 C 
ATOM     59  O   UNL     1      -2.036   3.882  14.463  1.00  0.00    -0.275 OA
ATOM     60  H   UNL     1      -1.481   3.490  11.356  1.00  0.00     0.164 HD
BRANCH  58  61
ATOM     61  C   UNL     1      -3.130   2.362  12.921  1.00  0.00     0.100 C 
BRANCH  61  62
ATOM     62  C   UNL     1      -2.488   1.031  12.530  1.00  0.00     0.010 C 
BRANCH  62  63
ATOM     63  C   UNL     1      -3.471   0.008  11.947  1.00  0.00     0.000 C 
BRANCH  63  64
ATOM     64  C   UNL     1      -3.468  -0.065  10.421  1.00  0.00    -0.003 C 
ATOM     65  C   UNL     1      -2.118   0.344   9.849  1.00  0.00     0.004 C 
ENDBRANCH  63  64
ENDBRANCH  62  63
ENDBRANCH  61  62
ENDBRANCH  58  61
ENDBRANCH  56  57
BRANCH  56  66
ATOM     66  C   UNL     1      -0.505   6.021  11.472  1.00  0.00     0.157 C 
BRANCH  66  67
ATOM     67  C   UNL     1      -1.794   5.863  10.718  1.00  0.00     0.305 C 
ATOM     68  O   UNL     1      -1.969   5.225   9.691  1.00  0.00    -0.252 OA
BRANCH  67  69
ATOM     69  O   UNL     1      -2.824   6.479  11.330  1.00  0.00    -0.481 OA
ATOM     70  H   UNL     1      -3.484   5.771  11.485  1.00  0.00     0.296 HD
ENDBRANCH  67  69
ENDBRANCH  66  67
ENDBRANCH  56  66
ENDBRANCH  53  56
ENDBRANCH  50  52
ENDBRANCH  47  50
ENDBRANCH  45  46
BRANCH  45  71
ATOM     71  C   UNL     1       3.253   3.016   7.698  1.00  0.00     0.037 C 
BRANCH  71  72
ATOM     72  C   UNL     1       1.863   3.144   8.326  1.00  0.00     0.026 C 
BRANCH  72  73
ATOM     73  C   UNL     1       1.409   1.828   8.954  1.00  0.00     0.146 C 
BRANCH  73  74
ATOM     74  N   UNL     1       2.600   1.107   9.392  1.00  0.00    -0.254 NA
ATOM     75  C   UNL     1       2.474   0.268  10.352  1.00  0.00     0.185 C 
ATOM     76  N   UNL     1       3.551  -0.412  10.776  1.00  0.00    -0.370 N 
ATOM     77  N   UNL     1       1.370  -0.062  11.046  1.00  0.00    -0.370 N 
ATOM     78  H   UNL     1       4.427  -0.217  10.312  1.00  0.00     0.159 HD
ATOM     79  H   UNL     1       3.560  -0.972  11.610  1.00  0.00     0.159 HD
ATOM     80  H   UNL     1       0.483   0.368  10.834  1.00  0.00     0.159 HD
ATOM     81  H   UNL     1       1.369  -0.823  11.705  1.00  0.00     0.159 HD
ENDBRANCH  73  74
ENDBRANCH  72  73
ENDBRANCH  71  72
ENDBRANCH  45  71
ENDBRANCH   3  45
TORSDOF 20
ENDMDL
MODEL 32
REMARK VINA RESULT:    -4.716      7.133     11.617
REMARK INTER + INTRA:         -20.984
REMARK INTER:                 -17.052
REMARK INTRA:                  -3.931
REMARK UNBOUND:                -7.444
REMARK SMILES CCCCCC(=O)N[C@H](CC(=O)O)C(=O)N[C@H]1C(=O)N[C@H](CCCN=C(N)N)C(=O)N[C@@H]2CC[C@H](O)N(C2=O)[C@@H](CC(C)C)C(=O)N(C)[C@@H](Cc2ccccc2)C(=O)N[C@H](C(C)C)C(=O)O[C@@H]1C
REMARK SMILES IDX 30 1 31 2 29 3 32 5 35 6 37 7 34 8 38 9 33 10 39 11 36 12
REMARK SMILES IDX 40 14 41 15 42 16 43 17 44 18 45 19 46 20 47 21 48 22 49 23
REMARK SMILES IDX 50 24 51 25 52 26 56 27 53 28 55 29 54 30 57 31 58 32 59 33
REMARK SMILES IDX 60 35 61 36 62 37 63 38 64 39 65 40 66 41 67 42 68 43 21 45
REMARK SMILES IDX 20 46 18 47 19 48 17 50 16 52 14 53 15 54 9 56 8 57 6 58
REMARK SMILES IDX 7 59 5 61 4 62 3 63 2 64 1 65 10 66 11 67 12 68 13 69 22 71
REMARK SMILES IDX 23 72 24 73 25 74 26 75 27 76 28 77
REMARK H PARENT 31 4 36 13 59 34 20 49 16 55 8 60 13 70 27 78 27 79 28 80
REMARK H PARENT 28 81
REMARK Flexibility Score:  259.900
ROOT
ATOM      1  O   UNL     1       0.937  12.359   4.077  1.00  0.00    -0.273 OA
ATOM      2  N   UNL     1       1.377  10.118   4.193  1.00  0.00    -0.343 N 
ATOM      3  C   UNL     1       0.532  11.206   4.229  1.00  0.00     0.243 C 
ATOM      4  H   UNL     1       1.007   9.182   4.307  1.00  0.00     0.164 HD
ENDROOT
BRANCH   2   5
ATOM      5  C   UNL     1       2.821  10.301   4.090  1.00  0.00     0.171 C 
ATOM      6  C   UNL     1       5.017   8.443   3.731  1.00  0.00     0.214 C 
ATOM      7  N   UNL     1       4.598   8.799   5.067  1.00  0.00    -0.303 N 
ATOM      8  C   UNL     1       4.787   9.550   2.714  1.00  0.00     0.057 C 
ATOM      9  C   UNL     1       3.525   9.640   5.309  1.00  0.00     0.247 C 
ATOM     10  C   UNL     1       3.323   9.932   2.695  1.00  0.00     0.040 C 
ATOM     11  O   UNL     1       3.118   9.871   6.456  1.00  0.00    -0.272 OA
BRANCH   6  12
ATOM     12  O   UNL     1       4.319   7.278   3.357  1.00  0.00    -0.373 OA
ATOM     13  H   UNL     1       4.796   6.890   2.592  1.00  0.00     0.213 HD
ENDBRANCH   6  12
BRANCH   7  14
ATOM     14  C   UNL     1       5.273   8.108   6.186  1.00  0.00     0.177 C 
BRANCH  14  15
ATOM     15  C   UNL     1       4.377   7.163   7.010  1.00  0.00     0.038 C 
BRANCH  15  16
ATOM     16  C   UNL     1       4.055   7.508   8.481  1.00  0.00    -0.015 C 
ATOM     17  C   UNL     1       4.959   8.616   9.032  1.00  0.00     0.007 C 
ATOM     18  C   UNL     1       4.234   6.262   9.357  1.00  0.00     0.007 C 
ENDBRANCH  15  16
ENDBRANCH  14  15
BRANCH  14  19
ATOM     19  C   UNL     1       6.781   7.855   5.840  1.00  0.00     0.245 C 
ATOM     20  O   UNL     1       7.058   7.683   4.641  1.00  0.00    -0.272 OA
BRANCH  19  21
ATOM     21  N   UNL     1       7.776   7.706   6.789  1.00  0.00    -0.332 N 
ATOM     22  C   UNL     1       8.965   8.532   6.902  1.00  0.00     0.147 C 
BRANCH  21  23
ATOM     23  C   UNL     1       7.633   6.602   7.779  1.00  0.00     0.178 C 
BRANCH  23  24
ATOM     24  C   UNL     1       7.748   5.183   7.184  1.00  0.00     0.070 C 
BRANCH  24  25
ATOM     25  C   UNL     1       6.605   4.231   7.450  1.00  0.00    -0.045 A 
ATOM     26  C   UNL     1       5.481   4.207   6.615  1.00  0.00     0.004 A 
ATOM     27  C   UNL     1       6.654   3.357   8.546  1.00  0.00     0.004 A 
ATOM     28  C   UNL     1       4.422   3.336   6.877  1.00  0.00     0.000 A 
ATOM     29  C   UNL     1       5.595   2.486   8.807  1.00  0.00     0.000 A 
ATOM     30  C   UNL     1       4.478   2.478   7.973  1.00  0.00     0.000 A 
ENDBRANCH  24  25
ENDBRANCH  23  24
BRANCH  23  31
ATOM     31  C   UNL     1       8.456   6.836   9.068  1.00  0.00     0.243 C 
ATOM     32  O   UNL     1       8.322   7.813   9.800  1.00  0.00    -0.273 OA
ATOM     33  N   UNL     1       9.496   5.936   9.231  1.00  0.00    -0.341 N 
ATOM     34  H   UNL     1       9.559   5.145   8.586  1.00  0.00     0.164 HD
BRANCH  33  35
ATOM     35  C   UNL     1      10.477   6.038  10.315  1.00  0.00     0.194 C 
BRANCH  35  36
ATOM     36  C   UNL     1      11.751   6.849   9.945  1.00  0.00     0.017 C 
ATOM     37  C   UNL     1      12.976   5.930   9.800  1.00  0.00     0.010 C 
ATOM     38  C   UNL     1      12.103   7.925  10.979  1.00  0.00     0.010 C 
ENDBRANCH  35  36
BRANCH  35  39
ATOM     39  C   UNL     1      10.829   4.656  10.935  1.00  0.00     0.329 C 
ATOM     40  O   UNL     1      10.888   3.613  10.295  1.00  0.00    -0.250 OA
BRANCH  39  41
ATOM     41  O   UNL     1      11.150   4.747  12.261  1.00  0.00    -0.458 OA
BRANCH  41  42
ATOM     42  C   UNL     1      10.538   3.772  13.137  1.00  0.00     0.205 CG0
ATOM     43  C   UNL     1       9.072   4.166  13.301  1.00  0.00     0.056 C 
ATOM     44  G   UNL     1      11.301   3.768  14.477  1.00  0.00     0.000 G0
ENDBRANCH  41  42
ENDBRANCH  39  41
ENDBRANCH  35  39
ENDBRANCH  33  35
ENDBRANCH  23  31
ENDBRANCH  21  23
ENDBRANCH  19  21
ENDBRANCH  14  19
ENDBRANCH   7  14
ENDBRANCH   2   5
BRANCH   3  45
ATOM     45  C   UNL     1      -0.951  10.880   4.450  1.00  0.00     0.171 C 
BRANCH  45  46
ATOM     46  N   UNL     1      -1.674  11.620   3.424  1.00  0.00    -0.342 N 
ATOM     47  C   UNL     1      -2.330  10.998   2.392  1.00  0.00     0.247 C 
ATOM     48  O   UNL     1      -2.418   9.773   2.297  1.00  0.00    -0.273 OA
ATOM     49  H   UNL     1      -1.675  12.636   3.497  1.00  0.00     0.164 HD
BRANCH  47  50
ATOM     50  C   UNL     1      -2.929  11.942   1.340  1.00  0.00     0.212 CG0
ATOM     51  G   UNL     1      -3.006  13.349   1.965  1.00  0.00     0.000 G0
BRANCH  50  52
ATOM     52  N   UNL     1      -2.029  11.868   0.193  1.00  0.00    -0.339 N 
ATOM     53  C   UNL     1      -1.095  12.833  -0.099  1.00  0.00     0.243 C 
ATOM     54  O   UNL     1      -0.982  13.864   0.558  1.00  0.00    -0.273 OA
ATOM     55  H   UNL     1      -2.150  11.091  -0.454  1.00  0.00     0.164 HD
BRANCH  53  56
ATOM     56  C   UNL     1      -0.320  12.580  -1.408  1.00  0.00     0.182 C 
BRANCH  56  57
ATOM     57  N   UNL     1      -0.249  11.147  -1.710  1.00  0.00    -0.344 N 
ATOM     58  C   UNL     1      -0.697  10.622  -2.897  1.00  0.00     0.220 C 
ATOM     59  O   UNL     1      -1.251  11.300  -3.755  1.00  0.00    -0.275 OA
ATOM     60  H   UNL     1       0.293  10.569  -1.073  1.00  0.00     0.164 HD
BRANCH  58  61
ATOM     61  C   UNL     1      -0.470   9.126  -3.017  1.00  0.00     0.100 C 
BRANCH  61  62
ATOM     62  C   UNL     1      -1.072   8.318  -1.867  1.00  0.00     0.010 C 
BRANCH  62  63
ATOM     63  C   UNL     1      -0.032   7.647  -0.960  1.00  0.00     0.000 C 
BRANCH  63  64
ATOM     64  C   UNL     1       0.078   8.266   0.432  1.00  0.00    -0.003 C 
ATOM     65  C   UNL     1       1.005   7.457   1.328  1.00  0.00     0.004 C 
ENDBRANCH  63  64
ENDBRANCH  62  63
ENDBRANCH  61  62
ENDBRANCH  58  61
ENDBRANCH  56  57
BRANCH  56  66
ATOM     66  C   UNL     1       1.062  13.232  -1.375  1.00  0.00     0.157 C 
BRANCH  66  67
ATOM     67  C   UNL     1       2.151  12.199  -1.413  1.00  0.00     0.305 C 
ATOM     68  O   UNL     1       2.606  11.579  -0.465  1.00  0.00    -0.252 OA
BRANCH  67  69
ATOM     69  O   UNL     1       2.583  11.957  -2.666  1.00  0.00    -0.481 OA
ATOM     70  H   UNL     1       2.652  12.843  -3.082  1.00  0.00     0.296 HD
ENDBRANCH  67  69
ENDBRANCH  66  67
ENDBRANCH  56  66
ENDBRANCH  53  56
ENDBRANCH  50  52
ENDBRANCH  47  50
ENDBRANCH  45  46
BRANCH  45  71
ATOM     71  C   UNL     1      -1.385  11.296   5.860  1.00  0.00     0.037 C 
BRANCH  71  72
ATOM     72  C   UNL     1      -1.948  12.718   5.892  1.00  0.00     0.026 C 
BRANCH  72  73
ATOM     73  C   UNL     1      -3.220  12.798   6.734  1.00  0.00     0.146 C 
BRANCH  73  74
ATOM     74  N   UNL     1      -3.487  14.207   7.008  1.00  0.00    -0.254 NA
ATOM     75  C   UNL     1      -2.872  14.752   7.992  1.00  0.00     0.185 C 
ATOM     76  N   UNL     1      -3.096  16.047   8.268  1.00  0.00    -0.370 N 
ATOM     77  N   UNL     1      -1.986  14.206   8.842  1.00  0.00    -0.370 N 
ATOM     78  H   UNL     1      -3.757  16.533   7.679  1.00  0.00     0.159 HD
ATOM     79  H   UNL     1      -2.766  16.501   9.102  1.00  0.00     0.159 HD
ATOM     80  H   UNL     1      -1.718  13.238   8.752  1.00  0.00     0.159 HD
ATOM     81  H   UNL     1      -1.479  14.765   9.508  1.00  0.00     0.159 HD
ENDBRANCH  73  74
ENDBRANCH  72  73
ENDBRANCH  71  72
ENDBRANCH  45  71
ENDBRANCH   3  45
TORSDOF 20
ENDMDL
MODEL 33
REMARK VINA RESULT:    -4.697      7.124     11.462
REMARK INTER + INTRA:         -20.929
REMARK INTER:                 -16.540
REMARK INTRA:                  -4.389
REMARK UNBOUND:                -7.444
REMARK SMILES CCCCCC(=O)N[C@H](CC(=O)O)C(=O)N[C@H]1C(=O)N[C@H](CCCN=C(N)N)C(=O)N[C@@H]2CC[C@H](O)N(C2=O)[C@@H](CC(C)C)C(=O)N(C)[C@@H](Cc2ccccc2)C(=O)N[C@H](C(C)C)C(=O)O[C@@H]1C
REMARK SMILES IDX 30 1 31 2 29 3 32 5 35 6 37 7 34 8 38 9 33 10 39 11 36 12
REMARK SMILES IDX 40 14 41 15 42 16 43 17 44 18 45 19 46 20 47 21 48 22 49 23
REMARK SMILES IDX 50 24 51 25 52 26 56 27 53 28 55 29 54 30 57 31 58 32 59 33
REMARK SMILES IDX 60 35 61 36 62 37 63 38 64 39 65 40 66 41 67 42 68 43 21 45
REMARK SMILES IDX 20 46 18 47 19 48 17 50 16 52 14 53 15 54 9 56 8 57 6 58
REMARK SMILES IDX 7 59 5 61 4 62 3 63 2 64 1 65 10 66 11 67 12 68 13 69 22 71
REMARK SMILES IDX 23 72 24 73 25 74 26 75 27 76 28 77
REMARK H PARENT 31 4 36 13 59 34 20 49 16 55 8 60 13 70 27 78 27 79 28 80
REMARK H PARENT 28 81
REMARK Flexibility Score:  259.900
ROOT
ATOM      1  O   UNL     1       0.848  12.332   4.365  1.00  0.00    -0.273 OA
ATOM      2  N   UNL     1       1.242  10.090   4.587  1.00  0.00    -0.343 N 
ATOM      3  C   UNL     1       0.417  11.194   4.550  1.00  0.00     0.243 C 
ATOM      4  H   UNL     1       0.851   9.167   4.727  1.00  0.00     0.164 HD
ENDROOT
BRANCH   2   5
ATOM      5  C   UNL     1       2.692  10.245   4.525  1.00  0.00     0.171 C 
ATOM      6  C   UNL     1       4.866   8.333   4.375  1.00  0.00     0.214 C 
ATOM      7  N   UNL     1       4.407   8.787   5.667  1.00  0.00    -0.303 N 
ATOM      8  C   UNL     1       4.692   9.369   3.276  1.00  0.00     0.057 C 
ATOM      9  C   UNL     1       3.340   9.659   5.812  1.00  0.00     0.247 C 
ATOM     10  C   UNL     1       3.236   9.771   3.178  1.00  0.00     0.040 C 
ATOM     11  O   UNL     1       2.898   9.975   6.924  1.00  0.00    -0.272 OA
BRANCH   6  12
ATOM     12  O   UNL     1       4.162   7.155   4.057  1.00  0.00    -0.373 OA
ATOM     13  H   UNL     1       3.465   7.044   4.739  1.00  0.00     0.213 HD
ENDBRANCH   6  12
BRANCH   7  14
ATOM     14  C   UNL     1       5.029   8.166   6.856  1.00  0.00     0.177 C 
BRANCH  14  15
ATOM     15  C   UNL     1       4.313   6.911   7.391  1.00  0.00     0.038 C 
BRANCH  15  16
ATOM     16  C   UNL     1       3.692   6.934   8.805  1.00  0.00    -0.015 C 
ATOM     17  C   UNL     1       4.150   8.144   9.625  1.00  0.00     0.007 C 
ATOM     18  C   UNL     1       4.086   5.661   9.566  1.00  0.00     0.007 C 
ENDBRANCH  15  16
ENDBRANCH  14  15
BRANCH  14  19
ATOM     19  C   UNL     1       6.581   8.384   6.833  1.00  0.00     0.245 C 
ATOM     20  O   UNL     1       7.123   8.435   5.716  1.00  0.00    -0.272 OA
BRANCH  19  21
ATOM     21  N   UNL     1       7.373   8.408   7.968  1.00  0.00    -0.332 N 
ATOM     22  C   UNL     1       7.912   9.602   8.594  1.00  0.00     0.147 C 
BRANCH  21  23
ATOM     23  C   UNL     1       7.718   7.107   8.604  1.00  0.00     0.178 C 
BRANCH  23  24
ATOM     24  C   UNL     1       7.939   5.944   7.615  1.00  0.00     0.070 C 
BRANCH  24  25
ATOM     25  C   UNL     1       7.192   4.659   7.886  1.00  0.00    -0.045 A 
ATOM     26  C   UNL     1       6.188   4.216   7.016  1.00  0.00     0.004 A 
ATOM     27  C   UNL     1       7.493   3.891   9.021  1.00  0.00     0.004 A 
ATOM     28  C   UNL     1       5.490   3.036   7.282  1.00  0.00     0.000 A 
ATOM     29  C   UNL     1       6.796   2.711   9.285  1.00  0.00     0.000 A 
ATOM     30  C   UNL     1       5.793   2.286   8.416  1.00  0.00     0.000 A 
ENDBRANCH  24  25
ENDBRANCH  23  24
BRANCH  23  31
ATOM     31  C   UNL     1       8.796   7.240   9.705  1.00  0.00     0.243 C 
ATOM     32  O   UNL     1       8.545   7.431  10.893  1.00  0.00    -0.273 OA
ATOM     33  N   UNL     1      10.087   7.311   9.210  1.00  0.00    -0.341 N 
ATOM     34  H   UNL     1      10.233   7.149   8.210  1.00  0.00     0.164 HD
BRANCH  33  35
ATOM     35  C   UNL     1      11.256   7.556  10.059  1.00  0.00     0.194 C 
BRANCH  35  36
ATOM     36  C   UNL     1      12.268   8.577   9.466  1.00  0.00     0.017 C 
ATOM     37  C   UNL     1      13.237   9.094  10.543  1.00  0.00     0.010 C 
ATOM     38  C   UNL     1      11.593   9.799   8.832  1.00  0.00     0.010 C 
ENDBRANCH  35  36
BRANCH  35  39
ATOM     39  C   UNL     1      11.954   6.243  10.510  1.00  0.00     0.329 C 
ATOM     40  O   UNL     1      11.741   5.686  11.581  1.00  0.00    -0.250 OA
BRANCH  39  41
ATOM     41  O   UNL     1      12.769   5.728   9.541  1.00  0.00    -0.458 OA
BRANCH  41  42
ATOM     42  C   UNL     1      14.014   5.145   9.994  1.00  0.00     0.205 CG0
ATOM     43  C   UNL     1      14.126   3.761   9.358  1.00  0.00     0.056 C 
ATOM     44  G   UNL     1      13.998   5.086  11.535  1.00  0.00     0.000 G0
ENDBRANCH  41  42
ENDBRANCH  39  41
ENDBRANCH  35  39
ENDBRANCH  33  35
ENDBRANCH  23  31
ENDBRANCH  21  23
ENDBRANCH  19  21
ENDBRANCH  14  19
ENDBRANCH   7  14
ENDBRANCH   2   5
BRANCH   3  45
ATOM     45  C   UNL     1      -1.078  10.902   4.735  1.00  0.00     0.171 C 
BRANCH  45  46
ATOM     46  N   UNL     1      -1.754  11.615   3.659  1.00  0.00    -0.342 N 
ATOM     47  C   UNL     1      -2.292  10.970   2.574  1.00  0.00     0.247 C 
ATOM     48  O   UNL     1      -2.308   9.743   2.465  1.00  0.00    -0.273 OA
ATOM     49  H   UNL     1      -1.813  12.628   3.736  1.00  0.00     0.164 HD
BRANCH  47  50
ATOM     50  C   UNL     1      -2.853  11.892   1.482  1.00  0.00     0.212 CG0
ATOM     51  G   UNL     1      -3.205  13.239   2.143  1.00  0.00     0.000 G0
BRANCH  50  52
ATOM     52  N   UNL     1      -1.795  11.999   0.481  1.00  0.00    -0.339 N 
ATOM     53  C   UNL     1      -1.102  13.159   0.235  1.00  0.00     0.243 C 
ATOM     54  O   UNL     1      -1.357  14.216   0.806  1.00  0.00    -0.273 OA
ATOM     55  H   UNL     1      -1.612  11.185  -0.103  1.00  0.00     0.164 HD
BRANCH  53  56
ATOM     56  C   UNL     1      -0.092  13.053  -0.926  1.00  0.00     0.182 C 
BRANCH  56  57
ATOM     57  N   UNL     1       0.134  11.654  -1.301  1.00  0.00    -0.344 N 
ATOM     58  C   UNL     1      -0.448  11.086  -2.408  1.00  0.00     0.220 C 
ATOM     59  O   UNL     1      -1.251  11.683  -3.116  1.00  0.00    -0.275 OA
ATOM     60  H   UNL     1       0.867  11.156  -0.803  1.00  0.00     0.164 HD
BRANCH  58  61
ATOM     61  C   UNL     1      -0.028   9.645  -2.636  1.00  0.00     0.100 C 
BRANCH  61  62
ATOM     62  C   UNL     1       1.482   9.422  -2.541  1.00  0.00     0.010 C 
BRANCH  62  63
ATOM     63  C   UNL     1       2.207   9.459  -3.893  1.00  0.00     0.000 C 
BRANCH  63  64
ATOM     64  C   UNL     1       1.310   9.821  -5.076  1.00  0.00    -0.003 C 
ATOM     65  C   UNL     1       1.612  11.220  -5.594  1.00  0.00     0.004 C 
ENDBRANCH  63  64
ENDBRANCH  62  63
ENDBRANCH  61  62
ENDBRANCH  58  61
ENDBRANCH  56  57
BRANCH  56  66
ATOM     66  C   UNL     1       1.212  13.781  -0.603  1.00  0.00     0.157 C 
BRANCH  66  67
ATOM     67  C   UNL     1       2.206  12.857   0.040  1.00  0.00     0.305 C 
ATOM     68  O   UNL     1       3.152  12.308  -0.503  1.00  0.00    -0.252 OA
BRANCH  67  69
ATOM     69  O   UNL     1       1.988  12.710   1.360  1.00  0.00    -0.481 OA
ATOM     70  H   UNL     1       1.016  12.613   1.444  1.00  0.00     0.296 HD
ENDBRANCH  67  69
ENDBRANCH  66  67
ENDBRANCH  56  66
ENDBRANCH  53  56
ENDBRANCH  50  52
ENDBRANCH  47  50
ENDBRANCH  45  46
BRANCH  45  71
ATOM     71  C   UNL     1      -1.549  11.381   6.113  1.00  0.00     0.037 C 
BRANCH  71  72
ATOM     72  C   UNL     1      -2.757  12.316   6.016  1.00  0.00     0.026 C 
BRANCH  72  73
ATOM     73  C   UNL     1      -2.941  13.129   7.295  1.00  0.00     0.146 C 
BRANCH  73  74
ATOM     74  N   UNL     1      -4.359  13.105   7.640  1.00  0.00    -0.254 NA
ATOM     75  C   UNL     1      -4.693  13.456   8.827  1.00  0.00     0.185 C 
ATOM     76  N   UNL     1      -5.990  13.445   9.174  1.00  0.00    -0.370 N 
ATOM     77  N   UNL     1      -3.907  13.856   9.842  1.00  0.00    -0.370 N 
ATOM     78  H   UNL     1      -6.650  13.149   8.469  1.00  0.00     0.159 HD
ATOM     79  H   UNL     1      -6.311  13.565  10.118  1.00  0.00     0.159 HD
ATOM     80  H   UNL     1      -2.907  13.916   9.725  1.00  0.00     0.159 HD
ATOM     81  H   UNL     1      -4.294  14.218  10.698  1.00  0.00     0.159 HD
ENDBRANCH  73  74
ENDBRANCH  72  73
ENDBRANCH  71  72
ENDBRANCH  45  71
ENDBRANCH   3  45
TORSDOF 20
ENDMDL
MODEL 34
REMARK VINA RESULT:    -4.666      7.994     12.848
REMARK INTER + INTRA:         -20.838
REMARK INTER:                 -13.952
REMARK INTRA:                  -6.886
REMARK UNBOUND:                -7.444
REMARK SMILES CCCCCC(=O)N[C@H](CC(=O)O)C(=O)N[C@H]1C(=O)N[C@H](CCCN=C(N)N)C(=O)N[C@@H]2CC[C@H](O)N(C2=O)[C@@H](CC(C)C)C(=O)N(C)[C@@H](Cc2ccccc2)C(=O)N[C@H](C(C)C)C(=O)O[C@@H]1C
REMARK SMILES IDX 30 1 31 2 29 3 32 5 35 6 37 7 34 8 38 9 33 10 39 11 36 12
REMARK SMILES IDX 40 14 41 15 42 16 43 17 44 18 45 19 46 20 47 21 48 22 49 23
REMARK SMILES IDX 50 24 51 25 52 26 56 27 53 28 55 29 54 30 57 31 58 32 59 33
REMARK SMILES IDX 60 35 61 36 62 37 63 38 64 39 65 40 66 41 67 42 68 43 21 45
REMARK SMILES IDX 20 46 18 47 19 48 17 50 16 52 14 53 15 54 9 56 8 57 6 58
REMARK SMILES IDX 7 59 5 61 4 62 3 63 2 64 1 65 10 66 11 67 12 68 13 69 22 71
REMARK SMILES IDX 23 72 24 73 25 74 26 75 27 76 28 77
REMARK H PARENT 31 4 36 13 59 34 20 49 16 55 8 60 13 70 27 78 27 79 28 80
REMARK H PARENT 28 81
REMARK Flexibility Score:  259.900
ROOT
ATOM      1  O   UNL     1       1.381   8.304   2.387  1.00  0.00    -0.273 OA
ATOM      2  N   UNL     1       1.741  10.445   3.108  1.00  0.00    -0.343 N 
ATOM      3  C   UNL     1       1.313   9.517   2.182  1.00  0.00     0.243 C 
ATOM      4  H   UNL     1       1.656  11.435   2.911  1.00  0.00     0.164 HD
ENDROOT
BRANCH   2   5
ATOM      5  C   UNL     1       2.407  10.019   4.333  1.00  0.00     0.171 C 
ATOM      6  C   UNL     1       3.973  11.443   6.315  1.00  0.00     0.214 C 
ATOM      7  N   UNL     1       4.639  10.832   5.188  1.00  0.00    -0.303 N 
ATOM      8  C   UNL     1       2.705  10.714   6.731  1.00  0.00     0.057 C 
ATOM      9  C   UNL     1       3.947  10.181   4.180  1.00  0.00     0.247 C 
ATOM     10  C   UNL     1       1.747  10.643   5.562  1.00  0.00     0.040 C 
ATOM     11  O   UNL     1       4.517   9.736   3.175  1.00  0.00    -0.272 OA
BRANCH   6  12
ATOM     12  O   UNL     1       3.683  12.778   5.971  1.00  0.00    -0.373 OA
ATOM     13  H   UNL     1       3.017  13.102   6.614  1.00  0.00     0.213 HD
ENDBRANCH   6  12
BRANCH   7  14
ATOM     14  C   UNL     1       6.096  11.054   5.070  1.00  0.00     0.177 C 
BRANCH  14  15
ATOM     15  C   UNL     1       6.600  12.405   5.614  1.00  0.00     0.038 C 
BRANCH  15  16
ATOM     16  C   UNL     1       7.140  13.467   4.632  1.00  0.00    -0.015 C 
ATOM     17  C   UNL     1       8.596  13.844   4.920  1.00  0.00     0.007 C 
ATOM     18  C   UNL     1       6.287  14.739   4.724  1.00  0.00     0.007 C 
ENDBRANCH  15  16
ENDBRANCH  14  15
BRANCH  14  19
ATOM     19  C   UNL     1       6.863   9.691   5.173  1.00  0.00     0.245 C 
ATOM     20  O   UNL     1       6.844   9.120   6.276  1.00  0.00    -0.272 OA
BRANCH  19  21
ATOM     21  N   UNL     1       7.637   9.163   4.154  1.00  0.00    -0.332 N 
ATOM     22  C   UNL     1       7.553   7.803   3.650  1.00  0.00     0.147 C 
BRANCH  21  23
ATOM     23  C   UNL     1       8.652  10.048   3.520  1.00  0.00     0.178 C 
BRANCH  23  24
ATOM     24  C   UNL     1      10.116   9.624   3.756  1.00  0.00     0.070 C 
BRANCH  24  25
ATOM     25  C   UNL     1      11.192  10.581   3.297  1.00  0.00    -0.045 A 
ATOM     26  C   UNL     1      11.896  10.351   2.108  1.00  0.00     0.004 A 
ATOM     27  C   UNL     1      11.506  11.714   4.062  1.00  0.00     0.004 A 
ATOM     28  C   UNL     1      12.901  11.231   1.699  1.00  0.00     0.000 A 
ATOM     29  C   UNL     1      12.509  12.593   3.652  1.00  0.00     0.000 A 
ATOM     30  C   UNL     1      13.208  12.348   2.471  1.00  0.00     0.000 A 
ENDBRANCH  24  25
ENDBRANCH  23  24
BRANCH  23  31
ATOM     31  C   UNL     1       8.307  10.411   2.056  1.00  0.00     0.243 C 
ATOM     32  O   UNL     1       8.341   9.612   1.124  1.00  0.00    -0.273 OA
ATOM     33  N   UNL     1       8.133  11.769   1.849  1.00  0.00    -0.341 N 
ATOM     34  H   UNL     1       8.121  12.387   2.664  1.00  0.00     0.164 HD
BRANCH  33  35
ATOM     35  C   UNL     1       7.917  12.354   0.523  1.00  0.00     0.194 C 
BRANCH  35  36
ATOM     36  C   UNL     1       9.181  13.018  -0.093  1.00  0.00     0.017 C 
ATOM     37  C   UNL     1      10.038  11.991  -0.852  1.00  0.00     0.010 C 
ATOM     38  C   UNL     1      10.082  13.685   0.953  1.00  0.00     0.010 C 
ENDBRANCH  35  36
BRANCH  35  39
ATOM     39  C   UNL     1       6.685  13.301   0.481  1.00  0.00     0.329 C 
ATOM     40  O   UNL     1       6.630  14.382   1.055  1.00  0.00    -0.250 OA
BRANCH  39  41
ATOM     41  O   UNL     1       5.697  12.833  -0.342  1.00  0.00    -0.458 OA
BRANCH  41  42
ATOM     42  C   UNL     1       4.508  12.326   0.308  1.00  0.00     0.205 CG0
ATOM     43  C   UNL     1       4.765  10.859   0.645  1.00  0.00     0.056 C 
ATOM     44  G   UNL     1       3.310  12.511  -0.644  1.00  0.00     0.000 G0
ENDBRANCH  41  42
ENDBRANCH  39  41
ENDBRANCH  35  39
ENDBRANCH  33  35
ENDBRANCH  23  31
ENDBRANCH  21  23
ENDBRANCH  19  21
ENDBRANCH  14  19
ENDBRANCH   7  14
ENDBRANCH   2   5
BRANCH   3  45
ATOM     45  C   UNL     1       0.728  10.100   0.889  1.00  0.00     0.171 C 
BRANCH  45  46
ATOM     46  N   UNL     1       1.561  11.250   0.563  1.00  0.00    -0.342 N 
ATOM     47  C   UNL     1       2.373  11.282  -0.542  1.00  0.00     0.247 C 
ATOM     48  O   UNL     1       2.403  10.376  -1.376  1.00  0.00    -0.273 OA
ATOM     49  H   UNL     1       1.525  12.046   1.198  1.00  0.00     0.164 HD
BRANCH  47  50
ATOM     50  C   UNL     1       3.270  12.523  -0.655  1.00  0.00     0.212 CG0
ATOM     51  G   UNL     1       4.470  12.320   0.291  1.00  0.00     0.000 G0
BRANCH  50  52
ATOM     52  N   UNL     1       3.651  12.601  -2.063  1.00  0.00    -0.339 N 
ATOM     53  C   UNL     1       3.036  13.431  -2.968  1.00  0.00     0.243 C 
ATOM     54  O   UNL     1       2.076  14.138  -2.671  1.00  0.00    -0.273 OA
ATOM     55  H   UNL     1       4.368  11.958  -2.395  1.00  0.00     0.164 HD
BRANCH  53  56
ATOM     56  C   UNL     1       3.552  13.278  -4.413  1.00  0.00     0.182 C 
BRANCH  56  57
ATOM     57  N   UNL     1       3.738  11.864  -4.757  1.00  0.00    -0.344 N 
ATOM     58  C   UNL     1       3.263  11.323  -5.927  1.00  0.00     0.220 C 
ATOM     59  O   UNL     1       2.590  11.962  -6.728  1.00  0.00    -0.275 OA
ATOM     60  H   UNL     1       4.374  11.328  -4.173  1.00  0.00     0.164 HD
BRANCH  58  61
ATOM     61  C   UNL     1       3.622   9.859  -6.102  1.00  0.00     0.100 C 
BRANCH  61  62
ATOM     62  C   UNL     1       4.923   9.631  -6.872  1.00  0.00     0.010 C 
BRANCH  62  63
ATOM     63  C   UNL     1       5.018   8.259  -7.550  1.00  0.00     0.000 C 
BRANCH  63  64
ATOM     64  C   UNL     1       6.230   8.095  -8.467  1.00  0.00    -0.003 C 
ATOM     65  C   UNL     1       6.852   6.714  -8.323  1.00  0.00     0.004 C 
ENDBRANCH  63  64
ENDBRANCH  62  63
ENDBRANCH  61  62
ENDBRANCH  58  61
ENDBRANCH  56  57
BRANCH  56  66
ATOM     66  C   UNL     1       4.818  14.100  -4.646  1.00  0.00     0.157 C 
BRANCH  66  67
ATOM     67  C   UNL     1       6.047  13.239  -4.571  1.00  0.00     0.305 C 
ATOM     68  O   UNL     1       6.712  12.829  -5.510  1.00  0.00    -0.252 OA
BRANCH  67  69
ATOM     69  O   UNL     1       6.412  12.978  -3.302  1.00  0.00    -0.481 OA
ATOM     70  H   UNL     1       6.051  13.724  -2.779  1.00  0.00     0.296 HD
ENDBRANCH  67  69
ENDBRANCH  66  67
ENDBRANCH  56  66
ENDBRANCH  53  56
ENDBRANCH  50  52
ENDBRANCH  47  50
ENDBRANCH  45  46
BRANCH  45  71
ATOM     71  C   UNL     1      -0.735  10.503   1.099  1.00  0.00     0.037 C 
BRANCH  71  72
ATOM     72  C   UNL     1      -0.988  11.967   0.732  1.00  0.00     0.026 C 
BRANCH  72  73
ATOM     73  C   UNL     1      -1.823  12.090  -0.540  1.00  0.00     0.146 C 
BRANCH  73  74
ATOM     74  N   UNL     1      -0.911  12.354  -1.650  1.00  0.00    -0.254 NA
ATOM     75  C   UNL     1      -0.636  11.384  -2.442  1.00  0.00     0.185 C 
ATOM     76  N   UNL     1       0.199  11.596  -3.472  1.00  0.00    -0.370 N 
ATOM     77  N   UNL     1      -1.073  10.113  -2.406  1.00  0.00    -0.370 N 
ATOM     78  H   UNL     1       0.581  12.526  -3.568  1.00  0.00     0.159 HD
ATOM     79  H   UNL     1       0.572  10.858  -4.043  1.00  0.00     0.159 HD
ATOM     80  H   UNL     1      -1.712   9.810  -1.686  1.00  0.00     0.159 HD
ATOM     81  H   UNL     1      -0.878   9.466  -3.152  1.00  0.00     0.159 HD
ENDBRANCH  73  74
ENDBRANCH  72  73
ENDBRANCH  71  72
ENDBRANCH  45  71
ENDBRANCH   3  45
TORSDOF 20
ENDMDL
MODEL 35
REMARK VINA RESULT:    -4.665      5.127     13.232
REMARK INTER + INTRA:         -20.837
REMARK INTER:                 -15.990
REMARK INTRA:                  -4.847
REMARK UNBOUND:                -7.444
REMARK SMILES CCCCCC(=O)N[C@H](CC(=O)O)C(=O)N[C@H]1C(=O)N[C@H](CCCN=C(N)N)C(=O)N[C@@H]2CC[C@H](O)N(C2=O)[C@@H](CC(C)C)C(=O)N(C)[C@@H](Cc2ccccc2)C(=O)N[C@H](C(C)C)C(=O)O[C@@H]1C
REMARK SMILES IDX 30 1 31 2 29 3 32 5 35 6 37 7 34 8 38 9 33 10 39 11 36 12
REMARK SMILES IDX 40 14 41 15 42 16 43 17 44 18 45 19 46 20 47 21 48 22 49 23
REMARK SMILES IDX 50 24 51 25 52 26 56 27 53 28 55 29 54 30 57 31 58 32 59 33
REMARK SMILES IDX 60 35 61 36 62 37 63 38 64 39 65 40 66 41 67 42 68 43 21 45
REMARK SMILES IDX 20 46 18 47 19 48 17 50 16 52 14 53 15 54 9 56 8 57 6 58
REMARK SMILES IDX 7 59 5 61 4 62 3 63 2 64 1 65 10 66 11 67 12 68 13 69 22 71
REMARK SMILES IDX 23 72 24 73 25 74 26 75 27 76 28 77
REMARK H PARENT 31 4 36 13 59 34 20 49 16 55 8 60 13 70 27 78 27 79 28 80
REMARK H PARENT 28 81
REMARK Flexibility Score:  259.900
ROOT
ATOM      1  O   UNL     1       4.859   9.694   2.814  1.00  0.00    -0.273 OA
ATOM      2  N   UNL     1       3.863   8.010   3.998  1.00  0.00    -0.343 N 
ATOM      3  C   UNL     1       3.840   9.076   3.125  1.00  0.00     0.243 C 
ATOM      4  H   UNL     1       3.007   7.516   4.219  1.00  0.00     0.164 HD
ENDROOT
BRANCH   2   5
ATOM      5  C   UNL     1       5.094   7.642   4.689  1.00  0.00     0.171 C 
ATOM      6  C   UNL     1       5.886   5.277   6.166  1.00  0.00     0.214 C 
ATOM      7  N   UNL     1       5.273   6.380   6.868  1.00  0.00    -0.303 N 
ATOM      8  C   UNL     1       6.681   5.709   4.944  1.00  0.00     0.057 C 
ATOM      9  C   UNL     1       4.825   7.518   6.216  1.00  0.00     0.247 C 
ATOM     10  C   UNL     1       5.785   6.471   3.993  1.00  0.00     0.040 C 
ATOM     11  O   UNL     1       4.222   8.421   6.812  1.00  0.00    -0.272 OA
BRANCH   6  12
ATOM     12  O   UNL     1       4.865   4.380   5.797  1.00  0.00    -0.373 OA
ATOM     13  H   UNL     1       4.495   4.700   4.947  1.00  0.00     0.213 HD
ENDBRANCH   6  12
BRANCH   7  14
ATOM     14  C   UNL     1       5.002   6.191   8.309  1.00  0.00     0.177 C 
BRANCH  14  15
ATOM     15  C   UNL     1       3.548   5.818   8.660  1.00  0.00     0.038 C 
BRANCH  15  16
ATOM     16  C   UNL     1       2.876   6.457   9.895  1.00  0.00    -0.015 C 
ATOM     17  C   UNL     1       3.667   7.650  10.439  1.00  0.00     0.007 C 
ATOM     18  C   UNL     1       2.749   5.414  11.014  1.00  0.00     0.007 C 
ENDBRANCH  15  16
ENDBRANCH  14  15
BRANCH  14  19
ATOM     19  C   UNL     1       6.279   5.643   9.035  1.00  0.00     0.245 C 
ATOM     20  O   UNL     1       7.378   5.985   8.567  1.00  0.00    -0.272 OA
BRANCH  19  21
ATOM     21  N   UNL     1       6.243   4.731  10.074  1.00  0.00    -0.332 N 
ATOM     22  C   UNL     1       6.311   5.060  11.487  1.00  0.00     0.147 C 
BRANCH  21  23
ATOM     23  C   UNL     1       6.139   3.286   9.729  1.00  0.00     0.178 C 
BRANCH  23  24
ATOM     24  C   UNL     1       4.977   2.933   8.778  1.00  0.00     0.070 C 
BRANCH  24  25
ATOM     25  C   UNL     1       3.898   2.023   9.318  1.00  0.00    -0.045 A 
ATOM     26  C   UNL     1       2.546   2.285   9.066  1.00  0.00     0.004 A 
ATOM     27  C   UNL     1       4.239   0.900  10.087  1.00  0.00     0.004 A 
ATOM     28  C   UNL     1       1.554   1.449   9.583  1.00  0.00     0.000 A 
ATOM     29  C   UNL     1       3.247   0.064  10.602  1.00  0.00     0.000 A 
ATOM     30  C   UNL     1       1.905   0.341  10.352  1.00  0.00     0.000 A 
ENDBRANCH  24  25
ENDBRANCH  23  24
BRANCH  23  31
ATOM     31  C   UNL     1       7.501   2.654   9.357  1.00  0.00     0.243 C 
ATOM     32  O   UNL     1       8.128   2.926   8.336  1.00  0.00    -0.273 OA
ATOM     33  N   UNL     1       7.872   1.610  10.187  1.00  0.00    -0.341 N 
ATOM     34  H   UNL     1       7.306   1.427  11.019  1.00  0.00     0.164 HD
BRANCH  33  35
ATOM     35  C   UNL     1       9.063   0.789   9.954  1.00  0.00     0.194 C 
BRANCH  35  36
ATOM     36  C   UNL     1       8.831  -0.736  10.152  1.00  0.00     0.017 C 
ATOM     37  C   UNL     1       8.632  -1.451   8.804  1.00  0.00     0.010 C 
ATOM     38  C   UNL     1       7.611  -1.054  11.025  1.00  0.00     0.010 C 
ENDBRANCH  35  36
BRANCH  35  39
ATOM     39  C   UNL     1      10.302   1.295  10.744  1.00  0.00     0.329 C 
ATOM     40  O   UNL     1      11.126   2.083  10.296  1.00  0.00    -0.250 OA
BRANCH  39  41
ATOM     41  O   UNL     1      10.324   0.829  12.030  1.00  0.00    -0.458 OA
BRANCH  41  42
ATOM     42  C   UNL     1      11.611   0.395  12.532  1.00  0.00     0.205 CG0
ATOM     43  C   UNL     1      11.479  -1.081  12.902  1.00  0.00     0.056 C 
ATOM     44  G   UNL     1      11.990   1.275  13.740  1.00  0.00     0.000 G0
ENDBRANCH  41  42
ENDBRANCH  39  41
ENDBRANCH  35  39
ENDBRANCH  33  35
ENDBRANCH  23  31
ENDBRANCH  21  23
ENDBRANCH  19  21
ENDBRANCH  14  19
ENDBRANCH   7  14
ENDBRANCH   2   5
BRANCH   3  45
ATOM     45  C   UNL     1       2.461   9.425   2.550  1.00  0.00     0.171 C 
BRANCH  45  46
ATOM     46  N   UNL     1       2.565  10.802   2.084  1.00  0.00    -0.342 N 
ATOM     47  C   UNL     1       1.837  11.277   1.023  1.00  0.00     0.247 C 
ATOM     48  O   UNL     1       0.992  10.600   0.435  1.00  0.00    -0.273 OA
ATOM     49  H   UNL     1       3.212  11.413   2.579  1.00  0.00     0.164 HD
BRANCH  47  50
ATOM     50  C   UNL     1       2.170  12.714   0.597  1.00  0.00     0.212 CG0
ATOM     51  G   UNL     1       1.087  13.639   1.186  1.00  0.00     0.000 G0
BRANCH  50  52
ATOM     52  N   UNL     1       3.505  12.978   1.128  1.00  0.00    -0.339 N 
ATOM     53  C   UNL     1       4.596  13.240   0.334  1.00  0.00     0.243 C 
ATOM     54  O   UNL     1       4.542  13.220  -0.892  1.00  0.00    -0.273 OA
ATOM     55  H   UNL     1       3.638  12.899   2.134  1.00  0.00     0.164 HD
BRANCH  53  56
ATOM     56  C   UNL     1       5.916  13.401   1.115  1.00  0.00     0.182 C 
BRANCH  56  57
ATOM     57  N   UNL     1       6.996  12.633   0.488  1.00  0.00    -0.344 N 
ATOM     58  C   UNL     1       7.951  13.219  -0.305  1.00  0.00     0.220 C 
ATOM     59  O   UNL     1       7.928  14.408  -0.603  1.00  0.00    -0.275 OA
ATOM     60  H   UNL     1       7.110  11.669   0.789  1.00  0.00     0.164 HD
BRANCH  58  61
ATOM     61  C   UNL     1       9.004  12.244  -0.800  1.00  0.00     0.100 C 
BRANCH  61  62
ATOM     62  C   UNL     1      10.432  12.630  -0.413  1.00  0.00     0.010 C 
BRANCH  62  63
ATOM     63  C   UNL     1      11.485  11.573  -0.768  1.00  0.00     0.000 C 
BRANCH  63  64
ATOM     64  C   UNL     1      12.619  12.090  -1.652  1.00  0.00    -0.003 C 
ATOM     65  C   UNL     1      13.847  12.448  -0.827  1.00  0.00     0.004 C 
ENDBRANCH  63  64
ENDBRANCH  62  63
ENDBRANCH  61  62
ENDBRANCH  58  61
ENDBRANCH  56  57
BRANCH  56  66
ATOM     66  C   UNL     1       5.740  13.048   2.591  1.00  0.00     0.157 C 
BRANCH  66  67
ATOM     67  C   UNL     1       7.028  12.563   3.192  1.00  0.00     0.305 C 
ATOM     68  O   UNL     1       8.106  13.136   3.173  1.00  0.00    -0.252 OA
BRANCH  67  69
ATOM     69  O   UNL     1       6.881  11.391   3.838  1.00  0.00    -0.481 OA
ATOM     70  H   UNL     1       7.439  11.477   4.640  1.00  0.00     0.296 HD
ENDBRANCH  67  69
ENDBRANCH  66  67
ENDBRANCH  56  66
ENDBRANCH  53  56
ENDBRANCH  50  52
ENDBRANCH  47  50
ENDBRANCH  45  46
BRANCH  45  71
ATOM     71  C   UNL     1       1.380   9.273   3.627  1.00  0.00     0.037 C 
BRANCH  71  72
ATOM     72  C   UNL     1       0.196   8.434   3.139  1.00  0.00     0.026 C 
BRANCH  72  73
ATOM     73  C   UNL     1      -1.138   9.082   3.504  1.00  0.00     0.146 C 
BRANCH  73  74
ATOM     74  N   UNL     1      -1.671   9.714   2.300  1.00  0.00    -0.254 NA
ATOM     75  C   UNL     1      -2.213  10.869   2.420  1.00  0.00     0.185 C 
ATOM     76  N   UNL     1      -2.712  11.476   1.331  1.00  0.00    -0.370 N 
ATOM     77  N   UNL     1      -2.372  11.617   3.526  1.00  0.00    -0.370 N 
ATOM     78  H   UNL     1      -2.639  10.977   0.456  1.00  0.00     0.159 HD
ATOM     79  H   UNL     1      -3.274  12.308   1.370  1.00  0.00     0.159 HD
ATOM     80  H   UNL     1      -2.041  11.289   4.421  1.00  0.00     0.159 HD
ATOM     81  H   UNL     1      -2.711  12.564   3.479  1.00  0.00     0.159 HD
ENDBRANCH  73  74
ENDBRANCH  72  73
ENDBRANCH  71  72
ENDBRANCH  45  71
ENDBRANCH   3  45
TORSDOF 20
ENDMDL
MODEL 36
REMARK VINA RESULT:    -4.624      3.499     11.698
REMARK INTER + INTRA:         -20.720
REMARK INTER:                 -15.120
REMARK INTRA:                  -5.600
REMARK UNBOUND:                -7.444
REMARK SMILES CCCCCC(=O)N[C@H](CC(=O)O)C(=O)N[C@H]1C(=O)N[C@H](CCCN=C(N)N)C(=O)N[C@@H]2CC[C@H](O)N(C2=O)[C@@H](CC(C)C)C(=O)N(C)[C@@H](Cc2ccccc2)C(=O)N[C@H](C(C)C)C(=O)O[C@@H]1C
REMARK SMILES IDX 30 1 31 2 29 3 32 5 35 6 37 7 34 8 38 9 33 10 39 11 36 12
REMARK SMILES IDX 40 14 41 15 42 16 43 17 44 18 45 19 46 20 47 21 48 22 49 23
REMARK SMILES IDX 50 24 51 25 52 26 56 27 53 28 55 29 54 30 57 31 58 32 59 33
REMARK SMILES IDX 60 35 61 36 62 37 63 38 64 39 65 40 66 41 67 42 68 43 21 45
REMARK SMILES IDX 20 46 18 47 19 48 17 50 16 52 14 53 15 54 9 56 8 57 6 58
REMARK SMILES IDX 7 59 5 61 4 62 3 63 2 64 1 65 10 66 11 67 12 68 13 69 22 71
REMARK SMILES IDX 23 72 24 73 25 74 26 75 27 76 28 77
REMARK H PARENT 31 4 36 13 59 34 20 49 16 55 8 60 13 70 27 78 27 79 28 80
REMARK H PARENT 28 81
REMARK Flexibility Score:  259.900
ROOT
ATOM      1  O   UNL     1       4.208   5.582  11.703  1.00  0.00    -0.273 OA
ATOM      2  N   UNL     1       3.156   7.282  12.813  1.00  0.00    -0.343 N 
ATOM      3  C   UNL     1       4.025   6.789  11.864  1.00  0.00     0.243 C 
ATOM      4  H   UNL     1       3.019   8.281  12.907  1.00  0.00     0.164 HD
ENDROOT
BRANCH   2   5
ATOM      5  C   UNL     1       2.500   6.384  13.758  1.00  0.00     0.171 C 
ATOM      6  C   UNL     1       1.881   3.553  13.670  1.00  0.00     0.214 C 
ATOM      7  N   UNL     1       0.910   4.508  13.188  1.00  0.00    -0.303 N 
ATOM      8  C   UNL     1       2.765   4.101  14.779  1.00  0.00     0.057 C 
ATOM      9  C   UNL     1       1.162   5.870  13.154  1.00  0.00     0.247 C 
ATOM     10  C   UNL     1       3.481   5.344  14.296  1.00  0.00     0.040 C 
ATOM     11  O   UNL     1       0.360   6.673  12.660  1.00  0.00    -0.272 OA
BRANCH   6  12
ATOM     12  O   UNL     1       2.665   3.144  12.572  1.00  0.00    -0.373 OA
ATOM     13  H   UNL     1       2.045   2.874  11.862  1.00  0.00     0.213 HD
ENDBRANCH   6  12
BRANCH   7  14
ATOM     14  C   UNL     1      -0.325   3.962  12.586  1.00  0.00     0.177 C 
BRANCH  14  15
ATOM     15  C   UNL     1      -1.538   3.886  13.534  1.00  0.00     0.038 C 
BRANCH  15  16
ATOM     16  C   UNL     1      -2.126   2.507  13.907  1.00  0.00    -0.015 C 
ATOM     17  C   UNL     1      -1.047   1.429  14.045  1.00  0.00     0.007 C 
ATOM     18  C   UNL     1      -3.119   2.058  12.827  1.00  0.00     0.007 C 
ENDBRANCH  15  16
ENDBRANCH  14  15
BRANCH  14  19
ATOM     19  C   UNL     1      -0.387   4.313  11.060  1.00  0.00     0.245 C 
ATOM     20  O   UNL     1      -1.470   4.745  10.629  1.00  0.00    -0.272 OA
BRANCH  19  21
ATOM     21  N   UNL     1       0.642   4.066  10.169  1.00  0.00    -0.332 N 
ATOM     22  C   UNL     1       1.562   5.061   9.646  1.00  0.00     0.147 C 
BRANCH  21  23
ATOM     23  C   UNL     1       0.826   2.669   9.689  1.00  0.00     0.178 C 
BRANCH  23  24
ATOM     24  C   UNL     1      -0.406   2.057   8.992  1.00  0.00     0.070 C 
BRANCH  24  25
ATOM     25  C   UNL     1      -1.126   0.945   9.718  1.00  0.00    -0.045 A 
ATOM     26  C   UNL     1      -0.477   0.195  10.707  1.00  0.00     0.004 A 
ATOM     27  C   UNL     1      -2.460   0.643   9.405  1.00  0.00     0.004 A 
ATOM     28  C   UNL     1      -1.144  -0.843  11.361  1.00  0.00     0.000 A 
ATOM     29  C   UNL     1      -3.126  -0.394  10.060  1.00  0.00     0.000 A 
ATOM     30  C   UNL     1      -2.466  -1.138  11.036  1.00  0.00     0.000 A 
ENDBRANCH  24  25
ENDBRANCH  23  24
BRANCH  23  31
ATOM     31  C   UNL     1       2.167   2.457   8.946  1.00  0.00     0.243 C 
ATOM     32  O   UNL     1       2.264   2.330   7.728  1.00  0.00    -0.273 OA
ATOM     33  N   UNL     1       3.240   2.238   9.792  1.00  0.00    -0.341 N 
ATOM     34  H   UNL     1       3.096   2.353  10.799  1.00  0.00     0.164 HD
BRANCH  33  35
ATOM     35  C   UNL     1       4.582   1.898   9.310  1.00  0.00     0.194 C 
BRANCH  35  36
ATOM     36  C   UNL     1       5.066   0.480   9.726  1.00  0.00     0.017 C 
ATOM     37  C   UNL     1       5.184   0.355  11.254  1.00  0.00     0.010 C 
ATOM     38  C   UNL     1       6.428   0.107   9.128  1.00  0.00     0.010 C 
ENDBRANCH  35  36
BRANCH  35  39
ATOM     39  C   UNL     1       5.633   2.992   9.646  1.00  0.00     0.329 C 
ATOM     40  O   UNL     1       6.035   3.232  10.779  1.00  0.00    -0.250 OA
BRANCH  39  41
ATOM     41  O   UNL     1       6.126   3.601   8.526  1.00  0.00    -0.458 OA
BRANCH  41  42
ATOM     42  C   UNL     1       5.239   4.530   7.858  1.00  0.00     0.205 CG0
ATOM     43  C   UNL     1       5.016   4.005   6.441  1.00  0.00     0.056 C 
ATOM     44  G   UNL     1       5.889   5.928   7.873  1.00  0.00     0.000 G0
ENDBRANCH  41  42
ENDBRANCH  39  41
ENDBRANCH  35  39
ENDBRANCH  33  35
ENDBRANCH  23  31
ENDBRANCH  21  23
ENDBRANCH  19  21
ENDBRANCH  14  19
ENDBRANCH   7  14
ENDBRANCH   2   5
BRANCH   3  45
ATOM     45  C   UNL     1       4.731   7.847  11.006  1.00  0.00     0.171 C 
BRANCH  45  46
ATOM     46  N   UNL     1       5.479   7.105  10.001  1.00  0.00    -0.342 N 
ATOM     47  C   UNL     1       4.990   6.875   8.740  1.00  0.00     0.247 C 
ATOM     48  O   UNL     1       3.920   7.339   8.343  1.00  0.00    -0.273 OA
ATOM     49  H   UNL     1       6.395   6.751  10.270  1.00  0.00     0.164 HD
BRANCH  47  50
ATOM     50  C   UNL     1       5.862   5.969   7.859  1.00  0.00     0.212 CG0
ATOM     51  G   UNL     1       5.237   4.560   7.874  1.00  0.00     0.000 G0
BRANCH  50  52
ATOM     52  N   UNL     1       5.857   6.589   6.537  1.00  0.00    -0.339 N 
ATOM     53  C   UNL     1       6.869   7.396   6.077  1.00  0.00     0.243 C 
ATOM     54  O   UNL     1       7.837   7.703   6.767  1.00  0.00    -0.273 OA
ATOM     55  H   UNL     1       5.029   6.462   5.959  1.00  0.00     0.164 HD
BRANCH  53  56
ATOM     56  C   UNL     1       6.602   8.006   4.686  1.00  0.00     0.182 C 
BRANCH  56  57
ATOM     57  N   UNL     1       5.194   7.849   4.304  1.00  0.00    -0.344 N 
ATOM     58  C   UNL     1       4.485   8.849   3.684  1.00  0.00     0.220 C 
ATOM     59  O   UNL     1       4.953   9.962   3.472  1.00  0.00    -0.275 OA
ATOM     60  H   UNL     1       4.801   6.914   4.368  1.00  0.00     0.164 HD
BRANCH  58  61
ATOM     61  C   UNL     1       3.065   8.447   3.328  1.00  0.00     0.100 C 
BRANCH  61  62
ATOM     62  C   UNL     1       2.088   9.621   3.272  1.00  0.00     0.010 C 
BRANCH  62  63
ATOM     63  C   UNL     1       0.639   9.218   2.973  1.00  0.00     0.000 C 
BRANCH  63  64
ATOM     64  C   UNL     1       0.499   8.109   1.931  1.00  0.00    -0.003 C 
ATOM     65  C   UNL     1      -0.932   8.000   1.424  1.00  0.00     0.004 C 
ENDBRANCH  63  64
ENDBRANCH  62  63
ENDBRANCH  61  62
ENDBRANCH  58  61
ENDBRANCH  56  57
BRANCH  56  66
ATOM     66  C   UNL     1       7.551   7.436   3.633  1.00  0.00     0.157 C 
BRANCH  66  67
ATOM     67  C   UNL     1       8.395   8.517   3.020  1.00  0.00     0.305 C 
ATOM     68  O   UNL     1       9.182   9.250   3.600  1.00  0.00    -0.252 OA
BRANCH  67  69
ATOM     69  O   UNL     1       8.244   8.589   1.684  1.00  0.00    -0.481 OA
ATOM     70  H   UNL     1       7.287   8.759   1.549  1.00  0.00     0.296 HD
ENDBRANCH  67  69
ENDBRANCH  66  67
ENDBRANCH  56  66
ENDBRANCH  53  56
ENDBRANCH  50  52
ENDBRANCH  47  50
ENDBRANCH  45  46
BRANCH  45  71
ATOM     71  C   UNL     1       5.653   8.710  11.875  1.00  0.00     0.037 C 
BRANCH  71  72
ATOM     72  C   UNL     1       6.404   9.759  11.052  1.00  0.00     0.026 C 
BRANCH  72  73
ATOM     73  C   UNL     1       7.769  10.077  11.660  1.00  0.00     0.146 C 
BRANCH  73  74
ATOM     74  N   UNL     1       8.763   9.990  10.595  1.00  0.00    -0.254 NA
ATOM     75  C   UNL     1       9.513   8.951  10.559  1.00  0.00     0.185 C 
ATOM     76  N   UNL     1      10.437   8.842   9.590  1.00  0.00    -0.370 N 
ATOM     77  N   UNL     1       9.524   7.888  11.382  1.00  0.00    -0.370 N 
ATOM     78  H   UNL     1      10.500   9.604   8.931  1.00  0.00     0.159 HD
ATOM     79  H   UNL     1      11.150   8.134   9.583  1.00  0.00     0.159 HD
ATOM     80  H   UNL     1       8.879   7.831  12.156  1.00  0.00     0.159 HD
ATOM     81  H   UNL     1      10.083   7.074  11.186  1.00  0.00     0.159 HD
ENDBRANCH  73  74
ENDBRANCH  72  73
ENDBRANCH  71  72
ENDBRANCH  45  71
ENDBRANCH   3  45
TORSDOF 20
ENDMDL
MODEL 37
REMARK VINA RESULT:    -4.620      5.633     12.093
REMARK INTER + INTRA:         -20.707
REMARK INTER:                 -13.944
REMARK INTRA:                  -6.763
REMARK UNBOUND:                -7.444
REMARK SMILES CCCCCC(=O)N[C@H](CC(=O)O)C(=O)N[C@H]1C(=O)N[C@H](CCCN=C(N)N)C(=O)N[C@@H]2CC[C@H](O)N(C2=O)[C@@H](CC(C)C)C(=O)N(C)[C@@H](Cc2ccccc2)C(=O)N[C@H](C(C)C)C(=O)O[C@@H]1C
REMARK SMILES IDX 30 1 31 2 29 3 32 5 35 6 37 7 34 8 38 9 33 10 39 11 36 12
REMARK SMILES IDX 40 14 41 15 42 16 43 17 44 18 45 19 46 20 47 21 48 22 49 23
REMARK SMILES IDX 50 24 51 25 52 26 56 27 53 28 55 29 54 30 57 31 58 32 59 33
REMARK SMILES IDX 60 35 61 36 62 37 63 38 64 39 65 40 66 41 67 42 68 43 21 45
REMARK SMILES IDX 20 46 18 47 19 48 17 50 16 52 14 53 15 54 9 56 8 57 6 58
REMARK SMILES IDX 7 59 5 61 4 62 3 63 2 64 1 65 10 66 11 67 12 68 13 69 22 71
REMARK SMILES IDX 23 72 24 73 25 74 26 75 27 76 28 77
REMARK H PARENT 31 4 36 13 59 34 20 49 16 55 8 60 13 70 27 78 27 79 28 80
REMARK H PARENT 28 81
REMARK Flexibility Score:  259.900
ROOT
ATOM      1  O   UNL     1       1.196   2.653   9.179  1.00  0.00    -0.273 OA
ATOM      2  N   UNL     1       2.109   0.885  10.308  1.00  0.00    -0.343 N 
ATOM      3  C   UNL     1       2.144   1.889   9.364  1.00  0.00     0.243 C 
ATOM      4  H   UNL     1       2.913   0.285  10.442  1.00  0.00     0.164 HD
ENDROOT
BRANCH   2   5
ATOM      5  C   UNL     1       0.886   0.611  11.054  1.00  0.00     0.171 C 
ATOM      6  C   UNL     1      -1.812   1.654  10.856  1.00  0.00     0.214 C 
ATOM      7  N   UNL     1      -0.865   2.296  11.738  1.00  0.00    -0.303 N 
ATOM      8  C   UNL     1      -1.561   0.164  10.686  1.00  0.00     0.057 C 
ATOM      9  C   UNL     1       0.452   1.880  11.842  1.00  0.00     0.247 C 
ATOM     10  C   UNL     1      -0.159  -0.064  10.167  1.00  0.00     0.040 C 
ATOM     11  O   UNL     1       1.279   2.489  12.534  1.00  0.00    -0.272 OA
BRANCH   6  12
ATOM     12  O   UNL     1      -1.752   2.308   9.610  1.00  0.00    -0.373 OA
ATOM     13  H   UNL     1      -2.666   2.587   9.388  1.00  0.00     0.213 HD
ENDBRANCH   6  12
BRANCH   7  14
ATOM     14  C   UNL     1      -1.317   3.522  12.428  1.00  0.00     0.177 C 
BRANCH  14  15
ATOM     15  C   UNL     1      -1.984   4.576  11.524  1.00  0.00     0.038 C 
BRANCH  15  16
ATOM     16  C   UNL     1      -1.174   5.810  11.067  1.00  0.00    -0.015 C 
ATOM     17  C   UNL     1       0.329   5.644  11.311  1.00  0.00     0.007 C 
ATOM     18  C   UNL     1      -1.650   7.054  11.827  1.00  0.00     0.007 C 
ENDBRANCH  15  16
ENDBRANCH  14  15
BRANCH  14  19
ATOM     19  C   UNL     1      -1.741   3.192  13.901  1.00  0.00     0.245 C 
ATOM     20  O   UNL     1      -2.806   2.569  14.051  1.00  0.00    -0.272 OA
BRANCH  19  21
ATOM     21  N   UNL     1      -1.064   3.647  15.019  1.00  0.00    -0.332 N 
ATOM     22  C   UNL     1      -1.211   3.122  16.365  1.00  0.00     0.147 C 
BRANCH  21  23
ATOM     23  C   UNL     1      -0.110   4.776  14.843  1.00  0.00     0.178 C 
BRANCH  23  24
ATOM     24  C   UNL     1      -0.538   6.095  15.519  1.00  0.00     0.070 C 
BRANCH  24  25
ATOM     25  C   UNL     1       0.471   7.219  15.537  1.00  0.00    -0.045 A 
ATOM     26  C   UNL     1       0.760   7.943  14.373  1.00  0.00     0.004 A 
ATOM     27  C   UNL     1       1.141   7.550  16.725  1.00  0.00     0.004 A 
ATOM     28  C   UNL     1       1.706   8.969  14.394  1.00  0.00     0.000 A 
ATOM     29  C   UNL     1       2.086   8.577  16.744  1.00  0.00     0.000 A 
ATOM     30  C   UNL     1       2.370   9.284  15.578  1.00  0.00     0.000 A 
ENDBRANCH  24  25
ENDBRANCH  23  24
BRANCH  23  31
ATOM     31  C   UNL     1       1.362   4.367  15.087  1.00  0.00     0.243 C 
ATOM     32  O   UNL     1       1.782   3.915  16.149  1.00  0.00    -0.273 OA
ATOM     33  N   UNL     1       2.214   4.728  14.057  1.00  0.00    -0.341 N 
ATOM     34  H   UNL     1       1.806   5.105  13.198  1.00  0.00     0.164 HD
BRANCH  33  35
ATOM     35  C   UNL     1       3.667   4.547  14.123  1.00  0.00     0.194 C 
BRANCH  35  36
ATOM     36  C   UNL     1       4.413   5.671  14.895  1.00  0.00     0.017 C 
ATOM     37  C   UNL     1       4.909   6.771  13.941  1.00  0.00     0.010 C 
ATOM     38  C   UNL     1       5.628   5.162  15.680  1.00  0.00     0.010 C 
ENDBRANCH  35  36
BRANCH  35  39
ATOM     39  C   UNL     1       4.300   4.283  12.728  1.00  0.00     0.329 C 
ATOM     40  O   UNL     1       3.802   4.647  11.668  1.00  0.00    -0.250 OA
BRANCH  39  41
ATOM     41  O   UNL     1       5.522   3.676  12.818  1.00  0.00    -0.458 OA
BRANCH  41  42
ATOM     42  C   UNL     1       5.607   2.326  12.301  1.00  0.00     0.205 CG0
ATOM     43  C   UNL     1       6.277   1.470  13.374  1.00  0.00     0.056 C 
ATOM     44  G   UNL     1       6.407   2.353  10.983  1.00  0.00     0.000 G0
ENDBRANCH  41  42
ENDBRANCH  39  41
ENDBRANCH  35  39
ENDBRANCH  33  35
ENDBRANCH  23  31
ENDBRANCH  21  23
ENDBRANCH  19  21
ENDBRANCH  14  19
ENDBRANCH   7  14
ENDBRANCH   2   5
BRANCH   3  45
ATOM     45  C   UNL     1       3.454   2.001   8.573  1.00  0.00     0.171 C 
BRANCH  45  46
ATOM     46  N   UNL     1       4.450   2.473   9.526  1.00  0.00    -0.342 N 
ATOM     47  C   UNL     1       5.560   1.737   9.857  1.00  0.00     0.247 C 
ATOM     48  O   UNL     1       5.833   0.662   9.322  1.00  0.00    -0.273 OA
ATOM     49  H   UNL     1       4.292   3.385   9.951  1.00  0.00     0.164 HD
BRANCH  47  50
ATOM     50  C   UNL     1       6.431   2.338  10.969  1.00  0.00     0.212 CG0
ATOM     51  G   UNL     1       5.602   2.326  12.270  1.00  0.00     0.000 G0
BRANCH  50  52
ATOM     52  N   UNL     1       7.619   1.492  11.034  1.00  0.00    -0.339 N 
ATOM     53  C   UNL     1       8.837   1.859  10.516  1.00  0.00     0.243 C 
ATOM     54  O   UNL     1       9.008   2.912   9.907  1.00  0.00    -0.273 OA
ATOM     55  H   UNL     1       7.515   0.560  11.428  1.00  0.00     0.164 HD
BRANCH  53  56
ATOM     56  C   UNL     1       9.921   0.767  10.626  1.00  0.00     0.182 C 
BRANCH  56  57
ATOM     57  N   UNL     1      10.938   0.928   9.582  1.00  0.00    -0.344 N 
ATOM     58  C   UNL     1      12.270   0.678   9.807  1.00  0.00     0.220 C 
ATOM     59  O   UNL     1      12.710   0.374  10.911  1.00  0.00    -0.275 OA
ATOM     60  H   UNL     1      10.605   1.078   8.633  1.00  0.00     0.164 HD
BRANCH  58  61
ATOM     61  C   UNL     1      13.132   0.853   8.571  1.00  0.00     0.100 C 
BRANCH  61  62
ATOM     62  C   UNL     1      14.608   1.107   8.880  1.00  0.00     0.010 C 
BRANCH  62  63
ATOM     63  C   UNL     1      14.927   2.557   9.266  1.00  0.00     0.000 C 
BRANCH  63  64
ATOM     64  C   UNL     1      14.151   3.604   8.468  1.00  0.00    -0.003 C 
ATOM     65  C   UNL     1      14.888   3.989   7.193  1.00  0.00     0.004 C 
ENDBRANCH  63  64
ENDBRANCH  62  63
ENDBRANCH  61  62
ENDBRANCH  58  61
ENDBRANCH  56  57
BRANCH  56  66
ATOM     66  C   UNL     1       9.308  -0.632  10.623  1.00  0.00     0.157 C 
BRANCH  66  67
ATOM     67  C   UNL     1       9.178  -1.166   9.226  1.00  0.00     0.305 C 
ATOM     68  O   UNL     1       9.652  -2.204   8.791  1.00  0.00    -0.252 OA
BRANCH  67  69
ATOM     69  O   UNL     1       8.405  -0.384   8.449  1.00  0.00    -0.481 OA
ATOM     70  H   UNL     1       7.492  -0.529   8.776  1.00  0.00     0.296 HD
ENDBRANCH  67  69
ENDBRANCH  66  67
ENDBRANCH  56  66
ENDBRANCH  53  56
ENDBRANCH  50  52
ENDBRANCH  47  50
ENDBRANCH  45  46
BRANCH  45  71
ATOM     71  C   UNL     1       3.288   2.973   7.400  1.00  0.00     0.037 C 
BRANCH  71  72
ATOM     72  C   UNL     1       4.633   3.368   6.785  1.00  0.00     0.026 C 
BRANCH  72  73
ATOM     73  C   UNL     1       4.974   4.829   7.072  1.00  0.00     0.146 C 
BRANCH  73  74
ATOM     74  N   UNL     1       6.048   4.852   8.060  1.00  0.00    -0.254 NA
ATOM     75  C   UNL     1       7.203   5.258   7.680  1.00  0.00     0.185 C 
ATOM     76  N   UNL     1       8.211   5.291   8.566  1.00  0.00    -0.370 N 
ATOM     77  N   UNL     1       7.592   5.682   6.465  1.00  0.00    -0.370 N 
ATOM     78  H   UNL     1       8.005   4.981   9.505  1.00  0.00     0.159 HD
ATOM     79  H   UNL     1       9.168   5.458   8.310  1.00  0.00     0.159 HD
ATOM     80  H   UNL     1       6.936   5.715   5.698  1.00  0.00     0.159 HD
ATOM     81  H   UNL     1       8.500   6.088   6.313  1.00  0.00     0.159 HD
ENDBRANCH  73  74
ENDBRANCH  72  73
ENDBRANCH  71  72
ENDBRANCH  45  71
ENDBRANCH   3  45
TORSDOF 20
ENDMDL
MODEL 38
REMARK VINA RESULT:    -4.608      3.964     11.610
REMARK INTER + INTRA:         -20.674
REMARK INTER:                 -14.768
REMARK INTRA:                  -5.906
REMARK UNBOUND:                -7.444
REMARK SMILES CCCCCC(=O)N[C@H](CC(=O)O)C(=O)N[C@H]1C(=O)N[C@H](CCCN=C(N)N)C(=O)N[C@@H]2CC[C@H](O)N(C2=O)[C@@H](CC(C)C)C(=O)N(C)[C@@H](Cc2ccccc2)C(=O)N[C@H](C(C)C)C(=O)O[C@@H]1C
REMARK SMILES IDX 30 1 31 2 29 3 32 5 35 6 37 7 34 8 38 9 33 10 39 11 36 12
REMARK SMILES IDX 40 14 41 15 42 16 43 17 44 18 45 19 46 20 47 21 48 22 49 23
REMARK SMILES IDX 50 24 51 25 52 26 56 27 53 28 55 29 54 30 57 31 58 32 59 33
REMARK SMILES IDX 60 35 61 36 62 37 63 38 64 39 65 40 66 41 67 42 68 43 21 45
REMARK SMILES IDX 20 46 18 47 19 48 17 50 16 52 14 53 15 54 9 56 8 57 6 58
REMARK SMILES IDX 7 59 5 61 4 62 3 63 2 64 1 65 10 66 11 67 12 68 13 69 22 71
REMARK SMILES IDX 23 72 24 73 25 74 26 75 27 76 28 77
REMARK H PARENT 31 4 36 13 59 34 20 49 16 55 8 60 13 70 27 78 27 79 28 80
REMARK H PARENT 28 81
REMARK Flexibility Score:  259.900
ROOT
ATOM      1  O   UNL     1       3.182   6.906  12.396  1.00  0.00    -0.273 OA
ATOM      2  N   UNL     1       1.673   8.608  12.163  1.00  0.00    -0.343 N 
ATOM      3  C   UNL     1       2.925   8.050  12.020  1.00  0.00     0.243 C 
ATOM      4  H   UNL     1       1.493   9.547  11.829  1.00  0.00     0.164 HD
ENDROOT
BRANCH   2   5
ATOM      5  C   UNL     1       0.621   7.898  12.882  1.00  0.00     0.171 C 
ATOM      6  C   UNL     1       0.525   5.297  14.158  1.00  0.00     0.214 C 
ATOM      7  N   UNL     1       0.136   5.423  12.773  1.00  0.00    -0.303 N 
ATOM      8  C   UNL     1       0.259   6.552  14.975  1.00  0.00     0.057 C 
ATOM      9  C   UNL     1       0.206   6.625  12.089  1.00  0.00     0.247 C 
ATOM     10  C   UNL     1       0.983   7.728  14.357  1.00  0.00     0.040 C 
ATOM     11  O   UNL     1      -0.046   6.708  10.880  1.00  0.00    -0.272 OA
BRANCH   6  12
ATOM     12  O   UNL     1       1.895   4.968  14.193  1.00  0.00    -0.373 OA
ATOM     13  H   UNL     1       2.103   4.516  13.347  1.00  0.00     0.213 HD
ENDBRANCH   6  12
BRANCH   7  14
ATOM     14  C   UNL     1      -0.207   4.176  12.057  1.00  0.00     0.177 C 
BRANCH  14  15
ATOM     15  C   UNL     1      -1.702   3.999  11.727  1.00  0.00     0.038 C 
BRANCH  15  16
ATOM     16  C   UNL     1      -2.517   2.907  12.453  1.00  0.00    -0.015 C 
ATOM     17  C   UNL     1      -3.836   3.442  13.019  1.00  0.00     0.007 C 
ATOM     18  C   UNL     1      -1.695   2.330  13.613  1.00  0.00     0.007 C 
ENDBRANCH  15  16
ENDBRANCH  14  15
BRANCH  14  19
ATOM     19  C   UNL     1       0.984   3.731  11.139  1.00  0.00     0.245 C 
ATOM     20  O   UNL     1       1.109   4.328  10.057  1.00  0.00    -0.272 OA
BRANCH  19  21
ATOM     21  N   UNL     1       1.812   2.658  11.417  1.00  0.00    -0.332 N 
ATOM     22  C   UNL     1       2.811   2.615  12.470  1.00  0.00     0.147 C 
BRANCH  21  23
ATOM     23  C   UNL     1       1.686   1.443  10.565  1.00  0.00     0.178 C 
BRANCH  23  24
ATOM     24  C   UNL     1       0.373   1.352   9.761  1.00  0.00     0.070 C 
BRANCH  24  25
ATOM     25  C   UNL     1      -0.720   0.474  10.325  1.00  0.00    -0.045 A 
ATOM     26  C   UNL     1      -0.460  -0.403  11.386  1.00  0.00     0.004 A 
ATOM     27  C   UNL     1      -2.014   0.522   9.787  1.00  0.00     0.004 A 
ATOM     28  C   UNL     1      -1.471  -1.223  11.890  1.00  0.00     0.000 A 
ATOM     29  C   UNL     1      -3.024  -0.298  10.292  1.00  0.00     0.000 A 
ATOM     30  C   UNL     1      -2.751  -1.172  11.342  1.00  0.00     0.000 A 
ENDBRANCH  24  25
ENDBRANCH  23  24
BRANCH  23  31
ATOM     31  C   UNL     1       2.969   1.138   9.755  1.00  0.00     0.243 C 
ATOM     32  O   UNL     1       3.395   0.006   9.545  1.00  0.00    -0.273 OA
ATOM     33  N   UNL     1       3.706   2.267   9.440  1.00  0.00    -0.341 N 
ATOM     34  H   UNL     1       3.301   3.184   9.646  1.00  0.00     0.164 HD
BRANCH  33  35
ATOM     35  C   UNL     1       5.014   2.210   8.781  1.00  0.00     0.194 C 
BRANCH  35  36
ATOM     36  C   UNL     1       6.218   2.161   9.764  1.00  0.00     0.017 C 
ATOM     37  C   UNL     1       6.859   0.763   9.794  1.00  0.00     0.010 C 
ATOM     38  C   UNL     1       5.837   2.523  11.205  1.00  0.00     0.010 C 
ENDBRANCH  35  36
BRANCH  35  39
ATOM     39  C   UNL     1       5.189   3.315   7.703  1.00  0.00     0.329 C 
ATOM     40  O   UNL     1       4.732   3.245   6.568  1.00  0.00    -0.250 OA
BRANCH  39  41
ATOM     41  O   UNL     1       5.837   4.417   8.188  1.00  0.00    -0.458 OA
BRANCH  41  42
ATOM     42  C   UNL     1       5.006   5.432   8.800  1.00  0.00     0.205 CG0
ATOM     43  C   UNL     1       3.661   5.415   8.077  1.00  0.00     0.056 C 
ATOM     44  G   UNL     1       5.723   6.791   8.682  1.00  0.00     0.000 G0
ENDBRANCH  41  42
ENDBRANCH  39  41
ENDBRANCH  35  39
ENDBRANCH  33  35
ENDBRANCH  23  31
ENDBRANCH  21  23
ENDBRANCH  19  21
ENDBRANCH  14  19
ENDBRANCH   7  14
ENDBRANCH   2   5
BRANCH   3  45
ATOM     45  C   UNL     1       3.970   8.945  11.341  1.00  0.00     0.171 C 
BRANCH  45  46
ATOM     46  N   UNL     1       4.853   8.040  10.618  1.00  0.00    -0.342 N 
ATOM     47  C   UNL     1       4.819   7.912   9.252  1.00  0.00     0.247 C 
ATOM     48  O   UNL     1       4.093   8.602   8.535  1.00  0.00    -0.273 OA
ATOM     49  H   UNL     1       5.510   7.491  11.170  1.00  0.00     0.164 HD
BRANCH  47  50
ATOM     50  C   UNL     1       5.734   6.822   8.678  1.00  0.00     0.212 CG0
ATOM     51  G   UNL     1       5.009   5.471   8.839  1.00  0.00     0.000 G0
BRANCH  50  52
ATOM     52  N   UNL     1       5.957   7.195   7.284  1.00  0.00    -0.339 N 
ATOM     53  C   UNL     1       7.155   7.675   6.812  1.00  0.00     0.243 C 
ATOM     54  O   UNL     1       8.121   7.878   7.543  1.00  0.00    -0.273 OA
ATOM     55  H   UNL     1       5.161   7.154   6.650  1.00  0.00     0.164 HD
BRANCH  53  56
ATOM     56  C   UNL     1       7.126   8.082   5.325  1.00  0.00     0.182 C 
BRANCH  56  57
ATOM     57  N   UNL     1       5.945   8.899   5.026  1.00  0.00    -0.344 N 
ATOM     58  C   UNL     1       5.969  10.271   5.068  1.00  0.00     0.220 C 
ATOM     59  O   UNL     1       6.954  10.907   5.428  1.00  0.00    -0.275 OA
ATOM     60  H   UNL     1       5.142   8.418   4.628  1.00  0.00     0.164 HD
BRANCH  58  61
ATOM     61  C   UNL     1       4.652  10.908   4.666  1.00  0.00     0.100 C 
BRANCH  61  62
ATOM     62  C   UNL     1       3.926  10.166   3.544  1.00  0.00     0.010 C 
BRANCH  62  63
ATOM     63  C   UNL     1       2.731  10.929   2.957  1.00  0.00     0.000 C 
BRANCH  63  64
ATOM     64  C   UNL     1       1.525  10.049   2.631  1.00  0.00    -0.003 C 
ATOM     65  C   UNL     1       1.827   8.579   2.880  1.00  0.00     0.004 C 
ENDBRANCH  63  64
ENDBRANCH  62  63
ENDBRANCH  61  62
ENDBRANCH  58  61
ENDBRANCH  56  57
BRANCH  56  66
ATOM     66  C   UNL     1       7.233   6.865   4.409  1.00  0.00     0.157 C 
BRANCH  66  67
ATOM     67  C   UNL     1       5.875   6.352   4.026  1.00  0.00     0.305 C 
ATOM     68  O   UNL     1       5.126   5.676   4.715  1.00  0.00    -0.252 OA
BRANCH  67  69
ATOM     69  O   UNL     1       5.500   6.762   2.799  1.00  0.00    -0.481 OA
ATOM     70  H   UNL     1       6.260   7.285   2.467  1.00  0.00     0.296 HD
ENDBRANCH  67  69
ENDBRANCH  66  67
ENDBRANCH  56  66
ENDBRANCH  53  56
ENDBRANCH  50  52
ENDBRANCH  47  50
ENDBRANCH  45  46
BRANCH  45  71
ATOM     71  C   UNL     1       4.732   9.764  12.388  1.00  0.00     0.037 C 
BRANCH  71  72
ATOM     72  C   UNL     1       6.224   9.421  12.413  1.00  0.00     0.026 C 
BRANCH  72  73
ATOM     73  C   UNL     1       7.079  10.609  11.976  1.00  0.00     0.146 C 
BRANCH  73  74
ATOM     74  N   UNL     1       6.743  10.915  10.589  1.00  0.00    -0.254 NA
ATOM     75  C   UNL     1       7.543  10.505   9.674  1.00  0.00     0.185 C 
ATOM     76  N   UNL     1       7.260  10.771   8.388  1.00  0.00    -0.370 N 
ATOM     77  N   UNL     1       8.687   9.811   9.801  1.00  0.00    -0.370 N 
ATOM     78  H   UNL     1       6.418  11.297   8.204  1.00  0.00     0.159 HD
ATOM     79  H   UNL     1       7.905  10.611   7.635  1.00  0.00     0.159 HD
ATOM     80  H   UNL     1       9.023   9.537  10.712  1.00  0.00     0.159 HD
ATOM     81  H   UNL     1       9.173   9.443   9.000  1.00  0.00     0.159 HD
ENDBRANCH  73  74
ENDBRANCH  72  73
ENDBRANCH  71  72
ENDBRANCH  45  71
ENDBRANCH   3  45
TORSDOF 20
ENDMDL
MODEL 39
REMARK VINA RESULT:    -4.553      5.802     13.431
REMARK INTER + INTRA:         -20.516
REMARK INTER:                 -14.586
REMARK INTRA:                  -5.929
REMARK UNBOUND:                -7.444
REMARK SMILES CCCCCC(=O)N[C@H](CC(=O)O)C(=O)N[C@H]1C(=O)N[C@H](CCCN=C(N)N)C(=O)N[C@@H]2CC[C@H](O)N(C2=O)[C@@H](CC(C)C)C(=O)N(C)[C@@H](Cc2ccccc2)C(=O)N[C@H](C(C)C)C(=O)O[C@@H]1C
REMARK SMILES IDX 30 1 31 2 29 3 32 5 35 6 37 7 34 8 38 9 33 10 39 11 36 12
REMARK SMILES IDX 40 14 41 15 42 16 43 17 44 18 45 19 46 20 47 21 48 22 49 23
REMARK SMILES IDX 50 24 51 25 52 26 56 27 53 28 55 29 54 30 57 31 58 32 59 33
REMARK SMILES IDX 60 35 61 36 62 37 63 38 64 39 65 40 66 41 67 42 68 43 21 45
REMARK SMILES IDX 20 46 18 47 19 48 17 50 16 52 14 53 15 54 9 56 8 57 6 58
REMARK SMILES IDX 7 59 5 61 4 62 3 63 2 64 1 65 10 66 11 67 12 68 13 69 22 71
REMARK SMILES IDX 23 72 24 73 25 74 26 75 27 76 28 77
REMARK H PARENT 31 4 36 13 59 34 20 49 16 55 8 60 13 70 27 78 27 79 28 80
REMARK H PARENT 28 81
REMARK Flexibility Score:  259.900
ROOT
ATOM      1  O   UNL     1       5.400   5.326   4.276  1.00  0.00    -0.273 OA
ATOM      2  N   UNL     1       5.453   5.732   6.526  1.00  0.00    -0.343 N 
ATOM      3  C   UNL     1       5.525   6.123   5.207  1.00  0.00     0.243 C 
ATOM      4  H   UNL     1       5.546   6.417   7.266  1.00  0.00     0.164 HD
ENDROOT
BRANCH   2   5
ATOM      5  C   UNL     1       5.344   4.320   6.877  1.00  0.00     0.171 C 
ATOM      6  C   UNL     1       5.250   2.929   9.419  1.00  0.00     0.214 C 
ATOM      7  N   UNL     1       6.525   3.150   8.777  1.00  0.00    -0.303 N 
ATOM      8  C   UNL     1       4.098   2.792   8.437  1.00  0.00     0.057 C 
ATOM      9  C   UNL     1       6.646   3.851   7.588  1.00  0.00     0.247 C 
ATOM     10  C   UNL     1       4.014   4.028   7.569  1.00  0.00     0.040 C 
ATOM     11  O   UNL     1       7.749   4.111   7.090  1.00  0.00    -0.272 OA
BRANCH   6  12
ATOM     12  O   UNL     1       5.020   4.004  10.301  1.00  0.00    -0.373 OA
ATOM     13  H   UNL     1       5.595   4.744  10.008  1.00  0.00     0.213 HD
ENDBRANCH   6  12
BRANCH   7  14
ATOM     14  C   UNL     1       7.731   2.723   9.517  1.00  0.00     0.177 C 
BRANCH  14  15
ATOM     15  C   UNL     1       8.199   3.688  10.623  1.00  0.00     0.038 C 
BRANCH  15  16
ATOM     16  C   UNL     1       9.679   3.681  11.064  1.00  0.00    -0.015 C 
ATOM     17  C   UNL     1       9.840   3.457  12.571  1.00  0.00     0.007 C 
ATOM     18  C   UNL     1      10.334   5.021  10.705  1.00  0.00     0.007 C 
ENDBRANCH  15  16
ENDBRANCH  14  15
BRANCH  14  19
ATOM     19  C   UNL     1       7.797   1.158   9.592  1.00  0.00     0.245 C 
ATOM     20  O   UNL     1       6.980   0.530   8.897  1.00  0.00    -0.272 OA
BRANCH  19  21
ATOM     21  N   UNL     1       8.623   0.461  10.456  1.00  0.00    -0.332 N 
ATOM     22  C   UNL     1       9.981   0.039  10.167  1.00  0.00     0.147 C 
BRANCH  21  23
ATOM     23  C   UNL     1       8.081   0.098  11.795  1.00  0.00     0.178 C 
BRANCH  23  24
ATOM     24  C   UNL     1       6.710   0.722  12.127  1.00  0.00     0.070 C 
BRANCH  24  25
ATOM     25  C   UNL     1       6.644   1.641  13.325  1.00  0.00    -0.045 A 
ATOM     26  C   UNL     1       7.385   1.366  14.481  1.00  0.00     0.004 A 
ATOM     27  C   UNL     1       5.832   2.784  13.296  1.00  0.00     0.004 A 
ATOM     28  C   UNL     1       7.306   2.211  15.590  1.00  0.00     0.000 A 
ATOM     29  C   UNL     1       5.754   3.629  14.405  1.00  0.00     0.000 A 
ATOM     30  C   UNL     1       6.490   3.339  15.552  1.00  0.00     0.000 A 
ENDBRANCH  24  25
ENDBRANCH  23  24
BRANCH  23  31
ATOM     31  C   UNL     1       8.201  -1.413  12.105  1.00  0.00     0.243 C 
ATOM     32  O   UNL     1       7.566  -2.287  11.521  1.00  0.00    -0.273 OA
ATOM     33  N   UNL     1       8.955  -1.687  13.233  1.00  0.00    -0.341 N 
ATOM     34  H   UNL     1       9.457  -0.916  13.681  1.00  0.00     0.164 HD
BRANCH  33  35
ATOM     35  C   UNL     1       9.107  -3.037  13.784  1.00  0.00     0.194 C 
BRANCH  35  36
ATOM     36  C   UNL     1       8.367  -3.260  15.132  1.00  0.00     0.017 C 
ATOM     37  C   UNL     1       6.999  -3.930  14.916  1.00  0.00     0.010 C 
ATOM     38  C   UNL     1       8.123  -1.960  15.909  1.00  0.00     0.010 C 
ENDBRANCH  35  36
BRANCH  35  39
ATOM     39  C   UNL     1      10.592  -3.490  13.855  1.00  0.00     0.329 C 
ATOM     40  O   UNL     1      11.482  -3.039  13.144  1.00  0.00    -0.250 OA
BRANCH  39  41
ATOM     41  O   UNL     1      10.814  -4.388  14.863  1.00  0.00    -0.458 OA
BRANCH  41  42
ATOM     42  C   UNL     1      11.959  -4.130  15.711  1.00  0.00     0.205 CG0
ATOM     43  C   UNL     1      12.951  -5.270  15.493  1.00  0.00     0.056 C 
ATOM     44  G   UNL     1      11.477  -4.038  17.172  1.00  0.00     0.000 G0
ENDBRANCH  41  42
ENDBRANCH  39  41
ENDBRANCH  35  39
ENDBRANCH  33  35
ENDBRANCH  23  31
ENDBRANCH  21  23
ENDBRANCH  19  21
ENDBRANCH  14  19
ENDBRANCH   7  14
ENDBRANCH   2   5
BRANCH   3  45
ATOM     45  C   UNL     1       5.748   7.624   4.978  1.00  0.00     0.171 C 
BRANCH  45  46
ATOM     46  N   UNL     1       4.519   8.117   4.371  1.00  0.00    -0.342 N 
ATOM     47  C   UNL     1       3.689   9.005   5.007  1.00  0.00     0.247 C 
ATOM     48  O   UNL     1       3.956   9.504   6.100  1.00  0.00    -0.273 OA
ATOM     49  H   UNL     1       4.288   7.772   3.441  1.00  0.00     0.164 HD
BRANCH  47  50
ATOM     50  C   UNL     1       2.379   9.315   4.267  1.00  0.00     0.212 CG0
ATOM     51  G   UNL     1       1.640  10.408   5.064  1.00  0.00     0.000 G0
BRANCH  50  52
ATOM     52  N   UNL     1       2.780   9.746   2.930  1.00  0.00    -0.339 N 
ATOM     53  C   UNL     1       2.859  11.064   2.554  1.00  0.00     0.243 C 
ATOM     54  O   UNL     1       2.546  11.987   3.302  1.00  0.00    -0.273 OA
ATOM     55  H   UNL     1       2.944   9.025   2.231  1.00  0.00     0.164 HD
BRANCH  53  56
ATOM     56  C   UNL     1       3.219  11.272   1.069  1.00  0.00     0.182 C 
BRANCH  56  57
ATOM     57  N   UNL     1       2.878  10.088   0.274  1.00  0.00    -0.344 N 
ATOM     58  C   UNL     1       1.708   9.991  -0.438  1.00  0.00     0.220 C 
ATOM     59  O   UNL     1       0.836  10.852  -0.401  1.00  0.00    -0.275 OA
ATOM     60  H   UNL     1       3.613   9.399   0.135  1.00  0.00     0.164 HD
BRANCH  58  61
ATOM     61  C   UNL     1       1.592   8.703  -1.233  1.00  0.00     0.100 C 
BRANCH  61  62
ATOM     62  C   UNL     1       0.608   7.697  -0.636  1.00  0.00     0.010 C 
BRANCH  62  63
ATOM     63  C   UNL     1       0.817   7.426   0.859  1.00  0.00     0.000 C 
BRANCH  63  64
ATOM     64  C   UNL     1      -0.360   7.839   1.741  1.00  0.00    -0.003 C 
ATOM     65  C   UNL     1      -1.626   8.036   0.920  1.00  0.00     0.004 C 
ENDBRANCH  63  64
ENDBRANCH  62  63
ENDBRANCH  61  62
ENDBRANCH  58  61
ENDBRANCH  56  57
BRANCH  56  66
ATOM     66  C   UNL     1       4.681  11.680   0.898  1.00  0.00     0.157 C 
BRANCH  66  67
ATOM     67  C   UNL     1       4.911  12.340  -0.431  1.00  0.00     0.305 C 
ATOM     68  O   UNL     1       4.063  12.625  -1.263  1.00  0.00    -0.252 OA
BRANCH  67  69
ATOM     69  O   UNL     1       6.204  12.661  -0.626  1.00  0.00    -0.481 OA
ATOM     70  H   UNL     1       6.461  12.177  -1.440  1.00  0.00     0.296 HD
ENDBRANCH  67  69
ENDBRANCH  66  67
ENDBRANCH  56  66
ENDBRANCH  53  56
ENDBRANCH  50  52
ENDBRANCH  47  50
ENDBRANCH  45  46
BRANCH  45  71
ATOM     71  C   UNL     1       6.960   7.850   4.066  1.00  0.00     0.037 C 
BRANCH  71  72
ATOM     72  C   UNL     1       7.474   9.290   4.139  1.00  0.00     0.026 C 
BRANCH  72  73
ATOM     73  C   UNL     1       8.638   9.518   3.176  1.00  0.00     0.146 C 
BRANCH  73  74
ATOM     74  N   UNL     1       8.693  10.945   2.872  1.00  0.00    -0.254 NA
ATOM     75  C   UNL     1       8.450  11.311   1.668  1.00  0.00     0.185 C 
ATOM     76  N   UNL     1       8.491  12.617   1.358  1.00  0.00    -0.370 N 
ATOM     77  N   UNL     1       8.141  10.554   0.601  1.00  0.00    -0.370 N 
ATOM     78  H   UNL     1       8.725  13.257   2.104  1.00  0.00     0.159 HD
ATOM     79  H   UNL     1       8.456  12.963   0.415  1.00  0.00     0.159 HD
ATOM     80  H   UNL     1       8.069   9.551   0.686  1.00  0.00     0.159 HD
ATOM     81  H   UNL     1       7.856  10.964  -0.273  1.00  0.00     0.159 HD
ENDBRANCH  73  74
ENDBRANCH  72  73
ENDBRANCH  71  72
ENDBRANCH  45  71
ENDBRANCH   3  45
TORSDOF 20
ENDMDL
MODEL 40
REMARK VINA RESULT:    -4.515      7.342     11.695
REMARK INTER + INTRA:         -20.407
REMARK INTER:                 -15.614
REMARK INTRA:                  -4.793
REMARK UNBOUND:                -7.444
REMARK SMILES CCCCCC(=O)N[C@H](CC(=O)O)C(=O)N[C@H]1C(=O)N[C@H](CCCN=C(N)N)C(=O)N[C@@H]2CC[C@H](O)N(C2=O)[C@@H](CC(C)C)C(=O)N(C)[C@@H](Cc2ccccc2)C(=O)N[C@H](C(C)C)C(=O)O[C@@H]1C
REMARK SMILES IDX 30 1 31 2 29 3 32 5 35 6 37 7 34 8 38 9 33 10 39 11 36 12
REMARK SMILES IDX 40 14 41 15 42 16 43 17 44 18 45 19 46 20 47 21 48 22 49 23
REMARK SMILES IDX 50 24 51 25 52 26 56 27 53 28 55 29 54 30 57 31 58 32 59 33
REMARK SMILES IDX 60 35 61 36 62 37 63 38 64 39 65 40 66 41 67 42 68 43 21 45
REMARK SMILES IDX 20 46 18 47 19 48 17 50 16 52 14 53 15 54 9 56 8 57 6 58
REMARK SMILES IDX 7 59 5 61 4 62 3 63 2 64 1 65 10 66 11 67 12 68 13 69 22 71
REMARK SMILES IDX 23 72 24 73 25 74 26 75 27 76 28 77
REMARK H PARENT 31 4 36 13 59 34 20 49 16 55 8 60 13 70 27 78 27 79 28 80
REMARK H PARENT 28 81
REMARK Flexibility Score:  259.900
ROOT
ATOM      1  O   UNL     1       3.511   8.618   4.780  1.00  0.00    -0.273 OA
ATOM      2  N   UNL     1       4.492   8.111   2.777  1.00  0.00    -0.343 N 
ATOM      3  C   UNL     1       3.432   8.525   3.555  1.00  0.00     0.243 C 
ATOM      4  H   UNL     1       4.395   8.060   1.771  1.00  0.00     0.164 HD
ENDROOT
BRANCH   2   5
ATOM      5  C   UNL     1       5.730   7.647   3.395  1.00  0.00     0.171 C 
ATOM      6  C   UNL     1       6.743   7.786   6.108  1.00  0.00     0.214 C 
ATOM      7  N   UNL     1       7.057   8.845   5.177  1.00  0.00    -0.303 N 
ATOM      8  C   UNL     1       6.551   6.434   5.439  1.00  0.00     0.057 C 
ATOM      9  C   UNL     1       6.564   8.866   3.883  1.00  0.00     0.247 C 
ATOM     10  C   UNL     1       5.456   6.528   4.398  1.00  0.00     0.040 C 
ATOM     11  O   UNL     1       6.767   9.820   3.119  1.00  0.00    -0.272 OA
BRANCH   6  12
ATOM     12  O   UNL     1       5.578   8.159   6.807  1.00  0.00    -0.373 OA
ATOM     13  H   UNL     1       5.385   7.442   7.447  1.00  0.00     0.213 HD
ENDBRANCH   6  12
BRANCH   7  14
ATOM     14  C   UNL     1       7.817   9.998   5.705  1.00  0.00     0.177 C 
BRANCH  14  15
ATOM     15  C   UNL     1       7.635  10.269   7.211  1.00  0.00     0.038 C 
BRANCH  15  16
ATOM     16  C   UNL     1       8.865  10.229   8.145  1.00  0.00    -0.015 C 
ATOM     17  C   UNL     1       9.404   8.809   8.342  1.00  0.00     0.007 C 
ATOM     18  C   UNL     1       8.490  10.795   9.521  1.00  0.00     0.007 C 
ENDBRANCH  15  16
ENDBRANCH  14  15
BRANCH  14  19
ATOM     19  C   UNL     1       9.152  10.182   4.905  1.00  0.00     0.245 C 
ATOM     20  O   UNL     1       9.752   9.146   4.573  1.00  0.00    -0.272 OA
BRANCH  19  21
ATOM     21  N   UNL     1       9.738  11.410   4.656  1.00  0.00    -0.332 N 
ATOM     22  C   UNL     1      10.345  12.273   5.654  1.00  0.00     0.147 C 
BRANCH  21  23
ATOM     23  C   UNL     1       9.745  11.905   3.251  1.00  0.00     0.178 C 
BRANCH  23  24
ATOM     24  C   UNL     1       9.946  10.812   2.182  1.00  0.00     0.070 C 
BRANCH  24  25
ATOM     25  C   UNL     1      10.620  11.225   0.894  1.00  0.00    -0.045 A 
ATOM     26  C   UNL     1      11.890  11.815   0.906  1.00  0.00     0.004 A 
ATOM     27  C   UNL     1       9.977  11.025  -0.337  1.00  0.00     0.004 A 
ATOM     28  C   UNL     1      12.499  12.209  -0.288  1.00  0.00     0.000 A 
ATOM     29  C   UNL     1      10.587  11.418  -1.529  1.00  0.00     0.000 A 
ATOM     30  C   UNL     1      11.847  12.013  -1.503  1.00  0.00     0.000 A 
ENDBRANCH  24  25
ENDBRANCH  23  24
BRANCH  23  31
ATOM     31  C   UNL     1       8.599  12.902   2.957  1.00  0.00     0.243 C 
ATOM     32  O   UNL     1       8.731  13.924   2.290  1.00  0.00    -0.273 OA
ATOM     33  N   UNL     1       7.441  12.638   3.669  1.00  0.00    -0.341 N 
ATOM     34  H   UNL     1       7.391  11.773   4.213  1.00  0.00     0.164 HD
BRANCH  33  35
ATOM     35  C   UNL     1       6.267  13.516   3.639  1.00  0.00     0.194 C 
BRANCH  35  36
ATOM     36  C   UNL     1       6.128  14.432   4.887  1.00  0.00     0.017 C 
ATOM     37  C   UNL     1       7.368  14.337   5.793  1.00  0.00     0.010 C 
ATOM     38  C   UNL     1       4.904  14.096   5.749  1.00  0.00     0.010 C 
ENDBRANCH  35  36
BRANCH  35  39
ATOM     39  C   UNL     1       4.952  12.745   3.335  1.00  0.00     0.329 C 
ATOM     40  O   UNL     1       4.472  11.890   4.069  1.00  0.00    -0.250 OA
BRANCH  39  41
ATOM     41  O   UNL     1       4.341  13.190   2.195  1.00  0.00    -0.458 OA
BRANCH  41  42
ATOM     42  C   UNL     1       4.316  12.267   1.080  1.00  0.00     0.205 CG0
ATOM     43  C   UNL     1       5.129  12.896  -0.050  1.00  0.00     0.056 C 
ATOM     44  G   UNL     1       2.847  12.018   0.681  1.00  0.00     0.000 G0
ENDBRANCH  41  42
ENDBRANCH  39  41
ENDBRANCH  35  39
ENDBRANCH  33  35
ENDBRANCH  23  31
ENDBRANCH  21  23
ENDBRANCH  19  21
ENDBRANCH  14  19
ENDBRANCH   7  14
ENDBRANCH   2   5
BRANCH   3  45
ATOM     45  C   UNL     1       2.153   8.882   2.786  1.00  0.00     0.171 C 
BRANCH  45  46
ATOM     46  N   UNL     1       2.350  10.242   2.304  1.00  0.00    -0.342 N 
ATOM     47  C   UNL     1       2.522  10.534   0.974  1.00  0.00     0.247 C 
ATOM     48  O   UNL     1       2.450   9.681   0.088  1.00  0.00    -0.273 OA
ATOM     49  H   UNL     1       2.360  10.986   2.999  1.00  0.00     0.164 HD
BRANCH  47  50
ATOM     50  C   UNL     1       2.841  12.004   0.667  1.00  0.00     0.212 CG0
ATOM     51  G   UNL     1       4.295  12.268   1.106  1.00  0.00     0.000 G0
BRANCH  50  52
ATOM     52  N   UNL     1       2.636  12.155  -0.771  1.00  0.00    -0.339 N 
ATOM     53  C   UNL     1       1.720  13.020  -1.317  1.00  0.00     0.243 C 
ATOM     54  O   UNL     1       0.960  13.699  -0.632  1.00  0.00    -0.273 OA
ATOM     55  H   UNL     1       3.158  11.538  -1.391  1.00  0.00     0.164 HD
BRANCH  53  56
ATOM     56  C   UNL     1       1.621  12.943  -2.854  1.00  0.00     0.182 C 
BRANCH  56  57
ATOM     57  N   UNL     1       1.704  11.554  -3.318  1.00  0.00    -0.344 N 
ATOM     58  C   UNL     1       0.820  11.028  -4.228  1.00  0.00     0.220 C 
ATOM     59  O   UNL     1      -0.140  11.657  -4.660  1.00  0.00    -0.275 OA
ATOM     60  H   UNL     1       2.539  11.033  -3.064  1.00  0.00     0.164 HD
BRANCH  58  61
ATOM     61  C   UNL     1       1.130   9.591  -4.607  1.00  0.00     0.100 C 
BRANCH  61  62
ATOM     62  C   UNL     1       2.549   9.151  -4.245  1.00  0.00     0.010 C 
BRANCH  62  63
ATOM     63  C   UNL     1       3.519   9.122  -5.433  1.00  0.00     0.000 C 
BRANCH  63  64
ATOM     64  C   UNL     1       3.444  10.354  -6.333  1.00  0.00    -0.003 C 
ATOM     65  C   UNL     1       4.750  11.136  -6.314  1.00  0.00     0.004 C 
ENDBRANCH  63  64
ENDBRANCH  62  63
ENDBRANCH  61  62
ENDBRANCH  58  61
ENDBRANCH  56  57
BRANCH  56  66
ATOM     66  C   UNL     1       2.660  13.838  -3.528  1.00  0.00     0.157 C 
BRANCH  66  67
ATOM     67  C   UNL     1       2.136  14.405  -4.815  1.00  0.00     0.305 C 
ATOM     68  O   UNL     1       1.900  15.579  -5.056  1.00  0.00    -0.252 OA
BRANCH  67  69
ATOM     69  O   UNL     1       1.983  13.463  -5.765  1.00  0.00    -0.481 OA
ATOM     70  H   UNL     1       2.850  13.008  -5.808  1.00  0.00     0.296 HD
ENDBRANCH  67  69
ENDBRANCH  66  67
ENDBRANCH  56  66
ENDBRANCH  53  56
ENDBRANCH  50  52
ENDBRANCH  47  50
ENDBRANCH  45  46
BRANCH  45  71
ATOM     71  C   UNL     1       0.931   8.780   3.706  1.00  0.00     0.037 C 
BRANCH  71  72
ATOM     72  C   UNL     1      -0.325   8.340   2.949  1.00  0.00     0.026 C 
BRANCH  72  73
ATOM     73  C   UNL     1      -1.409   9.415   2.992  1.00  0.00     0.146 C 
BRANCH  73  74
ATOM     74  N   UNL     1      -0.900  10.592   2.295  1.00  0.00    -0.254 NA
ATOM     75  C   UNL     1      -1.750  11.457   1.880  1.00  0.00     0.185 C 
ATOM     76  N   UNL     1      -1.312  12.552   1.237  1.00  0.00    -0.370 N 
ATOM     77  N   UNL     1      -3.090  11.446   1.992  1.00  0.00    -0.370 N 
ATOM     78  H   UNL     1      -0.315  12.635   1.104  1.00  0.00     0.159 HD
ATOM     79  H   UNL     1      -1.920  13.194   0.761  1.00  0.00     0.159 HD
ATOM     80  H   UNL     1      -3.560  10.684   2.457  1.00  0.00     0.159 HD
ATOM     81  H   UNL     1      -3.649  12.241   1.728  1.00  0.00     0.159 HD
ENDBRANCH  73  74
ENDBRANCH  72  73
ENDBRANCH  71  72
ENDBRANCH  45  71
ENDBRANCH   3  45
TORSDOF 20
ENDMDL
MODEL 41
REMARK VINA RESULT:    -4.478      6.784     13.013
REMARK INTER + INTRA:         -20.300
REMARK INTER:                 -15.648
REMARK INTRA:                  -4.651
REMARK UNBOUND:                -7.444
REMARK SMILES CCCCCC(=O)N[C@H](CC(=O)O)C(=O)N[C@H]1C(=O)N[C@H](CCCN=C(N)N)C(=O)N[C@@H]2CC[C@H](O)N(C2=O)[C@@H](CC(C)C)C(=O)N(C)[C@@H](Cc2ccccc2)C(=O)N[C@H](C(C)C)C(=O)O[C@@H]1C
REMARK SMILES IDX 30 1 31 2 29 3 32 5 35 6 37 7 34 8 38 9 33 10 39 11 36 12
REMARK SMILES IDX 40 14 41 15 42 16 43 17 44 18 45 19 46 20 47 21 48 22 49 23
REMARK SMILES IDX 50 24 51 25 52 26 56 27 53 28 55 29 54 30 57 31 58 32 59 33
REMARK SMILES IDX 60 35 61 36 62 37 63 38 64 39 65 40 66 41 67 42 68 43 21 45
REMARK SMILES IDX 20 46 18 47 19 48 17 50 16 52 14 53 15 54 9 56 8 57 6 58
REMARK SMILES IDX 7 59 5 61 4 62 3 63 2 64 1 65 10 66 11 67 12 68 13 69 22 71
REMARK SMILES IDX 23 72 24 73 25 74 26 75 27 76 28 77
REMARK H PARENT 31 4 36 13 59 34 20 49 16 55 8 60 13 70 27 78 27 79 28 80
REMARK H PARENT 28 81
REMARK Flexibility Score:  259.900
ROOT
ATOM      1  O   UNL     1       5.120   4.822   5.397  1.00  0.00    -0.273 OA
ATOM      2  N   UNL     1       5.923   4.900   7.537  1.00  0.00    -0.343 N 
ATOM      3  C   UNL     1       5.682   5.449   6.296  1.00  0.00     0.243 C 
ATOM      4  H   UNL     1       6.375   5.451   8.257  1.00  0.00     0.164 HD
ENDROOT
BRANCH   2   5
ATOM      5  C   UNL     1       5.624   3.497   7.800  1.00  0.00     0.171 C 
ATOM      6  C   UNL     1       5.083   2.027  10.239  1.00  0.00     0.214 C 
ATOM      7  N   UNL     1       6.441   2.129   9.758  1.00  0.00    -0.303 N 
ATOM      8  C   UNL     1       4.047   2.057   9.127  1.00  0.00     0.057 C 
ATOM      9  C   UNL     1       6.776   2.858   8.628  1.00  0.00     0.247 C 
ATOM     10  C   UNL     1       4.198   3.328   8.320  1.00  0.00     0.040 C 
ATOM     11  O   UNL     1       7.951   3.013   8.272  1.00  0.00    -0.272 OA
BRANCH   6  12
ATOM     12  O   UNL     1       4.866   3.086  11.144  1.00  0.00    -0.373 OA
ATOM     13  H   UNL     1       5.453   3.822  10.870  1.00  0.00     0.213 HD
ENDBRANCH   6  12
BRANCH   7  14
ATOM     14  C   UNL     1       7.499   1.541  10.607  1.00  0.00     0.177 C 
BRANCH  14  15
ATOM     15  C   UNL     1       7.425   1.913  12.100  1.00  0.00     0.038 C 
BRANCH  15  16
ATOM     16  C   UNL     1       7.785   0.856  13.167  1.00  0.00    -0.015 C 
ATOM     17  C   UNL     1       6.958   1.010  14.446  1.00  0.00     0.007 C 
ATOM     18  C   UNL     1       9.269   0.977  13.537  1.00  0.00     0.007 C 
ENDBRANCH  15  16
ENDBRANCH  14  15
BRANCH  14  19
ATOM     19  C   UNL     1       7.938   0.147  10.040  1.00  0.00     0.245 C 
ATOM     20  O   UNL     1       7.044  -0.567   9.557  1.00  0.00    -0.272 OA
BRANCH  19  21
ATOM     21  N   UNL     1       9.220  -0.361  10.151  1.00  0.00    -0.332 N 
ATOM     22  C   UNL     1      10.437   0.329   9.763  1.00  0.00     0.147 C 
BRANCH  21  23
ATOM     23  C   UNL     1       9.378  -1.735  10.703  1.00  0.00     0.178 C 
BRANCH  23  24
ATOM     24  C   UNL     1       8.180  -2.240  11.532  1.00  0.00     0.070 C 
BRANCH  24  25
ATOM     25  C   UNL     1       8.457  -2.661  12.957  1.00  0.00    -0.045 A 
ATOM     26  C   UNL     1       7.416  -2.782  13.885  1.00  0.00     0.004 A 
ATOM     27  C   UNL     1       9.770  -2.934  13.371  1.00  0.00     0.004 A 
ATOM     28  C   UNL     1       7.683  -3.156  15.204  1.00  0.00     0.000 A 
ATOM     29  C   UNL     1      10.035  -3.308  14.689  1.00  0.00     0.000 A 
ATOM     30  C   UNL     1       8.991  -3.416  15.605  1.00  0.00     0.000 A 
ENDBRANCH  24  25
ENDBRANCH  23  24
BRANCH  23  31
ATOM     31  C   UNL     1       9.922  -2.744   9.663  1.00  0.00     0.243 C 
ATOM     32  O   UNL     1       9.241  -3.247   8.773  1.00  0.00    -0.273 OA
ATOM     33  N   UNL     1      11.208  -3.179   9.935  1.00  0.00    -0.341 N 
ATOM     34  H   UNL     1      11.724  -2.726  10.693  1.00  0.00     0.164 HD
BRANCH  33  35
ATOM     35  C   UNL     1      11.880  -4.222   9.154  1.00  0.00     0.194 C 
BRANCH  35  36
ATOM     36  C   UNL     1      12.212  -3.806   7.693  1.00  0.00     0.017 C 
ATOM     37  C   UNL     1      13.197  -4.792   7.041  1.00  0.00     0.010 C 
ATOM     38  C   UNL     1      12.828  -2.406   7.588  1.00  0.00     0.010 C 
ENDBRANCH  35  36
BRANCH  35  39
ATOM     39  C   UNL     1      11.139  -5.586   9.215  1.00  0.00     0.329 C 
ATOM     40  O   UNL     1      10.376  -5.992   8.347  1.00  0.00    -0.250 OA
BRANCH  39  41
ATOM     41  O   UNL     1      11.500  -6.325  10.308  1.00  0.00    -0.458 OA
BRANCH  41  42
ATOM     42  C   UNL     1      12.363  -7.460  10.058  1.00  0.00     0.205 CG0
ATOM     43  C   UNL     1      11.530  -8.721  10.273  1.00  0.00     0.056 C 
ATOM     44  G   UNL     1      13.570  -7.380  11.014  1.00  0.00     0.000 G0
ENDBRANCH  41  42
ENDBRANCH  39  41
ENDBRANCH  35  39
ENDBRANCH  33  35
ENDBRANCH  23  31
ENDBRANCH  21  23
ENDBRANCH  19  21
ENDBRANCH  14  19
ENDBRANCH   7  14
ENDBRANCH   2   5
BRANCH   3  45
ATOM     45  C   UNL     1       6.143   6.901   6.118  1.00  0.00     0.171 C 
BRANCH  45  46
ATOM     46  N   UNL     1       4.923   7.689   5.995  1.00  0.00    -0.342 N 
ATOM     47  C   UNL     1       4.807   8.953   6.516  1.00  0.00     0.247 C 
ATOM     48  O   UNL     1       5.743   9.540   7.060  1.00  0.00    -0.273 OA
ATOM     49  H   UNL     1       4.141   7.262   5.501  1.00  0.00     0.164 HD
BRANCH  47  50
ATOM     50  C   UNL     1       3.411   9.579   6.398  1.00  0.00     0.212 CG0
ATOM     51  G   UNL     1       3.514  11.044   6.867  1.00  0.00     0.000 G0
BRANCH  50  52
ATOM     52  N   UNL     1       3.043   9.448   4.991  1.00  0.00    -0.339 N 
ATOM     53  C   UNL     1       1.866   9.928   4.470  1.00  0.00     0.243 C 
ATOM     54  O   UNL     1       1.003  10.461   5.163  1.00  0.00    -0.273 OA
ATOM     55  H   UNL     1       3.667   8.918   4.387  1.00  0.00     0.164 HD
BRANCH  53  56
ATOM     56  C   UNL     1       1.658   9.596   2.978  1.00  0.00     0.182 C 
BRANCH  56  57
ATOM     57  N   UNL     1       1.029  10.717   2.272  1.00  0.00    -0.344 N 
ATOM     58  C   UNL     1       1.760  11.677   1.616  1.00  0.00     0.220 C 
ATOM     59  O   UNL     1       2.985  11.706   1.636  1.00  0.00    -0.275 OA
ATOM     60  H   UNL     1       0.021  10.674   2.146  1.00  0.00     0.164 HD
BRANCH  58  61
ATOM     61  C   UNL     1       0.900  12.707   0.906  1.00  0.00     0.100 C 
BRANCH  61  62
ATOM     62  C   UNL     1       0.985  12.635  -0.618  1.00  0.00     0.010 C 
BRANCH  62  63
ATOM     63  C   UNL     1       1.506  11.296  -1.156  1.00  0.00     0.000 C 
BRANCH  63  64
ATOM     64  C   UNL     1       0.411  10.279  -1.473  1.00  0.00    -0.003 C 
ATOM     65  C   UNL     1       0.908   8.853  -1.291  1.00  0.00     0.004 C 
ENDBRANCH  63  64
ENDBRANCH  62  63
ENDBRANCH  61  62
ENDBRANCH  58  61
ENDBRANCH  56  57
BRANCH  56  66
ATOM     66  C   UNL     1       0.883   8.292   2.798  1.00  0.00     0.157 C 
BRANCH  66  67
ATOM     67  C   UNL     1      -0.573   8.556   2.542  1.00  0.00     0.305 C 
ATOM     68  O   UNL     1      -1.172   8.400   1.489  1.00  0.00    -0.252 OA
BRANCH  67  69
ATOM     69  O   UNL     1      -1.222   8.958   3.651  1.00  0.00    -0.481 OA
ATOM     70  H   UNL     1      -0.575   8.838   4.377  1.00  0.00     0.296 HD
ENDBRANCH  67  69
ENDBRANCH  66  67
ENDBRANCH  56  66
ENDBRANCH  53  56
ENDBRANCH  50  52
ENDBRANCH  47  50
ENDBRANCH  45  46
BRANCH  45  71
ATOM     71  C   UNL     1       7.029   7.032   4.874  1.00  0.00     0.037 C 
BRANCH  71  72
ATOM     72  C   UNL     1       8.057   8.157   5.016  1.00  0.00     0.026 C 
BRANCH  72  73
ATOM     73  C   UNL     1       7.956   9.156   3.865  1.00  0.00     0.146 C 
BRANCH  73  74
ATOM     74  N   UNL     1       6.564   9.197   3.429  1.00  0.00    -0.254 NA
ATOM     75  C   UNL     1       6.315   9.664   2.261  1.00  0.00     0.185 C 
ATOM     76  N   UNL     1       5.044   9.713   1.832  1.00  0.00    -0.370 N 
ATOM     77  N   UNL     1       7.172  10.140   1.342  1.00  0.00    -0.370 N 
ATOM     78  H   UNL     1       4.333   9.379   2.467  1.00  0.00     0.159 HD
ATOM     79  H   UNL     1       4.760  10.194   0.997  1.00  0.00     0.159 HD
ATOM     80  H   UNL     1       8.164  10.161   1.526  1.00  0.00     0.159 HD
ATOM     81  H   UNL     1       6.871  10.374   0.410  1.00  0.00     0.159 HD
ENDBRANCH  73  74
ENDBRANCH  72  73
ENDBRANCH  71  72
ENDBRANCH  45  71
ENDBRANCH   3  45
TORSDOF 20
ENDMDL
MODEL 42
REMARK VINA RESULT:    -4.462      6.706     10.967
REMARK INTER + INTRA:         -20.253
REMARK INTER:                 -14.415
REMARK INTRA:                  -5.837
REMARK UNBOUND:                -7.444
REMARK SMILES CCCCCC(=O)N[C@H](CC(=O)O)C(=O)N[C@H]1C(=O)N[C@H](CCCN=C(N)N)C(=O)N[C@@H]2CC[C@H](O)N(C2=O)[C@@H](CC(C)C)C(=O)N(C)[C@@H](Cc2ccccc2)C(=O)N[C@H](C(C)C)C(=O)O[C@@H]1C
REMARK SMILES IDX 30 1 31 2 29 3 32 5 35 6 37 7 34 8 38 9 33 10 39 11 36 12
REMARK SMILES IDX 40 14 41 15 42 16 43 17 44 18 45 19 46 20 47 21 48 22 49 23
REMARK SMILES IDX 50 24 51 25 52 26 56 27 53 28 55 29 54 30 57 31 58 32 59 33
REMARK SMILES IDX 60 35 61 36 62 37 63 38 64 39 65 40 66 41 67 42 68 43 21 45
REMARK SMILES IDX 20 46 18 47 19 48 17 50 16 52 14 53 15 54 9 56 8 57 6 58
REMARK SMILES IDX 7 59 5 61 4 62 3 63 2 64 1 65 10 66 11 67 12 68 13 69 22 71
REMARK SMILES IDX 23 72 24 73 25 74 26 75 27 76 28 77
REMARK H PARENT 31 4 36 13 59 34 20 49 16 55 8 60 13 70 27 78 27 79 28 80
REMARK H PARENT 28 81
REMARK Flexibility Score:  259.900
ROOT
ATOM      1  O   UNL     1       4.400  10.078   3.425  1.00  0.00    -0.273 OA
ATOM      2  N   UNL     1       3.648   8.217   4.521  1.00  0.00    -0.343 N 
ATOM      3  C   UNL     1       3.460   9.371   3.791  1.00  0.00     0.243 C 
ATOM      4  H   UNL     1       2.853   7.652   4.792  1.00  0.00     0.164 HD
ENDROOT
BRANCH   2   5
ATOM      5  C   UNL     1       4.976   7.847   4.997  1.00  0.00     0.171 C 
ATOM      6  C   UNL     1       6.108   5.339   5.911  1.00  0.00     0.214 C 
ATOM      7  N   UNL     1       5.506   6.238   6.868  1.00  0.00    -0.303 N 
ATOM      8  C   UNL     1       6.717   6.054   4.715  1.00  0.00     0.057 C 
ATOM      9  C   UNL     1       4.903   7.427   6.493  1.00  0.00     0.247 C 
ATOM     10  C   UNL     1       5.660   6.888   4.024  1.00  0.00     0.040 C 
ATOM     11  O   UNL     1       4.313   8.150   7.308  1.00  0.00    -0.272 OA
BRANCH   6  12
ATOM     12  O   UNL     1       5.116   4.432   5.490  1.00  0.00    -0.373 OA
ATOM     13  H   UNL     1       5.478   3.949   4.716  1.00  0.00     0.213 HD
ENDBRANCH   6  12
BRANCH   7  14
ATOM     14  C   UNL     1       5.425   5.770   8.268  1.00  0.00     0.177 C 
BRANCH  14  15
ATOM     15  C   UNL     1       4.838   4.357   8.455  1.00  0.00     0.038 C 
BRANCH  15  16
ATOM     16  C   UNL     1       5.713   3.245   9.075  1.00  0.00    -0.015 C 
ATOM     17  C   UNL     1       5.482   1.883   8.414  1.00  0.00     0.007 C 
ATOM     18  C   UNL     1       5.399   3.112  10.571  1.00  0.00     0.007 C 
ENDBRANCH  15  16
ENDBRANCH  14  15
BRANCH  14  19
ATOM     19  C   UNL     1       6.590   6.387   9.116  1.00  0.00     0.245 C 
ATOM     20  O   UNL     1       7.688   6.513   8.549  1.00  0.00    -0.272 OA
BRANCH  19  21
ATOM     21  N   UNL     1       6.489   6.685  10.464  1.00  0.00    -0.332 N 
ATOM     22  C   UNL     1       7.424   6.264  11.492  1.00  0.00     0.147 C 
BRANCH  21  23
ATOM     23  C   UNL     1       5.323   7.495  10.911  1.00  0.00     0.178 C 
BRANCH  23  24
ATOM     24  C   UNL     1       4.789   7.139  12.314  1.00  0.00     0.070 C 
BRANCH  24  25
ATOM     25  C   UNL     1       3.464   6.417  12.383  1.00  0.00    -0.045 A 
ATOM     26  C   UNL     1       2.924   5.797  11.249  1.00  0.00     0.004 A 
ATOM     27  C   UNL     1       2.749   6.363  13.589  1.00  0.00     0.004 A 
ATOM     28  C   UNL     1       1.690   5.147  11.317  1.00  0.00     0.000 A 
ATOM     29  C   UNL     1       1.517   5.712  13.656  1.00  0.00     0.000 A 
ATOM     30  C   UNL     1       0.987   5.107  12.518  1.00  0.00     0.000 A 
ENDBRANCH  24  25
ENDBRANCH  23  24
BRANCH  23  31
ATOM     31  C   UNL     1       5.503   9.010  10.649  1.00  0.00     0.243 C 
ATOM     32  O   UNL     1       6.477   9.660  11.021  1.00  0.00    -0.273 OA
ATOM     33  N   UNL     1       4.379   9.616  10.114  1.00  0.00    -0.341 N 
ATOM     34  H   UNL     1       3.597   9.022   9.829  1.00  0.00     0.164 HD
BRANCH  33  35
ATOM     35  C   UNL     1       4.280  11.062   9.894  1.00  0.00     0.194 C 
BRANCH  35  36
ATOM     36  C   UNL     1       3.506  11.822  11.007  1.00  0.00     0.017 C 
ATOM     37  C   UNL     1       4.471  12.508  11.990  1.00  0.00     0.010 C 
ATOM     38  C   UNL     1       2.583  10.915  11.829  1.00  0.00     0.010 C 
ENDBRANCH  35  36
BRANCH  35  39
ATOM     39  C   UNL     1       3.752  11.415   8.475  1.00  0.00     0.329 C 
ATOM     40  O   UNL     1       4.451  11.869   7.577  1.00  0.00    -0.250 OA
BRANCH  39  41
ATOM     41  O   UNL     1       2.437  11.080   8.312  1.00  0.00    -0.458 OA
BRANCH  41  42
ATOM     42  C   UNL     1       1.614  12.039   7.605  1.00  0.00     0.205 CG0
ATOM     43  C   UNL     1       0.875  12.865   8.656  1.00  0.00     0.056 C 
ATOM     44  G   UNL     1       0.653  11.273   6.675  1.00  0.00     0.000 G0
ENDBRANCH  41  42
ENDBRANCH  39  41
ENDBRANCH  35  39
ENDBRANCH  33  35
ENDBRANCH  23  31
ENDBRANCH  21  23
ENDBRANCH  19  21
ENDBRANCH  14  19
ENDBRANCH   7  14
ENDBRANCH   2   5
BRANCH   3  45
ATOM     45  C   UNL     1       2.002   9.700   3.446  1.00  0.00     0.171 C 
BRANCH  45  46
ATOM     46  N   UNL     1       1.345   9.958   4.721  1.00  0.00    -0.342 N 
ATOM     47  C   UNL     1       1.253  11.216   5.261  1.00  0.00     0.247 C 
ATOM     48  O   UNL     1       1.652  12.225   4.677  1.00  0.00    -0.273 OA
ATOM     49  H   UNL     1       0.951   9.158   5.212  1.00  0.00     0.164 HD
BRANCH  47  50
ATOM     50  C   UNL     1       0.639  11.278   6.666  1.00  0.00     0.212 CG0
ATOM     51  G   UNL     1       1.628  12.032   7.577  1.00  0.00     0.000 G0
BRANCH  50  52
ATOM     52  N   UNL     1      -0.638  11.969   6.504  1.00  0.00    -0.339 N 
ATOM     53  C   UNL     1      -1.743  11.389   5.930  1.00  0.00     0.243 C 
ATOM     54  O   UNL     1      -1.727  10.255   5.459  1.00  0.00    -0.273 OA
ATOM     55  H   UNL     1      -0.682  12.949   6.774  1.00  0.00     0.164 HD
BRANCH  53  56
ATOM     56  C   UNL     1      -2.948  12.340   5.789  1.00  0.00     0.182 C 
BRANCH  56  57
ATOM     57  N   UNL     1      -3.184  12.686   4.383  1.00  0.00    -0.344 N 
ATOM     58  C   UNL     1      -2.232  13.299   3.606  1.00  0.00     0.220 C 
ATOM     59  O   UNL     1      -1.149  13.667   4.050  1.00  0.00    -0.275 OA
ATOM     60  H   UNL     1      -4.024  12.310   3.951  1.00  0.00     0.164 HD
BRANCH  58  61
ATOM     61  C   UNL     1      -2.671  13.508   2.169  1.00  0.00     0.100 C 
BRANCH  61  62
ATOM     62  C   UNL     1      -1.610  14.171   1.290  1.00  0.00     0.010 C 
BRANCH  62  63
ATOM     63  C   UNL     1      -0.692  13.183   0.560  1.00  0.00     0.000 C 
BRANCH  63  64
ATOM     64  C   UNL     1       0.483  13.837  -0.164  1.00  0.00    -0.003 C 
ATOM     65  C   UNL     1       1.616  12.846  -0.390  1.00  0.00     0.004 C 
ENDBRANCH  63  64
ENDBRANCH  62  63
ENDBRANCH  61  62
ENDBRANCH  58  61
ENDBRANCH  56  57
BRANCH  56  66
ATOM     66  C   UNL     1      -2.790  13.580   6.668  1.00  0.00     0.157 C 
BRANCH  66  67
ATOM     67  C   UNL     1      -3.635  13.480   7.906  1.00  0.00     0.305 C 
ATOM     68  O   UNL     1      -4.791  13.092   7.974  1.00  0.00    -0.252 OA
BRANCH  67  69
ATOM     69  O   UNL     1      -2.958  13.827   9.017  1.00  0.00    -0.481 OA
ATOM     70  H   UNL     1      -2.028  13.576   8.832  1.00  0.00     0.296 HD
ENDBRANCH  67  69
ENDBRANCH  66  67
ENDBRANCH  56  66
ENDBRANCH  53  56
ENDBRANCH  50  52
ENDBRANCH  47  50
ENDBRANCH  45  46
BRANCH  45  71
ATOM     71  C   UNL     1       1.351   8.530   2.701  1.00  0.00     0.037 C 
BRANCH  71  72
ATOM     72  C   UNL     1       1.379   8.726   1.183  1.00  0.00     0.026 C 
BRANCH  72  73
ATOM     73  C   UNL     1       0.233   9.619   0.713  1.00  0.00     0.146 C 
BRANCH  73  74
ATOM     74  N   UNL     1      -0.607   8.831  -0.185  1.00  0.00    -0.254 NA
ATOM     75  C   UNL     1      -0.493   9.037  -1.445  1.00  0.00     0.185 C 
ATOM     76  N   UNL     1      -1.251   8.327  -2.297  1.00  0.00    -0.370 N 
ATOM     77  N   UNL     1       0.312   9.898  -2.092  1.00  0.00    -0.370 N 
ATOM     78  H   UNL     1      -1.891   7.659  -1.892  1.00  0.00     0.159 HD
ATOM     79  H   UNL     1      -1.322   8.532  -3.278  1.00  0.00     0.159 HD
ATOM     80  H   UNL     1       0.942  10.496  -1.579  1.00  0.00     0.159 HD
ATOM     81  H   UNL     1       0.398   9.890  -3.095  1.00  0.00     0.159 HD
ENDBRANCH  73  74
ENDBRANCH  72  73
ENDBRANCH  71  72
ENDBRANCH  45  71
ENDBRANCH   3  45
TORSDOF 20
ENDMDL
MODEL 43
REMARK VINA RESULT:    -4.432      5.758      8.684
REMARK INTER + INTRA:         -20.167
REMARK INTER:                 -12.975
REMARK INTRA:                  -7.192
REMARK UNBOUND:                -7.444
REMARK SMILES CCCCCC(=O)N[C@H](CC(=O)O)C(=O)N[C@H]1C(=O)N[C@H](CCCN=C(N)N)C(=O)N[C@@H]2CC[C@H](O)N(C2=O)[C@@H](CC(C)C)C(=O)N(C)[C@@H](Cc2ccccc2)C(=O)N[C@H](C(C)C)C(=O)O[C@@H]1C
REMARK SMILES IDX 30 1 31 2 29 3 32 5 35 6 37 7 34 8 38 9 33 10 39 11 36 12
REMARK SMILES IDX 40 14 41 15 42 16 43 17 44 18 45 19 46 20 47 21 48 22 49 23
REMARK SMILES IDX 50 24 51 25 52 26 56 27 53 28 55 29 54 30 57 31 58 32 59 33
REMARK SMILES IDX 60 35 61 36 62 37 63 38 64 39 65 40 66 41 67 42 68 43 21 45
REMARK SMILES IDX 20 46 18 47 19 48 17 50 16 52 14 53 15 54 9 56 8 57 6 58
REMARK SMILES IDX 7 59 5 61 4 62 3 63 2 64 1 65 10 66 11 67 12 68 13 69 22 71
REMARK SMILES IDX 23 72 24 73 25 74 26 75 27 76 28 77
REMARK H PARENT 31 4 36 13 59 34 20 49 16 55 8 60 13 70 27 78 27 79 28 80
REMARK H PARENT 28 81
REMARK Flexibility Score:  259.900
ROOT
ATOM      1  O   UNL     1       4.964   2.830   8.778  1.00  0.00    -0.273 OA
ATOM      2  N   UNL     1       5.129   0.679   9.536  1.00  0.00    -0.343 N 
ATOM      3  C   UNL     1       4.455   1.867   9.353  1.00  0.00     0.243 C 
ATOM      4  H   UNL     1       4.674  -0.097  10.000  1.00  0.00     0.164 HD
ENDROOT
BRANCH   2   5
ATOM      5  C   UNL     1       6.531   0.554   9.154  1.00  0.00     0.171 C 
ATOM      6  C   UNL     1       8.627  -1.285   9.949  1.00  0.00     0.214 C 
ATOM      7  N   UNL     1       8.453  -0.049  10.676  1.00  0.00    -0.303 N 
ATOM      8  C   UNL     1       8.221  -1.185   8.487  1.00  0.00     0.057 C 
ATOM      9  C   UNL     1       7.440   0.849  10.382  1.00  0.00     0.247 C 
ATOM     10  C   UNL     1       6.777  -0.743   8.385  1.00  0.00     0.040 C 
ATOM     11  O   UNL     1       7.244   1.863  11.064  1.00  0.00    -0.272 OA
BRANCH   6  12
ATOM     12  O   UNL     1       7.873  -2.279  10.603  1.00  0.00    -0.373 OA
ATOM     13  H   UNL     1       6.977  -1.909  10.753  1.00  0.00     0.213 HD
ENDBRANCH   6  12
BRANCH   7  14
ATOM     14  C   UNL     1       9.315   0.160  11.859  1.00  0.00     0.177 C 
BRANCH  14  15
ATOM     15  C   UNL     1       9.274  -0.968  12.908  1.00  0.00     0.038 C 
BRANCH  15  16
ATOM     16  C   UNL     1       8.532  -0.739  14.244  1.00  0.00    -0.015 C 
ATOM     17  C   UNL     1       8.166  -2.053  14.941  1.00  0.00     0.007 C 
ATOM     18  C   UNL     1       7.240   0.048  13.991  1.00  0.00     0.007 C 
ENDBRANCH  15  16
ENDBRANCH  14  15
BRANCH  14  19
ATOM     19  C   UNL     1      10.587   0.987  11.465  1.00  0.00     0.245 C 
ATOM     20  O   UNL     1      11.404   0.432  10.712  1.00  0.00    -0.272 OA
BRANCH  19  21
ATOM     21  N   UNL     1      10.893   2.229  11.992  1.00  0.00    -0.332 N 
ATOM     22  C   UNL     1      12.227   2.787  12.114  1.00  0.00     0.147 C 
BRANCH  21  23
ATOM     23  C   UNL     1       9.769   3.070  12.489  1.00  0.00     0.178 C 
BRANCH  23  24
ATOM     24  C   UNL     1      10.008   3.717  13.869  1.00  0.00     0.070 C 
BRANCH  24  25
ATOM     25  C   UNL     1       9.367   3.048  15.063  1.00  0.00    -0.045 A 
ATOM     26  C   UNL     1       8.029   3.296  15.392  1.00  0.00     0.004 A 
ATOM     27  C   UNL     1      10.111   2.168  15.864  1.00  0.00     0.004 A 
ATOM     28  C   UNL     1       7.449   2.687  16.508  1.00  0.00     0.000 A 
ATOM     29  C   UNL     1       9.530   1.559  16.978  1.00  0.00     0.000 A 
ATOM     30  C   UNL     1       8.200   1.822  17.300  1.00  0.00     0.000 A 
ENDBRANCH  24  25
ENDBRANCH  23  24
BRANCH  23  31
ATOM     31  C   UNL     1       9.206   4.026  11.411  1.00  0.00     0.243 C 
ATOM     32  O   UNL     1       9.779   4.282  10.354  1.00  0.00    -0.273 OA
ATOM     33  N   UNL     1       8.080   4.719  11.819  1.00  0.00    -0.341 N 
ATOM     34  H   UNL     1       7.651   4.465  12.712  1.00  0.00     0.164 HD
BRANCH  33  35
ATOM     35  C   UNL     1       7.447   5.763  11.008  1.00  0.00     0.194 C 
BRANCH  35  36
ATOM     36  C   UNL     1       7.805   7.212  11.446  1.00  0.00     0.017 C 
ATOM     37  C   UNL     1       8.927   7.798  10.572  1.00  0.00     0.010 C 
ATOM     38  C   UNL     1       8.263   7.306  12.906  1.00  0.00     0.010 C 
ENDBRANCH  35  36
BRANCH  35  39
ATOM     39  C   UNL     1       5.912   5.562  10.867  1.00  0.00     0.329 C 
ATOM     40  O   UNL     1       5.240   6.025   9.953  1.00  0.00    -0.250 OA
BRANCH  39  41
ATOM     41  O   UNL     1       5.405   4.737  11.832  1.00  0.00    -0.458 OA
BRANCH  41  42
ATOM     42  C   UNL     1       4.264   5.238  12.570  1.00  0.00     0.205 CG0
ATOM     43  C   UNL     1       4.803   6.088  13.718  1.00  0.00     0.056 C 
ATOM     44  G   UNL     1       3.433   4.037  13.065  1.00  0.00     0.000 G0
ENDBRANCH  41  42
ENDBRANCH  39  41
ENDBRANCH  35  39
ENDBRANCH  33  35
ENDBRANCH  23  31
ENDBRANCH  21  23
ENDBRANCH  19  21
ENDBRANCH  14  19
ENDBRANCH   7  14
ENDBRANCH   2   5
BRANCH   3  45
ATOM     45  C   UNL     1       3.021   1.900   9.896  1.00  0.00     0.171 C 
BRANCH  45  46
ATOM     46  N   UNL     1       3.000   2.965  10.890  1.00  0.00    -0.342 N 
ATOM     47  C   UNL     1       3.657   2.864  12.091  1.00  0.00     0.247 C 
ATOM     48  O   UNL     1       4.368   1.902  12.385  1.00  0.00    -0.273 OA
ATOM     49  H   UNL     1       2.469   3.803  10.664  1.00  0.00     0.164 HD
BRANCH  47  50
ATOM     50  C   UNL     1       3.420   4.029  13.062  1.00  0.00     0.212 CG0
ATOM     51  G   UNL     1       4.266   5.222  12.575  1.00  0.00     0.000 G0
BRANCH  50  52
ATOM     52  N   UNL     1       1.983   4.286  13.019  1.00  0.00    -0.339 N 
ATOM     53  C   UNL     1       1.095   3.766  13.929  1.00  0.00     0.243 C 
ATOM     54  O   UNL     1       1.438   2.997  14.823  1.00  0.00    -0.273 OA
ATOM     55  H   UNL     1       1.622   4.826  12.235  1.00  0.00     0.164 HD
BRANCH  53  56
ATOM     56  C   UNL     1      -0.380   4.104  13.631  1.00  0.00     0.182 C 
BRANCH  56  57
ATOM     57  N   UNL     1      -0.523   4.706  12.301  1.00  0.00    -0.344 N 
ATOM     58  C   UNL     1      -1.697   4.648  11.590  1.00  0.00     0.220 C 
ATOM     59  O   UNL     1      -2.680   4.029  11.982  1.00  0.00    -0.275 OA
ATOM     60  H   UNL     1       0.230   5.311  11.986  1.00  0.00     0.164 HD
BRANCH  58  61
ATOM     61  C   UNL     1      -1.635   5.388  10.267  1.00  0.00     0.100 C 
BRANCH  61  62
ATOM     62  C   UNL     1      -1.637   4.468   9.045  1.00  0.00     0.010 C 
BRANCH  62  63
ATOM     63  C   UNL     1      -1.773   2.978   9.383  1.00  0.00     0.000 C 
BRANCH  63  64
ATOM     64  C   UNL     1      -1.110   2.043   8.372  1.00  0.00    -0.003 C 
ATOM     65  C   UNL     1      -1.720   0.650   8.421  1.00  0.00     0.004 C 
ENDBRANCH  63  64
ENDBRANCH  62  63
ENDBRANCH  61  62
ENDBRANCH  58  61
ENDBRANCH  56  57
BRANCH  56  66
ATOM     66  C   UNL     1      -0.987   4.976  14.728  1.00  0.00     0.157 C 
BRANCH  66  67
ATOM     67  C   UNL     1      -1.450   4.145  15.890  1.00  0.00     0.305 C 
ATOM     68  O   UNL     1      -2.367   3.338  15.894  1.00  0.00    -0.252 OA
BRANCH  67  69
ATOM     69  O   UNL     1      -0.695   4.336  16.988  1.00  0.00    -0.481 OA
ATOM     70  H   UNL     1      -1.323   4.273  17.738  1.00  0.00     0.296 HD
ENDBRANCH  67  69
ENDBRANCH  66  67
ENDBRANCH  56  66
ENDBRANCH  53  56
ENDBRANCH  50  52
ENDBRANCH  47  50
ENDBRANCH  45  46
BRANCH  45  71
ATOM     71  C   UNL     1       2.652   0.545  10.511  1.00  0.00     0.037 C 
BRANCH  71  72
ATOM     72  C   UNL     1       1.137   0.330  10.564  1.00  0.00     0.026 C 
BRANCH  72  73
ATOM     73  C   UNL     1       0.621   0.330  12.002  1.00  0.00     0.146 C 
BRANCH  73  74
ATOM     74  N   UNL     1      -0.811   0.607  11.962  1.00  0.00    -0.254 NA
ATOM     75  C   UNL     1      -1.401   0.870  13.069  1.00  0.00     0.185 C 
ATOM     76  N   UNL     1      -2.719   1.130  13.065  1.00  0.00    -0.370 N 
ATOM     77  N   UNL     1      -0.884   0.932  14.309  1.00  0.00    -0.370 N 
ATOM     78  H   UNL     1      -3.189   1.097  12.172  1.00  0.00     0.159 HD
ATOM     79  H   UNL     1      -3.272   1.201  13.901  1.00  0.00     0.159 HD
ATOM     80  H   UNL     1       0.098   0.763  14.464  1.00  0.00     0.159 HD
ATOM     81  H   UNL     1      -1.424   1.263  15.091  1.00  0.00     0.159 HD
ENDBRANCH  73  74
ENDBRANCH  72  73
ENDBRANCH  71  72
ENDBRANCH  45  71
ENDBRANCH   3  45
TORSDOF 20
ENDMDL
MODEL 44
REMARK VINA RESULT:    -4.429      6.999     11.376
REMARK INTER + INTRA:         -20.158
REMARK INTER:                 -15.192
REMARK INTRA:                  -4.965
REMARK UNBOUND:                -7.444
REMARK SMILES CCCCCC(=O)N[C@H](CC(=O)O)C(=O)N[C@H]1C(=O)N[C@H](CCCN=C(N)N)C(=O)N[C@@H]2CC[C@H](O)N(C2=O)[C@@H](CC(C)C)C(=O)N(C)[C@@H](Cc2ccccc2)C(=O)N[C@H](C(C)C)C(=O)O[C@@H]1C
REMARK SMILES IDX 30 1 31 2 29 3 32 5 35 6 37 7 34 8 38 9 33 10 39 11 36 12
REMARK SMILES IDX 40 14 41 15 42 16 43 17 44 18 45 19 46 20 47 21 48 22 49 23
REMARK SMILES IDX 50 24 51 25 52 26 56 27 53 28 55 29 54 30 57 31 58 32 59 33
REMARK SMILES IDX 60 35 61 36 62 37 63 38 64 39 65 40 66 41 67 42 68 43 21 45
REMARK SMILES IDX 20 46 18 47 19 48 17 50 16 52 14 53 15 54 9 56 8 57 6 58
REMARK SMILES IDX 7 59 5 61 4 62 3 63 2 64 1 65 10 66 11 67 12 68 13 69 22 71
REMARK SMILES IDX 23 72 24 73 25 74 26 75 27 76 28 77
REMARK H PARENT 31 4 36 13 59 34 20 49 16 55 8 60 13 70 27 78 27 79 28 80
REMARK H PARENT 28 81
REMARK Flexibility Score:  259.900
ROOT
ATOM      1  O   UNL     1      -0.208   9.954   5.206  1.00  0.00    -0.273 OA
ATOM      2  N   UNL     1       1.746  10.818   4.390  1.00  0.00    -0.343 N 
ATOM      3  C   UNL     1       0.379  10.641   4.370  1.00  0.00     0.243 C 
ATOM      4  H   UNL     1       2.193  11.403   3.695  1.00  0.00     0.164 HD
ENDROOT
BRANCH   2   5
ATOM      5  C   UNL     1       2.574  10.093   5.347  1.00  0.00     0.171 C 
ATOM      6  C   UNL     1       5.426  10.091   5.871  1.00  0.00     0.214 C 
ATOM      7  N   UNL     1       4.877   9.148   4.925  1.00  0.00    -0.303 N 
ATOM      8  C   UNL     1       4.452  10.470   6.976  1.00  0.00     0.057 C 
ATOM      9  C   UNL     1       3.532   9.129   4.590  1.00  0.00     0.247 C 
ATOM     10  C   UNL     1       3.190  11.044   6.372  1.00  0.00     0.040 C 
ATOM     11  O   UNL     1       3.085   8.376   3.715  1.00  0.00    -0.272 OA
BRANCH   6  12
ATOM     12  O   UNL     1       5.827  11.235   5.155  1.00  0.00    -0.373 OA
ATOM     13  H   UNL     1       5.591  11.084   4.215  1.00  0.00     0.213 HD
ENDBRANCH   6  12
BRANCH   7  14
ATOM     14  C   UNL     1       5.837   8.286   4.204  1.00  0.00     0.177 C 
BRANCH  14  15
ATOM     15  C   UNL     1       5.481   6.787   4.177  1.00  0.00     0.038 C 
BRANCH  15  16
ATOM     16  C   UNL     1       5.952   5.872   5.330  1.00  0.00    -0.015 C 
ATOM     17  C   UNL     1       4.837   5.583   6.339  1.00  0.00     0.007 C 
ATOM     18  C   UNL     1       7.116   6.536   6.076  1.00  0.00     0.007 C 
ENDBRANCH  15  16
ENDBRANCH  14  15
BRANCH  14  19
ATOM     19  C   UNL     1       6.505   9.080   3.029  1.00  0.00     0.245 C 
ATOM     20  O   UNL     1       5.748   9.514   2.145  1.00  0.00    -0.272 OA
BRANCH  19  21
ATOM     21  N   UNL     1       7.873   9.220   2.873  1.00  0.00    -0.332 N 
ATOM     22  C   UNL     1       8.774   8.194   2.381  1.00  0.00     0.147 C 
BRANCH  21  23
ATOM     23  C   UNL     1       8.486  10.525   3.246  1.00  0.00     0.178 C 
BRANCH  23  24
ATOM     24  C   UNL     1       9.891  10.421   3.875  1.00  0.00     0.070 C 
BRANCH  24  25
ATOM     25  C   UNL     1       9.977  10.497   5.382  1.00  0.00    -0.045 A 
ATOM     26  C   UNL     1      10.945  11.294   6.006  1.00  0.00     0.004 A 
ATOM     27  C   UNL     1       9.088   9.762   6.180  1.00  0.00     0.004 A 
ATOM     28  C   UNL     1      11.030  11.346   7.399  1.00  0.00     0.000 A 
ATOM     29  C   UNL     1       9.173   9.815   7.572  1.00  0.00     0.000 A 
ATOM     30  C   UNL     1      10.146  10.605   8.180  1.00  0.00     0.000 A 
ENDBRANCH  24  25
ENDBRANCH  23  24
BRANCH  23  31
ATOM     31  C   UNL     1       8.345  11.597   2.140  1.00  0.00     0.243 C 
ATOM     32  O   UNL     1       9.227  11.867   1.328  1.00  0.00    -0.273 OA
ATOM     33  N   UNL     1       7.199  12.365   2.257  1.00  0.00    -0.341 N 
ATOM     34  H   UNL     1       6.503  12.095   2.957  1.00  0.00     0.164 HD
BRANCH  33  35
ATOM     35  C   UNL     1       6.916  13.514   1.393  1.00  0.00     0.194 C 
BRANCH  35  36
ATOM     36  C   UNL     1       7.175  14.893   2.063  1.00  0.00     0.017 C 
ATOM     37  C   UNL     1       8.671  15.253   2.042  1.00  0.00     0.010 C 
ATOM     38  C   UNL     1       6.710  14.951   3.524  1.00  0.00     0.010 C 
ENDBRANCH  35  36
BRANCH  35  39
ATOM     39  C   UNL     1       5.505  13.441   0.744  1.00  0.00     0.329 C 
ATOM     40  O   UNL     1       5.303  13.483  -0.464  1.00  0.00    -0.250 OA
BRANCH  39  41
ATOM     41  O   UNL     1       4.518  13.236   1.668  1.00  0.00    -0.458 OA
BRANCH  41  42
ATOM     42  C   UNL     1       3.611  12.139   1.404  1.00  0.00     0.205 CG0
ATOM     43  C   UNL     1       4.322  11.181   0.450  1.00  0.00     0.056 C 
ATOM     44  G   UNL     1       2.310  12.709   0.806  1.00  0.00     0.000 G0
ENDBRANCH  41  42
ENDBRANCH  39  41
ENDBRANCH  35  39
ENDBRANCH  33  35
ENDBRANCH  23  31
ENDBRANCH  21  23
ENDBRANCH  19  21
ENDBRANCH  14  19
ENDBRANCH   7  14
ENDBRANCH   2   5
BRANCH   3  45
ATOM     45  C   UNL     1      -0.362  11.377   3.246  1.00  0.00     0.171 C 
BRANCH  45  46
ATOM     46  N   UNL     1       0.650  12.167   2.558  1.00  0.00    -0.342 N 
ATOM     47  C   UNL     1       1.121  11.836   1.312  1.00  0.00     0.247 C 
ATOM     48  O   UNL     1       0.674  10.895   0.656  1.00  0.00    -0.273 OA
ATOM     49  H   UNL     1       1.008  12.988   3.042  1.00  0.00     0.164 HD
BRANCH  47  50
ATOM     50  C   UNL     1       2.274  12.712   0.800  1.00  0.00     0.212 CG0
ATOM     51  G   UNL     1       3.584  12.153   1.391  1.00  0.00     0.000 G0
BRANCH  50  52
ATOM     52  N   UNL     1       2.214  12.622  -0.657  1.00  0.00    -0.339 N 
ATOM     53  C   UNL     1       1.803  13.656  -1.462  1.00  0.00     0.243 C 
ATOM     54  O   UNL     1       1.402  14.726  -1.011  1.00  0.00    -0.273 OA
ATOM     55  H   UNL     1       2.428  11.723  -1.084  1.00  0.00     0.164 HD
BRANCH  53  56
ATOM     56  C   UNL     1       1.740  13.299  -2.960  1.00  0.00     0.182 C 
BRANCH  56  57
ATOM     57  N   UNL     1       1.491  11.866  -3.149  1.00  0.00    -0.344 N 
ATOM     58  C   UNL     1       0.813  11.374  -4.238  1.00  0.00     0.220 C 
ATOM     59  O   UNL     1       0.307  12.100  -5.088  1.00  0.00    -0.275 OA
ATOM     60  H   UNL     1       1.978  11.228  -2.526  1.00  0.00     0.164 HD
BRANCH  58  61
ATOM     61  C   UNL     1       0.724   9.859  -4.257  1.00  0.00     0.100 C 
BRANCH  61  62
ATOM     62  C   UNL     1       0.925   9.213  -2.887  1.00  0.00     0.010 C 
BRANCH  62  63
ATOM     63  C   UNL     1      -0.221   8.289  -2.455  1.00  0.00     0.000 C 
BRANCH  63  64
ATOM     64  C   UNL     1      -1.182   8.912  -1.444  1.00  0.00    -0.003 C 
ATOM     65  C   UNL     1      -1.274   8.076  -0.176  1.00  0.00     0.004 C 
ENDBRANCH  63  64
ENDBRANCH  62  63
ENDBRANCH  61  62
ENDBRANCH  58  61
ENDBRANCH  56  57
BRANCH  56  66
ATOM     66  C   UNL     1       2.990  13.770  -3.702  1.00  0.00     0.157 C 
BRANCH  66  67
ATOM     67  C   UNL     1       3.943  12.633  -3.937  1.00  0.00     0.305 C 
ATOM     68  O   UNL     1       4.120  12.029  -4.983  1.00  0.00    -0.252 OA
BRANCH  67  69
ATOM     69  O   UNL     1       4.674  12.344  -2.843  1.00  0.00    -0.481 OA
ATOM     70  H   UNL     1       4.552  13.115  -2.249  1.00  0.00     0.296 HD
ENDBRANCH  67  69
ENDBRANCH  66  67
ENDBRANCH  56  66
ENDBRANCH  53  56
ENDBRANCH  50  52
ENDBRANCH  47  50
ENDBRANCH  45  46
BRANCH  45  71
ATOM     71  C   UNL     1      -1.471  12.261   3.827  1.00  0.00     0.037 C 
BRANCH  71  72
ATOM     72  C   UNL     1      -1.326  13.723   3.398  1.00  0.00     0.026 C 
BRANCH  72  73
ATOM     73  C   UNL     1      -2.672  14.328   3.004  1.00  0.00     0.146 C 
BRANCH  73  74
ATOM     74  N   UNL     1      -2.938  13.961   1.617  1.00  0.00    -0.254 NA
ATOM     75  C   UNL     1      -3.834  13.072   1.394  1.00  0.00     0.185 C 
ATOM     76  N   UNL     1      -4.103  12.714   0.128  1.00  0.00    -0.370 N 
ATOM     77  N   UNL     1      -4.595  12.399   2.275  1.00  0.00    -0.370 N 
ATOM     78  H   UNL     1      -3.568  13.168  -0.599  1.00  0.00     0.159 HD
ATOM     79  H   UNL     1      -4.681  11.929  -0.115  1.00  0.00     0.159 HD
ATOM     80  H   UNL     1      -4.505  12.569   3.266  1.00  0.00     0.159 HD
ATOM     81  H   UNL     1      -5.350  11.805   1.976  1.00  0.00     0.159 HD
ENDBRANCH  73  74
ENDBRANCH  72  73
ENDBRANCH  71  72
ENDBRANCH  45  71
ENDBRANCH   3  45
TORSDOF 20
ENDMDL
MODEL 45
REMARK VINA RESULT:    -4.421      6.935     12.915
REMARK INTER + INTRA:         -20.136
REMARK INTER:                 -14.991
REMARK INTRA:                  -5.145
REMARK UNBOUND:                -7.444
REMARK SMILES CCCCCC(=O)N[C@H](CC(=O)O)C(=O)N[C@H]1C(=O)N[C@H](CCCN=C(N)N)C(=O)N[C@@H]2CC[C@H](O)N(C2=O)[C@@H](CC(C)C)C(=O)N(C)[C@@H](Cc2ccccc2)C(=O)N[C@H](C(C)C)C(=O)O[C@@H]1C
REMARK SMILES IDX 30 1 31 2 29 3 32 5 35 6 37 7 34 8 38 9 33 10 39 11 36 12
REMARK SMILES IDX 40 14 41 15 42 16 43 17 44 18 45 19 46 20 47 21 48 22 49 23
REMARK SMILES IDX 50 24 51 25 52 26 56 27 53 28 55 29 54 30 57 31 58 32 59 33
REMARK SMILES IDX 60 35 61 36 62 37 63 38 64 39 65 40 66 41 67 42 68 43 21 45
REMARK SMILES IDX 20 46 18 47 19 48 17 50 16 52 14 53 15 54 9 56 8 57 6 58
REMARK SMILES IDX 7 59 5 61 4 62 3 63 2 64 1 65 10 66 11 67 12 68 13 69 22 71
REMARK SMILES IDX 23 72 24 73 25 74 26 75 27 76 28 77
REMARK H PARENT 31 4 36 13 59 34 20 49 16 55 8 60 13 70 27 78 27 79 28 80
REMARK H PARENT 28 81
REMARK Flexibility Score:  259.900
ROOT
ATOM      1  O   UNL     1       5.164   5.341   4.913  1.00  0.00    -0.273 OA
ATOM      2  N   UNL     1       5.830   5.412   7.100  1.00  0.00    -0.343 N 
ATOM      3  C   UNL     1       5.658   5.968   5.851  1.00  0.00     0.243 C 
ATOM      4  H   UNL     1       6.227   5.962   7.852  1.00  0.00     0.164 HD
ENDROOT
BRANCH   2   5
ATOM      5  C   UNL     1       5.539   4.001   7.331  1.00  0.00     0.171 C 
ATOM      6  C   UNL     1       5.078   2.459   9.743  1.00  0.00     0.214 C 
ATOM      7  N   UNL     1       6.420   2.576   9.220  1.00  0.00    -0.303 N 
ATOM      8  C   UNL     1       4.006   2.522   8.667  1.00  0.00     0.057 C 
ATOM      9  C   UNL     1       6.717   3.339   8.102  1.00  0.00     0.247 C 
ATOM     10  C   UNL     1       4.131   3.816   7.893  1.00  0.00     0.040 C 
ATOM     11  O   UNL     1       7.880   3.504   7.711  1.00  0.00    -0.272 OA
BRANCH   6  12
ATOM     12  O   UNL     1       4.892   3.490  10.684  1.00  0.00    -0.373 OA
ATOM     13  H   UNL     1       5.174   4.326  10.255  1.00  0.00     0.213 HD
ENDBRANCH   6  12
BRANCH   7  14
ATOM     14  C   UNL     1       7.505   1.964  10.015  1.00  0.00     0.177 C 
BRANCH  14  15
ATOM     15  C   UNL     1       7.492   2.308  11.517  1.00  0.00     0.038 C 
BRANCH  15  16
ATOM     16  C   UNL     1       8.720   2.999  12.151  1.00  0.00    -0.015 C 
ATOM     17  C   UNL     1       9.815   2.001  12.540  1.00  0.00     0.007 C 
ATOM     18  C   UNL     1       8.294   3.760  13.412  1.00  0.00     0.007 C 
ENDBRANCH  15  16
ENDBRANCH  14  15
BRANCH  14  19
ATOM     19  C   UNL     1       7.910   0.577   9.406  1.00  0.00     0.245 C 
ATOM     20  O   UNL     1       7.062   0.008   8.698  1.00  0.00    -0.272 OA
BRANCH  19  21
ATOM     21  N   UNL     1       9.091  -0.080   9.702  1.00  0.00    -0.332 N 
ATOM     22  C   UNL     1      10.418   0.350   9.298  1.00  0.00     0.147 C 
BRANCH  21  23
ATOM     23  C   UNL     1       9.007  -1.340  10.490  1.00  0.00     0.178 C 
BRANCH  23  24
ATOM     24  C   UNL     1       7.678  -1.542  11.246  1.00  0.00     0.070 C 
BRANCH  24  25
ATOM     25  C   UNL     1       7.761  -1.751  12.740  1.00  0.00    -0.045 A 
ATOM     26  C   UNL     1       7.897  -3.038  13.278  1.00  0.00     0.004 A 
ATOM     27  C   UNL     1       7.699  -0.655  13.613  1.00  0.00     0.004 A 
ATOM     28  C   UNL     1       7.956  -3.224  14.661  1.00  0.00     0.000 A 
ATOM     29  C   UNL     1       7.759  -0.843  14.994  1.00  0.00     0.000 A 
ATOM     30  C   UNL     1       7.884  -2.128  15.517  1.00  0.00     0.000 A 
ENDBRANCH  24  25
ENDBRANCH  23  24
BRANCH  23  31
ATOM     31  C   UNL     1       9.504  -2.577   9.704  1.00  0.00     0.243 C 
ATOM     32  O   UNL     1       8.879  -3.107   8.789  1.00  0.00    -0.273 OA
ATOM     33  N   UNL     1      10.639  -3.157  10.246  1.00  0.00    -0.341 N 
ATOM     34  H   UNL     1      11.114  -2.672  11.011  1.00  0.00     0.164 HD
BRANCH  33  35
ATOM     35  C   UNL     1      11.218  -4.404   9.739  1.00  0.00     0.194 C 
BRANCH  35  36
ATOM     36  C   UNL     1      11.899  -5.277  10.830  1.00  0.00     0.017 C 
ATOM     37  C   UNL     1      13.344  -4.818  11.092  1.00  0.00     0.010 C 
ATOM     38  C   UNL     1      11.950  -6.767  10.468  1.00  0.00     0.010 C 
ENDBRANCH  35  36
BRANCH  35  39
ATOM     39  C   UNL     1      12.147  -4.178   8.514  1.00  0.00     0.329 C 
ATOM     40  O   UNL     1      12.770  -3.143   8.307  1.00  0.00    -0.250 OA
BRANCH  39  41
ATOM     41  O   UNL     1      12.261  -5.296   7.734  1.00  0.00    -0.458 OA
BRANCH  41  42
ATOM     42  C   UNL     1      13.603  -5.664   7.333  1.00  0.00     0.205 CG0
ATOM     43  C   UNL     1      13.639  -5.654   5.806  1.00  0.00     0.056 C 
ATOM     44  G   UNL     1      13.929  -7.050   7.922  1.00  0.00     0.000 G0
ENDBRANCH  41  42
ENDBRANCH  39  41
ENDBRANCH  35  39
ENDBRANCH  33  35
ENDBRANCH  23  31
ENDBRANCH  21  23
ENDBRANCH  19  21
ENDBRANCH  14  19
ENDBRANCH   7  14
ENDBRANCH   2   5
BRANCH   3  45
ATOM     45  C   UNL     1       6.104   7.430   5.716  1.00  0.00     0.171 C 
BRANCH  45  46
ATOM     46  N   UNL     1       4.893   8.186   5.426  1.00  0.00    -0.342 N 
ATOM     47  C   UNL     1       4.495   9.258   6.185  1.00  0.00     0.247 C 
ATOM     48  O   UNL     1       5.166   9.703   7.118  1.00  0.00    -0.273 OA
ATOM     49  H   UNL     1       4.337   7.887   4.628  1.00  0.00     0.164 HD
BRANCH  47  50
ATOM     50  C   UNL     1       3.131   9.852   5.806  1.00  0.00     0.212 CG0
ATOM     51  G   UNL     1       3.175  11.361   6.119  1.00  0.00     0.000 G0
BRANCH  50  52
ATOM     52  N   UNL     1       2.961   9.562   4.385  1.00  0.00    -0.339 N 
ATOM     53  C   UNL     1       1.823   9.873   3.681  1.00  0.00     0.243 C 
ATOM     54  O   UNL     1       0.835  10.374   4.209  1.00  0.00    -0.273 OA
ATOM     55  H   UNL     1       3.703   9.046   3.916  1.00  0.00     0.164 HD
BRANCH  53  56
ATOM     56  C   UNL     1       1.841   9.392   2.216  1.00  0.00     0.182 C 
BRANCH  56  57
ATOM     57  N   UNL     1       1.068  10.295   1.356  1.00  0.00    -0.344 N 
ATOM     58  C   UNL     1       1.654  11.061   0.378  1.00  0.00     0.220 C 
ATOM     59  O   UNL     1       2.867  11.100   0.204  1.00  0.00    -0.275 OA
ATOM     60  H   UNL     1       0.056  10.217   1.399  1.00  0.00     0.164 HD
BRANCH  58  61
ATOM     61  C   UNL     1       0.657  11.874  -0.427  1.00  0.00     0.100 C 
BRANCH  61  62
ATOM     62  C   UNL     1       0.453  11.361  -1.853  1.00  0.00     0.010 C 
BRANCH  62  63
ATOM     63  C   UNL     1      -0.659  10.312  -1.989  1.00  0.00     0.000 C 
BRANCH  63  64
ATOM     64  C   UNL     1      -1.092  10.041  -3.429  1.00  0.00    -0.003 C 
ATOM     65  C   UNL     1      -0.760  11.215  -4.338  1.00  0.00     0.004 C 
ENDBRANCH  63  64
ENDBRANCH  62  63
ENDBRANCH  61  62
ENDBRANCH  58  61
ENDBRANCH  56  57
BRANCH  56  66
ATOM     66  C   UNL     1       1.375   7.942   2.096  1.00  0.00     0.157 C 
BRANCH  66  67
ATOM     67  C   UNL     1       0.589   7.726   0.835  1.00  0.00     0.305 C 
ATOM     68  O   UNL     1      -0.627   7.665   0.731  1.00  0.00    -0.252 OA
BRANCH  67  69
ATOM     69  O   UNL     1       1.379   7.648  -0.253  1.00  0.00    -0.481 OA
ATOM     70  H   UNL     1       1.085   6.837  -0.718  1.00  0.00     0.296 HD
ENDBRANCH  67  69
ENDBRANCH  66  67
ENDBRANCH  56  66
ENDBRANCH  53  56
ENDBRANCH  50  52
ENDBRANCH  47  50
ENDBRANCH  45  46
BRANCH  45  71
ATOM     71  C   UNL     1       7.140   7.571   4.595  1.00  0.00     0.037 C 
BRANCH  71  72
ATOM     72  C   UNL     1       7.588   9.022   4.404  1.00  0.00     0.026 C 
BRANCH  72  73
ATOM     73  C   UNL     1       7.116   9.582   3.064  1.00  0.00     0.146 C 
BRANCH  73  74
ATOM     74  N   UNL     1       6.102  10.596   3.335  1.00  0.00    -0.254 NA
ATOM     75  C   UNL     1       5.460  11.083   2.338  1.00  0.00     0.185 C 
ATOM     76  N   UNL     1       4.520  12.017   2.557  1.00  0.00    -0.370 N 
ATOM     77  N   UNL     1       5.583  10.793   1.031  1.00  0.00    -0.370 N 
ATOM     78  H   UNL     1       4.369  12.299   3.515  1.00  0.00     0.159 HD
ATOM     79  H   UNL     1       4.083  12.544   1.822  1.00  0.00     0.159 HD
ATOM     80  H   UNL     1       6.250  10.104   0.718  1.00  0.00     0.159 HD
ATOM     81  H   UNL     1       4.941  11.158   0.347  1.00  0.00     0.159 HD
ENDBRANCH  73  74
ENDBRANCH  72  73
ENDBRANCH  71  72
ENDBRANCH  45  71
ENDBRANCH   3  45
TORSDOF 20
ENDMDL
MODEL 46
REMARK VINA RESULT:    -4.368      6.230      8.348
REMARK INTER + INTRA:         -19.983
REMARK INTER:                 -12.411
REMARK INTRA:                  -7.572
REMARK UNBOUND:                -7.444
REMARK SMILES CCCCCC(=O)N[C@H](CC(=O)O)C(=O)N[C@H]1C(=O)N[C@H](CCCN=C(N)N)C(=O)N[C@@H]2CC[C@H](O)N(C2=O)[C@@H](CC(C)C)C(=O)N(C)[C@@H](Cc2ccccc2)C(=O)N[C@H](C(C)C)C(=O)O[C@@H]1C
REMARK SMILES IDX 30 1 31 2 29 3 32 5 35 6 37 7 34 8 38 9 33 10 39 11 36 12
REMARK SMILES IDX 40 14 41 15 42 16 43 17 44 18 45 19 46 20 47 21 48 22 49 23
REMARK SMILES IDX 50 24 51 25 52 26 56 27 53 28 55 29 54 30 57 31 58 32 59 33
REMARK SMILES IDX 60 35 61 36 62 37 63 38 64 39 65 40 66 41 67 42 68 43 21 45
REMARK SMILES IDX 20 46 18 47 19 48 17 50 16 52 14 53 15 54 9 56 8 57 6 58
REMARK SMILES IDX 7 59 5 61 4 62 3 63 2 64 1 65 10 66 11 67 12 68 13 69 22 71
REMARK SMILES IDX 23 72 24 73 25 74 26 75 27 76 28 77
REMARK H PARENT 31 4 36 13 59 34 20 49 16 55 8 60 13 70 27 78 27 79 28 80
REMARK H PARENT 28 81
REMARK Flexibility Score:  259.900
ROOT
ATOM      1  O   UNL     1       3.761   3.298   8.376  1.00  0.00    -0.273 OA
ATOM      2  N   UNL     1       4.155   1.505   9.740  1.00  0.00    -0.343 N 
ATOM      3  C   UNL     1       3.376   2.538   9.265  1.00  0.00     0.243 C 
ATOM      4  H   UNL     1       3.799   0.891  10.462  1.00  0.00     0.164 HD
ENDROOT
BRANCH   2   5
ATOM      5  C   UNL     1       5.531   1.343   9.284  1.00  0.00     0.171 C 
ATOM      6  C   UNL     1       7.778  -0.168  10.320  1.00  0.00     0.214 C 
ATOM      7  N   UNL     1       7.587   1.200  10.742  1.00  0.00    -0.303 N 
ATOM      8  C   UNL     1       7.263  -0.442   8.916  1.00  0.00     0.057 C 
ATOM      9  C   UNL     1       6.507   1.962  10.325  1.00  0.00     0.247 C 
ATOM     10  C   UNL     1       5.793  -0.092   8.831  1.00  0.00     0.040 C 
ATOM     11  O   UNL     1       6.304   3.104  10.759  1.00  0.00    -0.272 OA
BRANCH   6  12
ATOM     12  O   UNL     1       7.129  -1.001  11.254  1.00  0.00    -0.373 OA
ATOM     13  H   UNL     1       7.579  -0.870  12.116  1.00  0.00     0.213 HD
ENDBRANCH   6  12
BRANCH   7  14
ATOM     14  C   UNL     1       8.519   1.722  11.764  1.00  0.00     0.177 C 
BRANCH  14  15
ATOM     15  C   UNL     1       8.692   0.832  13.010  1.00  0.00     0.038 C 
BRANCH  15  16
ATOM     16  C   UNL     1       7.625   0.869  14.126  1.00  0.00    -0.015 C 
ATOM     17  C   UNL     1       6.812   2.167  14.114  1.00  0.00     0.007 C 
ATOM     18  C   UNL     1       8.303   0.740  15.496  1.00  0.00     0.007 C 
ENDBRANCH  15  16
ENDBRANCH  14  15
BRANCH  14  19
ATOM     19  C   UNL     1       9.654   2.564  11.086  1.00  0.00     0.245 C 
ATOM     20  O   UNL     1      10.179   2.078  10.070  1.00  0.00    -0.272 OA
BRANCH  19  21
ATOM     21  N   UNL     1      10.164   3.737  11.613  1.00  0.00    -0.332 N 
ATOM     22  C   UNL     1      11.553   4.156  11.548  1.00  0.00     0.147 C 
BRANCH  21  23
ATOM     23  C   UNL     1       9.224   4.650  12.319  1.00  0.00     0.178 C 
BRANCH  23  24
ATOM     24  C   UNL     1       9.819   5.364  13.550  1.00  0.00     0.070 C 
BRANCH  24  25
ATOM     25  C   UNL     1       9.297   4.947  14.906  1.00  0.00    -0.045 A 
ATOM     26  C   UNL     1      10.022   4.061  15.713  1.00  0.00     0.004 A 
ATOM     27  C   UNL     1       8.070   5.442  15.374  1.00  0.00     0.004 A 
ATOM     28  C   UNL     1       9.525   3.668  16.957  1.00  0.00     0.000 A 
ATOM     29  C   UNL     1       7.575   5.049  16.619  1.00  0.00     0.000 A 
ATOM     30  C   UNL     1       8.302   4.160  17.408  1.00  0.00     0.000 A 
ENDBRANCH  24  25
ENDBRANCH  23  24
BRANCH  23  31
ATOM     31  C   UNL     1       8.433   5.565  11.355  1.00  0.00     0.243 C 
ATOM     32  O   UNL     1       8.938   6.172  10.413  1.00  0.00    -0.273 OA
ATOM     33  N   UNL     1       7.127   5.793  11.755  1.00  0.00    -0.341 N 
ATOM     34  H   UNL     1       6.763   5.263  12.550  1.00  0.00     0.164 HD
BRANCH  33  35
ATOM     35  C   UNL     1       6.229   6.721  11.060  1.00  0.00     0.194 C 
BRANCH  35  36
ATOM     36  C   UNL     1       6.361   8.199  11.524  1.00  0.00     0.017 C 
ATOM     37  C   UNL     1       6.744   8.287  13.011  1.00  0.00     0.010 C 
ATOM     38  C   UNL     1       5.073   9.009  11.333  1.00  0.00     0.010 C 
ENDBRANCH  35  36
BRANCH  35  39
ATOM     39  C   UNL     1       4.751   6.240  11.068  1.00  0.00     0.329 C 
ATOM     40  O   UNL     1       4.086   6.051  10.057  1.00  0.00    -0.250 OA
BRANCH  39  41
ATOM     41  O   UNL     1       4.299   5.967  12.330  1.00  0.00    -0.458 OA
BRANCH  41  42
ATOM     42  C   UNL     1       2.867   5.821  12.481  1.00  0.00     0.205 CG0
ATOM     43  C   UNL     1       2.362   7.051  13.231  1.00  0.00     0.056 C 
ATOM     44  G   UNL     1       2.584   4.509  13.240  1.00  0.00     0.000 G0
ENDBRANCH  41  42
ENDBRANCH  39  41
ENDBRANCH  35  39
ENDBRANCH  33  35
ENDBRANCH  23  31
ENDBRANCH  21  23
ENDBRANCH  19  21
ENDBRANCH  14  19
ENDBRANCH   7  14
ENDBRANCH   2   5
BRANCH   3  45
ATOM     45  C   UNL     1       1.987   2.662   9.905  1.00  0.00     0.171 C 
BRANCH  45  46
ATOM     46  N   UNL     1       2.128   3.652  10.964  1.00  0.00    -0.342 N 
ATOM     47  C   UNL     1       2.633   3.340  12.201  1.00  0.00     0.247 C 
ATOM     48  O   UNL     1       3.070   2.223  12.483  1.00  0.00    -0.273 OA
ATOM     49  H   UNL     1       1.831   4.603  10.755  1.00  0.00     0.164 HD
BRANCH  47  50
ATOM     50  C   UNL     1       2.591   4.481  13.228  1.00  0.00     0.212 CG0
ATOM     51  G   UNL     1       2.876   5.797  12.476  1.00  0.00     0.000 G0
BRANCH  50  52
ATOM     52  N   UNL     1       1.254   4.429  13.813  1.00  0.00    -0.339 N 
ATOM     53  C   UNL     1       0.967   3.772  14.984  1.00  0.00     0.243 C 
ATOM     54  O   UNL     1       1.808   3.129  15.606  1.00  0.00    -0.273 OA
ATOM     55  H   UNL     1       0.491   4.850  13.286  1.00  0.00     0.164 HD
BRANCH  53  56
ATOM     56  C   UNL     1      -0.529   3.782  15.359  1.00  0.00     0.182 C 
BRANCH  56  57
ATOM     57  N   UNL     1      -1.342   4.328  14.267  1.00  0.00    -0.344 N 
ATOM     58  C   UNL     1      -2.478   3.703  13.812  1.00  0.00     0.220 C 
ATOM     59  O   UNL     1      -2.851   2.614  14.234  1.00  0.00    -0.275 OA
ATOM     60  H   UNL     1      -1.126   5.273  13.961  1.00  0.00     0.164 HD
BRANCH  58  61
ATOM     61  C   UNL     1      -3.191   4.476  12.717  1.00  0.00     0.100 C 
BRANCH  61  62
ATOM     62  C   UNL     1      -2.376   5.640  12.154  1.00  0.00     0.010 C 
BRANCH  62  63
ATOM     63  C   UNL     1      -2.001   5.486  10.674  1.00  0.00     0.000 C 
BRANCH  63  64
ATOM     64  C   UNL     1      -1.484   4.098  10.300  1.00  0.00    -0.003 C 
ATOM     65  C   UNL     1      -1.272   3.970   8.799  1.00  0.00     0.004 C 
ENDBRANCH  63  64
ENDBRANCH  62  63
ENDBRANCH  61  62
ENDBRANCH  58  61
ENDBRANCH  56  57
BRANCH  56  66
ATOM     66  C   UNL     1      -0.772   4.512  16.678  1.00  0.00     0.157 C 
BRANCH  66  67
ATOM     67  C   UNL     1      -1.327   5.888  16.445  1.00  0.00     0.305 C 
ATOM     68  O   UNL     1      -2.376   6.338  16.878  1.00  0.00    -0.252 OA
BRANCH  67  69
ATOM     69  O   UNL     1      -0.498   6.656  15.712  1.00  0.00    -0.481 OA
ATOM     70  H   UNL     1      -0.960   6.774  14.854  1.00  0.00     0.296 HD
ENDBRANCH  67  69
ENDBRANCH  66  67
ENDBRANCH  56  66
ENDBRANCH  53  56
ENDBRANCH  50  52
ENDBRANCH  47  50
ENDBRANCH  45  46
BRANCH  45  71
ATOM     71  C   UNL     1       1.530   1.306  10.456  1.00  0.00     0.037 C 
BRANCH  71  72
ATOM     72  C   UNL     1       0.424   0.681   9.602  1.00  0.00     0.026 C 
BRANCH  72  73
ATOM     73  C   UNL     1      -0.682   0.083  10.469  1.00  0.00     0.146 C 
BRANCH  73  74
ATOM     74  N   UNL     1      -0.528   0.614  11.820  1.00  0.00    -0.254 NA
ATOM     75  C   UNL     1      -1.003  -0.074  12.791  1.00  0.00     0.185 C 
ATOM     76  N   UNL     1      -0.876   0.388  14.046  1.00  0.00    -0.370 N 
ATOM     77  N   UNL     1      -1.647  -1.253  12.756  1.00  0.00    -0.370 N 
ATOM     78  H   UNL     1      -0.409   1.276  14.161  1.00  0.00     0.159 HD
ATOM     79  H   UNL     1      -1.345  -0.018  14.836  1.00  0.00     0.159 HD
ATOM     80  H   UNL     1      -1.812  -1.723  11.878  1.00  0.00     0.159 HD
ATOM     81  H   UNL     1      -1.874  -1.757  13.598  1.00  0.00     0.159 HD
ENDBRANCH  73  74
ENDBRANCH  72  73
ENDBRANCH  71  72
ENDBRANCH  45  71
ENDBRANCH   3  45
TORSDOF 20
ENDMDL
MODEL 47
REMARK VINA RESULT:    -4.366      6.169     12.528
REMARK INTER + INTRA:         -19.977
REMARK INTER:                 -14.045
REMARK INTRA:                  -5.932
REMARK UNBOUND:                -7.444
REMARK SMILES CCCCCC(=O)N[C@H](CC(=O)O)C(=O)N[C@H]1C(=O)N[C@H](CCCN=C(N)N)C(=O)N[C@@H]2CC[C@H](O)N(C2=O)[C@@H](CC(C)C)C(=O)N(C)[C@@H](Cc2ccccc2)C(=O)N[C@H](C(C)C)C(=O)O[C@@H]1C
REMARK SMILES IDX 30 1 31 2 29 3 32 5 35 6 37 7 34 8 38 9 33 10 39 11 36 12
REMARK SMILES IDX 40 14 41 15 42 16 43 17 44 18 45 19 46 20 47 21 48 22 49 23
REMARK SMILES IDX 50 24 51 25 52 26 56 27 53 28 55 29 54 30 57 31 58 32 59 33
REMARK SMILES IDX 60 35 61 36 62 37 63 38 64 39 65 40 66 41 67 42 68 43 21 45
REMARK SMILES IDX 20 46 18 47 19 48 17 50 16 52 14 53 15 54 9 56 8 57 6 58
REMARK SMILES IDX 7 59 5 61 4 62 3 63 2 64 1 65 10 66 11 67 12 68 13 69 22 71
REMARK SMILES IDX 23 72 24 73 25 74 26 75 27 76 28 77
REMARK H PARENT 31 4 36 13 59 34 20 49 16 55 8 60 13 70 27 78 27 79 28 80
REMARK H PARENT 28 81
REMARK Flexibility Score:  259.900
ROOT
ATOM      1  O   UNL     1       4.800   6.123   4.159  1.00  0.00    -0.273 OA
ATOM      2  N   UNL     1       5.252   6.495   6.370  1.00  0.00    -0.343 N 
ATOM      3  C   UNL     1       5.147   6.894   5.054  1.00  0.00     0.243 C 
ATOM      4  H   UNL     1       5.526   7.160   7.082  1.00  0.00     0.164 HD
ENDROOT
BRANCH   2   5
ATOM      5  C   UNL     1       5.068   5.095   6.738  1.00  0.00     0.171 C 
ATOM      6  C   UNL     1       5.257   3.688   9.266  1.00  0.00     0.214 C 
ATOM      7  N   UNL     1       6.425   3.796   8.423  1.00  0.00    -0.303 N 
ATOM      8  C   UNL     1       3.952   3.672   8.485  1.00  0.00     0.057 C 
ATOM      9  C   UNL     1       6.417   4.497   7.229  1.00  0.00     0.247 C 
ATOM     10  C   UNL     1       3.846   4.921   7.638  1.00  0.00     0.040 C 
ATOM     11  O   UNL     1       7.444   4.658   6.556  1.00  0.00    -0.272 OA
BRANCH   6  12
ATOM     12  O   UNL     1       5.276   4.768  10.169  1.00  0.00    -0.373 OA
ATOM     13  H   UNL     1       6.062   5.313   9.949  1.00  0.00     0.213 HD
ENDBRANCH   6  12
BRANCH   7  14
ATOM     14  C   UNL     1       7.690   3.247   8.958  1.00  0.00     0.177 C 
BRANCH  14  15
ATOM     15  C   UNL     1       8.502   4.213   9.842  1.00  0.00     0.038 C 
BRANCH  15  16
ATOM     16  C   UNL     1       8.465   4.052  11.378  1.00  0.00    -0.015 C 
ATOM     17  C   UNL     1       8.033   5.338  12.090  1.00  0.00     0.007 C 
ATOM     18  C   UNL     1       9.856   3.662  11.893  1.00  0.00     0.007 C 
ENDBRANCH  15  16
ENDBRANCH  14  15
BRANCH  14  19
ATOM     19  C   UNL     1       7.558   1.702   9.186  1.00  0.00     0.245 C 
ATOM     20  O   UNL     1       6.557   1.148   8.702  1.00  0.00    -0.272 OA
BRANCH  19  21
ATOM     21  N   UNL     1       8.421   0.963   9.976  1.00  0.00    -0.332 N 
ATOM     22  C   UNL     1       9.769   0.566   9.608  1.00  0.00     0.147 C 
BRANCH  21  23
ATOM     23  C   UNL     1       7.935   0.521  11.312  1.00  0.00     0.178 C 
BRANCH  23  24
ATOM     24  C   UNL     1       6.491   0.945  11.646  1.00  0.00     0.070 C 
BRANCH  24  25
ATOM     25  C   UNL     1       6.296   1.834  12.853  1.00  0.00    -0.045 A 
ATOM     26  C   UNL     1       7.121   1.708  13.978  1.00  0.00     0.004 A 
ATOM     27  C   UNL     1       5.278   2.800  12.863  1.00  0.00     0.004 A 
ATOM     28  C   UNL     1       6.924   2.522  15.095  1.00  0.00     0.000 A 
ATOM     29  C   UNL     1       5.083   3.614  13.980  1.00  0.00     0.000 A 
ATOM     30  C   UNL     1       5.905   3.472  15.097  1.00  0.00     0.000 A 
ENDBRANCH  24  25
ENDBRANCH  23  24
BRANCH  23  31
ATOM     31  C   UNL     1       8.266  -0.960  11.616  1.00  0.00     0.243 C 
ATOM     32  O   UNL     1       7.738  -1.912  11.047  1.00  0.00    -0.273 OA
ATOM     33  N   UNL     1       9.082  -1.129  12.722  1.00  0.00    -0.341 N 
ATOM     34  H   UNL     1       9.487  -0.297  13.157  1.00  0.00     0.164 HD
BRANCH  33  35
ATOM     35  C   UNL     1       9.429  -2.445  13.265  1.00  0.00     0.194 C 
BRANCH  35  36
ATOM     36  C   UNL     1       8.905  -2.695  14.708  1.00  0.00     0.017 C 
ATOM     37  C   UNL     1       9.497  -3.984  15.302  1.00  0.00     0.010 C 
ATOM     38  C   UNL     1       7.378  -2.813  14.784  1.00  0.00     0.010 C 
ENDBRANCH  35  36
BRANCH  35  39
ATOM     39  C   UNL     1      10.944  -2.765  13.134  1.00  0.00     0.329 C 
ATOM     40  O   UNL     1      11.825  -2.176  13.750  1.00  0.00    -0.250 OA
BRANCH  39  41
ATOM     41  O   UNL     1      11.180  -3.838  12.320  1.00  0.00    -0.458 OA
BRANCH  41  42
ATOM     42  C   UNL     1      12.226  -4.745  12.742  1.00  0.00     0.205 CG0
ATOM     43  C   UNL     1      13.301  -4.736  11.658  1.00  0.00     0.056 C 
ATOM     44  G   UNL     1      11.609  -6.143  12.949  1.00  0.00     0.000 G0
ENDBRANCH  41  42
ENDBRANCH  39  41
ENDBRANCH  35  39
ENDBRANCH  33  35
ENDBRANCH  23  31
ENDBRANCH  21  23
ENDBRANCH  19  21
ENDBRANCH  14  19
ENDBRANCH   7  14
ENDBRANCH   2   5
BRANCH   3  45
ATOM     45  C   UNL     1       5.472   8.369   4.788  1.00  0.00     0.171 C 
BRANCH  45  46
ATOM     46  N   UNL     1       4.199   9.000   4.463  1.00  0.00    -0.342 N 
ATOM     47  C   UNL     1       3.893  10.281   4.848  1.00  0.00     0.247 C 
ATOM     48  O   UNL     1       4.694  11.014   5.429  1.00  0.00    -0.273 OA
ATOM     49  H   UNL     1       3.528   8.448   3.933  1.00  0.00     0.164 HD
BRANCH  47  50
ATOM     50  C   UNL     1       2.461  10.732   4.525  1.00  0.00     0.212 CG0
ATOM     51  G   UNL     1       2.475  12.267   4.385  1.00  0.00     0.000 G0
BRANCH  50  52
ATOM     52  N   UNL     1       2.105  10.043   3.288  1.00  0.00    -0.339 N 
ATOM     53  C   UNL     1       0.830   9.623   2.997  1.00  0.00     0.243 C 
ATOM     54  O   UNL     1      -0.104   9.749   3.783  1.00  0.00    -0.273 OA
ATOM     55  H   UNL     1       2.858   9.809   2.643  1.00  0.00     0.164 HD
BRANCH  53  56
ATOM     56  C   UNL     1       0.714   8.842   1.672  1.00  0.00     0.182 C 
BRANCH  56  57
ATOM     57  N   UNL     1       0.535   9.754   0.537  1.00  0.00    -0.344 N 
ATOM     58  C   UNL     1       1.596  10.318  -0.128  1.00  0.00     0.220 C 
ATOM     59  O   UNL     1       2.760  10.159   0.224  1.00  0.00    -0.275 OA
ATOM     60  H   UNL     1      -0.403   9.831   0.152  1.00  0.00     0.164 HD
BRANCH  58  61
ATOM     61  C   UNL     1       1.178  11.181  -1.304  1.00  0.00     0.100 C 
BRANCH  61  62
ATOM     62  C   UNL     1       1.364  12.679  -1.067  1.00  0.00     0.010 C 
BRANCH  62  63
ATOM     63  C   UNL     1       0.111  13.392  -0.543  1.00  0.00     0.000 C 
BRANCH  63  64
ATOM     64  C   UNL     1      -1.201  12.693  -0.896  1.00  0.00    -0.003 C 
ATOM     65  C   UNL     1      -2.005  12.358   0.352  1.00  0.00     0.004 C 
ENDBRANCH  63  64
ENDBRANCH  62  63
ENDBRANCH  61  62
ENDBRANCH  58  61
ENDBRANCH  56  57
BRANCH  56  66
ATOM     66  C   UNL     1      -0.386   7.784   1.740  1.00  0.00     0.157 C 
BRANCH  66  67
ATOM     67  C   UNL     1      -1.602   8.213   0.971  1.00  0.00     0.305 C 
ATOM     68  O   UNL     1      -1.934   7.838  -0.144  1.00  0.00    -0.252 OA
BRANCH  67  69
ATOM     69  O   UNL     1      -2.377   9.063   1.671  1.00  0.00    -0.481 OA
ATOM     70  H   UNL     1      -1.755   9.546   2.254  1.00  0.00     0.296 HD
ENDBRANCH  67  69
ENDBRANCH  66  67
ENDBRANCH  56  66
ENDBRANCH  53  56
ENDBRANCH  50  52
ENDBRANCH  47  50
ENDBRANCH  45  46
BRANCH  45  71
ATOM     71  C   UNL     1       6.476   8.495   3.636  1.00  0.00     0.037 C 
BRANCH  71  72
ATOM     72  C   UNL     1       7.853   8.955   4.121  1.00  0.00     0.026 C 
BRANCH  72  73
ATOM     73  C   UNL     1       7.815   9.393   5.584  1.00  0.00     0.146 C 
BRANCH  73  74
ATOM     74  N   UNL     1       9.120   9.105   6.171  1.00  0.00    -0.254 NA
ATOM     75  C   UNL     1       9.181   8.211   7.087  1.00  0.00     0.185 C 
ATOM     76  N   UNL     1      10.368   7.923   7.645  1.00  0.00    -0.370 N 
ATOM     77  N   UNL     1       8.189   7.469   7.611  1.00  0.00    -0.370 N 
ATOM     78  H   UNL     1      11.168   8.443   7.313  1.00  0.00     0.159 HD
ATOM     79  H   UNL     1      10.470   7.345   8.461  1.00  0.00     0.159 HD
ATOM     80  H   UNL     1       7.241   7.575   7.284  1.00  0.00     0.159 HD
ATOM     81  H   UNL     1       8.376   6.713   8.249  1.00  0.00     0.159 HD
ENDBRANCH  73  74
ENDBRANCH  72  73
ENDBRANCH  71  72
ENDBRANCH  45  71
ENDBRANCH   3  45
TORSDOF 20
ENDMDL
MODEL 48
REMARK VINA RESULT:    -4.348      2.864      5.148
REMARK INTER + INTRA:         -19.925
REMARK INTER:                 -14.485
REMARK INTRA:                  -5.441
REMARK UNBOUND:                -7.444
REMARK SMILES CCCCCC(=O)N[C@H](CC(=O)O)C(=O)N[C@H]1C(=O)N[C@H](CCCN=C(N)N)C(=O)N[C@@H]2CC[C@H](O)N(C2=O)[C@@H](CC(C)C)C(=O)N(C)[C@@H](Cc2ccccc2)C(=O)N[C@H](C(C)C)C(=O)O[C@@H]1C
REMARK SMILES IDX 30 1 31 2 29 3 32 5 35 6 37 7 34 8 38 9 33 10 39 11 36 12
REMARK SMILES IDX 40 14 41 15 42 16 43 17 44 18 45 19 46 20 47 21 48 22 49 23
REMARK SMILES IDX 50 24 51 25 52 26 56 27 53 28 55 29 54 30 57 31 58 32 59 33
REMARK SMILES IDX 60 35 61 36 62 37 63 38 64 39 65 40 66 41 67 42 68 43 21 45
REMARK SMILES IDX 20 46 18 47 19 48 17 50 16 52 14 53 15 54 9 56 8 57 6 58
REMARK SMILES IDX 7 59 5 61 4 62 3 63 2 64 1 65 10 66 11 67 12 68 13 69 22 71
REMARK SMILES IDX 23 72 24 73 25 74 26 75 27 76 28 77
REMARK H PARENT 31 4 36 13 59 34 20 49 16 55 8 60 13 70 27 78 27 79 28 80
REMARK H PARENT 28 81
REMARK Flexibility Score:  259.900
ROOT
ATOM      1  O   UNL     1       4.059   5.495   7.952  1.00  0.00    -0.273 OA
ATOM      2  N   UNL     1       5.954   6.582   7.276  1.00  0.00    -0.343 N 
ATOM      3  C   UNL     1       5.226   5.823   8.167  1.00  0.00     0.243 C 
ATOM      4  H   UNL     1       6.917   6.821   7.481  1.00  0.00     0.164 HD
ENDROOT
BRANCH   2   5
ATOM      5  C   UNL     1       5.325   7.132   6.081  1.00  0.00     0.171 C 
ATOM      6  C   UNL     1       6.313   7.664   3.408  1.00  0.00     0.214 C 
ATOM      7  N   UNL     1       6.386   8.700   4.412  1.00  0.00    -0.303 N 
ATOM      8  C   UNL     1       5.143   6.714   3.608  1.00  0.00     0.057 C 
ATOM      9  C   UNL     1       5.979   8.496   5.720  1.00  0.00     0.247 C 
ATOM     10  C   UNL     1       5.227   6.078   4.979  1.00  0.00     0.040 C 
ATOM     11  O   UNL     1       6.125   9.360   6.595  1.00  0.00    -0.272 OA
BRANCH   6  12
ATOM     12  O   UNL     1       7.531   6.956   3.430  1.00  0.00    -0.373 OA
ATOM     13  H   UNL     1       7.412   6.161   2.868  1.00  0.00     0.213 HD
ENDBRANCH   6  12
BRANCH   7  14
ATOM     14  C   UNL     1       7.056   9.960   4.026  1.00  0.00     0.177 C 
BRANCH  14  15
ATOM     15  C   UNL     1       6.544  11.222   4.748  1.00  0.00     0.038 C 
BRANCH  15  16
ATOM     16  C   UNL     1       5.219  11.874   4.295  1.00  0.00    -0.015 C 
ATOM     17  C   UNL     1       5.166  12.097   2.780  1.00  0.00     0.007 C 
ATOM     18  C   UNL     1       5.046  13.232   4.987  1.00  0.00     0.007 C 
ENDBRANCH  15  16
ENDBRANCH  14  15
BRANCH  14  19
ATOM     19  C   UNL     1       8.547   9.684   3.629  1.00  0.00     0.245 C 
ATOM     20  O   UNL     1       9.319   9.358   4.546  1.00  0.00    -0.272 OA
BRANCH  19  21
ATOM     21  N   UNL     1       9.058   9.891   2.360  1.00  0.00    -0.332 N 
ATOM     22  C   UNL     1       8.932   8.974   1.241  1.00  0.00     0.147 C 
BRANCH  21  23
ATOM     23  C   UNL     1       9.811  11.150   2.110  1.00  0.00     0.178 C 
BRANCH  23  24
ATOM     24  C   UNL     1       9.509  12.292   3.102  1.00  0.00     0.070 C 
BRANCH  24  25
ATOM     25  C   UNL     1       8.628  13.416   2.610  1.00  0.00    -0.045 A 
ATOM     26  C   UNL     1       8.238  13.487   1.267  1.00  0.00     0.004 A 
ATOM     27  C   UNL     1       8.190  14.412   3.496  1.00  0.00     0.004 A 
ATOM     28  C   UNL     1       7.437  14.539   0.816  1.00  0.00     0.000 A 
ATOM     29  C   UNL     1       7.389  15.462   3.045  1.00  0.00     0.000 A 
ATOM     30  C   UNL     1       7.015  15.526   1.704  1.00  0.00     0.000 A 
ENDBRANCH  24  25
ENDBRANCH  23  24
BRANCH  23  31
ATOM     31  C   UNL     1      11.315  10.909   1.833  1.00  0.00     0.243 C 
ATOM     32  O   UNL     1      11.996  10.072   2.419  1.00  0.00    -0.273 OA
ATOM     33  N   UNL     1      11.879  11.851   0.990  1.00  0.00    -0.341 N 
ATOM     34  H   UNL     1      11.262  12.528   0.535  1.00  0.00     0.164 HD
BRANCH  33  35
ATOM     35  C   UNL     1      13.312  11.891   0.682  1.00  0.00     0.194 C 
BRANCH  35  36
ATOM     36  C   UNL     1      14.101  12.975   1.469  1.00  0.00     0.017 C 
ATOM     37  C   UNL     1      14.915  12.351   2.616  1.00  0.00     0.010 C 
ATOM     38  C   UNL     1      13.199  14.054   2.081  1.00  0.00     0.010 C 
ENDBRANCH  35  36
BRANCH  35  39
ATOM     39  C   UNL     1      13.593  11.964  -0.845  1.00  0.00     0.329 C 
ATOM     40  O   UNL     1      12.719  12.017  -1.702  1.00  0.00    -0.250 OA
BRANCH  39  41
ATOM     41  O   UNL     1      14.929  12.050  -1.124  1.00  0.00    -0.458 OA
BRANCH  41  42
ATOM     42  C   UNL     1      15.284  12.706  -2.365  1.00  0.00     0.205 CG0
ATOM     43  C   UNL     1      16.164  11.740  -3.155  1.00  0.00     0.056 C 
ATOM     44  G   UNL     1      16.008  14.026  -2.033  1.00  0.00     0.000 G0
ENDBRANCH  41  42
ENDBRANCH  39  41
ENDBRANCH  35  39
ENDBRANCH  33  35
ENDBRANCH  23  31
ENDBRANCH  21  23
ENDBRANCH  19  21
ENDBRANCH  14  19
ENDBRANCH   7  14
ENDBRANCH   2   5
BRANCH   3  45
ATOM     45  C   UNL     1       5.977   5.399   9.437  1.00  0.00     0.171 C 
BRANCH  45  46
ATOM     46  N   UNL     1       5.483   4.067   9.760  1.00  0.00    -0.342 N 
ATOM     47  C   UNL     1       6.010   2.931   9.200  1.00  0.00     0.247 C 
ATOM     48  O   UNL     1       6.982   2.947   8.444  1.00  0.00    -0.273 OA
ATOM     49  H   UNL     1       4.715   4.004  10.426  1.00  0.00     0.164 HD
BRANCH  47  50
ATOM     50  C   UNL     1       5.281   1.629   9.563  1.00  0.00     0.212 CG0
ATOM     51  G   UNL     1       5.755   1.204  10.968  1.00  0.00     0.000 G0
BRANCH  50  52
ATOM     52  N   UNL     1       3.858   1.951   9.508  1.00  0.00    -0.339 N 
ATOM     53  C   UNL     1       2.889   1.205  10.134  1.00  0.00     0.243 C 
ATOM     54  O   UNL     1       3.143   0.174  10.750  1.00  0.00    -0.273 OA
ATOM     55  H   UNL     1       3.572   2.732   8.920  1.00  0.00     0.164 HD
BRANCH  53  56
ATOM     56  C   UNL     1       1.450   1.689   9.862  1.00  0.00     0.182 C 
BRANCH  56  57
ATOM     57  N   UNL     1       1.066   2.751  10.796  1.00  0.00    -0.344 N 
ATOM     58  C   UNL     1       0.219   3.773  10.441  1.00  0.00     0.220 C 
ATOM     59  O   UNL     1      -0.215   3.909   9.302  1.00  0.00    -0.275 OA
ATOM     60  H   UNL     1       1.320   2.621  11.772  1.00  0.00     0.164 HD
BRANCH  58  61
ATOM     61  C   UNL     1      -0.086   4.725  11.582  1.00  0.00     0.100 C 
BRANCH  61  62
ATOM     62  C   UNL     1      -0.893   5.954  11.161  1.00  0.00     0.010 C 
BRANCH  62  63
ATOM     63  C   UNL     1      -2.372   5.902  11.565  1.00  0.00     0.000 C 
BRANCH  63  64
ATOM     64  C   UNL     1      -2.620   5.347  12.966  1.00  0.00    -0.003 C 
ATOM     65  C   UNL     1      -3.460   4.079  12.920  1.00  0.00     0.004 C 
ENDBRANCH  63  64
ENDBRANCH  62  63
ENDBRANCH  61  62
ENDBRANCH  58  61
ENDBRANCH  56  57
BRANCH  56  66
ATOM     66  C   UNL     1       0.458   0.527   9.869  1.00  0.00     0.157 C 
BRANCH  66  67
ATOM     67  C   UNL     1      -0.010   0.221  11.263  1.00  0.00     0.305 C 
ATOM     68  O   UNL     1      -0.890   0.798  11.884  1.00  0.00    -0.252 OA
BRANCH  67  69
ATOM     69  O   UNL     1       0.624  -0.842  11.794  1.00  0.00    -0.481 OA
ATOM     70  H   UNL     1       1.192  -0.467  12.500  1.00  0.00     0.296 HD
ENDBRANCH  67  69
ENDBRANCH  66  67
ENDBRANCH  56  66
ENDBRANCH  53  56
ENDBRANCH  50  52
ENDBRANCH  47  50
ENDBRANCH  45  46
BRANCH  45  71
ATOM     71  C   UNL     1       5.709   6.393  10.573  1.00  0.00     0.037 C 
BRANCH  71  72
ATOM     72  C   UNL     1       4.220   6.483  10.919  1.00  0.00     0.026 C 
BRANCH  72  73
ATOM     73  C   UNL     1       3.775   7.933  11.102  1.00  0.00     0.146 C 
BRANCH  73  74
ATOM     74  N   UNL     1       3.250   8.404   9.824  1.00  0.00    -0.254 NA
ATOM     75  C   UNL     1       3.956   9.241   9.158  1.00  0.00     0.185 C 
ATOM     76  N   UNL     1       3.500   9.692   7.978  1.00  0.00    -0.370 N 
ATOM     77  N   UNL     1       5.151   9.774   9.468  1.00  0.00    -0.370 N 
ATOM     78  H   UNL     1       2.602   9.346   7.673  1.00  0.00     0.159 HD
ATOM     79  H   UNL     1       3.924  10.451   7.474  1.00  0.00     0.159 HD
ATOM     80  H   UNL     1       5.618   9.523  10.327  1.00  0.00     0.159 HD
ATOM     81  H   UNL     1       5.666  10.336   8.811  1.00  0.00     0.159 HD
ENDBRANCH  73  74
ENDBRANCH  72  73
ENDBRANCH  71  72
ENDBRANCH  45  71
ENDBRANCH   3  45
TORSDOF 20
ENDMDL
MODEL 49
REMARK VINA RESULT:    -4.347      2.948      4.479
REMARK INTER + INTRA:         -19.924
REMARK INTER:                 -14.481
REMARK INTRA:                  -5.443
REMARK UNBOUND:                -7.444
REMARK SMILES CCCCCC(=O)N[C@H](CC(=O)O)C(=O)N[C@H]1C(=O)N[C@H](CCCN=C(N)N)C(=O)N[C@@H]2CC[C@H](O)N(C2=O)[C@@H](CC(C)C)C(=O)N(C)[C@@H](Cc2ccccc2)C(=O)N[C@H](C(C)C)C(=O)O[C@@H]1C
REMARK SMILES IDX 30 1 31 2 29 3 32 5 35 6 37 7 34 8 38 9 33 10 39 11 36 12
REMARK SMILES IDX 40 14 41 15 42 16 43 17 44 18 45 19 46 20 47 21 48 22 49 23
REMARK SMILES IDX 50 24 51 25 52 26 56 27 53 28 55 29 54 30 57 31 58 32 59 33
REMARK SMILES IDX 60 35 61 36 62 37 63 38 64 39 65 40 66 41 67 42 68 43 21 45
REMARK SMILES IDX 20 46 18 47 19 48 17 50 16 52 14 53 15 54 9 56 8 57 6 58
REMARK SMILES IDX 7 59 5 61 4 62 3 63 2 64 1 65 10 66 11 67 12 68 13 69 22 71
REMARK SMILES IDX 23 72 24 73 25 74 26 75 27 76 28 77
REMARK H PARENT 31 4 36 13 59 34 20 49 16 55 8 60 13 70 27 78 27 79 28 80
REMARK H PARENT 28 81
REMARK Flexibility Score:  259.900
ROOT
ATOM      1  O   UNL     1       3.811   5.227   9.179  1.00  0.00    -0.273 OA
ATOM      2  N   UNL     1       5.956   5.691   8.534  1.00  0.00    -0.343 N 
ATOM      3  C   UNL     1       5.010   5.288   9.452  1.00  0.00     0.243 C 
ATOM      4  H   UNL     1       6.935   5.715   8.790  1.00  0.00     0.164 HD
ENDROOT
BRANCH   2   5
ATOM      5  C   UNL     1       5.554   6.182   7.221  1.00  0.00     0.171 C 
ATOM      6  C   UNL     1       6.972   6.457   4.707  1.00  0.00     0.214 C 
ATOM      7  N   UNL     1       6.957   7.560   5.639  1.00  0.00    -0.303 N 
ATOM      8  C   UNL     1       5.727   5.588   4.783  1.00  0.00     0.057 C 
ATOM      9  C   UNL     1       6.342   7.478   6.878  1.00  0.00     0.247 C 
ATOM     10  C   UNL     1       5.559   5.055   6.189  1.00  0.00     0.040 C 
ATOM     11  O   UNL     1       6.408   8.397   7.705  1.00  0.00    -0.272 OA
BRANCH   6  12
ATOM     12  O   UNL     1       8.125   5.689   4.968  1.00  0.00    -0.373 OA
ATOM     13  H   UNL     1       8.899   6.254   4.762  1.00  0.00     0.213 HD
ENDBRANCH   6  12
BRANCH   7  14
ATOM     14  C   UNL     1       7.758   8.750   5.281  1.00  0.00     0.177 C 
BRANCH  14  15
ATOM     15  C   UNL     1       9.055   8.936   6.092  1.00  0.00     0.038 C 
BRANCH  15  16
ATOM     16  C   UNL     1       9.439  10.343   6.603  1.00  0.00    -0.015 C 
ATOM     17  C   UNL     1      10.304  10.290   7.865  1.00  0.00     0.007 C 
ATOM     18  C   UNL     1       8.169  11.142   6.923  1.00  0.00     0.007 C 
ENDBRANCH  15  16
ENDBRANCH  14  15
BRANCH  14  19
ATOM     19  C   UNL     1       7.583   9.086   3.760  1.00  0.00     0.245 C 
ATOM     20  O   UNL     1       8.352   8.514   2.969  1.00  0.00    -0.272 OA
BRANCH  19  21
ATOM     21  N   UNL     1       6.714  10.049   3.278  1.00  0.00    -0.332 N 
ATOM     22  C   UNL     1       5.267   9.936   3.243  1.00  0.00     0.147 C 
BRANCH  21  23
ATOM     23  C   UNL     1       7.299  11.306   2.736  1.00  0.00     0.178 C 
BRANCH  23  24
ATOM     24  C   UNL     1       8.574  11.788   3.459  1.00  0.00     0.070 C 
BRANCH  24  25
ATOM     25  C   UNL     1       9.870  11.725   2.684  1.00  0.00    -0.045 A 
ATOM     26  C   UNL     1      10.270  12.791   1.867  1.00  0.00     0.004 A 
ATOM     27  C   UNL     1      10.690  10.591   2.769  1.00  0.00     0.004 A 
ATOM     28  C   UNL     1      11.461  12.717   1.141  1.00  0.00     0.000 A 
ATOM     29  C   UNL     1      11.881  10.519   2.044  1.00  0.00     0.000 A 
ATOM     30  C   UNL     1      12.263  11.582   1.228  1.00  0.00     0.000 A 
ENDBRANCH  24  25
ENDBRANCH  23  24
BRANCH  23  31
ATOM     31  C   UNL     1       7.383  11.317   1.191  1.00  0.00     0.243 C 
ATOM     32  O   UNL     1       7.929  10.440   0.527  1.00  0.00    -0.273 OA
ATOM     33  N   UNL     1       6.947  12.502   0.622  1.00  0.00    -0.341 N 
ATOM     34  H   UNL     1       6.505  13.197   1.228  1.00  0.00     0.164 HD
BRANCH  33  35
ATOM     35  C   UNL     1       7.044  12.781  -0.813  1.00  0.00     0.194 C 
BRANCH  35  36
ATOM     36  C   UNL     1       7.833  14.077  -1.156  1.00  0.00     0.017 C 
ATOM     37  C   UNL     1       9.239  13.751  -1.689  1.00  0.00     0.010 C 
ATOM     38  C   UNL     1       8.004  15.015   0.045  1.00  0.00     0.010 C 
ENDBRANCH  35  36
BRANCH  35  39
ATOM     39  C   UNL     1       5.664  12.737  -1.526  1.00  0.00     0.329 C 
ATOM     40  O   UNL     1       4.589  12.700  -0.938  1.00  0.00    -0.250 OA
BRANCH  39  41
ATOM     41  O   UNL     1       5.777  12.832  -2.885  1.00  0.00    -0.458 OA
BRANCH  41  42
ATOM     42  C   UNL     1       4.673  13.462  -3.578  1.00  0.00     0.205 CG0
ATOM     43  C   UNL     1       4.680  12.938  -5.013  1.00  0.00     0.056 C 
ATOM     44  G   UNL     1       4.856  14.991  -3.508  1.00  0.00     0.000 G0
ENDBRANCH  41  42
ENDBRANCH  39  41
ENDBRANCH  35  39
ENDBRANCH  33  35
ENDBRANCH  23  31
ENDBRANCH  21  23
ENDBRANCH  19  21
ENDBRANCH  14  19
ENDBRANCH   7  14
ENDBRANCH   2   5
BRANCH   3  45
ATOM     45  C   UNL     1       5.558   4.899  10.832  1.00  0.00     0.171 C 
BRANCH  45  46
ATOM     46  N   UNL     1       4.797   3.726  11.242  1.00  0.00    -0.342 N 
ATOM     47  C   UNL     1       5.304   2.454  11.158  1.00  0.00     0.247 C 
ATOM     48  O   UNL     1       6.459   2.216  10.803  1.00  0.00    -0.273 OA
ATOM     49  H   UNL     1       3.855   3.882  11.596  1.00  0.00     0.164 HD
BRANCH  47  50
ATOM     50  C   UNL     1       4.315   1.335  11.516  1.00  0.00     0.212 CG0
ATOM     51  G   UNL     1       4.500   1.009  13.012  1.00  0.00     0.000 G0
BRANCH  50  52
ATOM     52  N   UNL     1       2.993   1.868  11.200  1.00  0.00    -0.339 N 
ATOM     53  C   UNL     1       2.174   1.336  10.234  1.00  0.00     0.243 C 
ATOM     54  O   UNL     1       2.516   0.397   9.521  1.00  0.00    -0.273 OA
ATOM     55  H   UNL     1       2.698   2.716  11.681  1.00  0.00     0.164 HD
BRANCH  53  56
ATOM     56  C   UNL     1       0.864   2.120  10.021  1.00  0.00     0.182 C 
BRANCH  56  57
ATOM     57  N   UNL     1      -0.226   1.553  10.821  1.00  0.00    -0.344 N 
ATOM     58  C   UNL     1      -0.450   1.919  12.125  1.00  0.00     0.220 C 
ATOM     59  O   UNL     1       0.287   2.688  12.734  1.00  0.00    -0.275 OA
ATOM     60  H   UNL     1      -0.916   0.993  10.327  1.00  0.00     0.164 HD
BRANCH  58  61
ATOM     61  C   UNL     1      -1.666   1.249  12.738  1.00  0.00     0.100 C 
BRANCH  61  62
ATOM     62  C   UNL     1      -2.600   2.216  13.466  1.00  0.00     0.010 C 
BRANCH  62  63
ATOM     63  C   UNL     1      -3.244   3.270  12.557  1.00  0.00     0.000 C 
BRANCH  63  64
ATOM     64  C   UNL     1      -2.892   4.711  12.921  1.00  0.00    -0.003 C 
ATOM     65  C   UNL     1      -2.224   5.430  11.758  1.00  0.00     0.004 C 
ENDBRANCH  63  64
ENDBRANCH  62  63
ENDBRANCH  61  62
ENDBRANCH  58  61
ENDBRANCH  56  57
BRANCH  56  66
ATOM     66  C   UNL     1       0.503   2.215   8.539  1.00  0.00     0.157 C 
BRANCH  66  67
ATOM     67  C   UNL     1      -0.975   2.055   8.328  1.00  0.00     0.305 C 
ATOM     68  O   UNL     1      -1.568   1.023   8.051  1.00  0.00    -0.252 OA
BRANCH  67  69
ATOM     69  O   UNL     1      -1.649   3.203   8.530  1.00  0.00    -0.481 OA
ATOM     70  H   UNL     1      -2.566   3.009   8.244  1.00  0.00     0.296 HD
ENDBRANCH  67  69
ENDBRANCH  66  67
ENDBRANCH  56  66
ENDBRANCH  53  56
ENDBRANCH  50  52
ENDBRANCH  47  50
ENDBRANCH  45  46
BRANCH  45  71
ATOM     71  C   UNL     1       5.386   6.058  11.820  1.00  0.00     0.037 C 
BRANCH  71  72
ATOM     72  C   UNL     1       4.058   5.977  12.577  1.00  0.00     0.026 C 
BRANCH  72  73
ATOM     73  C   UNL     1       4.268   5.579  14.037  1.00  0.00     0.146 C 
BRANCH  73  74
ATOM     74  N   UNL     1       3.505   4.359  14.281  1.00  0.00    -0.254 NA
ATOM     75  C   UNL     1       2.456   4.445  15.013  1.00  0.00     0.185 C 
ATOM     76  N   UNL     1       1.732   3.341  15.256  1.00  0.00    -0.370 N 
ATOM     77  N   UNL     1       1.932   5.528  15.614  1.00  0.00    -0.370 N 
ATOM     78  H   UNL     1       2.062   2.478  14.846  1.00  0.00     0.159 HD
ATOM     79  H   UNL     1       0.989   3.303  15.931  1.00  0.00     0.159 HD
ATOM     80  H   UNL     1       2.369   6.432  15.516  1.00  0.00     0.159 HD
ATOM     81  H   UNL     1       1.036   5.496  16.071  1.00  0.00     0.159 HD
ENDBRANCH  73  74
ENDBRANCH  72  73
ENDBRANCH  71  72
ENDBRANCH  45  71
ENDBRANCH   3  45
TORSDOF 20
ENDMDL
MODEL 50
REMARK VINA RESULT:    -4.197      6.078      9.357
REMARK INTER + INTRA:         -19.491
REMARK INTER:                 -12.729
REMARK INTRA:                  -6.762
REMARK UNBOUND:                -7.444
REMARK SMILES CCCCCC(=O)N[C@H](CC(=O)O)C(=O)N[C@H]1C(=O)N[C@H](CCCN=C(N)N)C(=O)N[C@@H]2CC[C@H](O)N(C2=O)[C@@H](CC(C)C)C(=O)N(C)[C@@H](Cc2ccccc2)C(=O)N[C@H](C(C)C)C(=O)O[C@@H]1C
REMARK SMILES IDX 30 1 31 2 29 3 32 5 35 6 37 7 34 8 38 9 33 10 39 11 36 12
REMARK SMILES IDX 40 14 41 15 42 16 43 17 44 18 45 19 46 20 47 21 48 22 49 23
REMARK SMILES IDX 50 24 51 25 52 26 56 27 53 28 55 29 54 30 57 31 58 32 59 33
REMARK SMILES IDX 60 35 61 36 62 37 63 38 64 39 65 40 66 41 67 42 68 43 21 45
REMARK SMILES IDX 20 46 18 47 19 48 17 50 16 52 14 53 15 54 9 56 8 57 6 58
REMARK SMILES IDX 7 59 5 61 4 62 3 63 2 64 1 65 10 66 11 67 12 68 13 69 22 71
REMARK SMILES IDX 23 72 24 73 25 74 26 75 27 76 28 77
REMARK H PARENT 31 4 36 13 59 34 20 49 16 55 8 60 13 70 27 78 27 79 28 80
REMARK H PARENT 28 81
REMARK Flexibility Score:  259.900
ROOT
ATOM      1  O   UNL     1       3.923   2.267   9.785  1.00  0.00    -0.273 OA
ATOM      2  N   UNL     1       4.130   0.633  11.372  1.00  0.00    -0.343 N 
ATOM      3  C   UNL     1       3.421   1.597  10.688  1.00  0.00     0.243 C 
ATOM      4  H   UNL     1       3.680   0.091  12.099  1.00  0.00     0.164 HD
ENDROOT
BRANCH   2   5
ATOM      5  C   UNL     1       5.556   0.447  11.128  1.00  0.00     0.171 C 
ATOM      6  C   UNL     1       7.603  -1.077  12.505  1.00  0.00     0.214 C 
ATOM      7  N   UNL     1       7.371   0.299  12.877  1.00  0.00    -0.303 N 
ATOM      8  C   UNL     1       7.298  -1.364  11.043  1.00  0.00     0.057 C 
ATOM      9  C   UNL     1       6.376   1.068  12.296  1.00  0.00     0.247 C 
ATOM     10  C   UNL     1       5.863  -0.997  10.736  1.00  0.00     0.040 C 
ATOM     11  O   UNL     1       6.127   2.218  12.680  1.00  0.00    -0.272 OA
BRANCH   6  12
ATOM     12  O   UNL     1       6.811  -1.888  13.341  1.00  0.00    -0.373 OA
ATOM     13  H   UNL     1       7.401  -2.576  13.717  1.00  0.00     0.213 HD
ENDBRANCH   6  12
BRANCH   7  14
ATOM     14  C   UNL     1       8.147   0.824  14.020  1.00  0.00     0.177 C 
BRANCH  14  15
ATOM     15  C   UNL     1       7.880   0.129  15.369  1.00  0.00     0.038 C 
BRANCH  15  16
ATOM     16  C   UNL     1       8.103   0.908  16.684  1.00  0.00    -0.015 C 
ATOM     17  C   UNL     1       9.145   0.244  17.589  1.00  0.00     0.007 C 
ATOM     18  C   UNL     1       6.783   1.003  17.461  1.00  0.00     0.007 C 
ENDBRANCH  15  16
ENDBRANCH  14  15
BRANCH  14  19
ATOM     19  C   UNL     1       9.540   1.355  13.533  1.00  0.00     0.245 C 
ATOM     20  O   UNL     1      10.284   0.537  12.968  1.00  0.00    -0.272 OA
BRANCH  19  21
ATOM     21  N   UNL     1      10.014   2.628  13.797  1.00  0.00    -0.332 N 
ATOM     22  C   UNL     1      10.656   3.050  15.030  1.00  0.00     0.147 C 
BRANCH  21  23
ATOM     23  C   UNL     1       9.850   3.665  12.741  1.00  0.00     0.178 C 
BRANCH  23  24
ATOM     24  C   UNL     1       9.440   3.118  11.358  1.00  0.00     0.070 C 
BRANCH  24  25
ATOM     25  C   UNL     1       8.666   4.048  10.453  1.00  0.00    -0.045 A 
ATOM     26  C   UNL     1       7.334   3.777  10.115  1.00  0.00     0.004 A 
ATOM     27  C   UNL     1       9.277   5.199   9.931  1.00  0.00     0.004 A 
ATOM     28  C   UNL     1       6.631   4.632   9.264  1.00  0.00     0.000 A 
ATOM     29  C   UNL     1       8.573   6.053   9.082  1.00  0.00     0.000 A 
ATOM     30  C   UNL     1       7.251   5.767   8.746  1.00  0.00     0.000 A 
ENDBRANCH  24  25
ENDBRANCH  23  24
BRANCH  23  31
ATOM     31  C   UNL     1       9.042   4.894  13.222  1.00  0.00     0.243 C 
ATOM     32  O   UNL     1       9.529   6.007  13.403  1.00  0.00    -0.273 OA
ATOM     33  N   UNL     1       7.750   4.588  13.612  1.00  0.00    -0.341 N 
ATOM     34  H   UNL     1       7.402   3.641  13.441  1.00  0.00     0.164 HD
BRANCH  33  35
ATOM     35  C   UNL     1       6.842   5.570  14.211  1.00  0.00     0.194 C 
BRANCH  35  36
ATOM     36  C   UNL     1       6.759   5.495  15.762  1.00  0.00     0.017 C 
ATOM     37  C   UNL     1       7.070   6.857  16.406  1.00  0.00     0.010 C 
ATOM     38  C   UNL     1       7.724   4.469  16.369  1.00  0.00     0.010 C 
ENDBRANCH  35  36
BRANCH  35  39
ATOM     39  C   UNL     1       5.434   5.563  13.553  1.00  0.00     0.329 C 
ATOM     40  O   UNL     1       5.168   6.121  12.495  1.00  0.00    -0.250 OA
BRANCH  39  41
ATOM     41  O   UNL     1       4.542   4.790  14.243  1.00  0.00    -0.458 OA
BRANCH  41  42
ATOM     42  C   UNL     1       3.173   5.261  14.272  1.00  0.00     0.205 CG0
ATOM     43  C   UNL     1       2.997   6.063  15.560  1.00  0.00     0.056 C 
ATOM     44  G   UNL     1       2.232   4.042  14.203  1.00  0.00     0.000 G0
ENDBRANCH  41  42
ENDBRANCH  39  41
ENDBRANCH  35  39
ENDBRANCH  33  35
ENDBRANCH  23  31
ENDBRANCH  21  23
ENDBRANCH  19  21
ENDBRANCH  14  19
ENDBRANCH   7  14
ENDBRANCH   2   5
BRANCH   3  45
ATOM     45  C   UNL     1       1.957   1.763  11.117  1.00  0.00     0.171 C 
BRANCH  45  46
ATOM     46  N   UNL     1       2.001   2.306  12.468  1.00  0.00    -0.342 N 
ATOM     47  C   UNL     1       2.080   3.653  12.718  1.00  0.00     0.247 C 
ATOM     48  O   UNL     1       2.045   4.501  11.827  1.00  0.00    -0.273 OA
ATOM     49  H   UNL     1       1.975   1.640  13.238  1.00  0.00     0.164 HD
BRANCH  47  50
ATOM     50  C   UNL     1       2.243   4.030  14.198  1.00  0.00     0.212 CG0
ATOM     51  G   UNL     1       3.165   5.264  14.266  1.00  0.00     0.000 G0
BRANCH  50  52
ATOM     52  N   UNL     1       0.891   4.292  14.684  1.00  0.00    -0.339 N 
ATOM     53  C   UNL     1       0.130   3.356  15.341  1.00  0.00     0.243 C 
ATOM     54  O   UNL     1       0.511   2.203  15.524  1.00  0.00    -0.273 OA
ATOM     55  H   UNL     1       0.477   5.196  14.465  1.00  0.00     0.164 HD
BRANCH  53  56
ATOM     56  C   UNL     1      -1.296   3.834  15.682  1.00  0.00     0.182 C 
BRANCH  56  57
ATOM     57  N   UNL     1      -1.891   4.561  14.556  1.00  0.00    -0.344 N 
ATOM     58  C   UNL     1      -2.670   3.942  13.610  1.00  0.00     0.220 C 
ATOM     59  O   UNL     1      -2.863   2.731  13.598  1.00  0.00    -0.275 OA
ATOM     60  H   UNL     1      -1.841   5.576  14.586  1.00  0.00     0.164 HD
BRANCH  58  61
ATOM     61  C   UNL     1      -3.228   4.898  12.571  1.00  0.00     0.100 C 
BRANCH  61  62
ATOM     62  C   UNL     1      -2.158   5.549  11.695  1.00  0.00     0.010 C 
BRANCH  62  63
ATOM     63  C   UNL     1      -1.087   4.576  11.186  1.00  0.00     0.000 C 
BRANCH  63  64
ATOM     64  C   UNL     1      -1.586   3.589  10.132  1.00  0.00    -0.003 C 
ATOM     65  C   UNL     1      -1.628   4.227   8.750  1.00  0.00     0.004 C 
ENDBRANCH  63  64
ENDBRANCH  62  63
ENDBRANCH  61  62
ENDBRANCH  58  61
ENDBRANCH  56  57
BRANCH  56  66
ATOM     66  C   UNL     1      -1.319   4.651  16.973  1.00  0.00     0.157 C 
BRANCH  66  67
ATOM     67  C   UNL     1      -1.626   6.095  16.697  1.00  0.00     0.305 C 
ATOM     68  O   UNL     1      -2.619   6.713  17.048  1.00  0.00    -0.252 OA
BRANCH  67  69
ATOM     69  O   UNL     1      -0.632   6.711  16.029  1.00  0.00    -0.481 OA
ATOM     70  H   UNL     1      -1.086   7.335  15.424  1.00  0.00     0.296 HD
ENDBRANCH  67  69
ENDBRANCH  66  67
ENDBRANCH  56  66
ENDBRANCH  53  56
ENDBRANCH  50  52
ENDBRANCH  47  50
ENDBRANCH  45  46
BRANCH  45  71
ATOM     71  C   UNL     1       1.231   0.414  11.072  1.00  0.00     0.037 C 
BRANCH  71  72
ATOM     72  C   UNL     1       0.040   0.432  10.112  1.00  0.00     0.026 C 
BRANCH  72  73
ATOM     73  C   UNL     1      -1.170  -0.285  10.706  1.00  0.00     0.146 C 
BRANCH  73  74
ATOM     74  N   UNL     1      -0.712  -1.056  11.858  1.00  0.00    -0.254 NA
ATOM     75  C   UNL     1      -1.285  -0.846  12.986  1.00  0.00     0.185 C 
ATOM     76  N   UNL     1      -0.886  -1.540  14.064  1.00  0.00    -0.370 N 
ATOM     77  N   UNL     1      -2.281   0.007  13.281  1.00  0.00    -0.370 N 
ATOM     78  H   UNL     1      -0.133  -2.200  13.930  1.00  0.00     0.159 HD
ATOM     79  H   UNL     1      -1.184  -1.330  15.000  1.00  0.00     0.159 HD
ATOM     80  H   UNL     1      -2.685   0.593  12.566  1.00  0.00     0.159 HD
ATOM     81  H   UNL     1      -2.731   0.002  14.182  1.00  0.00     0.159 HD
ENDBRANCH  73  74
ENDBRANCH  72  73
ENDBRANCH  71  72
ENDBRANCH  45  71
ENDBRANCH   3  45
TORSDOF 20
ENDMDL
