MODEL 1
REMARK VINA RESULT:    -8.707      0.000      0.000
REMARK INTER + INTRA:         -20.850
REMARK INTER:                 -17.615
REMARK INTRA:                  -3.236
REMARK UNBOUND:                -3.236
REMARK SMILES CC[C@@H](C)[C@@H](NC(=O)[C@@H](O)Cc1ccc(O)c(Cl)c1)C(=O)N1[C@H](C(=O)NCCCCN=C(N)N)C[C@H]2CC[C@H](OS(=O)(=O)O)C[C@@H]21
REMARK SMILES IDX 22 1 36 2 46 3 35 4 23 5 45 6 37 7 39 8 38 9 20 10 21 11
REMARK SMILES IDX 5 12 6 13 7 14 8 15 9 17 11 18 12 19 17 20 19 21 15 22 14 23
REMARK SMILES IDX 13 24 18 25 16 26 10 28 3 30 4 31 2 32 1 33 24 34 25 35
REMARK SMILES IDX 26 36 27 38 28 39 29 40 30 41 31 42 32 43 33 44 34 45 40 50
REMARK SMILES IDX 41 51 42 52 43 53 44 54
REMARK H PARENT 6 16 16 27 10 29 26 37 33 46 33 47 34 48 34 49 44 55
ROOT
ATOM      1  N   UNL     1       8.499  -2.338   0.324  1.00  0.00    -0.326 N 
ATOM      2  C   UNL     1       6.996  -4.147   0.227  1.00  0.00     0.014 C 
ATOM      3  C   UNL     1       7.141  -2.663  -0.121  1.00  0.00     0.091 C 
ATOM      4  C   UNL     1       7.802  -4.270   1.511  1.00  0.00     0.041 C 
ATOM      5  C   UNL     1       9.052  -3.457   1.127  1.00  0.00     0.175 C 
ATOM      6  C   UNL     1       6.799  -2.478  -1.599  1.00  0.00     0.059 C 
ATOM      7  C   UNL     1       5.539  -4.565   0.221  1.00  0.00     0.008 C 
ATOM      8  C   UNL     1       5.738  -3.470  -2.120  1.00  0.00     0.143 C 
ATOM      9  C   UNL     1       4.805  -3.964  -0.996  1.00  0.00     0.034 C 
ENDROOT
BRANCH   1  10
ATOM     10  C   UNL     1       9.182  -1.134   0.285  1.00  0.00     0.246 C 
ATOM     11  O   UNL     1       9.363  -0.581  -0.805  1.00  0.00    -0.272 OA
BRANCH  10  12
ATOM     12  C   UNL     1       9.667  -0.483   1.613  1.00  0.00     0.174 C 
BRANCH  12  13
ATOM     13  N   UNL     1       8.518  -0.019   2.390  1.00  0.00    -0.342 N 
ATOM     14  C   UNL     1       8.175  -0.476   3.642  1.00  0.00     0.249 C 
ATOM     15  O   UNL     1       8.819  -1.312   4.263  1.00  0.00    -0.272 OA
ATOM     16  H   UNL     1       7.808   0.555   1.943  1.00  0.00     0.164 HD
BRANCH  14  17
ATOM     17  C   UNL     1       6.899   0.197   4.192  1.00  0.00     0.207 C 
BRANCH  17  18
ATOM     18  C   UNL     1       6.069   0.787   3.048  1.00  0.00     0.077 C 
BRANCH  18  19
ATOM     19  C   UNL     1       5.113  -0.228   2.465  1.00  0.00    -0.043 A 
ATOM     20  C   UNL     1       3.700  -0.983   0.643  1.00  0.00     0.083 A 
ATOM     21  C   UNL     1       4.621  -0.071   1.160  1.00  0.00     0.028 A 
ATOM     22  C   UNL     1       3.265  -2.054   1.424  1.00  0.00     0.134 A 
ATOM     23  C   UNL     1       3.743  -2.222   2.718  1.00  0.00     0.048 A 
ATOM     24  C   UNL     1       4.664  -1.310   3.239  1.00  0.00     0.008 A 
ATOM     25  Cl  UNL     1       3.107  -0.772  -0.963  1.00  0.00    -0.080 Cl
BRANCH  22  26
ATOM     26  O   UNL     1       2.355  -2.967   0.964  1.00  0.00    -0.506 OA
ATOM     27  H   UNL     1       2.784  -3.841   1.018  1.00  0.00     0.293 HD
ENDBRANCH  22  26
ENDBRANCH  18  19
ENDBRANCH  17  18
BRANCH  17  28
ATOM     28  O   UNL     1       7.225   1.235   5.130  1.00  0.00    -0.383 OA
ATOM     29  H   UNL     1       7.819   1.857   4.652  1.00  0.00     0.211 HD
ENDBRANCH  17  28
ENDBRANCH  14  17
ENDBRANCH  12  13
BRANCH  12  30
ATOM     30  C   UNL     1      10.718   0.636   1.383  1.00  0.00     0.018 C 
ATOM     31  C   UNL     1      12.106   0.034   1.110  1.00  0.00     0.010 C 
BRANCH  30  32
ATOM     32  C   UNL     1      10.801   1.658   2.543  1.00  0.00     0.002 C 
ATOM     33  C   UNL     1      12.205   1.948   3.057  1.00  0.00     0.004 C 
ENDBRANCH  30  32
ENDBRANCH  12  30
ENDBRANCH  10  12
ENDBRANCH   1  10
BRANCH   5  34
ATOM     34  C   UNL     1      10.046  -4.299   0.284  1.00  0.00     0.242 C 
ATOM     35  O   UNL     1      10.555  -3.874  -0.753  1.00  0.00    -0.273 OA
ATOM     36  N   UNL     1      10.275  -5.574   0.751  1.00  0.00    -0.354 N 
ATOM     37  H   UNL     1       9.732  -5.911   1.547  1.00  0.00     0.163 HD
BRANCH  36  38
ATOM     38  C   UNL     1      11.327  -6.416   0.218  1.00  0.00     0.116 C 
BRANCH  38  39
ATOM     39  C   UNL     1      11.138  -7.851   0.702  1.00  0.00     0.023 C 
BRANCH  39  40
ATOM     40  C   UNL     1       9.668  -8.219   0.876  1.00  0.00     0.026 C 
BRANCH  40  41
ATOM     41  C   UNL     1       9.386  -9.608   0.304  1.00  0.00     0.146 C 
BRANCH  41  42
ATOM     42  N   UNL     1       8.580 -10.374   1.246  1.00  0.00    -0.254 NA
ATOM     43  C   UNL     1       8.601 -11.653   1.204  1.00  0.00     0.185 C 
ATOM     44  N   UNL     1       9.283 -12.481   0.391  1.00  0.00    -0.370 N 
ATOM     45  N   UNL     1       7.847 -12.340   2.078  1.00  0.00    -0.370 N 
ATOM     46  H   UNL     1       9.020 -13.448   0.307  1.00  0.00     0.159 HD
ATOM     47  H   UNL     1       9.913 -12.128  -0.322  1.00  0.00     0.159 HD
ATOM     48  H   UNL     1       7.308 -11.791   2.733  1.00  0.00     0.159 HD
ATOM     49  H   UNL     1       7.986 -13.317   2.266  1.00  0.00     0.159 HD
ENDBRANCH  41  42
ENDBRANCH  40  41
ENDBRANCH  39  40
ENDBRANCH  38  39
ENDBRANCH  36  38
ENDBRANCH   5  34
BRANCH   8  50
ATOM     50  O   UNL     1       6.375  -4.603  -2.711  1.00  0.00    -0.245 OA
BRANCH  50  51
ATOM     51  S   UNL     1       6.075  -4.972  -4.267  1.00  0.00     0.397 S 
ATOM     52  O   UNL     1       7.085  -4.332  -5.079  1.00  0.00    -0.169 OA
ATOM     53  O   UNL     1       4.663  -4.809  -4.542  1.00  0.00    -0.169 OA
BRANCH  51  54
ATOM     54  O   UNL     1       6.410  -6.544  -4.310  1.00  0.00    -0.264 OA
ATOM     55  H   UNL     1       7.363  -6.652  -4.110  1.00  0.00     0.236 HD
ENDBRANCH  51  54
ENDBRANCH  50  51
ENDBRANCH   8  50
TORSDOF 19
ENDMDL
MODEL 2
REMARK VINA RESULT:    -8.140      4.593      7.262
REMARK INTER + INTRA:         -19.704
REMARK INTER:                 -16.598
REMARK INTRA:                  -3.106
REMARK UNBOUND:                -3.236
REMARK SMILES CC[C@@H](C)[C@@H](NC(=O)[C@@H](O)Cc1ccc(O)c(Cl)c1)C(=O)N1[C@H](C(=O)NCCCCN=C(N)N)C[C@H]2CC[C@H](OS(=O)(=O)O)C[C@@H]21
REMARK SMILES IDX 22 1 36 2 46 3 35 4 23 5 45 6 37 7 39 8 38 9 20 10 21 11
REMARK SMILES IDX 5 12 6 13 7 14 8 15 9 17 11 18 12 19 17 20 19 21 15 22 14 23
REMARK SMILES IDX 13 24 18 25 16 26 10 28 3 30 4 31 2 32 1 33 24 34 25 35
REMARK SMILES IDX 26 36 27 38 28 39 29 40 30 41 31 42 32 43 33 44 34 45 40 50
REMARK SMILES IDX 41 51 42 52 43 53 44 54
REMARK H PARENT 6 16 16 27 10 29 26 37 33 46 33 47 34 48 34 49 44 55
ROOT
ATOM      1  N   UNL     1       5.572  -4.158  -0.429  1.00  0.00    -0.326 N 
ATOM      2  C   UNL     1       7.831  -3.586  -0.761  1.00  0.00     0.014 C 
ATOM      3  C   UNL     1       6.832  -4.034   0.309  1.00  0.00     0.091 C 
ATOM      4  C   UNL     1       6.982  -2.703  -1.663  1.00  0.00     0.041 C 
ATOM      5  C   UNL     1       5.718  -3.575  -1.785  1.00  0.00     0.175 C 
ATOM      6  C   UNL     1       7.391  -5.276   1.001  1.00  0.00     0.059 C 
ATOM      7  C   UNL     1       9.084  -3.014  -0.127  1.00  0.00     0.008 C 
ATOM      8  C   UNL     1       8.933  -5.304   1.079  1.00  0.00     0.143 C 
ATOM      9  C   UNL     1       9.539  -3.886   1.062  1.00  0.00     0.034 C 
ENDROOT
BRANCH   1  10
ATOM     10  C   UNL     1       4.311  -4.514   0.020  1.00  0.00     0.246 C 
ATOM     11  O   UNL     1       3.936  -5.684  -0.106  1.00  0.00    -0.272 OA
BRANCH  10  12
ATOM     12  C   UNL     1       3.414  -3.447   0.711  1.00  0.00     0.174 C 
BRANCH  12  13
ATOM     13  N   UNL     1       4.066  -2.138   0.660  1.00  0.00    -0.342 N 
ATOM     14  C   UNL     1       3.753  -1.133  -0.227  1.00  0.00     0.249 C 
ATOM     15  O   UNL     1       2.863  -1.215  -1.065  1.00  0.00    -0.272 OA
ATOM     16  H   UNL     1       4.922  -1.982   1.187  1.00  0.00     0.164 HD
BRANCH  14  17
ATOM     17  C   UNL     1       4.632   0.122  -0.039  1.00  0.00     0.207 C 
BRANCH  17  18
ATOM     18  C   UNL     1       4.623   0.567   1.427  1.00  0.00     0.077 C 
BRANCH  18  19
ATOM     19  C   UNL     1       5.982   0.407   2.070  1.00  0.00    -0.043 A 
ATOM     20  C   UNL     1       7.489   0.808   3.929  1.00  0.00     0.083 A 
ATOM     21  C   UNL     1       6.220   0.914   3.358  1.00  0.00     0.028 A 
ATOM     22  C   UNL     1       8.525   0.199   3.220  1.00  0.00     0.134 A 
ATOM     23  C   UNL     1       8.303  -0.307   1.945  1.00  0.00     0.048 A 
ATOM     24  C   UNL     1       7.035  -0.201   1.369  1.00  0.00     0.008 A 
ATOM     25  Cl  UNL     1       7.762   1.437   5.511  1.00  0.00    -0.080 Cl
BRANCH  22  26
ATOM     26  O   UNL     1       9.788   0.082   3.734  1.00  0.00    -0.506 OA
ATOM     27  H   UNL     1      10.235  -0.618   3.223  1.00  0.00     0.293 HD
ENDBRANCH  22  26
ENDBRANCH  18  19
ENDBRANCH  17  18
BRANCH  17  28
ATOM     28  O   UNL     1       4.175   1.202  -0.868  1.00  0.00    -0.383 OA
ATOM     29  H   UNL     1       3.861   1.903  -0.253  1.00  0.00     0.211 HD
ENDBRANCH  17  28
ENDBRANCH  14  17
ENDBRANCH  12  13
BRANCH  12  30
ATOM     30  C   UNL     1       3.004  -3.849   2.153  1.00  0.00     0.018 C 
ATOM     31  C   UNL     1       2.252  -2.704   2.848  1.00  0.00     0.010 C 
BRANCH  30  32
ATOM     32  C   UNL     1       4.193  -4.313   3.030  1.00  0.00     0.002 C 
ATOM     33  C   UNL     1       4.479  -3.448   4.250  1.00  0.00     0.004 C 
ENDBRANCH  30  32
ENDBRANCH  12  30
ENDBRANCH  10  12
ENDBRANCH   1  10
BRANCH   5  34
ATOM     34  C   UNL     1       5.894  -4.691  -2.848  1.00  0.00     0.242 C 
ATOM     35  O   UNL     1       6.018  -5.877  -2.543  1.00  0.00    -0.273 OA
ATOM     36  N   UNL     1       5.957  -4.254  -4.153  1.00  0.00    -0.354 N 
ATOM     37  H   UNL     1       5.970  -3.249  -4.334  1.00  0.00     0.163 HD
BRANCH  36  38
ATOM     38  C   UNL     1       5.903  -5.165  -5.277  1.00  0.00     0.116 C 
BRANCH  38  39
ATOM     39  C   UNL     1       4.496  -5.173  -5.870  1.00  0.00     0.023 C 
BRANCH  39  40
ATOM     40  C   UNL     1       4.505  -5.255  -7.393  1.00  0.00     0.026 C 
BRANCH  40  41
ATOM     41  C   UNL     1       4.541  -6.711  -7.857  1.00  0.00     0.146 C 
BRANCH  41  42
ATOM     42  N   UNL     1       3.211  -7.124  -8.284  1.00  0.00    -0.254 NA
ATOM     43  C   UNL     1       2.880  -7.019  -9.516  1.00  0.00     0.185 C 
ATOM     44  N   UNL     1       3.588  -6.564 -10.566  1.00  0.00    -0.370 N 
ATOM     45  N   UNL     1       1.648  -7.402  -9.888  1.00  0.00    -0.370 N 
ATOM     46  H   UNL     1       3.127  -6.310 -11.423  1.00  0.00     0.159 HD
ATOM     47  H   UNL     1       4.547  -6.246 -10.465  1.00  0.00     0.159 HD
ATOM     48  H   UNL     1       1.051  -7.766  -9.158  1.00  0.00     0.159 HD
ATOM     49  H   UNL     1       1.397  -7.573 -10.846  1.00  0.00     0.159 HD
ENDBRANCH  41  42
ENDBRANCH  40  41
ENDBRANCH  39  40
ENDBRANCH  38  39
ENDBRANCH  36  38
ENDBRANCH   5  34
BRANCH   8  50
ATOM     50  O   UNL     1       9.466  -6.037  -0.024  1.00  0.00    -0.245 OA
BRANCH  50  51
ATOM     51  S   UNL     1       9.550  -7.660   0.057  1.00  0.00     0.397 S 
ATOM     52  O   UNL     1       8.655  -8.204  -0.940  1.00  0.00    -0.169 OA
ATOM     53  O   UNL     1       9.492  -8.081   1.441  1.00  0.00    -0.169 OA
BRANCH  51  54
ATOM     54  O   UNL     1      11.036  -7.946  -0.487  1.00  0.00    -0.264 OA
ATOM     55  H   UNL     1      11.001  -7.949  -1.465  1.00  0.00     0.236 HD
ENDBRANCH  51  54
ENDBRANCH  50  51
ENDBRANCH   8  50
TORSDOF 19
ENDMDL
MODEL 3
REMARK VINA RESULT:    -8.118      3.590      7.214
REMARK INTER + INTRA:         -19.658
REMARK INTER:                 -14.193
REMARK INTRA:                  -5.465
REMARK UNBOUND:                -3.236
REMARK SMILES CC[C@@H](C)[C@@H](NC(=O)[C@@H](O)Cc1ccc(O)c(Cl)c1)C(=O)N1[C@H](C(=O)NCCCCN=C(N)N)C[C@H]2CC[C@H](OS(=O)(=O)O)C[C@@H]21
REMARK SMILES IDX 22 1 36 2 46 3 35 4 23 5 45 6 37 7 39 8 38 9 20 10 21 11
REMARK SMILES IDX 5 12 6 13 7 14 8 15 9 17 11 18 12 19 17 20 19 21 15 22 14 23
REMARK SMILES IDX 13 24 18 25 16 26 10 28 3 30 4 31 2 32 1 33 24 34 25 35
REMARK SMILES IDX 26 36 27 38 28 39 29 40 30 41 31 42 32 43 33 44 34 45 40 50
REMARK SMILES IDX 41 51 42 52 43 53 44 54
REMARK H PARENT 6 16 16 27 10 29 26 37 33 46 33 47 34 48 34 49 44 55
ROOT
ATOM      1  N   UNL     1       9.114  -2.329   1.485  1.00  0.00    -0.326 N 
ATOM      2  C   UNL     1       7.356  -1.597   0.101  1.00  0.00     0.014 C 
ATOM      3  C   UNL     1       8.849  -1.940   0.097  1.00  0.00     0.091 C 
ATOM      4  C   UNL     1       7.156  -0.991   1.481  1.00  0.00     0.041 C 
ATOM      5  C   UNL     1       7.947  -1.996   2.338  1.00  0.00     0.175 C 
ATOM      6  C   UNL     1       9.105  -2.966  -1.005  1.00  0.00     0.059 C 
ATOM      7  C   UNL     1       6.982  -0.790  -1.127  1.00  0.00     0.008 C 
ATOM      8  C   UNL     1       8.167  -2.818  -2.223  1.00  0.00     0.143 C 
ATOM      9  C   UNL     1       7.655  -1.373  -2.388  1.00  0.00     0.034 C 
ENDROOT
BRANCH   1  10
ATOM     10  C   UNL     1      10.298  -2.724   2.085  1.00  0.00     0.246 C 
ATOM     11  O   UNL     1      10.843  -1.967   2.895  1.00  0.00    -0.272 OA
BRANCH  10  12
ATOM     12  C   UNL     1      10.892  -4.126   1.760  1.00  0.00     0.174 C 
BRANCH  12  13
ATOM     13  N   UNL     1       9.815  -5.062   1.441  1.00  0.00    -0.342 N 
ATOM     14  C   UNL     1       9.900  -6.078   0.515  1.00  0.00     0.249 C 
ATOM     15  O   UNL     1      10.909  -6.329  -0.131  1.00  0.00    -0.272 OA
ATOM     16  H   UNL     1       8.873  -4.882   1.780  1.00  0.00     0.164 HD
BRANCH  14  17
ATOM     17  C   UNL     1       8.588  -6.883   0.392  1.00  0.00     0.207 C 
BRANCH  17  18
ATOM     18  C   UNL     1       8.845  -8.220  -0.310  1.00  0.00     0.077 C 
BRANCH  18  19
ATOM     19  C   UNL     1       8.997  -9.354   0.679  1.00  0.00    -0.043 A 
ATOM     20  C   UNL     1      10.322 -10.546   2.324  1.00  0.00     0.083 A 
ATOM     21  C   UNL     1      10.164  -9.470   1.449  1.00  0.00     0.028 A 
ATOM     22  C   UNL     1       9.319 -11.509   2.435  1.00  0.00     0.134 A 
ATOM     23  C   UNL     1       8.158 -11.406   1.678  1.00  0.00     0.048 A 
ATOM     24  C   UNL     1       7.997 -10.332   0.800  1.00  0.00     0.008 A 
ATOM     25  Cl  UNL     1      11.764 -10.672   3.262  1.00  0.00    -0.080 Cl
BRANCH  22  26
ATOM     26  O   UNL     1       9.433 -12.586   3.272  1.00  0.00    -0.506 OA
ATOM     27  H   UNL     1       9.969 -12.295   4.032  1.00  0.00     0.293 HD
ENDBRANCH  22  26
ENDBRANCH  18  19
ENDBRANCH  17  18
BRANCH  17  28
ATOM     28  O   UNL     1       7.594  -6.145  -0.336  1.00  0.00    -0.383 OA
ATOM     29  H   UNL     1       8.028  -5.307  -0.616  1.00  0.00     0.211 HD
ENDBRANCH  17  28
ENDBRANCH  14  17
ENDBRANCH  12  13
BRANCH  12  30
ATOM     30  C   UNL     1      11.825  -4.656   2.882  1.00  0.00     0.018 C 
ATOM     31  C   UNL     1      13.129  -5.213   2.290  1.00  0.00     0.010 C 
BRANCH  30  32
ATOM     32  C   UNL     1      11.159  -5.715   3.794  1.00  0.00     0.002 C 
ATOM     33  C   UNL     1      11.747  -7.117   3.701  1.00  0.00     0.004 C 
ENDBRANCH  30  32
ENDBRANCH  12  30
ENDBRANCH  10  12
ENDBRANCH   1  10
BRANCH   5  34
ATOM     34  C   UNL     1       7.111  -3.267   2.646  1.00  0.00     0.242 C 
ATOM     35  O   UNL     1       7.139  -4.264   1.925  1.00  0.00    -0.273 OA
ATOM     36  N   UNL     1       6.296  -3.177   3.753  1.00  0.00    -0.354 N 
ATOM     37  H   UNL     1       6.226  -2.283   4.240  1.00  0.00     0.163 HD
BRANCH  36  38
ATOM     38  C   UNL     1       5.617  -4.330   4.308  1.00  0.00     0.116 C 
BRANCH  38  39
ATOM     39  C   UNL     1       4.162  -4.346   3.846  1.00  0.00     0.023 C 
BRANCH  39  40
ATOM     40  C   UNL     1       3.668  -2.966   3.426  1.00  0.00     0.026 C 
BRANCH  40  41
ATOM     41  C   UNL     1       3.216  -2.973   1.966  1.00  0.00     0.146 C 
BRANCH  41  42
ATOM     42  N   UNL     1       3.735  -4.157   1.295  1.00  0.00    -0.254 NA
ATOM     43  C   UNL     1       4.159  -4.068   0.090  1.00  0.00     0.185 C 
ATOM     44  N   UNL     1       4.219  -3.003  -0.729  1.00  0.00    -0.370 N 
ATOM     45  N   UNL     1       4.629  -5.173  -0.512  1.00  0.00    -0.370 N 
ATOM     46  H   UNL     1       4.344  -3.124  -1.720  1.00  0.00     0.159 HD
ATOM     47  H   UNL     1       3.915  -2.082  -0.429  1.00  0.00     0.159 HD
ATOM     48  H   UNL     1       4.628  -6.020   0.041  1.00  0.00     0.159 HD
ATOM     49  H   UNL     1       5.188  -5.142  -1.346  1.00  0.00     0.159 HD
ENDBRANCH  41  42
ENDBRANCH  40  41
ENDBRANCH  39  40
ENDBRANCH  38  39
ENDBRANCH  36  38
ENDBRANCH   5  34
BRANCH   8  50
ATOM     50  O   UNL     1       7.042  -3.685  -2.083  1.00  0.00    -0.245 OA
BRANCH  50  51
ATOM     51  S   UNL     1       6.305  -4.267  -3.412  1.00  0.00     0.397 S 
ATOM     52  O   UNL     1       7.196  -4.077  -4.534  1.00  0.00    -0.169 OA
ATOM     53  O   UNL     1       4.932  -3.809  -3.446  1.00  0.00    -0.169 OA
BRANCH  51  54
ATOM     54  O   UNL     1       6.294  -5.849  -3.124  1.00  0.00    -0.264 OA
ATOM     55  H   UNL     1       6.255  -5.975  -2.154  1.00  0.00     0.236 HD
ENDBRANCH  51  54
ENDBRANCH  50  51
ENDBRANCH   8  50
TORSDOF 19
ENDMDL
MODEL 4
REMARK VINA RESULT:    -7.918      3.255      6.667
REMARK INTER + INTRA:         -19.254
REMARK INTER:                 -16.275
REMARK INTRA:                  -2.979
REMARK UNBOUND:                -3.236
REMARK SMILES CC[C@@H](C)[C@@H](NC(=O)[C@@H](O)Cc1ccc(O)c(Cl)c1)C(=O)N1[C@H](C(=O)NCCCCN=C(N)N)C[C@H]2CC[C@H](OS(=O)(=O)O)C[C@@H]21
REMARK SMILES IDX 22 1 36 2 46 3 35 4 23 5 45 6 37 7 39 8 38 9 20 10 21 11
REMARK SMILES IDX 5 12 6 13 7 14 8 15 9 17 11 18 12 19 17 20 19 21 15 22 14 23
REMARK SMILES IDX 13 24 18 25 16 26 10 28 3 30 4 31 2 32 1 33 24 34 25 35
REMARK SMILES IDX 26 36 27 38 28 39 29 40 30 41 31 42 32 43 33 44 34 45 40 50
REMARK SMILES IDX 41 51 42 52 43 53 44 54
REMARK H PARENT 6 16 16 27 10 29 26 37 33 46 33 47 34 48 34 49 44 55
ROOT
ATOM      1  N   UNL     1       7.685  -4.321   1.768  1.00  0.00    -0.326 N 
ATOM      2  C   UNL     1       8.222  -5.828   0.041  1.00  0.00     0.014 C 
ATOM      3  C   UNL     1       7.058  -5.316   0.895  1.00  0.00     0.091 C 
ATOM      4  C   UNL     1       9.393  -5.783   1.011  1.00  0.00     0.041 C 
ATOM      5  C   UNL     1       9.162  -4.403   1.652  1.00  0.00     0.175 C 
ATOM      6  C   UNL     1       5.939  -4.858  -0.040  1.00  0.00     0.059 C 
ATOM      7  C   UNL     1       7.864  -7.138  -0.633  1.00  0.00     0.008 C 
ATOM      8  C   UNL     1       5.863  -5.659  -1.357  1.00  0.00     0.143 C 
ATOM      9  C   UNL     1       6.431  -7.084  -1.203  1.00  0.00     0.034 C 
ENDROOT
BRANCH   1  10
ATOM     10  C   UNL     1       7.129  -3.539   2.766  1.00  0.00     0.246 C 
ATOM     11  O   UNL     1       7.552  -3.650   3.922  1.00  0.00    -0.272 OA
BRANCH  10  12
ATOM     12  C   UNL     1       6.018  -2.510   2.406  1.00  0.00     0.174 C 
BRANCH  12  13
ATOM     13  N   UNL     1       6.278  -1.239   3.081  1.00  0.00    -0.342 N 
ATOM     14  C   UNL     1       7.267  -0.347   2.734  1.00  0.00     0.249 C 
ATOM     15  O   UNL     1       8.032  -0.510   1.791  1.00  0.00    -0.272 OA
ATOM     16  H   UNL     1       5.829  -1.042   3.972  1.00  0.00     0.164 HD
BRANCH  14  17
ATOM     17  C   UNL     1       7.298   0.895   3.650  1.00  0.00     0.207 C 
BRANCH  17  18
ATOM     18  C   UNL     1       8.401   0.756   4.704  1.00  0.00     0.077 C 
BRANCH  18  19
ATOM     19  C   UNL     1       9.670   1.463   4.286  1.00  0.00    -0.043 A 
ATOM     20  C   UNL     1      10.934   3.511   3.983  1.00  0.00     0.083 A 
ATOM     21  C   UNL     1       9.780   2.856   4.416  1.00  0.00     0.028 A 
ATOM     22  C   UNL     1      11.981   2.782   3.419  1.00  0.00     0.134 A 
ATOM     23  C   UNL     1      11.885   1.402   3.284  1.00  0.00     0.048 A 
ATOM     24  C   UNL     1      10.731   0.744   3.715  1.00  0.00     0.008 A 
ATOM     25  Cl  UNL     1      11.051   5.224   4.151  1.00  0.00    -0.080 Cl
BRANCH  22  26
ATOM     26  O   UNL     1      13.127   3.381   2.971  1.00  0.00    -0.506 OA
ATOM     27  H   UNL     1      13.378   2.925   2.146  1.00  0.00     0.293 HD
ENDBRANCH  22  26
ENDBRANCH  18  19
ENDBRANCH  17  18
BRANCH  17  28
ATOM     28  O   UNL     1       6.033   1.086   4.305  1.00  0.00    -0.383 OA
ATOM     29  H   UNL     1       6.224   1.610   5.116  1.00  0.00     0.211 HD
ENDBRANCH  17  28
ENDBRANCH  14  17
ENDBRANCH  12  13
BRANCH  12  30
ATOM     30  C   UNL     1       4.589  -3.049   2.685  1.00  0.00     0.018 C 
ATOM     31  C   UNL     1       3.693  -1.944   3.266  1.00  0.00     0.010 C 
BRANCH  30  32
ATOM     32  C   UNL     1       4.562  -4.294   3.604  1.00  0.00     0.002 C 
ATOM     33  C   UNL     1       4.238  -4.017   5.066  1.00  0.00     0.004 C 
ENDBRANCH  30  32
ENDBRANCH  12  30
ENDBRANCH  10  12
ENDBRANCH   1  10
BRANCH   5  34
ATOM     34  C   UNL     1       9.709  -3.258   0.757  1.00  0.00     0.242 C 
ATOM     35  O   UNL     1      10.819  -2.758   0.934  1.00  0.00    -0.273 OA
ATOM     36  N   UNL     1       8.841  -2.808  -0.212  1.00  0.00    -0.354 N 
ATOM     37  H   UNL     1       7.890  -3.179  -0.232  1.00  0.00     0.163 HD
BRANCH  36  38
ATOM     38  C   UNL     1       9.258  -1.904  -1.264  1.00  0.00     0.116 C 
BRANCH  38  39
ATOM     39  C   UNL     1       8.046  -1.464  -2.081  1.00  0.00     0.023 C 
BRANCH  39  40
ATOM     40  C   UNL     1       7.217  -0.402  -1.367  1.00  0.00     0.026 C 
BRANCH  40  41
ATOM     41  C   UNL     1       5.867  -0.971  -0.929  1.00  0.00     0.146 C 
BRANCH  41  42
ATOM     42  N   UNL     1       5.073   0.075  -0.298  1.00  0.00    -0.254 NA
ATOM     43  C   UNL     1       3.844  -0.146  -0.017  1.00  0.00     0.185 C 
ATOM     44  N   UNL     1       3.097  -1.249  -0.209  1.00  0.00    -0.370 N 
ATOM     45  N   UNL     1       3.128   0.833   0.561  1.00  0.00    -0.370 N 
ATOM     46  H   UNL     1       2.093  -1.202  -0.166  1.00  0.00     0.159 HD
ATOM     47  H   UNL     1       3.486  -2.090  -0.623  1.00  0.00     0.159 HD
ATOM     48  H   UNL     1       3.619   1.696   0.749  1.00  0.00     0.159 HD
ATOM     49  H   UNL     1       2.251   0.666   1.021  1.00  0.00     0.159 HD
ENDBRANCH  41  42
ENDBRANCH  40  41
ENDBRANCH  39  40
ENDBRANCH  38  39
ENDBRANCH  36  38
ENDBRANCH   5  34
BRANCH   8  50
ATOM     50  O   UNL     1       6.595  -4.987  -2.383  1.00  0.00    -0.245 OA
BRANCH  50  51
ATOM     51  S   UNL     1       6.063  -5.045  -3.919  1.00  0.00     0.397 S 
ATOM     52  O   UNL     1       6.933  -4.217  -4.723  1.00  0.00    -0.169 OA
ATOM     53  O   UNL     1       4.625  -4.882  -3.941  1.00  0.00    -0.169 OA
BRANCH  51  54
ATOM     54  O   UNL     1       6.397  -6.563  -4.332  1.00  0.00    -0.264 OA
ATOM     55  H   UNL     1       7.102  -6.539  -5.011  1.00  0.00     0.236 HD
ENDBRANCH  51  54
ENDBRANCH  50  51
ENDBRANCH   8  50
TORSDOF 19
ENDMDL
MODEL 5
REMARK VINA RESULT:    -7.885      3.520      5.240
REMARK INTER + INTRA:         -19.188
REMARK INTER:                 -16.660
REMARK INTRA:                  -2.528
REMARK UNBOUND:                -3.236
REMARK SMILES CC[C@@H](C)[C@@H](NC(=O)[C@@H](O)Cc1ccc(O)c(Cl)c1)C(=O)N1[C@H](C(=O)NCCCCN=C(N)N)C[C@H]2CC[C@H](OS(=O)(=O)O)C[C@@H]21
REMARK SMILES IDX 22 1 36 2 46 3 35 4 23 5 45 6 37 7 39 8 38 9 20 10 21 11
REMARK SMILES IDX 5 12 6 13 7 14 8 15 9 17 11 18 12 19 17 20 19 21 15 22 14 23
REMARK SMILES IDX 13 24 18 25 16 26 10 28 3 30 4 31 2 32 1 33 24 34 25 35
REMARK SMILES IDX 26 36 27 38 28 39 29 40 30 41 31 42 32 43 33 44 34 45 40 50
REMARK SMILES IDX 41 51 42 52 43 53 44 54
REMARK H PARENT 6 16 16 27 10 29 26 37 33 46 33 47 34 48 34 49 44 55
ROOT
ATOM      1  N   UNL     1       8.904  -3.423   2.842  1.00  0.00    -0.326 N 
ATOM      2  C   UNL     1       7.054  -4.652   3.622  1.00  0.00     0.014 C 
ATOM      3  C   UNL     1       7.669  -3.249   3.611  1.00  0.00     0.091 C 
ATOM      4  C   UNL     1       8.278  -5.553   3.676  1.00  0.00     0.041 C 
ATOM      5  C   UNL     1       9.169  -4.867   2.625  1.00  0.00     0.175 C 
ATOM      6  C   UNL     1       6.622  -2.268   3.087  1.00  0.00     0.059 C 
ATOM      7  C   UNL     1       5.994  -4.771   4.699  1.00  0.00     0.008 C 
ATOM      8  C   UNL     1       5.171  -2.660   3.441  1.00  0.00     0.143 C 
ATOM      9  C   UNL     1       5.097  -3.516   4.721  1.00  0.00     0.034 C 
ENDROOT
BRANCH   1  10
ATOM     10  C   UNL     1       9.885  -2.501   2.518  1.00  0.00     0.246 C 
ATOM     11  O   UNL     1      10.976  -2.905   2.102  1.00  0.00    -0.272 OA
BRANCH  10  12
ATOM     12  C   UNL     1       9.580  -0.980   2.644  1.00  0.00     0.174 C 
BRANCH  12  13
ATOM     13  N   UNL     1       8.583  -0.588   1.649  1.00  0.00    -0.342 N 
ATOM     14  C   UNL     1       8.713  -0.758   0.289  1.00  0.00     0.249 C 
ATOM     15  O   UNL     1       9.681  -1.289  -0.242  1.00  0.00    -0.272 OA
ATOM     16  H   UNL     1       7.802   0.003   1.925  1.00  0.00     0.164 HD
BRANCH  14  17
ATOM     17  C   UNL     1       7.497  -0.225  -0.497  1.00  0.00     0.207 C 
BRANCH  17  18
ATOM     18  C   UNL     1       6.228  -0.987  -0.102  1.00  0.00     0.077 C 
BRANCH  18  19
ATOM     19  C   UNL     1       5.091  -0.049   0.234  1.00  0.00    -0.043 A 
ATOM     20  C   UNL     1       3.257   1.371  -0.476  1.00  0.00     0.083 A 
ATOM     21  C   UNL     1       4.274   0.467  -0.784  1.00  0.00     0.028 A 
ATOM     22  C   UNL     1       3.050   1.766   0.846  1.00  0.00     0.134 A 
ATOM     23  C   UNL     1       3.852   1.263   1.864  1.00  0.00     0.048 A 
ATOM     24  C   UNL     1       4.872   0.360   1.559  1.00  0.00     0.008 A 
ATOM     25  Cl  UNL     1       2.263   1.994  -1.741  1.00  0.00    -0.080 Cl
BRANCH  22  26
ATOM     26  O   UNL     1       2.073   2.658   1.195  1.00  0.00    -0.506 OA
ATOM     27  H   UNL     1       1.746   3.054   0.366  1.00  0.00     0.293 HD
ENDBRANCH  22  26
ENDBRANCH  18  19
ENDBRANCH  17  18
BRANCH  17  28
ATOM     28  O   UNL     1       7.704  -0.346  -1.914  1.00  0.00    -0.383 OA
ATOM     29  H   UNL     1       8.481  -0.939  -2.026  1.00  0.00     0.211 HD
ENDBRANCH  17  28
ENDBRANCH  14  17
ENDBRANCH  12  13
BRANCH  12  30
ATOM     30  C   UNL     1      10.860  -0.104   2.577  1.00  0.00     0.018 C 
ATOM     31  C   UNL     1      11.713  -0.285   3.843  1.00  0.00     0.010 C 
BRANCH  30  32
ATOM     32  C   UNL     1      10.573   1.399   2.340  1.00  0.00     0.002 C 
ATOM     33  C   UNL     1      10.516   2.257   3.597  1.00  0.00     0.004 C 
ENDBRANCH  30  32
ENDBRANCH  12  30
ENDBRANCH  10  12
ENDBRANCH   1  10
BRANCH   5  34
ATOM     34  C   UNL     1       8.780  -5.287   1.183  1.00  0.00     0.242 C 
ATOM     35  O   UNL     1       8.892  -6.446   0.782  1.00  0.00    -0.273 OA
ATOM     36  N   UNL     1       8.352  -4.262   0.369  1.00  0.00    -0.354 N 
ATOM     37  H   UNL     1       8.395  -3.305   0.721  1.00  0.00     0.163 HD
BRANCH  36  38
ATOM     38  C   UNL     1       7.750  -4.502  -0.926  1.00  0.00     0.116 C 
BRANCH  38  39
ATOM     39  C   UNL     1       6.232  -4.585  -0.785  1.00  0.00     0.023 C 
BRANCH  39  40
ATOM     40  C   UNL     1       5.502  -4.006  -1.992  1.00  0.00     0.026 C 
BRANCH  40  41
ATOM     41  C   UNL     1       5.593  -4.955  -3.187  1.00  0.00     0.146 C 
BRANCH  41  42
ATOM     42  N   UNL     1       5.005  -4.326  -4.362  1.00  0.00    -0.254 NA
ATOM     43  C   UNL     1       4.891  -4.994  -5.448  1.00  0.00     0.185 C 
ATOM     44  N   UNL     1       5.239  -6.264  -5.723  1.00  0.00    -0.370 N 
ATOM     45  N   UNL     1       4.351  -4.394  -6.521  1.00  0.00    -0.370 N 
ATOM     46  H   UNL     1       5.318  -6.579  -6.674  1.00  0.00     0.159 HD
ATOM     47  H   UNL     1       5.651  -6.868  -5.018  1.00  0.00     0.159 HD
ATOM     48  H   UNL     1       4.053  -3.436  -6.396  1.00  0.00     0.159 HD
ATOM     49  H   UNL     1       4.013  -4.905  -7.317  1.00  0.00     0.159 HD
ENDBRANCH  41  42
ENDBRANCH  40  41
ENDBRANCH  39  40
ENDBRANCH  38  39
ENDBRANCH  36  38
ENDBRANCH   5  34
BRANCH   8  50
ATOM     50  O   UNL     1       4.588  -3.399   2.367  1.00  0.00    -0.245 OA
BRANCH  50  51
ATOM     51  S   UNL     1       3.004  -3.225   2.040  1.00  0.00     0.397 S 
ATOM     52  O   UNL     1       2.511  -2.101   2.803  1.00  0.00    -0.169 OA
ATOM     53  O   UNL     1       2.354  -4.518   2.085  1.00  0.00    -0.169 OA
BRANCH  51  54
ATOM     54  O   UNL     1       3.030  -2.737   0.508  1.00  0.00    -0.264 OA
ATOM     55  H   UNL     1       3.504  -3.416  -0.014  1.00  0.00     0.236 HD
ENDBRANCH  51  54
ENDBRANCH  50  51
ENDBRANCH   8  50
TORSDOF 19
ENDMDL
MODEL 6
REMARK VINA RESULT:    -7.750      2.647      5.269
REMARK INTER + INTRA:         -18.914
REMARK INTER:                 -15.466
REMARK INTRA:                  -3.448
REMARK UNBOUND:                -3.236
REMARK SMILES CC[C@@H](C)[C@@H](NC(=O)[C@@H](O)Cc1ccc(O)c(Cl)c1)C(=O)N1[C@H](C(=O)NCCCCN=C(N)N)C[C@H]2CC[C@H](OS(=O)(=O)O)C[C@@H]21
REMARK SMILES IDX 22 1 36 2 46 3 35 4 23 5 45 6 37 7 39 8 38 9 20 10 21 11
REMARK SMILES IDX 5 12 6 13 7 14 8 15 9 17 11 18 12 19 17 20 19 21 15 22 14 23
REMARK SMILES IDX 13 24 18 25 16 26 10 28 3 30 4 31 2 32 1 33 24 34 25 35
REMARK SMILES IDX 26 36 27 38 28 39 29 40 30 41 31 42 32 43 33 44 34 45 40 50
REMARK SMILES IDX 41 51 42 52 43 53 44 54
REMARK H PARENT 6 16 16 27 10 29 26 37 33 46 33 47 34 48 34 49 44 55
ROOT
ATOM      1  N   UNL     1       7.602  -2.925   2.862  1.00  0.00    -0.326 N 
ATOM      2  C   UNL     1       8.604  -3.947   0.994  1.00  0.00     0.014 C 
ATOM      3  C   UNL     1       8.052  -2.613   1.503  1.00  0.00     0.091 C 
ATOM      4  C   UNL     1       7.685  -4.964   1.652  1.00  0.00     0.041 C 
ATOM      5  C   UNL     1       7.626  -4.393   3.081  1.00  0.00     0.175 C 
ATOM      6  C   UNL     1       9.128  -1.544   1.323  1.00  0.00     0.059 C 
ATOM      7  C   UNL     1       8.741  -3.937  -0.516  1.00  0.00     0.008 C 
ATOM      8  C   UNL     1      10.044  -1.783   0.103  1.00  0.00     0.143 C 
ATOM      9  C   UNL     1       9.338  -2.599  -0.999  1.00  0.00     0.034 C 
ENDROOT
BRANCH   1  10
ATOM     10  C   UNL     1       6.997  -2.112   3.806  1.00  0.00     0.246 C 
ATOM     11  O   UNL     1       7.472  -2.057   4.945  1.00  0.00    -0.272 OA
BRANCH  10  12
ATOM     12  C   UNL     1       5.761  -1.256   3.401  1.00  0.00     0.174 C 
BRANCH  12  13
ATOM     13  N   UNL     1       4.867  -2.042   2.552  1.00  0.00    -0.342 N 
ATOM     14  C   UNL     1       3.832  -2.827   3.008  1.00  0.00     0.249 C 
ATOM     15  O   UNL     1       3.526  -2.934   4.189  1.00  0.00    -0.272 OA
ATOM     16  H   UNL     1       5.094  -2.177   1.570  1.00  0.00     0.164 HD
BRANCH  14  17
ATOM     17  C   UNL     1       3.082  -3.546   1.867  1.00  0.00     0.207 C 
BRANCH  17  18
ATOM     18  C   UNL     1       3.473  -2.951   0.511  1.00  0.00     0.077 C 
BRANCH  18  19
ATOM     19  C   UNL     1       4.293  -3.919  -0.312  1.00  0.00    -0.043 A 
ATOM     20  C   UNL     1       5.769  -4.361  -2.186  1.00  0.00     0.083 A 
ATOM     21  C   UNL     1       5.053  -3.459  -1.399  1.00  0.00     0.028 A 
ATOM     22  C   UNL     1       5.730  -5.725  -1.896  1.00  0.00     0.134 A 
ATOM     23  C   UNL     1       4.981  -6.195  -0.823  1.00  0.00     0.048 A 
ATOM     24  C   UNL     1       4.262  -5.295  -0.034  1.00  0.00     0.008 A 
ATOM     25  Cl  UNL     1       6.697  -3.776  -3.516  1.00  0.00    -0.080 Cl
BRANCH  22  26
ATOM     26  O   UNL     1       6.406  -6.649  -2.645  1.00  0.00    -0.506 OA
ATOM     27  H   UNL     1       7.260  -6.244  -2.885  1.00  0.00     0.293 HD
ENDBRANCH  22  26
ENDBRANCH  18  19
ENDBRANCH  17  18
BRANCH  17  28
ATOM     28  O   UNL     1       1.659  -3.445   2.039  1.00  0.00    -0.383 OA
ATOM     29  H   UNL     1       1.357  -2.755   1.405  1.00  0.00     0.211 HD
ENDBRANCH  17  28
ENDBRANCH  14  17
ENDBRANCH  12  13
BRANCH  12  30
ATOM     30  C   UNL     1       6.156   0.098   2.752  1.00  0.00     0.018 C 
ATOM     31  C   UNL     1       6.568   1.118   3.825  1.00  0.00     0.010 C 
BRANCH  30  32
ATOM     32  C   UNL     1       5.055   0.696   1.844  1.00  0.00     0.002 C 
ATOM     33  C   UNL     1       4.001   1.529   2.562  1.00  0.00     0.004 C 
ENDBRANCH  30  32
ENDBRANCH  12  30
ENDBRANCH  10  12
ENDBRANCH   1  10
BRANCH   5  34
ATOM     34  C   UNL     1       8.869  -4.805   3.913  1.00  0.00     0.242 C 
ATOM     35  O   UNL     1       9.682  -3.981   4.335  1.00  0.00    -0.273 OA
ATOM     36  N   UNL     1       9.027  -6.160   4.100  1.00  0.00    -0.354 N 
ATOM     37  H   UNL     1       8.388  -6.799   3.625  1.00  0.00     0.163 HD
BRANCH  36  38
ATOM     38  C   UNL     1      10.000  -6.705   5.023  1.00  0.00     0.116 C 
BRANCH  38  39
ATOM     39  C   UNL     1      10.601  -7.985   4.447  1.00  0.00     0.023 C 
BRANCH  39  40
ATOM     40  C   UNL     1       9.540  -8.926   3.886  1.00  0.00     0.026 C 
BRANCH  40  41
ATOM     41  C   UNL     1      10.016  -9.564   2.581  1.00  0.00     0.146 C 
BRANCH  41  42
ATOM     42  N   UNL     1       8.968 -10.419   2.039  1.00  0.00    -0.254 NA
ATOM     43  C   UNL     1       8.936 -11.659   2.355  1.00  0.00     0.185 C 
ATOM     44  N   UNL     1       9.752 -12.370   3.154  1.00  0.00    -0.370 N 
ATOM     45  N   UNL     1       7.964 -12.431   1.841  1.00  0.00    -0.370 N 
ATOM     46  H   UNL     1       9.757 -13.375   3.119  1.00  0.00     0.159 HD
ATOM     47  H   UNL     1      10.534 -11.938   3.636  1.00  0.00     0.159 HD
ATOM     48  H   UNL     1       7.299 -11.970   1.234  1.00  0.00     0.159 HD
ATOM     49  H   UNL     1       7.731 -13.333   2.216  1.00  0.00     0.159 HD
ENDBRANCH  41  42
ENDBRANCH  40  41
ENDBRANCH  39  40
ENDBRANCH  38  39
ENDBRANCH  36  38
ENDBRANCH   5  34
BRANCH   8  50
ATOM     50  O   UNL     1      11.221  -2.485   0.503  1.00  0.00    -0.245 OA
BRANCH  50  51
ATOM     51  S   UNL     1      12.628  -1.680   0.640  1.00  0.00     0.397 S 
ATOM     52  O   UNL     1      13.487  -2.094  -0.447  1.00  0.00    -0.169 OA
ATOM     53  O   UNL     1      13.075  -1.714   2.017  1.00  0.00    -0.169 OA
BRANCH  51  54
ATOM     54  O   UNL     1      12.186  -0.172   0.299  1.00  0.00    -0.264 OA
ATOM     55  H   UNL     1      11.214  -0.164   0.186  1.00  0.00     0.236 HD
ENDBRANCH  51  54
ENDBRANCH  50  51
ENDBRANCH   8  50
TORSDOF 19
ENDMDL
MODEL 7
REMARK VINA RESULT:    -7.743      3.728      7.378
REMARK INTER + INTRA:         -18.900
REMARK INTER:                 -15.361
REMARK INTRA:                  -3.539
REMARK UNBOUND:                -3.236
REMARK SMILES CC[C@@H](C)[C@@H](NC(=O)[C@@H](O)Cc1ccc(O)c(Cl)c1)C(=O)N1[C@H](C(=O)NCCCCN=C(N)N)C[C@H]2CC[C@H](OS(=O)(=O)O)C[C@@H]21
REMARK SMILES IDX 22 1 36 2 46 3 35 4 23 5 45 6 37 7 39 8 38 9 20 10 21 11
REMARK SMILES IDX 5 12 6 13 7 14 8 15 9 17 11 18 12 19 17 20 19 21 15 22 14 23
REMARK SMILES IDX 13 24 18 25 16 26 10 28 3 30 4 31 2 32 1 33 24 34 25 35
REMARK SMILES IDX 26 36 27 38 28 39 29 40 30 41 31 42 32 43 33 44 34 45 40 50
REMARK SMILES IDX 41 51 42 52 43 53 44 54
REMARK H PARENT 6 16 16 27 10 29 26 37 33 46 33 47 34 48 34 49 44 55
ROOT
ATOM      1  N   UNL     1       8.604  -3.606  -0.966  1.00  0.00    -0.326 N 
ATOM      2  C   UNL     1       6.396  -3.846  -1.747  1.00  0.00     0.014 C 
ATOM      3  C   UNL     1       7.459  -4.517  -0.873  1.00  0.00     0.091 C 
ATOM      4  C   UNL     1       7.223  -3.214  -2.855  1.00  0.00     0.041 C 
ATOM      5  C   UNL     1       8.363  -2.595  -2.025  1.00  0.00     0.175 C 
ATOM      6  C   UNL     1       6.855  -4.782   0.505  1.00  0.00     0.059 C 
ATOM      7  C   UNL     1       5.294  -4.824  -2.107  1.00  0.00     0.008 C 
ATOM      8  C   UNL     1       5.339  -5.073   0.473  1.00  0.00     0.143 C 
ATOM      9  C   UNL     1       4.891  -5.666  -0.878  1.00  0.00     0.034 C 
ENDROOT
BRANCH   1  10
ATOM     10  C   UNL     1       9.863  -3.701  -0.398  1.00  0.00     0.246 C 
ATOM     11  O   UNL     1      10.859  -3.610  -1.124  1.00  0.00    -0.272 OA
BRANCH  10  12
ATOM     12  C   UNL     1       9.998  -3.876   1.142  1.00  0.00     0.174 C 
BRANCH  12  13
ATOM     13  N   UNL     1      10.654  -2.705   1.722  1.00  0.00    -0.342 N 
ATOM     14  C   UNL     1      10.150  -1.947   2.755  1.00  0.00     0.249 C 
ATOM     15  O   UNL     1       9.096  -2.191   3.328  1.00  0.00    -0.272 OA
ATOM     16  H   UNL     1      11.454  -2.291   1.250  1.00  0.00     0.164 HD
BRANCH  14  17
ATOM     17  C   UNL     1      11.069  -0.765   3.130  1.00  0.00     0.207 C 
BRANCH  17  18
ATOM     18  C   UNL     1      10.613   0.514   2.421  1.00  0.00     0.077 C 
BRANCH  18  19
ATOM     19  C   UNL     1      10.119   1.555   3.400  1.00  0.00    -0.043 A 
ATOM     20  C   UNL     1      10.393   3.693   4.513  1.00  0.00     0.083 A 
ATOM     21  C   UNL     1      10.824   2.756   3.573  1.00  0.00     0.028 A 
ATOM     22  C   UNL     1       9.260   3.435   5.286  1.00  0.00     0.134 A 
ATOM     23  C   UNL     1       8.553   2.250   5.125  1.00  0.00     0.048 A 
ATOM     24  C   UNL     1       8.983   1.310   4.186  1.00  0.00     0.008 A 
ATOM     25  Cl  UNL     1      11.272   5.163   4.711  1.00  0.00    -0.080 Cl
BRANCH  22  26
ATOM     26  O   UNL     1       8.805   4.318   6.228  1.00  0.00    -0.506 OA
ATOM     27  H   UNL     1       8.669   5.169   5.771  1.00  0.00     0.293 HD
ENDBRANCH  22  26
ENDBRANCH  18  19
ENDBRANCH  17  18
BRANCH  17  28
ATOM     28  O   UNL     1      12.436  -1.042   2.783  1.00  0.00    -0.383 OA
ATOM     29  H   UNL     1      12.894  -1.252   3.628  1.00  0.00     0.211 HD
ENDBRANCH  17  28
ENDBRANCH  14  17
ENDBRANCH  12  13
BRANCH  12  30
ATOM     30  C   UNL     1      10.700  -5.204   1.536  1.00  0.00     0.018 C 
ATOM     31  C   UNL     1      12.222  -5.012   1.624  1.00  0.00     0.010 C 
BRANCH  30  32
ATOM     32  C   UNL     1      10.366  -6.386   0.594  1.00  0.00     0.002 C 
ATOM     33  C   UNL     1       9.447  -7.449   1.182  1.00  0.00     0.004 C 
ENDBRANCH  30  32
ENDBRANCH  12  30
ENDBRANCH  10  12
ENDBRANCH   1  10
BRANCH   5  34
ATOM     34  C   UNL     1       7.944  -1.236  -1.403  1.00  0.00     0.242 C 
ATOM     35  O   UNL     1       7.739  -0.234  -2.088  1.00  0.00    -0.273 OA
ATOM     36  N   UNL     1       7.872  -1.218  -0.028  1.00  0.00    -0.354 N 
ATOM     37  H   UNL     1       8.171  -2.046   0.490  1.00  0.00     0.163 HD
BRANCH  36  38
ATOM     38  C   UNL     1       7.295  -0.109   0.702  1.00  0.00     0.116 C 
BRANCH  38  39
ATOM     39  C   UNL     1       6.338  -0.634   1.770  1.00  0.00     0.023 C 
BRANCH  39  40
ATOM     40  C   UNL     1       5.724   0.486   2.604  1.00  0.00     0.026 C 
BRANCH  40  41
ATOM     41  C   UNL     1       4.208   0.530   2.419  1.00  0.00     0.146 C 
BRANCH  41  42
ATOM     42  N   UNL     1       3.881   0.454   1.001  1.00  0.00    -0.254 NA
ATOM     43  C   UNL     1       3.141   1.355   0.473  1.00  0.00     0.185 C 
ATOM     44  N   UNL     1       2.568   2.439   1.027  1.00  0.00    -0.370 N 
ATOM     45  N   UNL     1       2.848   1.265  -0.835  1.00  0.00    -0.370 N 
ATOM     46  H   UNL     1       1.820   2.920   0.558  1.00  0.00     0.159 HD
ATOM     47  H   UNL     1       2.697   2.667   2.008  1.00  0.00     0.159 HD
ATOM     48  H   UNL     1       3.249   0.480  -1.331  1.00  0.00     0.159 HD
ATOM     49  H   UNL     1       2.484   2.036  -1.365  1.00  0.00     0.159 HD
ENDBRANCH  41  42
ENDBRANCH  40  41
ENDBRANCH  39  40
ENDBRANCH  38  39
ENDBRANCH  36  38
ENDBRANCH   5  34
BRANCH   8  50
ATOM     50  O   UNL     1       4.605  -3.871   0.707  1.00  0.00    -0.245 OA
BRANCH  50  51
ATOM     51  S   UNL     1       3.530  -3.810   1.926  1.00  0.00     0.397 S 
ATOM     52  O   UNL     1       4.246  -3.474   3.136  1.00  0.00    -0.169 OA
ATOM     53  O   UNL     1       2.652  -4.960   1.858  1.00  0.00    -0.169 OA
BRANCH  51  54
ATOM     54  O   UNL     1       2.669  -2.505   1.550  1.00  0.00    -0.264 OA
ATOM     55  H   UNL     1       2.245  -2.667   0.682  1.00  0.00     0.236 HD
ENDBRANCH  51  54
ENDBRANCH  50  51
ENDBRANCH   8  50
TORSDOF 19
ENDMDL
MODEL 8
REMARK VINA RESULT:    -7.729      4.127      7.223
REMARK INTER + INTRA:         -18.871
REMARK INTER:                 -16.541
REMARK INTRA:                  -2.330
REMARK UNBOUND:                -3.236
REMARK SMILES CC[C@@H](C)[C@@H](NC(=O)[C@@H](O)Cc1ccc(O)c(Cl)c1)C(=O)N1[C@H](C(=O)NCCCCN=C(N)N)C[C@H]2CC[C@H](OS(=O)(=O)O)C[C@@H]21
REMARK SMILES IDX 22 1 36 2 46 3 35 4 23 5 45 6 37 7 39 8 38 9 20 10 21 11
REMARK SMILES IDX 5 12 6 13 7 14 8 15 9 17 11 18 12 19 17 20 19 21 15 22 14 23
REMARK SMILES IDX 13 24 18 25 16 26 10 28 3 30 4 31 2 32 1 33 24 34 25 35
REMARK SMILES IDX 26 36 27 38 28 39 29 40 30 41 31 42 32 43 33 44 34 45 40 50
REMARK SMILES IDX 41 51 42 52 43 53 44 54
REMARK H PARENT 6 16 16 27 10 29 26 37 33 46 33 47 34 48 34 49 44 55
ROOT
ATOM      1  N   UNL     1       8.494  -2.352   1.767  1.00  0.00    -0.326 N 
ATOM      2  C   UNL     1       7.378  -1.168   0.067  1.00  0.00     0.014 C 
ATOM      3  C   UNL     1       8.635  -1.993   0.353  1.00  0.00     0.091 C 
ATOM      4  C   UNL     1       7.152  -0.435   1.380  1.00  0.00     0.041 C 
ATOM      5  C   UNL     1       7.379  -1.587   2.377  1.00  0.00     0.175 C 
ATOM      6  C   UNL     1       8.718  -3.120  -0.675  1.00  0.00     0.059 C 
ATOM      7  C   UNL     1       7.534  -0.369  -1.213  1.00  0.00     0.008 C 
ATOM      8  C   UNL     1       8.126  -2.749  -2.052  1.00  0.00     0.143 C 
ATOM      9  C   UNL     1       8.181  -1.231  -2.317  1.00  0.00     0.034 C 
ENDROOT
BRANCH   1  10
ATOM     10  C   UNL     1       9.340  -3.081   2.587  1.00  0.00     0.246 C 
ATOM     11  O   UNL     1       9.126  -4.287   2.751  1.00  0.00    -0.272 OA
BRANCH  10  12
ATOM     12  C   UNL     1      10.561  -2.378   3.247  1.00  0.00     0.174 C 
BRANCH  12  13
ATOM     13  N   UNL     1      10.170  -1.059   3.743  1.00  0.00    -0.342 N 
ATOM     14  C   UNL     1      10.003  -0.732   5.070  1.00  0.00     0.249 C 
ATOM     15  O   UNL     1      10.194  -1.513   5.994  1.00  0.00    -0.272 OA
ATOM     16  H   UNL     1       9.827  -0.357   3.092  1.00  0.00     0.164 HD
BRANCH  14  17
ATOM     17  C   UNL     1       9.569   0.735   5.272  1.00  0.00     0.207 C 
BRANCH  17  18
ATOM     18  C   UNL     1       9.516   1.468   3.927  1.00  0.00     0.077 C 
BRANCH  18  19
ATOM     19  C   UNL     1      10.593   2.524   3.820  1.00  0.00    -0.043 A 
ATOM     20  C   UNL     1      12.876   3.153   3.295  1.00  0.00     0.083 A 
ATOM     21  C   UNL     1      11.870   2.187   3.346  1.00  0.00     0.028 A 
ATOM     22  C   UNL     1      12.614   4.457   3.717  1.00  0.00     0.134 A 
ATOM     23  C   UNL     1      11.353   4.804   4.188  1.00  0.00     0.048 A 
ATOM     24  C   UNL     1      10.345   3.839   4.242  1.00  0.00     0.008 A 
ATOM     25  Cl  UNL     1      14.439   2.720   2.709  1.00  0.00    -0.080 Cl
BRANCH  22  26
ATOM     26  O   UNL     1      13.571   5.435   3.695  1.00  0.00    -0.506 OA
ATOM     27  H   UNL     1      13.635   5.784   4.603  1.00  0.00     0.293 HD
ENDBRANCH  22  26
ENDBRANCH  18  19
ENDBRANCH  17  18
BRANCH  17  28
ATOM     28  O   UNL     1      10.469   1.424   6.155  1.00  0.00    -0.383 OA
ATOM     29  H   UNL     1      11.138   0.759   6.435  1.00  0.00     0.211 HD
ENDBRANCH  17  28
ENDBRANCH  14  17
ENDBRANCH  12  13
BRANCH  12  30
ATOM     30  C   UNL     1      11.796  -2.315   2.308  1.00  0.00     0.018 C 
ATOM     31  C   UNL     1      12.929  -3.211   2.834  1.00  0.00     0.010 C 
BRANCH  30  32
ATOM     32  C   UNL     1      12.322  -0.879   2.068  1.00  0.00     0.002 C 
ATOM     33  C   UNL     1      12.099  -0.330   0.665  1.00  0.00     0.004 C 
ENDBRANCH  30  32
ENDBRANCH  12  30
ENDBRANCH  10  12
ENDBRANCH   1  10
BRANCH   5  34
ATOM     34  C   UNL     1       6.115  -2.476   2.521  1.00  0.00     0.242 C 
ATOM     35  O   UNL     1       5.581  -2.689   3.609  1.00  0.00    -0.273 OA
ATOM     36  N   UNL     1       5.668  -3.053   1.353  1.00  0.00    -0.354 N 
ATOM     37  H   UNL     1       6.223  -2.936   0.504  1.00  0.00     0.163 HD
BRANCH  36  38
ATOM     38  C   UNL     1       4.391  -3.730   1.264  1.00  0.00     0.116 C 
BRANCH  38  39
ATOM     39  C   UNL     1       3.408  -2.879   0.464  1.00  0.00     0.023 C 
BRANCH  39  40
ATOM     40  C   UNL     1       3.747  -1.393   0.516  1.00  0.00     0.026 C 
BRANCH  40  41
ATOM     41  C   UNL     1       3.722  -0.782  -0.885  1.00  0.00     0.146 C 
BRANCH  41  42
ATOM     42  N   UNL     1       3.400   0.636  -0.798  1.00  0.00    -0.254 NA
ATOM     43  C   UNL     1       2.435   1.110  -1.494  1.00  0.00     0.185 C 
ATOM     44  N   UNL     1       1.603   0.493  -2.352  1.00  0.00    -0.370 N 
ATOM     45  N   UNL     1       2.156   2.421  -1.403  1.00  0.00    -0.370 N 
ATOM     46  H   UNL     1       1.056   1.024  -3.008  1.00  0.00     0.159 HD
ATOM     47  H   UNL     1       1.664  -0.505  -2.531  1.00  0.00     0.159 HD
ATOM     48  H   UNL     1       2.732   2.958  -0.770  1.00  0.00     0.159 HD
ATOM     49  H   UNL     1       1.289   2.816  -1.721  1.00  0.00     0.159 HD
ENDBRANCH  41  42
ENDBRANCH  40  41
ENDBRANCH  39  40
ENDBRANCH  38  39
ENDBRANCH  36  38
ENDBRANCH   5  34
BRANCH   8  50
ATOM     50  O   UNL     1       6.765  -3.173  -2.131  1.00  0.00    -0.245 OA
BRANCH  50  51
ATOM     51  S   UNL     1       6.315  -4.218  -3.294  1.00  0.00     0.397 S 
ATOM     52  O   UNL     1       7.161  -3.996  -4.445  1.00  0.00    -0.169 OA
ATOM     53  O   UNL     1       4.871  -4.231  -3.404  1.00  0.00    -0.169 OA
BRANCH  51  54
ATOM     54  O   UNL     1       6.778  -5.628  -2.675  1.00  0.00    -0.264 OA
ATOM     55  H   UNL     1       6.110  -5.897  -2.012  1.00  0.00     0.236 HD
ENDBRANCH  51  54
ENDBRANCH  50  51
ENDBRANCH   8  50
TORSDOF 19
ENDMDL
MODEL 9
REMARK VINA RESULT:    -7.664      3.207      8.487
REMARK INTER + INTRA:         -18.740
REMARK INTER:                 -14.636
REMARK INTRA:                  -4.104
REMARK UNBOUND:                -3.236
REMARK SMILES CC[C@@H](C)[C@@H](NC(=O)[C@@H](O)Cc1ccc(O)c(Cl)c1)C(=O)N1[C@H](C(=O)NCCCCN=C(N)N)C[C@H]2CC[C@H](OS(=O)(=O)O)C[C@@H]21
REMARK SMILES IDX 22 1 36 2 46 3 35 4 23 5 45 6 37 7 39 8 38 9 20 10 21 11
REMARK SMILES IDX 5 12 6 13 7 14 8 15 9 17 11 18 12 19 17 20 19 21 15 22 14 23
REMARK SMILES IDX 13 24 18 25 16 26 10 28 3 30 4 31 2 32 1 33 24 34 25 35
REMARK SMILES IDX 26 36 27 38 28 39 29 40 30 41 31 42 32 43 33 44 34 45 40 50
REMARK SMILES IDX 41 51 42 52 43 53 44 54
REMARK H PARENT 6 16 16 27 10 29 26 37 33 46 33 47 34 48 34 49 44 55
ROOT
ATOM      1  N   UNL     1       8.384  -2.413   1.435  1.00  0.00    -0.326 N 
ATOM      2  C   UNL     1       7.476  -0.250   1.633  1.00  0.00     0.014 C 
ATOM      3  C   UNL     1       7.395  -1.664   2.216  1.00  0.00     0.091 C 
ATOM      4  C   UNL     1       7.763  -0.510   0.162  1.00  0.00     0.041 C 
ATOM      5  C   UNL     1       8.845  -1.598   0.284  1.00  0.00     0.175 C 
ATOM      6  C   UNL     1       7.584  -1.575   3.729  1.00  0.00     0.059 C 
ATOM      7  C   UNL     1       6.259   0.566   2.021  1.00  0.00     0.008 C 
ATOM      8  C   UNL     1       7.044  -0.267   4.347  1.00  0.00     0.143 C 
ATOM      9  C   UNL     1       5.904   0.343   3.506  1.00  0.00     0.034 C 
ENDROOT
BRANCH   1  10
ATOM     10  C   UNL     1       8.739  -3.750   1.501  1.00  0.00     0.246 C 
ATOM     11  O   UNL     1       9.146  -4.211   2.573  1.00  0.00    -0.272 OA
BRANCH  10  12
ATOM     12  C   UNL     1       8.579  -4.649   0.241  1.00  0.00     0.174 C 
BRANCH  12  13
ATOM     13  N   UNL     1       7.203  -4.577  -0.251  1.00  0.00    -0.342 N 
ATOM     14  C   UNL     1       6.833  -4.127  -1.499  1.00  0.00     0.249 C 
ATOM     15  O   UNL     1       7.628  -3.759  -2.354  1.00  0.00    -0.272 OA
ATOM     16  H   UNL     1       6.429  -4.700   0.397  1.00  0.00     0.164 HD
BRANCH  14  17
ATOM     17  C   UNL     1       5.305  -4.156  -1.713  1.00  0.00     0.207 C 
BRANCH  17  18
ATOM     18  C   UNL     1       4.583  -4.411  -0.386  1.00  0.00     0.077 C 
BRANCH  18  19
ATOM     19  C   UNL     1       4.120  -3.123   0.258  1.00  0.00    -0.043 A 
ATOM     20  C   UNL     1       3.285  -1.921   2.192  1.00  0.00     0.083 A 
ATOM     21  C   UNL     1       3.759  -3.100   1.614  1.00  0.00     0.028 A 
ATOM     22  C   UNL     1       3.167  -0.764   1.422  1.00  0.00     0.134 A 
ATOM     23  C   UNL     1       3.521  -0.773   0.078  1.00  0.00     0.048 A 
ATOM     24  C   UNL     1       3.994  -1.951  -0.504  1.00  0.00     0.008 A 
ATOM     25  Cl  UNL     1       2.846  -1.912   3.860  1.00  0.00    -0.080 Cl
BRANCH  22  26
ATOM     26  O   UNL     1       2.698   0.412   1.943  1.00  0.00    -0.506 OA
ATOM     27  H   UNL     1       2.226   0.185   2.766  1.00  0.00     0.293 HD
ENDBRANCH  22  26
ENDBRANCH  18  19
ENDBRANCH  17  18
BRANCH  17  28
ATOM     28  O   UNL     1       4.935  -5.171  -2.660  1.00  0.00    -0.383 OA
ATOM     29  H   UNL     1       4.661  -4.695  -3.476  1.00  0.00     0.211 HD
ENDBRANCH  17  28
ENDBRANCH  14  17
ENDBRANCH  12  13
BRANCH  12  30
ATOM     30  C   UNL     1       9.045  -6.110   0.484  1.00  0.00     0.018 C 
ATOM     31  C   UNL     1      10.549  -6.257   0.205  1.00  0.00     0.010 C 
BRANCH  30  32
ATOM     32  C   UNL     1       8.249  -7.160  -0.329  1.00  0.00     0.002 C 
ATOM     33  C   UNL     1       8.565  -8.613  -0.001  1.00  0.00     0.004 C 
ENDBRANCH  30  32
ENDBRANCH  12  30
ENDBRANCH  10  12
ENDBRANCH   1  10
BRANCH   5  34
ATOM     34  C   UNL     1      10.243  -0.987   0.568  1.00  0.00     0.242 C 
ATOM     35  O   UNL     1      10.740  -0.120  -0.151  1.00  0.00    -0.273 OA
ATOM     36  N   UNL     1      10.907  -1.521   1.649  1.00  0.00    -0.354 N 
ATOM     37  H   UNL     1      10.495  -2.320   2.133  1.00  0.00     0.163 HD
BRANCH  36  38
ATOM     38  C   UNL     1      12.115  -0.928   2.184  1.00  0.00     0.116 C 
BRANCH  38  39
ATOM     39  C   UNL     1      11.756   0.178   3.173  1.00  0.00     0.023 C 
BRANCH  39  40
ATOM     40  C   UNL     1      12.322   1.533   2.762  1.00  0.00     0.026 C 
BRANCH  40  41
ATOM     41  C   UNL     1      11.391   2.665   3.198  1.00  0.00     0.146 C 
BRANCH  41  42
ATOM     42  N   UNL     1      12.134   3.636   3.991  1.00  0.00    -0.254 NA
ATOM     43  C   UNL     1      11.505   4.421   4.782  1.00  0.00     0.185 C 
ATOM     44  N   UNL     1      10.187   4.521   5.035  1.00  0.00    -0.370 N 
ATOM     45  N   UNL     1      12.208   5.312   5.501  1.00  0.00    -0.370 N 
ATOM     46  H   UNL     1       9.813   5.337   5.488  1.00  0.00     0.159 HD
ATOM     47  H   UNL     1       9.511   3.912   4.586  1.00  0.00     0.159 HD
ATOM     48  H   UNL     1      13.211   5.297   5.376  1.00  0.00     0.159 HD
ATOM     49  H   UNL     1      11.828   5.787   6.300  1.00  0.00     0.159 HD
ENDBRANCH  41  42
ENDBRANCH  40  41
ENDBRANCH  39  40
ENDBRANCH  38  39
ENDBRANCH  36  38
ENDBRANCH   5  34
BRANCH   8  50
ATOM     50  O   UNL     1       8.093   0.695   4.453  1.00  0.00    -0.245 OA
BRANCH  50  51
ATOM     51  S   UNL     1       8.466   1.319   5.909  1.00  0.00     0.397 S 
ATOM     52  O   UNL     1       9.905   1.434   5.989  1.00  0.00    -0.169 OA
ATOM     53  O   UNL     1       7.699   0.646   6.937  1.00  0.00    -0.169 OA
BRANCH  51  54
ATOM     54  O   UNL     1       7.913   2.823   5.781  1.00  0.00    -0.264 OA
ATOM     55  H   UNL     1       8.478   3.397   6.338  1.00  0.00     0.236 HD
ENDBRANCH  51  54
ENDBRANCH  50  51
ENDBRANCH   8  50
TORSDOF 19
ENDMDL
MODEL 10
REMARK VINA RESULT:    -7.643      3.639      6.926
REMARK INTER + INTRA:         -18.698
REMARK INTER:                 -15.707
REMARK INTRA:                  -2.991
REMARK UNBOUND:                -3.236
REMARK SMILES CC[C@@H](C)[C@@H](NC(=O)[C@@H](O)Cc1ccc(O)c(Cl)c1)C(=O)N1[C@H](C(=O)NCCCCN=C(N)N)C[C@H]2CC[C@H](OS(=O)(=O)O)C[C@@H]21
REMARK SMILES IDX 22 1 36 2 46 3 35 4 23 5 45 6 37 7 39 8 38 9 20 10 21 11
REMARK SMILES IDX 5 12 6 13 7 14 8 15 9 17 11 18 12 19 17 20 19 21 15 22 14 23
REMARK SMILES IDX 13 24 18 25 16 26 10 28 3 30 4 31 2 32 1 33 24 34 25 35
REMARK SMILES IDX 26 36 27 38 28 39 29 40 30 41 31 42 32 43 33 44 34 45 40 50
REMARK SMILES IDX 41 51 42 52 43 53 44 54
REMARK H PARENT 6 16 16 27 10 29 26 37 33 46 33 47 34 48 34 49 44 55
ROOT
ATOM      1  N   UNL     1       8.357  -3.459  -0.899  1.00  0.00    -0.326 N 
ATOM      2  C   UNL     1       6.560  -4.023  -2.312  1.00  0.00     0.014 C 
ATOM      3  C   UNL     1       7.399  -4.542  -1.140  1.00  0.00     0.091 C 
ATOM      4  C   UNL     1       7.574  -3.236  -3.127  1.00  0.00     0.041 C 
ATOM      5  C   UNL     1       8.292  -2.468  -2.002  1.00  0.00     0.175 C 
ATOM      6  C   UNL     1       6.454  -4.940  -0.008  1.00  0.00     0.059 C 
ATOM      7  C   UNL     1       5.792  -5.152  -2.970  1.00  0.00     0.008 C 
ATOM      8  C   UNL     1       5.087  -5.465  -0.495  1.00  0.00     0.143 C 
ATOM      9  C   UNL     1       5.173  -6.082  -1.906  1.00  0.00     0.034 C 
ENDROOT
BRANCH   1  10
ATOM     10  C   UNL     1       9.380  -3.370   0.029  1.00  0.00     0.246 C 
ATOM     11  O   UNL     1      10.546  -3.543  -0.343  1.00  0.00    -0.272 OA
BRANCH  10  12
ATOM     12  C   UNL     1       9.047  -3.013   1.507  1.00  0.00     0.174 C 
BRANCH  12  13
ATOM     13  N   UNL     1      10.085  -2.140   2.055  1.00  0.00    -0.342 N 
ATOM     14  C   UNL     1      10.263  -0.817   1.719  1.00  0.00     0.249 C 
ATOM     15  O   UNL     1       9.545  -0.209   0.935  1.00  0.00    -0.272 OA
ATOM     16  H   UNL     1      10.847  -2.542   2.595  1.00  0.00     0.164 HD
BRANCH  14  17
ATOM     17  C   UNL     1      11.456  -0.171   2.456  1.00  0.00     0.207 C 
BRANCH  17  18
ATOM     18  C   UNL     1      11.484   1.341   2.207  1.00  0.00     0.077 C 
BRANCH  18  19
ATOM     19  C   UNL     1      10.776   2.104   3.304  1.00  0.00    -0.043 A 
ATOM     20  C   UNL     1       9.091   2.203   5.047  1.00  0.00     0.083 A 
ATOM     21  C   UNL     1       9.777   1.481   4.069  1.00  0.00     0.028 A 
ATOM     22  C   UNL     1       9.397   3.546   5.266  1.00  0.00     0.134 A 
ATOM     23  C   UNL     1      10.385   4.175   4.517  1.00  0.00     0.048 A 
ATOM     24  C   UNL     1      11.071   3.456   3.536  1.00  0.00     0.008 A 
ATOM     25  Cl  UNL     1       7.867   1.421   5.975  1.00  0.00    -0.080 Cl
BRANCH  22  26
ATOM     26  O   UNL     1       8.745   4.297   6.207  1.00  0.00    -0.506 OA
ATOM     27  H   UNL     1       9.301   5.081   6.374  1.00  0.00     0.293 HD
ENDBRANCH  22  26
ENDBRANCH  18  19
ENDBRANCH  17  18
BRANCH  17  28
ATOM     28  O   UNL     1      12.701  -0.747   2.029  1.00  0.00    -0.383 OA
ATOM     29  H   UNL     1      12.658  -1.699   2.274  1.00  0.00     0.211 HD
ENDBRANCH  17  28
ENDBRANCH  14  17
ENDBRANCH  12  13
BRANCH  12  30
ATOM     30  C   UNL     1       8.803  -4.268   2.387  1.00  0.00     0.018 C 
ATOM     31  C   UNL     1       8.061  -3.893   3.679  1.00  0.00     0.010 C 
BRANCH  30  32
ATOM     32  C   UNL     1      10.095  -5.052   2.723  1.00  0.00     0.002 C 
ATOM     33  C   UNL     1       9.891  -6.330   3.527  1.00  0.00     0.004 C 
ENDBRANCH  30  32
ENDBRANCH  12  30
ENDBRANCH  10  12
ENDBRANCH   1  10
BRANCH   5  34
ATOM     34  C   UNL     1       7.492  -1.212  -1.566  1.00  0.00     0.242 C 
ATOM     35  O   UNL     1       7.625  -0.122  -2.123  1.00  0.00    -0.273 OA
ATOM     36  N   UNL     1       6.666  -1.391  -0.479  1.00  0.00    -0.354 N 
ATOM     37  H   UNL     1       6.690  -2.284   0.014  1.00  0.00     0.163 HD
BRANCH  36  38
ATOM     38  C   UNL     1       5.694  -0.396  -0.074  1.00  0.00     0.116 C 
BRANCH  38  39
ATOM     39  C   UNL     1       6.056   0.151   1.305  1.00  0.00     0.023 C 
BRANCH  39  40
ATOM     40  C   UNL     1       4.872   0.818   1.996  1.00  0.00     0.026 C 
BRANCH  40  41
ATOM     41  C   UNL     1       4.366  -0.041   3.155  1.00  0.00     0.146 C 
BRANCH  41  42
ATOM     42  N   UNL     1       3.052  -0.581   2.830  1.00  0.00    -0.254 NA
ATOM     43  C   UNL     1       2.623  -1.616   3.449  1.00  0.00     0.185 C 
ATOM     44  N   UNL     1       3.205  -2.350   4.416  1.00  0.00    -0.370 N 
ATOM     45  N   UNL     1       1.411  -2.101   3.132  1.00  0.00    -0.370 N 
ATOM     46  H   UNL     1       2.864  -3.270   4.636  1.00  0.00     0.159 HD
ATOM     47  H   UNL     1       4.120  -2.114   4.785  1.00  0.00     0.159 HD
ATOM     48  H   UNL     1       0.901  -1.601   2.417  1.00  0.00     0.159 HD
ATOM     49  H   UNL     1       0.913  -2.746   3.719  1.00  0.00     0.159 HD
ENDBRANCH  41  42
ENDBRANCH  40  41
ENDBRANCH  39  40
ENDBRANCH  38  39
ENDBRANCH  36  38
ENDBRANCH   5  34
BRANCH   8  50
ATOM     50  O   UNL     1       4.134  -4.402  -0.523  1.00  0.00    -0.245 OA
BRANCH  50  51
ATOM     51  S   UNL     1       3.656  -3.716   0.872  1.00  0.00     0.397 S 
ATOM     52  O   UNL     1       4.827  -3.189   1.535  1.00  0.00    -0.169 OA
ATOM     53  O   UNL     1       2.729  -4.596   1.553  1.00  0.00    -0.169 OA
BRANCH  51  54
ATOM     54  O   UNL     1       2.833  -2.437   0.352  1.00  0.00    -0.264 OA
ATOM     55  H   UNL     1       1.881  -2.663   0.379  1.00  0.00     0.236 HD
ENDBRANCH  51  54
ENDBRANCH  50  51
ENDBRANCH   8  50
TORSDOF 19
ENDMDL
MODEL 11
REMARK VINA RESULT:    -7.590      4.436      6.860
REMARK INTER + INTRA:         -18.591
REMARK INTER:                 -15.557
REMARK INTRA:                  -3.035
REMARK UNBOUND:                -3.236
REMARK SMILES CC[C@@H](C)[C@@H](NC(=O)[C@@H](O)Cc1ccc(O)c(Cl)c1)C(=O)N1[C@H](C(=O)NCCCCN=C(N)N)C[C@H]2CC[C@H](OS(=O)(=O)O)C[C@@H]21
REMARK SMILES IDX 22 1 36 2 46 3 35 4 23 5 45 6 37 7 39 8 38 9 20 10 21 11
REMARK SMILES IDX 5 12 6 13 7 14 8 15 9 17 11 18 12 19 17 20 19 21 15 22 14 23
REMARK SMILES IDX 13 24 18 25 16 26 10 28 3 30 4 31 2 32 1 33 24 34 25 35
REMARK SMILES IDX 26 36 27 38 28 39 29 40 30 41 31 42 32 43 33 44 34 45 40 50
REMARK SMILES IDX 41 51 42 52 43 53 44 54
REMARK H PARENT 6 16 16 27 10 29 26 37 33 46 33 47 34 48 34 49 44 55
ROOT
ATOM      1  N   UNL     1       8.729  -1.608   1.789  1.00  0.00    -0.326 N 
ATOM      2  C   UNL     1       7.236  -1.122   0.035  1.00  0.00     0.014 C 
ATOM      3  C   UNL     1       8.688  -1.511   0.327  1.00  0.00     0.091 C 
ATOM      4  C   UNL     1       6.884  -0.231   1.216  1.00  0.00     0.041 C 
ATOM      5  C   UNL     1       7.477  -1.061   2.369  1.00  0.00     0.175 C 
ATOM      6  C   UNL     1       9.028  -2.756  -0.491  1.00  0.00     0.059 C 
ATOM      7  C   UNL     1       7.093  -0.579  -1.374  1.00  0.00     0.008 C 
ATOM      8  C   UNL     1       8.283  -2.835  -1.841  1.00  0.00     0.143 C 
ATOM      9  C   UNL     1       7.896  -1.439  -2.372  1.00  0.00     0.034 C 
ENDROOT
BRANCH   1  10
ATOM     10  C   UNL     1       9.787  -1.910   2.629  1.00  0.00     0.246 C 
ATOM     11  O   UNL     1      10.126  -3.090   2.769  1.00  0.00    -0.272 OA
BRANCH  10  12
ATOM     12  C   UNL     1      10.552  -0.758   3.343  1.00  0.00     0.174 C 
BRANCH  12  13
ATOM     13  N   UNL     1       9.609   0.086   4.078  1.00  0.00    -0.342 N 
ATOM     14  C   UNL     1       9.813   0.577   5.348  1.00  0.00     0.249 C 
ATOM     15  O   UNL     1      10.831   0.381   6.000  1.00  0.00    -0.272 OA
ATOM     16  H   UNL     1       8.661   0.202   3.730  1.00  0.00     0.164 HD
BRANCH  14  17
ATOM     17  C   UNL     1       8.625   1.422   5.857  1.00  0.00     0.207 C 
BRANCH  17  18
ATOM     18  C   UNL     1       8.523   2.732   5.069  1.00  0.00     0.077 C 
BRANCH  18  19
ATOM     19  C   UNL     1       9.805   3.531   5.138  1.00  0.00    -0.043 A 
ATOM     20  C   UNL     1      11.305   4.999   6.354  1.00  0.00     0.083 A 
ATOM     21  C   UNL     1      10.146   4.223   6.311  1.00  0.00     0.028 A 
ATOM     22  C   UNL     1      12.127   5.090   5.231  1.00  0.00     0.134 A 
ATOM     23  C   UNL     1      11.802   4.409   4.063  1.00  0.00     0.048 A 
ATOM     24  C   UNL     1      10.641   3.633   4.016  1.00  0.00     0.008 A 
ATOM     25  Cl  UNL     1      11.707   5.842   7.804  1.00  0.00    -0.080 Cl
BRANCH  22  26
ATOM     26  O   UNL     1      13.268   5.847   5.223  1.00  0.00    -0.506 OA
ATOM     27  H   UNL     1      13.965   5.297   4.819  1.00  0.00     0.293 HD
ENDBRANCH  22  26
ENDBRANCH  18  19
ENDBRANCH  17  18
BRANCH  17  28
ATOM     28  O   UNL     1       8.763   1.717   7.256  1.00  0.00    -0.383 OA
ATOM     29  H   UNL     1       9.223   2.585   7.307  1.00  0.00     0.211 HD
ENDBRANCH  17  28
ENDBRANCH  14  17
ENDBRANCH  12  13
BRANCH  12  30
ATOM     30  C   UNL     1      11.447   0.059   2.374  1.00  0.00     0.018 C 
ATOM     31  C   UNL     1      10.633   1.160   1.675  1.00  0.00     0.010 C 
BRANCH  30  32
ATOM     32  C   UNL     1      12.179  -0.810   1.322  1.00  0.00     0.002 C 
ATOM     33  C   UNL     1      13.478  -0.225   0.784  1.00  0.00     0.004 C 
ENDBRANCH  30  32
ENDBRANCH  12  30
ENDBRANCH  10  12
ENDBRANCH   1  10
BRANCH   5  34
ATOM     34  C   UNL     1       6.523  -2.207   2.800  1.00  0.00     0.242 C 
ATOM     35  O   UNL     1       6.755  -3.388   2.541  1.00  0.00    -0.273 OA
ATOM     36  N   UNL     1       5.375  -1.803   3.443  1.00  0.00    -0.354 N 
ATOM     37  H   UNL     1       5.182  -0.803   3.522  1.00  0.00     0.163 HD
BRANCH  36  38
ATOM     38  C   UNL     1       4.486  -2.739   4.099  1.00  0.00     0.116 C 
BRANCH  38  39
ATOM     39  C   UNL     1       3.201  -2.889   3.288  1.00  0.00     0.023 C 
BRANCH  39  40
ATOM     40  C   UNL     1       3.330  -3.930   2.180  1.00  0.00     0.026 C 
BRANCH  40  41
ATOM     41  C   UNL     1       3.407  -3.257   0.810  1.00  0.00     0.146 C 
BRANCH  41  42
ATOM     42  N   UNL     1       3.333  -1.810   0.967  1.00  0.00    -0.254 NA
ATOM     43  C   UNL     1       3.488  -1.053  -0.054  1.00  0.00     0.185 C 
ATOM     44  N   UNL     1       3.722  -1.372  -1.340  1.00  0.00    -0.370 N 
ATOM     45  N   UNL     1       3.420   0.278   0.113  1.00  0.00    -0.370 N 
ATOM     46  H   UNL     1       4.063  -0.681  -1.985  1.00  0.00     0.159 HD
ATOM     47  H   UNL     1       3.789  -2.338  -1.645  1.00  0.00     0.159 HD
ATOM     48  H   UNL     1       3.238   0.603   1.053  1.00  0.00     0.159 HD
ATOM     49  H   UNL     1       3.294   0.916  -0.652  1.00  0.00     0.159 HD
ENDBRANCH  41  42
ENDBRANCH  40  41
ENDBRANCH  39  40
ENDBRANCH  38  39
ENDBRANCH  36  38
ENDBRANCH   5  34
BRANCH   8  50
ATOM     50  O   UNL     1       7.093  -3.611  -1.700  1.00  0.00    -0.245 OA
BRANCH  50  51
ATOM     51  S   UNL     1       6.293  -4.103  -3.028  1.00  0.00     0.397 S 
ATOM     52  O   UNL     1       7.163  -3.918  -4.167  1.00  0.00    -0.169 OA
ATOM     53  O   UNL     1       4.945  -3.573  -3.007  1.00  0.00    -0.169 OA
BRANCH  51  54
ATOM     54  O   UNL     1       6.205  -5.692  -2.797  1.00  0.00    -0.264 OA
ATOM     55  H   UNL     1       5.988  -5.845  -1.855  1.00  0.00     0.236 HD
ENDBRANCH  51  54
ENDBRANCH  50  51
ENDBRANCH   8  50
TORSDOF 19
ENDMDL
MODEL 12
REMARK VINA RESULT:    -7.583      4.327      8.809
REMARK INTER + INTRA:         -18.576
REMARK INTER:                 -16.241
REMARK INTRA:                  -2.335
REMARK UNBOUND:                -3.236
REMARK SMILES CC[C@@H](C)[C@@H](NC(=O)[C@@H](O)Cc1ccc(O)c(Cl)c1)C(=O)N1[C@H](C(=O)NCCCCN=C(N)N)C[C@H]2CC[C@H](OS(=O)(=O)O)C[C@@H]21
REMARK SMILES IDX 22 1 36 2 46 3 35 4 23 5 45 6 37 7 39 8 38 9 20 10 21 11
REMARK SMILES IDX 5 12 6 13 7 14 8 15 9 17 11 18 12 19 17 20 19 21 15 22 14 23
REMARK SMILES IDX 13 24 18 25 16 26 10 28 3 30 4 31 2 32 1 33 24 34 25 35
REMARK SMILES IDX 26 36 27 38 28 39 29 40 30 41 31 42 32 43 33 44 34 45 40 50
REMARK SMILES IDX 41 51 42 52 43 53 44 54
REMARK H PARENT 6 16 16 27 10 29 26 37 33 46 33 47 34 48 34 49 44 55
ROOT
ATOM      1  N   UNL     1       5.963  -2.147  -0.384  1.00  0.00    -0.326 N 
ATOM      2  C   UNL     1       6.714  -0.708   1.321  1.00  0.00     0.014 C 
ATOM      3  C   UNL     1       5.447  -1.244   0.648  1.00  0.00     0.091 C 
ATOM      4  C   UNL     1       7.697  -0.624   0.164  1.00  0.00     0.041 C 
ATOM      5  C   UNL     1       7.431  -1.979  -0.519  1.00  0.00     0.175 C 
ATOM      6  C   UNL     1       4.535  -1.824   1.728  1.00  0.00     0.059 C 
ATOM      7  C   UNL     1       6.412   0.537   2.132  1.00  0.00     0.008 C 
ATOM      8  C   UNL     1       4.648  -1.104   3.089  1.00  0.00     0.143 C 
ATOM      9  C   UNL     1       5.106   0.360   2.934  1.00  0.00     0.034 C 
ENDROOT
BRANCH   1  10
ATOM     10  C   UNL     1       5.282  -2.905  -1.322  1.00  0.00     0.246 C 
ATOM     11  O   UNL     1       4.249  -2.452  -1.826  1.00  0.00    -0.272 OA
BRANCH  10  12
ATOM     12  C   UNL     1       5.854  -4.287  -1.752  1.00  0.00     0.174 C 
BRANCH  12  13
ATOM     13  N   UNL     1       5.247  -4.706  -3.015  1.00  0.00    -0.342 N 
ATOM     14  C   UNL     1       5.853  -4.621  -4.249  1.00  0.00     0.249 C 
ATOM     15  O   UNL     1       6.992  -4.205  -4.423  1.00  0.00    -0.272 OA
ATOM     16  H   UNL     1       4.255  -4.924  -3.050  1.00  0.00     0.164 HD
BRANCH  14  17
ATOM     17  C   UNL     1       4.948  -5.127  -5.393  1.00  0.00     0.207 C 
BRANCH  17  18
ATOM     18  C   UNL     1       5.702  -5.096  -6.726  1.00  0.00     0.077 C 
BRANCH  18  19
ATOM     19  C   UNL     1       4.867  -5.653  -7.857  1.00  0.00    -0.043 A 
ATOM     20  C   UNL     1       3.967  -5.456 -10.100  1.00  0.00     0.083 A 
ATOM     21  C   UNL     1       4.777  -4.965  -9.077  1.00  0.00     0.028 A 
ATOM     22  C   UNL     1       3.242  -6.634  -9.913  1.00  0.00     0.134 A 
ATOM     23  C   UNL     1       3.322  -7.326  -8.711  1.00  0.00     0.048 A 
ATOM     24  C   UNL     1       4.131  -6.836  -7.683  1.00  0.00     0.008 A 
ATOM     25  Cl  UNL     1       3.869  -4.596 -11.592  1.00  0.00    -0.080 Cl
BRANCH  22  26
ATOM     26  O   UNL     1       2.426  -7.148 -10.884  1.00  0.00    -0.506 OA
ATOM     27  H   UNL     1       1.736  -6.481 -11.053  1.00  0.00     0.293 HD
ENDBRANCH  22  26
ENDBRANCH  18  19
ENDBRANCH  17  18
BRANCH  17  28
ATOM     28  O   UNL     1       3.757  -4.332  -5.500  1.00  0.00    -0.383 OA
ATOM     29  H   UNL     1       3.160  -4.637  -4.780  1.00  0.00     0.211 HD
ENDBRANCH  17  28
ENDBRANCH  14  17
ENDBRANCH  12  13
BRANCH  12  30
ATOM     30  C   UNL     1       5.716  -5.365  -0.643  1.00  0.00     0.018 C 
ATOM     31  C   UNL     1       6.514  -6.627  -1.006  1.00  0.00     0.010 C 
BRANCH  30  32
ATOM     32  C   UNL     1       4.249  -5.738  -0.317  1.00  0.00     0.002 C 
ATOM     33  C   UNL     1       3.678  -5.096   0.941  1.00  0.00     0.004 C 
ENDBRANCH  30  32
ENDBRANCH  12  30
ENDBRANCH  10  12
ENDBRANCH   1  10
BRANCH   5  34
ATOM     34  C   UNL     1       8.185  -3.135   0.191  1.00  0.00     0.242 C 
ATOM     35  O   UNL     1       7.847  -3.561   1.295  1.00  0.00    -0.273 OA
ATOM     36  N   UNL     1       9.290  -3.612  -0.478  1.00  0.00    -0.354 N 
ATOM     37  H   UNL     1       9.590  -3.138  -1.331  1.00  0.00     0.163 HD
BRANCH  36  38
ATOM     38  C   UNL     1       9.978  -4.820  -0.072  1.00  0.00     0.116 C 
BRANCH  38  39
ATOM     39  C   UNL     1      11.487  -4.587  -0.090  1.00  0.00     0.023 C 
BRANCH  39  40
ATOM     40  C   UNL     1      11.947  -3.664   1.034  1.00  0.00     0.026 C 
BRANCH  40  41
ATOM     41  C   UNL     1      12.526  -2.368   0.467  1.00  0.00     0.146 C 
BRANCH  41  42
ATOM     42  N   UNL     1      11.501  -1.333   0.460  1.00  0.00    -0.254 NA
ATOM     43  C   UNL     1      11.725  -0.215   1.043  1.00  0.00     0.185 C 
ATOM     44  N   UNL     1      12.814   0.209   1.709  1.00  0.00    -0.370 N 
ATOM     45  N   UNL     1      10.766   0.724   1.029  1.00  0.00    -0.370 N 
ATOM     46  H   UNL     1      12.763   1.006   2.321  1.00  0.00     0.159 HD
ATOM     47  H   UNL     1      13.641  -0.372   1.805  1.00  0.00     0.159 HD
ATOM     48  H   UNL     1       9.914   0.488   0.539  1.00  0.00     0.159 HD
ATOM     49  H   UNL     1      10.945   1.688   1.248  1.00  0.00     0.159 HD
ENDBRANCH  41  42
ENDBRANCH  40  41
ENDBRANCH  39  40
ENDBRANCH  38  39
ENDBRANCH  36  38
ENDBRANCH   5  34
BRANCH   8  50
ATOM     50  O   UNL     1       5.583  -1.785   3.927  1.00  0.00    -0.245 OA
BRANCH  50  51
ATOM     51  S   UNL     1       5.133  -3.148   4.691  1.00  0.00     0.397 S 
ATOM     52  O   UNL     1       5.546  -4.272   3.882  1.00  0.00    -0.169 OA
ATOM     53  O   UNL     1       3.770  -3.013   5.164  1.00  0.00    -0.169 OA
BRANCH  51  54
ATOM     54  O   UNL     1       6.104  -3.151   5.973  1.00  0.00    -0.264 OA
ATOM     55  H   UNL     1       6.028  -4.027   6.403  1.00  0.00     0.236 HD
ENDBRANCH  51  54
ENDBRANCH  50  51
ENDBRANCH   8  50
TORSDOF 19
ENDMDL
MODEL 13
REMARK VINA RESULT:    -7.546      3.449      8.453
REMARK INTER + INTRA:         -18.501
REMARK INTER:                 -14.451
REMARK INTRA:                  -4.050
REMARK UNBOUND:                -3.236
REMARK SMILES CC[C@@H](C)[C@@H](NC(=O)[C@@H](O)Cc1ccc(O)c(Cl)c1)C(=O)N1[C@H](C(=O)NCCCCN=C(N)N)C[C@H]2CC[C@H](OS(=O)(=O)O)C[C@@H]21
REMARK SMILES IDX 22 1 36 2 46 3 35 4 23 5 45 6 37 7 39 8 38 9 20 10 21 11
REMARK SMILES IDX 5 12 6 13 7 14 8 15 9 17 11 18 12 19 17 20 19 21 15 22 14 23
REMARK SMILES IDX 13 24 18 25 16 26 10 28 3 30 4 31 2 32 1 33 24 34 25 35
REMARK SMILES IDX 26 36 27 38 28 39 29 40 30 41 31 42 32 43 33 44 34 45 40 50
REMARK SMILES IDX 41 51 42 52 43 53 44 54
REMARK H PARENT 6 16 16 27 10 29 26 37 33 46 33 47 34 48 34 49 44 55
ROOT
ATOM      1  N   UNL     1       8.858  -2.160   1.615  1.00  0.00    -0.326 N 
ATOM      2  C   UNL     1       7.614  -0.163   1.685  1.00  0.00     0.014 C 
ATOM      3  C   UNL     1       7.774  -1.524   2.368  1.00  0.00     0.091 C 
ATOM      4  C   UNL     1       7.916  -0.481   0.229  1.00  0.00     0.041 C 
ATOM      5  C   UNL     1       9.162  -1.369   0.397  1.00  0.00     0.175 C 
ATOM      6  C   UNL     1       7.970  -1.293   3.866  1.00  0.00     0.059 C 
ATOM      7  C   UNL     1       6.287   0.473   2.048  1.00  0.00     0.008 C 
ATOM      8  C   UNL     1       7.234  -0.047   4.404  1.00  0.00     0.143 C 
ATOM      9  C   UNL     1       5.997   0.307   3.555  1.00  0.00     0.034 C 
ENDROOT
BRANCH   1  10
ATOM     10  C   UNL     1       9.428  -3.413   1.765  1.00  0.00     0.246 C 
ATOM     11  O   UNL     1      10.659  -3.514   1.797  1.00  0.00    -0.272 OA
BRANCH  10  12
ATOM     12  C   UNL     1       8.509  -4.658   1.934  1.00  0.00     0.174 C 
BRANCH  12  13
ATOM     13  N   UNL     1       7.416  -4.605   0.964  1.00  0.00    -0.342 N 
ATOM     14  C   UNL     1       7.084  -5.618   0.092  1.00  0.00     0.249 C 
ATOM     15  O   UNL     1       7.658  -6.699   0.052  1.00  0.00    -0.272 OA
ATOM     16  H   UNL     1       6.953  -3.720   0.774  1.00  0.00     0.164 HD
BRANCH  14  17
ATOM     17  C   UNL     1       5.892  -5.253  -0.819  1.00  0.00     0.207 C 
BRANCH  17  18
ATOM     18  C   UNL     1       4.568  -5.463  -0.078  1.00  0.00     0.077 C 
BRANCH  18  19
ATOM     19  C   UNL     1       4.012  -4.162   0.458  1.00  0.00    -0.043 A 
ATOM     20  C   UNL     1       3.749  -1.757   0.284  1.00  0.00     0.083 A 
ATOM     21  C   UNL     1       4.221  -2.962  -0.239  1.00  0.00     0.028 A 
ATOM     22  C   UNL     1       3.070  -1.743   1.503  1.00  0.00     0.134 A 
ATOM     23  C   UNL     1       2.857  -2.924   2.203  1.00  0.00     0.048 A 
ATOM     24  C   UNL     1       3.329  -4.132   1.683  1.00  0.00     0.008 A 
ATOM     25  Cl  UNL     1       4.015  -0.293  -0.587  1.00  0.00    -0.080 Cl
BRANCH  22  26
ATOM     26  O   UNL     1       2.599  -0.585   2.060  1.00  0.00    -0.506 OA
ATOM     27  H   UNL     1       1.644  -0.715   2.210  1.00  0.00     0.293 HD
ENDBRANCH  22  26
ENDBRANCH  18  19
ENDBRANCH  17  18
BRANCH  17  28
ATOM     28  O   UNL     1       5.897  -6.043  -2.019  1.00  0.00    -0.383 OA
ATOM     29  H   UNL     1       6.159  -5.433  -2.745  1.00  0.00     0.211 HD
ENDBRANCH  17  28
ENDBRANCH  14  17
ENDBRANCH  12  13
BRANCH  12  30
ATOM     30  C   UNL     1       8.001  -4.835   3.390  1.00  0.00     0.018 C 
ATOM     31  C   UNL     1       8.620  -6.085   4.036  1.00  0.00     0.010 C 
BRANCH  30  32
ATOM     32  C   UNL     1       6.458  -4.885   3.508  1.00  0.00     0.002 C 
ATOM     33  C   UNL     1       5.849  -3.903   4.501  1.00  0.00     0.004 C 
ENDBRANCH  30  32
ENDBRANCH  12  30
ENDBRANCH  10  12
ENDBRANCH   1  10
BRANCH   5  34
ATOM     34  C   UNL     1      10.446  -0.520   0.598  1.00  0.00     0.242 C 
ATOM     35  O   UNL     1      10.721   0.438  -0.123  1.00  0.00    -0.273 OA
ATOM     36  N   UNL     1      11.280  -0.950   1.606  1.00  0.00    -0.354 N 
ATOM     37  H   UNL     1      11.058  -1.821   2.090  1.00  0.00     0.163 HD
BRANCH  36  38
ATOM     38  C   UNL     1      12.402  -0.160   2.071  1.00  0.00     0.116 C 
BRANCH  38  39
ATOM     39  C   UNL     1      11.915   0.902   3.054  1.00  0.00     0.023 C 
BRANCH  39  40
ATOM     40  C   UNL     1      13.065   1.676   3.691  1.00  0.00     0.026 C 
BRANCH  40  41
ATOM     41  C   UNL     1      13.031   3.144   3.267  1.00  0.00     0.146 C 
BRANCH  41  42
ATOM     42  N   UNL     1      11.749   3.732   3.632  1.00  0.00    -0.254 NA
ATOM     43  C   UNL     1      11.671   4.496   4.656  1.00  0.00     0.185 C 
ATOM     44  N   UNL     1      12.626   4.884   5.521  1.00  0.00    -0.370 N 
ATOM     45  N   UNL     1      10.479   5.025   4.978  1.00  0.00    -0.370 N 
ATOM     46  H   UNL     1      12.381   5.282   6.411  1.00  0.00     0.159 HD
ATOM     47  H   UNL     1      13.591   4.586   5.417  1.00  0.00     0.159 HD
ATOM     48  H   UNL     1       9.705   4.789   4.371  1.00  0.00     0.159 HD
ATOM     49  H   UNL     1      10.381   5.803   5.605  1.00  0.00     0.159 HD
ENDBRANCH  41  42
ENDBRANCH  40  41
ENDBRANCH  39  40
ENDBRANCH  38  39
ENDBRANCH  36  38
ENDBRANCH   5  34
BRANCH   8  50
ATOM     50  O   UNL     1       8.114   1.077   4.413  1.00  0.00    -0.245 OA
BRANCH  50  51
ATOM     51  S   UNL     1       8.568   1.729   5.832  1.00  0.00     0.397 S 
ATOM     52  O   UNL     1      10.010   1.833   5.835  1.00  0.00    -0.169 OA
ATOM     53  O   UNL     1       7.851   1.088   6.914  1.00  0.00    -0.169 OA
BRANCH  51  54
ATOM     54  O   UNL     1       8.021   3.235   5.699  1.00  0.00    -0.264 OA
ATOM     55  H   UNL     1       8.646   3.731   5.131  1.00  0.00     0.236 HD
ENDBRANCH  51  54
ENDBRANCH  50  51
ENDBRANCH   8  50
TORSDOF 19
ENDMDL
MODEL 14
REMARK VINA RESULT:    -7.515      3.858      7.418
REMARK INTER + INTRA:         -18.439
REMARK INTER:                 -15.724
REMARK INTRA:                  -2.714
REMARK UNBOUND:                -3.236
REMARK SMILES CC[C@@H](C)[C@@H](NC(=O)[C@@H](O)Cc1ccc(O)c(Cl)c1)C(=O)N1[C@H](C(=O)NCCCCN=C(N)N)C[C@H]2CC[C@H](OS(=O)(=O)O)C[C@@H]21
REMARK SMILES IDX 22 1 36 2 46 3 35 4 23 5 45 6 37 7 39 8 38 9 20 10 21 11
REMARK SMILES IDX 5 12 6 13 7 14 8 15 9 17 11 18 12 19 17 20 19 21 15 22 14 23
REMARK SMILES IDX 13 24 18 25 16 26 10 28 3 30 4 31 2 32 1 33 24 34 25 35
REMARK SMILES IDX 26 36 27 38 28 39 29 40 30 41 31 42 32 43 33 44 34 45 40 50
REMARK SMILES IDX 41 51 42 52 43 53 44 54
REMARK H PARENT 6 16 16 27 10 29 26 37 33 46 33 47 34 48 34 49 44 55
ROOT
ATOM      1  N   UNL     1       9.033  -3.185   1.031  1.00  0.00    -0.326 N 
ATOM      2  C   UNL     1       7.623  -1.663  -0.081  1.00  0.00     0.014 C 
ATOM      3  C   UNL     1       8.881  -2.516  -0.264  1.00  0.00     0.091 C 
ATOM      4  C   UNL     1       7.710  -1.247   1.379  1.00  0.00     0.041 C 
ATOM      5  C   UNL     1       8.102  -2.590   2.022  1.00  0.00     0.175 C 
ATOM      6  C   UNL     1       8.701  -3.382  -1.510  1.00  0.00     0.059 C 
ATOM      7  C   UNL     1       7.531  -0.596  -1.154  1.00  0.00     0.008 C 
ATOM      8  C   UNL     1       7.842  -2.719  -2.608  1.00  0.00     0.143 C 
ATOM      9  C   UNL     1       7.895  -1.180  -2.535  1.00  0.00     0.034 C 
ENDROOT
BRANCH   1  10
ATOM     10  C   UNL     1      10.006  -4.068   1.466  1.00  0.00     0.246 C 
ATOM     11  O   UNL     1       9.679  -5.218   1.776  1.00  0.00    -0.272 OA
BRANCH  10  12
ATOM     12  C   UNL     1      11.493  -3.608   1.513  1.00  0.00     0.174 C 
BRANCH  12  13
ATOM     13  N   UNL     1      11.581  -2.176   1.231  1.00  0.00    -0.342 N 
ATOM     14  C   UNL     1      11.520  -1.179   2.178  1.00  0.00     0.249 C 
ATOM     15  O   UNL     1      11.412  -1.386   3.380  1.00  0.00    -0.272 OA
ATOM     16  H   UNL     1      11.515  -1.847   0.271  1.00  0.00     0.164 HD
BRANCH  14  17
ATOM     17  C   UNL     1      11.625   0.233   1.564  1.00  0.00     0.207 C 
BRANCH  17  18
ATOM     18  C   UNL     1      10.875   1.251   2.429  1.00  0.00     0.077 C 
BRANCH  18  19
ATOM     19  C   UNL     1      11.800   2.313   2.978  1.00  0.00    -0.043 A 
ATOM     20  C   UNL     1      12.140   4.364   4.227  1.00  0.00     0.083 A 
ATOM     21  C   UNL     1      11.291   3.358   3.765  1.00  0.00     0.028 A 
ATOM     22  C   UNL     1      13.498   4.334   3.907  1.00  0.00     0.134 A 
ATOM     23  C   UNL     1      14.015   3.305   3.129  1.00  0.00     0.048 A 
ATOM     24  C   UNL     1      13.168   2.298   2.663  1.00  0.00     0.008 A 
ATOM     25  Cl  UNL     1      11.497   5.640   5.193  1.00  0.00    -0.080 Cl
BRANCH  22  26
ATOM     26  O   UNL     1      14.367   5.304   4.329  1.00  0.00    -0.506 OA
ATOM     27  H   UNL     1      13.893   5.835   4.996  1.00  0.00     0.293 HD
ENDBRANCH  22  26
ENDBRANCH  18  19
ENDBRANCH  17  18
BRANCH  17  28
ATOM     28  O   UNL     1      11.093   0.258   0.230  1.00  0.00    -0.383 OA
ATOM     29  H   UNL     1      10.253  -0.254   0.263  1.00  0.00     0.211 HD
ENDBRANCH  17  28
ENDBRANCH  14  17
ENDBRANCH  12  13
BRANCH  12  30
ATOM     30  C   UNL     1      12.411  -4.452   0.588  1.00  0.00     0.018 C 
ATOM     31  C   UNL     1      13.871  -4.388   1.063  1.00  0.00     0.010 C 
BRANCH  30  32
ATOM     32  C   UNL     1      12.320  -4.058  -0.906  1.00  0.00     0.002 C 
ATOM     33  C   UNL     1      13.607  -3.520  -1.517  1.00  0.00     0.004 C 
ENDBRANCH  30  32
ENDBRANCH  12  30
ENDBRANCH  10  12
ENDBRANCH   1  10
BRANCH   5  34
ATOM     34  C   UNL     1       6.867  -3.504   2.235  1.00  0.00     0.242 C 
ATOM     35  O   UNL     1       6.730  -4.574   1.642  1.00  0.00    -0.273 OA
ATOM     36  N   UNL     1       5.912  -3.008   3.094  1.00  0.00    -0.354 N 
ATOM     37  H   UNL     1       6.026  -2.063   3.462  1.00  0.00     0.163 HD
BRANCH  36  38
ATOM     38  C   UNL     1       4.808  -3.814   3.573  1.00  0.00     0.116 C 
BRANCH  38  39
ATOM     39  C   UNL     1       3.603  -2.923   3.863  1.00  0.00     0.023 C 
BRANCH  39  40
ATOM     40  C   UNL     1       2.681  -2.778   2.657  1.00  0.00     0.026 C 
BRANCH  40  41
ATOM     41  C   UNL     1       3.088  -1.575   1.806  1.00  0.00     0.146 C 
BRANCH  41  42
ATOM     42  N   UNL     1       3.158  -0.383   2.640  1.00  0.00    -0.254 NA
ATOM     43  C   UNL     1       3.905   0.595   2.287  1.00  0.00     0.185 C 
ATOM     44  N   UNL     1       4.695   0.733   1.206  1.00  0.00    -0.370 N 
ATOM     45  N   UNL     1       3.959   1.683   3.072  1.00  0.00    -0.370 N 
ATOM     46  H   UNL     1       5.408   1.442   1.180  1.00  0.00     0.159 HD
ATOM     47  H   UNL     1       4.763   0.008   0.499  1.00  0.00     0.159 HD
ATOM     48  H   UNL     1       3.386   1.664   3.904  1.00  0.00     0.159 HD
ATOM     49  H   UNL     1       4.322   2.565   2.756  1.00  0.00     0.159 HD
ENDBRANCH  41  42
ENDBRANCH  40  41
ENDBRANCH  39  40
ENDBRANCH  38  39
ENDBRANCH  36  38
ENDBRANCH   5  34
BRANCH   8  50
ATOM     50  O   UNL     1       6.480  -3.132  -2.482  1.00  0.00    -0.245 OA
BRANCH  50  51
ATOM     51  S   UNL     1       5.900  -4.294  -3.461  1.00  0.00     0.397 S 
ATOM     52  O   UNL     1       5.431  -5.382  -2.633  1.00  0.00    -0.169 OA
ATOM     53  O   UNL     1       6.824  -4.515  -4.554  1.00  0.00    -0.169 OA
BRANCH  51  54
ATOM     54  O   UNL     1       4.579  -3.599  -4.061  1.00  0.00    -0.264 OA
ATOM     55  H   UNL     1       4.793  -3.279  -4.961  1.00  0.00     0.236 HD
ENDBRANCH  51  54
ENDBRANCH  50  51
ENDBRANCH   8  50
TORSDOF 19
ENDMDL
MODEL 15
REMARK VINA RESULT:    -7.506      4.856      7.931
REMARK INTER + INTRA:         -18.421
REMARK INTER:                 -13.923
REMARK INTRA:                  -4.498
REMARK UNBOUND:                -3.236
REMARK SMILES CC[C@@H](C)[C@@H](NC(=O)[C@@H](O)Cc1ccc(O)c(Cl)c1)C(=O)N1[C@H](C(=O)NCCCCN=C(N)N)C[C@H]2CC[C@H](OS(=O)(=O)O)C[C@@H]21
REMARK SMILES IDX 22 1 36 2 46 3 35 4 23 5 45 6 37 7 39 8 38 9 20 10 21 11
REMARK SMILES IDX 5 12 6 13 7 14 8 15 9 17 11 18 12 19 17 20 19 21 15 22 14 23
REMARK SMILES IDX 13 24 18 25 16 26 10 28 3 30 4 31 2 32 1 33 24 34 25 35
REMARK SMILES IDX 26 36 27 38 28 39 29 40 30 41 31 42 32 43 33 44 34 45 40 50
REMARK SMILES IDX 41 51 42 52 43 53 44 54
REMARK H PARENT 6 16 16 27 10 29 26 37 33 46 33 47 34 48 34 49 44 55
ROOT
ATOM      1  N   UNL     1       9.245  -1.480   0.745  1.00  0.00    -0.326 N 
ATOM      2  C   UNL     1       7.931  -3.432   0.795  1.00  0.00     0.014 C 
ATOM      3  C   UNL     1       9.198  -2.801   1.379  1.00  0.00     0.091 C 
ATOM      4  C   UNL     1       7.903  -2.879  -0.622  1.00  0.00     0.041 C 
ATOM      5  C   UNL     1       8.241  -1.403  -0.344  1.00  0.00     0.175 C 
ATOM      6  C   UNL     1       9.114  -2.871   2.903  1.00  0.00     0.059 C 
ATOM      7  C   UNL     1       7.926  -4.933   1.007  1.00  0.00     0.008 C 
ATOM      8  C   UNL     1       8.346  -4.103   3.427  1.00  0.00     0.143 C 
ATOM      9  C   UNL     1       8.397  -5.283   2.435  1.00  0.00     0.034 C 
ENDROOT
BRANCH   1  10
ATOM     10  C   UNL     1      10.179  -0.466   0.875  1.00  0.00     0.246 C 
ATOM     11  O   UNL     1      10.540   0.151  -0.133  1.00  0.00    -0.272 OA
BRANCH  10  12
ATOM     12  C   UNL     1      10.722  -0.099   2.286  1.00  0.00     0.174 C 
BRANCH  12  13
ATOM     13  N   UNL     1       9.784   0.797   2.963  1.00  0.00    -0.342 N 
ATOM     14  C   UNL     1       9.370   0.668   4.269  1.00  0.00     0.249 C 
ATOM     15  O   UNL     1       9.769  -0.208   5.027  1.00  0.00    -0.272 OA
ATOM     16  H   UNL     1       9.253   1.473   2.420  1.00  0.00     0.164 HD
BRANCH  14  17
ATOM     17  C   UNL     1       8.363   1.760   4.686  1.00  0.00     0.207 C 
BRANCH  17  18
ATOM     18  C   UNL     1       8.870   2.514   5.919  1.00  0.00     0.077 C 
BRANCH  18  19
ATOM     19  C   UNL     1      10.118   3.314   5.615  1.00  0.00    -0.043 A 
ATOM     20  C   UNL     1      12.417   3.895   6.121  1.00  0.00     0.083 A 
ATOM     21  C   UNL     1      11.284   3.121   6.372  1.00  0.00     0.028 A 
ATOM     22  C   UNL     1      12.393   4.864   5.118  1.00  0.00     0.134 A 
ATOM     23  C   UNL     1      11.245   5.065   4.360  1.00  0.00     0.048 A 
ATOM     24  C   UNL     1      10.108   4.293   4.610  1.00  0.00     0.008 A 
ATOM     25  Cl  UNL     1      13.841   3.645   7.062  1.00  0.00    -0.080 Cl
BRANCH  22  26
ATOM     26  O   UNL     1      13.477   5.654   4.842  1.00  0.00    -0.506 OA
ATOM     27  H   UNL     1      13.768   6.035   5.691  1.00  0.00     0.293 HD
ENDBRANCH  22  26
ENDBRANCH  18  19
ENDBRANCH  17  18
BRANCH  17  28
ATOM     28  O   UNL     1       7.074   1.193   4.971  1.00  0.00    -0.383 OA
ATOM     29  H   UNL     1       6.657   1.787   5.636  1.00  0.00     0.211 HD
ENDBRANCH  17  28
ENDBRANCH  14  17
ENDBRANCH  12  13
BRANCH  12  30
ATOM     30  C   UNL     1      12.164   0.475   2.244  1.00  0.00     0.018 C 
ATOM     31  C   UNL     1      13.155  -0.490   2.912  1.00  0.00     0.010 C 
BRANCH  30  32
ATOM     32  C   UNL     1      12.290   1.885   2.871  1.00  0.00     0.002 C 
ATOM     33  C   UNL     1      13.693   2.479   2.860  1.00  0.00     0.004 C 
ENDBRANCH  30  32
ENDBRANCH  12  30
ENDBRANCH  10  12
ENDBRANCH   1  10
BRANCH   5  34
ATOM     34  C   UNL     1       6.990  -0.607   0.116  1.00  0.00     0.242 C 
ATOM     35  O   UNL     1       6.965   0.027   1.171  1.00  0.00    -0.273 OA
ATOM     36  N   UNL     1       5.896  -0.705  -0.714  1.00  0.00    -0.354 N 
ATOM     37  H   UNL     1       5.939  -1.341  -1.511  1.00  0.00     0.163 HD
BRANCH  36  38
ATOM     38  C   UNL     1       4.727   0.136  -0.555  1.00  0.00     0.116 C 
BRANCH  38  39
ATOM     39  C   UNL     1       3.519  -0.720  -0.183  1.00  0.00     0.023 C 
BRANCH  39  40
ATOM     40  C   UNL     1       3.819  -1.686   0.959  1.00  0.00     0.026 C 
BRANCH  40  41
ATOM     41  C   UNL     1       3.407  -1.082   2.301  1.00  0.00     0.146 C 
BRANCH  41  42
ATOM     42  N   UNL     1       2.988   0.300   2.112  1.00  0.00    -0.254 NA
ATOM     43  C   UNL     1       3.728   1.251   2.544  1.00  0.00     0.185 C 
ATOM     44  N   UNL     1       4.909   1.205   3.188  1.00  0.00    -0.370 N 
ATOM     45  N   UNL     1       3.322   2.519   2.364  1.00  0.00    -0.370 N 
ATOM     46  H   UNL     1       5.256   2.009   3.682  1.00  0.00     0.159 HD
ATOM     47  H   UNL     1       5.369   0.323   3.395  1.00  0.00     0.159 HD
ATOM     48  H   UNL     1       2.444   2.643   1.878  1.00  0.00     0.159 HD
ATOM     49  H   UNL     1       3.939   3.306   2.455  1.00  0.00     0.159 HD
ENDBRANCH  41  42
ENDBRANCH  40  41
ENDBRANCH  39  40
ENDBRANCH  38  39
ENDBRANCH  36  38
ENDBRANCH   5  34
BRANCH   8  50
ATOM     50  O   UNL     1       6.978  -3.766   3.660  1.00  0.00    -0.245 OA
BRANCH  50  51
ATOM     51  S   UNL     1       6.601  -2.711   4.839  1.00  0.00     0.397 S 
ATOM     52  O   UNL     1       6.349  -1.427   4.226  1.00  0.00    -0.169 OA
ATOM     53  O   UNL     1       7.533  -2.858   5.939  1.00  0.00    -0.169 OA
BRANCH  51  54
ATOM     54  O   UNL     1       5.168  -3.252   5.328  1.00  0.00    -0.264 OA
ATOM     55  H   UNL     1       5.101  -3.090   6.291  1.00  0.00     0.236 HD
ENDBRANCH  51  54
ENDBRANCH  50  51
ENDBRANCH   8  50
TORSDOF 19
ENDMDL
MODEL 16
REMARK VINA RESULT:    -7.466      3.163      6.546
REMARK INTER + INTRA:         -18.340
REMARK INTER:                 -14.219
REMARK INTRA:                  -4.121
REMARK UNBOUND:                -3.236
REMARK SMILES CC[C@@H](C)[C@@H](NC(=O)[C@@H](O)Cc1ccc(O)c(Cl)c1)C(=O)N1[C@H](C(=O)NCCCCN=C(N)N)C[C@H]2CC[C@H](OS(=O)(=O)O)C[C@@H]21
REMARK SMILES IDX 22 1 36 2 46 3 35 4 23 5 45 6 37 7 39 8 38 9 20 10 21 11
REMARK SMILES IDX 5 12 6 13 7 14 8 15 9 17 11 18 12 19 17 20 19 21 15 22 14 23
REMARK SMILES IDX 13 24 18 25 16 26 10 28 3 30 4 31 2 32 1 33 24 34 25 35
REMARK SMILES IDX 26 36 27 38 28 39 29 40 30 41 31 42 32 43 33 44 34 45 40 50
REMARK SMILES IDX 41 51 42 52 43 53 44 54
REMARK H PARENT 6 16 16 27 10 29 26 37 33 46 33 47 34 48 34 49 44 55
ROOT
ATOM      1  N   UNL     1       8.470  -2.325   1.916  1.00  0.00    -0.326 N 
ATOM      2  C   UNL     1       7.365  -0.261   1.671  1.00  0.00     0.014 C 
ATOM      3  C   UNL     1       7.562  -1.431   2.640  1.00  0.00     0.091 C 
ATOM      4  C   UNL     1       7.403  -0.942   0.312  1.00  0.00     0.041 C 
ATOM      5  C   UNL     1       8.610  -1.877   0.509  1.00  0.00     0.175 C 
ATOM      6  C   UNL     1       8.017  -0.871   3.987  1.00  0.00     0.059 C 
ATOM      7  C   UNL     1       6.153   0.564   2.057  1.00  0.00     0.008 C 
ATOM      8  C   UNL     1       7.449   0.529   4.302  1.00  0.00     0.143 C 
ATOM      9  C   UNL     1       6.108   0.786   3.583  1.00  0.00     0.034 C 
ENDROOT
BRANCH   1  10
ATOM     10  C   UNL     1       8.988  -3.554   2.288  1.00  0.00     0.246 C 
ATOM     11  O   UNL     1      10.187  -3.641   2.572  1.00  0.00    -0.272 OA
BRANCH  10  12
ATOM     12  C   UNL     1       8.043  -4.788   2.380  1.00  0.00     0.174 C 
BRANCH  12  13
ATOM     13  N   UNL     1       7.018  -4.710   1.341  1.00  0.00    -0.342 N 
ATOM     14  C   UNL     1       6.948  -5.530   0.237  1.00  0.00     0.249 C 
ATOM     15  O   UNL     1       7.732  -6.445   0.016  1.00  0.00    -0.272 OA
ATOM     16  H   UNL     1       6.396  -3.907   1.306  1.00  0.00     0.164 HD
BRANCH  14  17
ATOM     17  C   UNL     1       5.760  -5.186  -0.686  1.00  0.00     0.207 C 
BRANCH  17  18
ATOM     18  C   UNL     1       4.436  -5.317   0.074  1.00  0.00     0.077 C 
BRANCH  18  19
ATOM     19  C   UNL     1       3.935  -3.978   0.564  1.00  0.00    -0.043 A 
ATOM     20  C   UNL     1       3.716  -1.579   0.273  1.00  0.00     0.083 A 
ATOM     21  C   UNL     1       4.135  -2.821  -0.205  1.00  0.00     0.028 A 
ATOM     22  C   UNL     1       3.096  -1.484   1.520  1.00  0.00     0.134 A 
ATOM     23  C   UNL     1       2.891  -2.622   2.292  1.00  0.00     0.048 A 
ATOM     24  C   UNL     1       3.312  -3.866   1.817  1.00  0.00     0.008 A 
ATOM     25  Cl  UNL     1       3.971  -0.170  -0.687  1.00  0.00    -0.080 Cl
BRANCH  22  26
ATOM     26  O   UNL     1       2.677  -0.288   2.035  1.00  0.00    -0.506 OA
ATOM     27  H   UNL     1       2.684  -0.383   3.006  1.00  0.00     0.293 HD
ENDBRANCH  22  26
ENDBRANCH  18  19
ENDBRANCH  17  18
BRANCH  17  28
ATOM     28  O   UNL     1       5.735  -6.044  -1.839  1.00  0.00    -0.383 OA
ATOM     29  H   UNL     1       6.263  -5.585  -2.531  1.00  0.00     0.211 HD
ENDBRANCH  17  28
ENDBRANCH  14  17
ENDBRANCH  12  13
BRANCH  12  30
ATOM     30  C   UNL     1       7.437  -4.974   3.797  1.00  0.00     0.018 C 
ATOM     31  C   UNL     1       6.022  -4.380   3.869  1.00  0.00     0.010 C 
BRANCH  30  32
ATOM     32  C   UNL     1       8.316  -4.391   4.931  1.00  0.00     0.002 C 
ATOM     33  C   UNL     1       7.566  -3.599   5.994  1.00  0.00     0.004 C 
ENDBRANCH  30  32
ENDBRANCH  12  30
ENDBRANCH  10  12
ENDBRANCH   1  10
BRANCH   5  34
ATOM     34  C   UNL     1       9.953  -1.128   0.301  1.00  0.00     0.242 C 
ATOM     35  O   UNL     1      10.010  -0.004  -0.196  1.00  0.00    -0.273 OA
ATOM     36  N   UNL     1      11.079  -1.834   0.661  1.00  0.00    -0.354 N 
ATOM     37  H   UNL     1      10.977  -2.806   0.955  1.00  0.00     0.163 HD
BRANCH  36  38
ATOM     38  C   UNL     1      12.387  -1.217   0.738  1.00  0.00     0.116 C 
BRANCH  38  39
ATOM     39  C   UNL     1      13.436  -2.150   0.137  1.00  0.00     0.023 C 
BRANCH  39  40
ATOM     40  C   UNL     1      12.813  -3.299  -0.648  1.00  0.00     0.026 C 
BRANCH  40  41
ATOM     41  C   UNL     1      13.244  -4.647  -0.069  1.00  0.00     0.146 C 
BRANCH  41  42
ATOM     42  N   UNL     1      12.351  -5.696  -0.545  1.00  0.00    -0.254 NA
ATOM     43  C   UNL     1      11.577  -6.292   0.282  1.00  0.00     0.185 C 
ATOM     44  N   UNL     1      11.425  -6.114   1.607  1.00  0.00    -0.370 N 
ATOM     45  N   UNL     1      10.765  -7.258  -0.176  1.00  0.00    -0.370 N 
ATOM     46  H   UNL     1      10.965  -6.810   2.169  1.00  0.00     0.159 HD
ATOM     47  H   UNL     1      11.953  -5.411   2.115  1.00  0.00     0.159 HD
ATOM     48  H   UNL     1      10.811  -7.450  -1.167  1.00  0.00     0.159 HD
ATOM     49  H   UNL     1       9.977  -7.600   0.346  1.00  0.00     0.159 HD
ENDBRANCH  41  42
ENDBRANCH  40  41
ENDBRANCH  39  40
ENDBRANCH  38  39
ENDBRANCH  36  38
ENDBRANCH   5  34
BRANCH   8  50
ATOM     50  O   UNL     1       8.378   1.537   3.901  1.00  0.00    -0.245 OA
BRANCH  50  51
ATOM     51  S   UNL     1       9.197   2.370   5.033  1.00  0.00     0.397 S 
ATOM     52  O   UNL     1       9.847   3.485   4.382  1.00  0.00    -0.169 OA
ATOM     53  O   UNL     1       9.930   1.450   5.878  1.00  0.00    -0.169 OA
BRANCH  51  54
ATOM     54  O   UNL     1       8.007   3.006   5.907  1.00  0.00    -0.264 OA
ATOM     55  H   UNL     1       7.369   2.291   6.108  1.00  0.00     0.236 HD
ENDBRANCH  51  54
ENDBRANCH  50  51
ENDBRANCH   8  50
TORSDOF 19
ENDMDL
MODEL 17
REMARK VINA RESULT:    -7.461      3.477      6.348
REMARK INTER + INTRA:         -18.331
REMARK INTER:                 -14.202
REMARK INTRA:                  -4.128
REMARK UNBOUND:                -3.236
REMARK SMILES CC[C@@H](C)[C@@H](NC(=O)[C@@H](O)Cc1ccc(O)c(Cl)c1)C(=O)N1[C@H](C(=O)NCCCCN=C(N)N)C[C@H]2CC[C@H](OS(=O)(=O)O)C[C@@H]21
REMARK SMILES IDX 22 1 36 2 46 3 35 4 23 5 45 6 37 7 39 8 38 9 20 10 21 11
REMARK SMILES IDX 5 12 6 13 7 14 8 15 9 17 11 18 12 19 17 20 19 21 15 22 14 23
REMARK SMILES IDX 13 24 18 25 16 26 10 28 3 30 4 31 2 32 1 33 24 34 25 35
REMARK SMILES IDX 26 36 27 38 28 39 29 40 30 41 31 42 32 43 33 44 34 45 40 50
REMARK SMILES IDX 41 51 42 52 43 53 44 54
REMARK H PARENT 6 16 16 27 10 29 26 37 33 46 33 47 34 48 34 49 44 55
ROOT
ATOM      1  N   UNL     1       9.386  -5.458   0.658  1.00  0.00    -0.326 N 
ATOM      2  C   UNL     1      10.581  -4.403   2.391  1.00  0.00     0.014 C 
ATOM      3  C   UNL     1       9.264  -5.120   2.079  1.00  0.00     0.091 C 
ATOM      4  C   UNL     1      10.874  -3.662   1.096  1.00  0.00     0.041 C 
ATOM      5  C   UNL     1      10.563  -4.770   0.072  1.00  0.00     0.175 C 
ATOM      6  C   UNL     1       9.085  -6.259   3.082  1.00  0.00     0.059 C 
ATOM      7  C   UNL     1      10.480  -3.623   3.687  1.00  0.00     0.008 C 
ATOM      8  C   UNL     1       9.695  -5.967   4.470  1.00  0.00     0.143 C 
ATOM      9  C   UNL     1       9.758  -4.455   4.768  1.00  0.00     0.034 C 
ENDROOT
BRANCH   1  10
ATOM     10  C   UNL     1       8.492  -6.098  -0.182  1.00  0.00     0.246 C 
ATOM     11  O   UNL     1       8.634  -7.305  -0.404  1.00  0.00    -0.272 OA
BRANCH  10  12
ATOM     12  C   UNL     1       7.305  -5.297  -0.793  1.00  0.00     0.174 C 
BRANCH  12  13
ATOM     13  N   UNL     1       7.601  -3.865  -0.760  1.00  0.00    -0.342 N 
ATOM     14  C   UNL     1       7.589  -3.031  -1.855  1.00  0.00     0.249 C 
ATOM     15  O   UNL     1       7.299  -3.396  -2.988  1.00  0.00    -0.272 OA
ATOM     16  H   UNL     1       8.008  -3.454   0.076  1.00  0.00     0.164 HD
BRANCH  14  17
ATOM     17  C   UNL     1       7.961  -1.576  -1.499  1.00  0.00     0.207 C 
BRANCH  17  18
ATOM     18  C   UNL     1       6.698  -0.743  -1.260  1.00  0.00     0.077 C 
BRANCH  18  19
ATOM     19  C   UNL     1       6.579  -0.302   0.182  1.00  0.00    -0.043 A 
ATOM     20  C   UNL     1       7.528  -0.108   2.406  1.00  0.00     0.083 A 
ATOM     21  C   UNL     1       7.658  -0.471   1.065  1.00  0.00     0.028 A 
ATOM     22  C   UNL     1       6.325   0.421   2.873  1.00  0.00     0.134 A 
ATOM     23  C   UNL     1       5.249   0.594   2.010  1.00  0.00     0.048 A 
ATOM     24  C   UNL     1       5.375   0.230   0.667  1.00  0.00     0.008 A 
ATOM     25  Cl  UNL     1       8.864  -0.323   3.475  1.00  0.00    -0.080 Cl
BRANCH  22  26
ATOM     26  O   UNL     1       6.147   0.781   4.182  1.00  0.00    -0.506 OA
ATOM     27  H   UNL     1       6.740   0.216   4.710  1.00  0.00     0.293 HD
ENDBRANCH  22  26
ENDBRANCH  18  19
ENDBRANCH  17  18
BRANCH  17  28
ATOM     28  O   UNL     1       8.741  -0.971  -2.543  1.00  0.00    -0.383 OA
ATOM     29  H   UNL     1       8.695  -1.588  -3.309  1.00  0.00     0.211 HD
ENDBRANCH  17  28
ENDBRANCH  14  17
ENDBRANCH  12  13
BRANCH  12  30
ATOM     30  C   UNL     1       5.945  -5.637  -0.126  1.00  0.00     0.018 C 
ATOM     31  C   UNL     1       4.932  -6.130  -1.171  1.00  0.00     0.010 C 
BRANCH  30  32
ATOM     32  C   UNL     1       5.343  -4.466   0.688  1.00  0.00     0.002 C 
ATOM     33  C   UNL     1       4.170  -3.751   0.030  1.00  0.00     0.004 C 
ENDBRANCH  30  32
ENDBRANCH  12  30
ENDBRANCH  10  12
ENDBRANCH   1  10
BRANCH   5  34
ATOM     34  C   UNL     1      11.753  -5.754  -0.085  1.00  0.00     0.242 C 
ATOM     35  O   UNL     1      12.912  -5.366  -0.232  1.00  0.00    -0.273 OA
ATOM     36  N   UNL     1      11.412  -7.087  -0.103  1.00  0.00    -0.354 N 
ATOM     37  H   UNL     1      10.424  -7.342  -0.098  1.00  0.00     0.163 HD
BRANCH  36  38
ATOM     38  C   UNL     1      12.404  -8.140  -0.025  1.00  0.00     0.116 C 
BRANCH  38  39
ATOM     39  C   UNL     1      11.747  -9.492  -0.296  1.00  0.00     0.023 C 
BRANCH  39  40
ATOM     40  C   UNL     1      12.428 -10.631   0.454  1.00  0.00     0.026 C 
BRANCH  40  41
ATOM     41  C   UNL     1      11.423 -11.383   1.328  1.00  0.00     0.146 C 
BRANCH  41  42
ATOM     42  N   UNL     1      10.744 -10.447   2.214  1.00  0.00    -0.254 NA
ATOM     43  C   UNL     1       9.748 -10.845   2.912  1.00  0.00     0.185 C 
ATOM     44  N   UNL     1       9.171 -12.059   2.983  1.00  0.00    -0.370 N 
ATOM     45  N   UNL     1       9.133  -9.966   3.719  1.00  0.00    -0.370 N 
ATOM     46  H   UNL     1       8.254 -12.168   3.381  1.00  0.00     0.159 HD
ATOM     47  H   UNL     1       9.520 -12.847   2.446  1.00  0.00     0.159 HD
ATOM     48  H   UNL     1       9.511  -9.028   3.732  1.00  0.00     0.159 HD
ATOM     49  H   UNL     1       8.514 -10.247   4.459  1.00  0.00     0.159 HD
ENDBRANCH  41  42
ENDBRANCH  40  41
ENDBRANCH  39  40
ENDBRANCH  38  39
ENDBRANCH  36  38
ENDBRANCH   5  34
BRANCH   8  50
ATOM     50  O   UNL     1      11.017  -6.500   4.546  1.00  0.00    -0.245 OA
BRANCH  50  51
ATOM     51  S   UNL     1      11.351  -7.668   5.628  1.00  0.00     0.397 S 
ATOM     52  O   UNL     1      10.099  -8.154   6.160  1.00  0.00    -0.169 OA
ATOM     53  O   UNL     1      12.428  -7.234   6.494  1.00  0.00    -0.169 OA
BRANCH  51  54
ATOM     54  O   UNL     1      11.914  -8.845   4.688  1.00  0.00    -0.264 OA
ATOM     55  H   UNL     1      12.704  -8.502   4.222  1.00  0.00     0.236 HD
ENDBRANCH  51  54
ENDBRANCH  50  51
ENDBRANCH   8  50
TORSDOF 19
ENDMDL
MODEL 18
REMARK VINA RESULT:    -7.451      3.644      7.320
REMARK INTER + INTRA:         -18.310
REMARK INTER:                 -14.603
REMARK INTRA:                  -3.708
REMARK UNBOUND:                -3.236
REMARK SMILES CC[C@@H](C)[C@@H](NC(=O)[C@@H](O)Cc1ccc(O)c(Cl)c1)C(=O)N1[C@H](C(=O)NCCCCN=C(N)N)C[C@H]2CC[C@H](OS(=O)(=O)O)C[C@@H]21
REMARK SMILES IDX 22 1 36 2 46 3 35 4 23 5 45 6 37 7 39 8 38 9 20 10 21 11
REMARK SMILES IDX 5 12 6 13 7 14 8 15 9 17 11 18 12 19 17 20 19 21 15 22 14 23
REMARK SMILES IDX 13 24 18 25 16 26 10 28 3 30 4 31 2 32 1 33 24 34 25 35
REMARK SMILES IDX 26 36 27 38 28 39 29 40 30 41 31 42 32 43 33 44 34 45 40 50
REMARK SMILES IDX 41 51 42 52 43 53 44 54
REMARK H PARENT 6 16 16 27 10 29 26 37 33 46 33 47 34 48 34 49 44 55
ROOT
ATOM      1  N   UNL     1       7.890  -2.958   2.183  1.00  0.00    -0.326 N 
ATOM      2  C   UNL     1       9.196  -4.341   0.796  1.00  0.00     0.014 C 
ATOM      3  C   UNL     1       7.977  -4.347   1.723  1.00  0.00     0.091 C 
ATOM      4  C   UNL     1      10.119  -3.333   1.462  1.00  0.00     0.041 C 
ATOM      5  C   UNL     1       9.112  -2.214   1.787  1.00  0.00     0.175 C 
ATOM      6  C   UNL     1       6.791  -4.932   0.959  1.00  0.00     0.059 C 
ATOM      7  C   UNL     1       9.692  -5.751   0.544  1.00  0.00     0.008 C 
ATOM      8  C   UNL     1       7.189  -6.000  -0.083  1.00  0.00     0.143 C 
ATOM      9  C   UNL     1       8.509  -6.707   0.288  1.00  0.00     0.034 C 
ENDROOT
BRANCH   1  10
ATOM     10  C   UNL     1       6.995  -2.367   3.058  1.00  0.00     0.246 C 
ATOM     11  O   UNL     1       5.881  -2.030   2.642  1.00  0.00    -0.272 OA
BRANCH  10  12
ATOM     12  C   UNL     1       7.391  -2.179   4.551  1.00  0.00     0.174 C 
BRANCH  12  13
ATOM     13  N   UNL     1       8.343  -1.076   4.680  1.00  0.00    -0.342 N 
ATOM     14  C   UNL     1       8.004   0.257   4.740  1.00  0.00     0.249 C 
ATOM     15  O   UNL     1       6.851   0.669   4.719  1.00  0.00    -0.272 OA
ATOM     16  H   UNL     1       9.336  -1.251   4.552  1.00  0.00     0.164 HD
BRANCH  14  17
ATOM     17  C   UNL     1       9.236   1.179   4.857  1.00  0.00     0.207 C 
BRANCH  17  18
ATOM     18  C   UNL     1       9.801   1.497   3.469  1.00  0.00     0.077 C 
BRANCH  18  19
ATOM     19  C   UNL     1      10.869   2.567   3.528  1.00  0.00    -0.043 A 
ATOM     20  C   UNL     1      13.174   3.256   3.216  1.00  0.00     0.083 A 
ATOM     21  C   UNL     1      12.180   2.282   3.114  1.00  0.00     0.028 A 
ATOM     22  C   UNL     1      12.867   4.516   3.733  1.00  0.00     0.134 A 
ATOM     23  C   UNL     1      11.573   4.811   4.147  1.00  0.00     0.048 A 
ATOM     24  C   UNL     1      10.576   3.837   4.047  1.00  0.00     0.008 A 
ATOM     25  Cl  UNL     1      14.778   2.888   2.703  1.00  0.00    -0.080 Cl
BRANCH  22  26
ATOM     26  O   UNL     1      13.810   5.499   3.862  1.00  0.00    -0.506 OA
ATOM     27  H   UNL     1      13.909   5.668   4.818  1.00  0.00     0.293 HD
ENDBRANCH  22  26
ENDBRANCH  18  19
ENDBRANCH  17  18
BRANCH  17  28
ATOM     28  O   UNL     1      10.261   0.574   5.662  1.00  0.00    -0.383 OA
ATOM     29  H   UNL     1      10.232   1.036   6.530  1.00  0.00     0.211 HD
ENDBRANCH  17  28
ENDBRANCH  14  17
ENDBRANCH  12  13
BRANCH  12  30
ATOM     30  C   UNL     1       7.910  -3.489   5.203  1.00  0.00     0.018 C 
ATOM     31  C   UNL     1       7.428  -3.604   6.658  1.00  0.00     0.010 C 
BRANCH  30  32
ATOM     32  C   UNL     1       9.449  -3.648   5.138  1.00  0.00     0.002 C 
ATOM     33  C   UNL     1       9.945  -5.040   4.771  1.00  0.00     0.004 C 
ENDBRANCH  30  32
ENDBRANCH  12  30
ENDBRANCH  10  12
ENDBRANCH   1  10
BRANCH   5  34
ATOM     34  C   UNL     1       8.834  -1.318   0.551  1.00  0.00     0.242 C 
ATOM     35  O   UNL     1       9.726  -0.694  -0.023  1.00  0.00    -0.273 OA
ATOM     36  N   UNL     1       7.511  -1.228   0.178  1.00  0.00    -0.354 N 
ATOM     37  H   UNL     1       6.804  -1.672   0.765  1.00  0.00     0.163 HD
BRANCH  36  38
ATOM     38  C   UNL     1       7.099  -0.617  -1.068  1.00  0.00     0.116 C 
BRANCH  38  39
ATOM     39  C   UNL     1       5.703  -0.019  -0.916  1.00  0.00     0.023 C 
BRANCH  39  40
ATOM     40  C   UNL     1       4.689  -1.031  -0.395  1.00  0.00     0.026 C 
BRANCH  40  41
ATOM     41  C   UNL     1       3.502  -0.323   0.259  1.00  0.00     0.146 C 
BRANCH  41  42
ATOM     42  N   UNL     1       3.980   0.787   1.074  1.00  0.00    -0.254 NA
ATOM     43  C   UNL     1       3.944   0.695   2.351  1.00  0.00     0.185 C 
ATOM     44  N   UNL     1       3.517  -0.311   3.135  1.00  0.00    -0.370 N 
ATOM     45  N   UNL     1       4.385   1.731   3.084  1.00  0.00    -0.370 N 
ATOM     46  H   UNL     1       3.320  -0.154   4.109  1.00  0.00     0.159 HD
ATOM     47  H   UNL     1       3.164  -1.178   2.744  1.00  0.00     0.159 HD
ATOM     48  H   UNL     1       4.733   2.529   2.570  1.00  0.00     0.159 HD
ATOM     49  H   UNL     1       4.610   1.650   4.060  1.00  0.00     0.159 HD
ENDBRANCH  41  42
ENDBRANCH  40  41
ENDBRANCH  39  40
ENDBRANCH  38  39
ENDBRANCH  36  38
ENDBRANCH   5  34
BRANCH   8  50
ATOM     50  O   UNL     1       7.344  -5.397  -1.368  1.00  0.00    -0.245 OA
BRANCH  50  51
ATOM     51  S   UNL     1       6.067  -5.311  -2.373  1.00  0.00     0.397 S 
ATOM     52  O   UNL     1       4.901  -5.770  -1.653  1.00  0.00    -0.169 OA
ATOM     53  O   UNL     1       6.427  -5.858  -3.664  1.00  0.00    -0.169 OA
BRANCH  51  54
ATOM     54  O   UNL     1       5.880  -3.722  -2.542  1.00  0.00    -0.264 OA
ATOM     55  H   UNL     1       6.459  -3.430  -3.275  1.00  0.00     0.236 HD
ENDBRANCH  51  54
ENDBRANCH  50  51
ENDBRANCH   8  50
TORSDOF 19
ENDMDL
MODEL 19
REMARK VINA RESULT:    -7.425      3.762      6.377
REMARK INTER + INTRA:         -18.256
REMARK INTER:                 -14.190
REMARK INTRA:                  -4.066
REMARK UNBOUND:                -3.236
REMARK SMILES CC[C@@H](C)[C@@H](NC(=O)[C@@H](O)Cc1ccc(O)c(Cl)c1)C(=O)N1[C@H](C(=O)NCCCCN=C(N)N)C[C@H]2CC[C@H](OS(=O)(=O)O)C[C@@H]21
REMARK SMILES IDX 22 1 36 2 46 3 35 4 23 5 45 6 37 7 39 8 38 9 20 10 21 11
REMARK SMILES IDX 5 12 6 13 7 14 8 15 9 17 11 18 12 19 17 20 19 21 15 22 14 23
REMARK SMILES IDX 13 24 18 25 16 26 10 28 3 30 4 31 2 32 1 33 24 34 25 35
REMARK SMILES IDX 26 36 27 38 28 39 29 40 30 41 31 42 32 43 33 44 34 45 40 50
REMARK SMILES IDX 41 51 42 52 43 53 44 54
REMARK H PARENT 6 16 16 27 10 29 26 37 33 46 33 47 34 48 34 49 44 55
ROOT
ATOM      1  N   UNL     1       7.334  -1.495   1.407  1.00  0.00    -0.326 N 
ATOM      2  C   UNL     1       7.359  -1.192  -0.928  1.00  0.00     0.014 C 
ATOM      3  C   UNL     1       7.977  -2.024   0.200  1.00  0.00     0.091 C 
ATOM      4  C   UNL     1       7.172   0.169  -0.276  1.00  0.00     0.041 C 
ATOM      5  C   UNL     1       6.584  -0.258   1.081  1.00  0.00     0.175 C 
ATOM      6  C   UNL     1       7.788  -3.503  -0.132  1.00  0.00     0.059 C 
ATOM      7  C   UNL     1       8.183  -1.302  -2.196  1.00  0.00     0.008 C 
ATOM      8  C   UNL     1       7.803  -3.807  -1.646  1.00  0.00     0.143 C 
ATOM      9  C   UNL     1       8.616  -2.764  -2.438  1.00  0.00     0.034 C 
ENDROOT
BRANCH   1  10
ATOM     10  C   UNL     1       7.511  -1.848   2.734  1.00  0.00     0.246 C 
ATOM     11  O   UNL     1       6.612  -2.463   3.317  1.00  0.00    -0.272 OA
BRANCH  10  12
ATOM     12  C   UNL     1       8.850  -1.502   3.447  1.00  0.00     0.174 C 
BRANCH  12  13
ATOM     13  N   UNL     1       8.715  -0.242   4.177  1.00  0.00    -0.342 N 
ATOM     14  C   UNL     1       9.131  -0.031   5.473  1.00  0.00     0.249 C 
ATOM     15  O   UNL     1       9.692  -0.879   6.156  1.00  0.00    -0.272 OA
ATOM     16  H   UNL     1       8.132   0.500   3.798  1.00  0.00     0.164 HD
BRANCH  14  17
ATOM     17  C   UNL     1       8.832   1.400   5.968  1.00  0.00     0.207 C 
BRANCH  17  18
ATOM     18  C   UNL     1       8.713   2.363   4.783  1.00  0.00     0.077 C 
BRANCH  18  19
ATOM     19  C   UNL     1       9.985   3.153   4.570  1.00  0.00    -0.043 A 
ATOM     20  C   UNL     1      12.225   3.325   3.654  1.00  0.00     0.083 A 
ATOM     21  C   UNL     1      11.033   2.615   3.807  1.00  0.00     0.028 A 
ATOM     22  C   UNL     1      12.377   4.572   4.262  1.00  0.00     0.134 A 
ATOM     23  C   UNL     1      11.348   5.116   5.020  1.00  0.00     0.048 A 
ATOM     24  C   UNL     1      10.154   4.407   5.176  1.00  0.00     0.008 A 
ATOM     25  Cl  UNL     1      13.501   2.648   2.713  1.00  0.00    -0.080 Cl
BRANCH  22  26
ATOM     26  O   UNL     1      13.531   5.301   4.149  1.00  0.00    -0.506 OA
ATOM     27  H   UNL     1      14.127   4.992   4.856  1.00  0.00     0.293 HD
ENDBRANCH  22  26
ENDBRANCH  18  19
ENDBRANCH  17  18
BRANCH  17  28
ATOM     28  O   UNL     1       9.860   1.864   6.858  1.00  0.00    -0.383 OA
ATOM     29  H   UNL     1       9.528   1.695   7.769  1.00  0.00     0.211 HD
ENDBRANCH  17  28
ENDBRANCH  14  17
ENDBRANCH  12  13
BRANCH  12  30
ATOM     30  C   UNL     1      10.063  -1.498   2.478  1.00  0.00     0.018 C 
ATOM     31  C   UNL     1      11.243  -2.280   3.076  1.00  0.00     0.010 C 
BRANCH  30  32
ATOM     32  C   UNL     1      10.521  -0.079   2.062  1.00  0.00     0.002 C 
ATOM     33  C   UNL     1      10.956   0.065   0.609  1.00  0.00     0.004 C 
ENDBRANCH  30  32
ENDBRANCH  12  30
ENDBRANCH  10  12
ENDBRANCH   1  10
BRANCH   5  34
ATOM     34  C   UNL     1       5.062  -0.548   0.979  1.00  0.00     0.242 C 
ATOM     35  O   UNL     1       4.478  -0.625  -0.102  1.00  0.00    -0.273 OA
ATOM     36  N   UNL     1       4.405  -0.657   2.184  1.00  0.00    -0.354 N 
ATOM     37  H   UNL     1       4.920  -0.464   3.044  1.00  0.00     0.163 HD
BRANCH  36  38
ATOM     38  C   UNL     1       3.041  -1.135   2.280  1.00  0.00     0.116 C 
BRANCH  38  39
ATOM     39  C   UNL     1       2.912  -2.101   3.456  1.00  0.00     0.023 C 
BRANCH  39  40
ATOM     40  C   UNL     1       3.355  -3.516   3.099  1.00  0.00     0.026 C 
BRANCH  40  41
ATOM     41  C   UNL     1       2.601  -4.027   1.871  1.00  0.00     0.146 C 
BRANCH  41  42
ATOM     42  N   UNL     1       3.383  -5.061   1.207  1.00  0.00    -0.254 NA
ATOM     43  C   UNL     1       4.021  -4.781   0.133  1.00  0.00     0.185 C 
ATOM     44  N   UNL     1       4.108  -3.621  -0.544  1.00  0.00    -0.370 N 
ATOM     45  N   UNL     1       4.733  -5.749  -0.466  1.00  0.00    -0.370 N 
ATOM     46  H   UNL     1       4.439  -3.606  -1.494  1.00  0.00     0.159 HD
ATOM     47  H   UNL     1       3.640  -2.780  -0.222  1.00  0.00     0.159 HD
ATOM     48  H   UNL     1       4.728  -6.654  -0.014  1.00  0.00     0.159 HD
ATOM     49  H   UNL     1       5.436  -5.559  -1.158  1.00  0.00     0.159 HD
ENDBRANCH  41  42
ENDBRANCH  40  41
ENDBRANCH  39  40
ENDBRANCH  38  39
ENDBRANCH  36  38
ENDBRANCH   5  34
BRANCH   8  50
ATOM     50  O   UNL     1       6.469  -3.824  -2.155  1.00  0.00    -0.245 OA
BRANCH  50  51
ATOM     51  S   UNL     1       6.108  -4.769  -3.430  1.00  0.00     0.397 S 
ATOM     52  O   UNL     1       6.866  -4.295  -4.566  1.00  0.00    -0.169 OA
ATOM     53  O   UNL     1       4.675  -4.963  -3.500  1.00  0.00    -0.169 OA
BRANCH  51  54
ATOM     54  O   UNL     1       6.778  -6.169  -3.010  1.00  0.00    -0.264 OA
ATOM     55  H   UNL     1       6.417  -6.862  -3.600  1.00  0.00     0.236 HD
ENDBRANCH  51  54
ENDBRANCH  50  51
ENDBRANCH   8  50
TORSDOF 19
ENDMDL
MODEL 20
REMARK VINA RESULT:    -7.424      4.496      7.171
REMARK INTER + INTRA:         -18.256
REMARK INTER:                 -13.669
REMARK INTRA:                  -4.587
REMARK UNBOUND:                -3.236
REMARK SMILES CC[C@@H](C)[C@@H](NC(=O)[C@@H](O)Cc1ccc(O)c(Cl)c1)C(=O)N1[C@H](C(=O)NCCCCN=C(N)N)C[C@H]2CC[C@H](OS(=O)(=O)O)C[C@@H]21
REMARK SMILES IDX 22 1 36 2 46 3 35 4 23 5 45 6 37 7 39 8 38 9 20 10 21 11
REMARK SMILES IDX 5 12 6 13 7 14 8 15 9 17 11 18 12 19 17 20 19 21 15 22 14 23
REMARK SMILES IDX 13 24 18 25 16 26 10 28 3 30 4 31 2 32 1 33 24 34 25 35
REMARK SMILES IDX 26 36 27 38 28 39 29 40 30 41 31 42 32 43 33 44 34 45 40 50
REMARK SMILES IDX 41 51 42 52 43 53 44 54
REMARK H PARENT 6 16 16 27 10 29 26 37 33 46 33 47 34 48 34 49 44 55
ROOT
ATOM      1  N   UNL     1       9.379  -1.495   0.817  1.00  0.00    -0.326 N 
ATOM      2  C   UNL     1       8.076  -3.455   0.816  1.00  0.00     0.014 C 
ATOM      3  C   UNL     1       9.352  -2.840   1.397  1.00  0.00     0.091 C 
ATOM      4  C   UNL     1       8.014  -2.846  -0.576  1.00  0.00     0.041 C 
ATOM      5  C   UNL     1       8.350  -1.379  -0.246  1.00  0.00     0.175 C 
ATOM      6  C   UNL     1       9.303  -2.973   2.918  1.00  0.00     0.059 C 
ATOM      7  C   UNL     1       8.084  -4.964   0.967  1.00  0.00     0.008 C 
ATOM      8  C   UNL     1       8.553  -4.230   3.409  1.00  0.00     0.143 C 
ATOM      9  C   UNL     1       8.588  -5.368   2.368  1.00  0.00     0.034 C 
ENDROOT
BRANCH   1  10
ATOM     10  C   UNL     1      10.311  -0.482   0.967  1.00  0.00     0.246 C 
ATOM     11  O   UNL     1      10.724   0.108  -0.037  1.00  0.00    -0.272 OA
BRANCH  10  12
ATOM     12  C   UNL     1      10.784  -0.080   2.394  1.00  0.00     0.174 C 
BRANCH  12  13
ATOM     13  N   UNL     1       9.806   0.817   3.010  1.00  0.00    -0.342 N 
ATOM     14  C   UNL     1       9.281   0.665   4.273  1.00  0.00     0.249 C 
ATOM     15  O   UNL     1       9.600  -0.234   5.041  1.00  0.00    -0.272 OA
ATOM     16  H   UNL     1       9.333   1.514   2.440  1.00  0.00     0.164 HD
BRANCH  14  17
ATOM     17  C   UNL     1       8.258   1.765   4.629  1.00  0.00     0.207 C 
BRANCH  17  18
ATOM     18  C   UNL     1       8.702   2.524   5.884  1.00  0.00     0.077 C 
BRANCH  18  19
ATOM     19  C   UNL     1       9.968   3.316   5.644  1.00  0.00    -0.043 A 
ATOM     20  C   UNL     1      12.229   3.912   6.288  1.00  0.00     0.083 A 
ATOM     21  C   UNL     1      11.080   3.144   6.482  1.00  0.00     0.028 A 
ATOM     22  C   UNL     1      12.274   4.854   5.260  1.00  0.00     0.134 A 
ATOM     23  C   UNL     1      11.179   5.034   4.422  1.00  0.00     0.048 A 
ATOM     24  C   UNL     1      10.027   4.268   4.615  1.00  0.00     0.008 A 
ATOM     25  Cl  UNL     1      13.585   3.688   7.329  1.00  0.00    -0.080 Cl
BRANCH  22  26
ATOM     26  O   UNL     1      13.374   5.638   5.037  1.00  0.00    -0.506 OA
ATOM     27  H   UNL     1      13.050   6.471   4.647  1.00  0.00     0.293 HD
ENDBRANCH  22  26
ENDBRANCH  18  19
ENDBRANCH  17  18
BRANCH  17  28
ATOM     28  O   UNL     1       6.952   1.207   4.846  1.00  0.00    -0.383 OA
ATOM     29  H   UNL     1       6.393   1.946   5.179  1.00  0.00     0.211 HD
ENDBRANCH  17  28
ENDBRANCH  14  17
ENDBRANCH  12  13
BRANCH  12  30
ATOM     30  C   UNL     1      12.219   0.511   2.406  1.00  0.00     0.018 C 
ATOM     31  C   UNL     1      13.155  -0.343   3.275  1.00  0.00     0.010 C 
BRANCH  30  32
ATOM     32  C   UNL     1      12.278   1.991   2.857  1.00  0.00     0.002 C 
ATOM     33  C   UNL     1      13.668   2.615   2.863  1.00  0.00     0.004 C 
ENDBRANCH  30  32
ENDBRANCH  12  30
ENDBRANCH  10  12
ENDBRANCH   1  10
BRANCH   5  34
ATOM     34  C   UNL     1       7.106  -0.610   0.273  1.00  0.00     0.242 C 
ATOM     35  O   UNL     1       7.101  -0.020   1.353  1.00  0.00    -0.273 OA
ATOM     36  N   UNL     1       5.994  -0.682  -0.536  1.00  0.00    -0.354 N 
ATOM     37  H   UNL     1       6.023  -1.286  -1.359  1.00  0.00     0.163 HD
BRANCH  36  38
ATOM     38  C   UNL     1       4.825   0.144  -0.318  1.00  0.00     0.116 C 
BRANCH  38  39
ATOM     39  C   UNL     1       3.572  -0.727  -0.291  1.00  0.00     0.023 C 
BRANCH  39  40
ATOM     40  C   UNL     1       3.461  -1.550   0.988  1.00  0.00     0.026 C 
BRANCH  40  41
ATOM     41  C   UNL     1       3.499  -3.046   0.676  1.00  0.00     0.146 C 
BRANCH  41  42
ATOM     42  N   UNL     1       4.220  -3.271  -0.570  1.00  0.00    -0.254 NA
ATOM     43  C   UNL     1       4.640  -4.446  -0.855  1.00  0.00     0.185 C 
ATOM     44  N   UNL     1       4.529  -5.596  -0.165  1.00  0.00    -0.370 N 
ATOM     45  N   UNL     1       5.307  -4.631  -2.006  1.00  0.00    -0.370 N 
ATOM     46  H   UNL     1       5.112  -6.385  -0.385  1.00  0.00     0.159 HD
ATOM     47  H   UNL     1       4.040  -5.638   0.724  1.00  0.00     0.159 HD
ATOM     48  H   UNL     1       5.428  -3.816  -2.590  1.00  0.00     0.159 HD
ATOM     49  H   UNL     1       5.456  -5.540  -2.407  1.00  0.00     0.159 HD
ENDBRANCH  41  42
ENDBRANCH  40  41
ENDBRANCH  39  40
ENDBRANCH  38  39
ENDBRANCH  36  38
ENDBRANCH   5  34
BRANCH   8  50
ATOM     50  O   UNL     1       7.189  -3.911   3.685  1.00  0.00    -0.245 OA
BRANCH  50  51
ATOM     51  S   UNL     1       6.833  -2.899   4.908  1.00  0.00     0.397 S 
ATOM     52  O   UNL     1       6.536  -1.602   4.343  1.00  0.00    -0.169 OA
ATOM     53  O   UNL     1       7.805  -3.060   5.970  1.00  0.00    -0.169 OA
BRANCH  51  54
ATOM     54  O   UNL     1       5.428  -3.483   5.429  1.00  0.00    -0.264 OA
ATOM     55  H   UNL     1       5.357  -4.409   5.120  1.00  0.00     0.236 HD
ENDBRANCH  51  54
ENDBRANCH  50  51
ENDBRANCH   8  50
TORSDOF 19
ENDMDL
MODEL 21
REMARK VINA RESULT:    -7.409      4.578      8.167
REMARK INTER + INTRA:         -18.224
REMARK INTER:                 -14.435
REMARK INTRA:                  -3.789
REMARK UNBOUND:                -3.236
REMARK SMILES CC[C@@H](C)[C@@H](NC(=O)[C@@H](O)Cc1ccc(O)c(Cl)c1)C(=O)N1[C@H](C(=O)NCCCCN=C(N)N)C[C@H]2CC[C@H](OS(=O)(=O)O)C[C@@H]21
REMARK SMILES IDX 22 1 36 2 46 3 35 4 23 5 45 6 37 7 39 8 38 9 20 10 21 11
REMARK SMILES IDX 5 12 6 13 7 14 8 15 9 17 11 18 12 19 17 20 19 21 15 22 14 23
REMARK SMILES IDX 13 24 18 25 16 26 10 28 3 30 4 31 2 32 1 33 24 34 25 35
REMARK SMILES IDX 26 36 27 38 28 39 29 40 30 41 31 42 32 43 33 44 34 45 40 50
REMARK SMILES IDX 41 51 42 52 43 53 44 54
REMARK H PARENT 6 16 16 27 10 29 26 37 33 46 33 47 34 48 34 49 44 55
ROOT
ATOM      1  N   UNL     1       9.347   0.467   5.982  1.00  0.00    -0.326 N 
ATOM      2  C   UNL     1       9.738   2.065   4.299  1.00  0.00     0.014 C 
ATOM      3  C   UNL     1      10.443   1.050   5.202  1.00  0.00     0.091 C 
ATOM      4  C   UNL     1       8.611   2.576   5.184  1.00  0.00     0.041 C 
ATOM      5  C   UNL     1       8.102   1.246   5.771  1.00  0.00     0.175 C 
ATOM      6  C   UNL     1      11.281   0.122   4.325  1.00  0.00     0.059 C 
ATOM      7  C   UNL     1      10.729   3.052   3.715  1.00  0.00     0.008 C 
ATOM      8  C   UNL     1      11.838   0.803   3.056  1.00  0.00     0.143 C 
ATOM      9  C   UNL     1      12.005   2.324   3.241  1.00  0.00     0.034 C 
ENDROOT
BRANCH   1  10
ATOM     10  C   UNL     1       9.379  -0.496   6.977  1.00  0.00     0.246 C 
ATOM     11  O   UNL     1       9.048  -0.185   8.126  1.00  0.00    -0.272 OA
BRANCH  10  12
ATOM     12  C   UNL     1       9.790  -1.954   6.619  1.00  0.00     0.174 C 
BRANCH  12  13
ATOM     13  N   UNL     1       9.099  -2.383   5.403  1.00  0.00    -0.342 N 
ATOM     14  C   UNL     1       9.660  -3.146   4.404  1.00  0.00     0.249 C 
ATOM     15  O   UNL     1      10.805  -3.579   4.437  1.00  0.00    -0.272 OA
ATOM     16  H   UNL     1       8.200  -1.972   5.163  1.00  0.00     0.164 HD
BRANCH  14  17
ATOM     17  C   UNL     1       8.681  -3.417   3.241  1.00  0.00     0.207 C 
BRANCH  17  18
ATOM     18  C   UNL     1       7.526  -4.308   3.710  1.00  0.00     0.077 C 
BRANCH  18  19
ATOM     19  C   UNL     1       6.240  -3.990   2.982  1.00  0.00    -0.043 A 
ATOM     20  C   UNL     1       4.011  -3.033   2.971  1.00  0.00     0.083 A 
ATOM     21  C   UNL     1       5.216  -3.282   3.630  1.00  0.00     0.028 A 
ATOM     22  C   UNL     1       3.820  -3.490   1.667  1.00  0.00     0.134 A 
ATOM     23  C   UNL     1       4.826  -4.193   1.014  1.00  0.00     0.048 A 
ATOM     24  C   UNL     1       6.033  -4.445   1.671  1.00  0.00     0.008 A 
ATOM     25  Cl  UNL     1       2.764  -2.161   3.784  1.00  0.00    -0.080 Cl
BRANCH  22  26
ATOM     26  O   UNL     1       2.653  -3.280   0.985  1.00  0.00    -0.506 OA
ATOM     27  H   UNL     1       2.895  -2.871   0.134  1.00  0.00     0.293 HD
ENDBRANCH  22  26
ENDBRANCH  18  19
ENDBRANCH  17  18
BRANCH  17  28
ATOM     28  O   UNL     1       9.351  -4.047   2.137  1.00  0.00    -0.383 OA
ATOM     29  H   UNL     1       8.641  -4.408   1.559  1.00  0.00     0.211 HD
ENDBRANCH  17  28
ENDBRANCH  14  17
ENDBRANCH  12  13
BRANCH  12  30
ATOM     30  C   UNL     1       9.581  -2.942   7.798  1.00  0.00     0.018 C 
ATOM     31  C   UNL     1      10.783  -3.890   7.937  1.00  0.00     0.010 C 
BRANCH  30  32
ATOM     32  C   UNL     1       8.269  -3.758   7.700  1.00  0.00     0.002 C 
ATOM     33  C   UNL     1       7.146  -3.300   8.622  1.00  0.00     0.004 C 
ENDBRANCH  30  32
ENDBRANCH  12  30
ENDBRANCH  10  12
ENDBRANCH   1  10
BRANCH   5  34
ATOM     34  C   UNL     1       7.153   0.512   4.787  1.00  0.00     0.242 C 
ATOM     35  O   UNL     1       7.067  -0.715   4.748  1.00  0.00    -0.273 OA
ATOM     36  N   UNL     1       6.456   1.329   3.926  1.00  0.00    -0.354 N 
ATOM     37  H   UNL     1       6.659   2.330   3.925  1.00  0.00     0.163 HD
BRANCH  36  38
ATOM     38  C   UNL     1       5.376   0.837   3.096  1.00  0.00     0.116 C 
BRANCH  38  39
ATOM     39  C   UNL     1       5.913   0.453   1.719  1.00  0.00     0.023 C 
BRANCH  39  40
ATOM     40  C   UNL     1       4.845  -0.174   0.830  1.00  0.00     0.026 C 
BRANCH  40  41
ATOM     41  C   UNL     1       4.171   0.889  -0.039  1.00  0.00     0.146 C 
BRANCH  41  42
ATOM     42  N   UNL     1       3.266   0.249  -0.985  1.00  0.00    -0.254 NA
ATOM     43  C   UNL     1       2.373   0.949  -1.578  1.00  0.00     0.185 C 
ATOM     44  N   UNL     1       2.096   2.262  -1.480  1.00  0.00    -0.370 N 
ATOM     45  N   UNL     1       1.546   0.340  -2.443  1.00  0.00    -0.370 N 
ATOM     46  H   UNL     1       1.220   2.627  -1.812  1.00  0.00     0.159 HD
ATOM     47  H   UNL     1       2.635   2.877  -0.879  1.00  0.00     0.159 HD
ATOM     48  H   UNL     1       1.692  -0.651  -2.582  1.00  0.00     0.159 HD
ATOM     49  H   UNL     1       0.990   0.844  -3.112  1.00  0.00     0.159 HD
ENDBRANCH  41  42
ENDBRANCH  40  41
ENDBRANCH  39  40
ENDBRANCH  38  39
ENDBRANCH  36  38
ENDBRANCH   5  34
BRANCH   8  50
ATOM     50  O   UNL     1      10.961   0.574   1.952  1.00  0.00    -0.245 OA
BRANCH  50  51
ATOM     51  S   UNL     1      11.363  -0.525   0.822  1.00  0.00     0.397 S 
ATOM     52  O   UNL     1      11.167  -1.840   1.389  1.00  0.00    -0.169 OA
ATOM     53  O   UNL     1      12.613  -0.145   0.197  1.00  0.00    -0.169 OA
BRANCH  51  54
ATOM     54  O   UNL     1      10.190  -0.336  -0.262  1.00  0.00    -0.264 OA
ATOM     55  H   UNL     1       9.619  -1.130  -0.224  1.00  0.00     0.236 HD
ENDBRANCH  51  54
ENDBRANCH  50  51
ENDBRANCH   8  50
TORSDOF 19
ENDMDL
MODEL 22
REMARK VINA RESULT:    -7.343      4.575      7.937
REMARK INTER + INTRA:         -18.091
REMARK INTER:                 -15.256
REMARK INTRA:                  -2.835
REMARK UNBOUND:                -3.236
REMARK SMILES CC[C@@H](C)[C@@H](NC(=O)[C@@H](O)Cc1ccc(O)c(Cl)c1)C(=O)N1[C@H](C(=O)NCCCCN=C(N)N)C[C@H]2CC[C@H](OS(=O)(=O)O)C[C@@H]21
REMARK SMILES IDX 22 1 36 2 46 3 35 4 23 5 45 6 37 7 39 8 38 9 20 10 21 11
REMARK SMILES IDX 5 12 6 13 7 14 8 15 9 17 11 18 12 19 17 20 19 21 15 22 14 23
REMARK SMILES IDX 13 24 18 25 16 26 10 28 3 30 4 31 2 32 1 33 24 34 25 35
REMARK SMILES IDX 26 36 27 38 28 39 29 40 30 41 31 42 32 43 33 44 34 45 40 50
REMARK SMILES IDX 41 51 42 52 43 53 44 54
REMARK H PARENT 6 16 16 27 10 29 26 37 33 46 33 47 34 48 34 49 44 55
ROOT
ATOM      1  N   UNL     1       6.892  -1.931   2.144  1.00  0.00    -0.326 N 
ATOM      2  C   UNL     1       5.793   0.017   2.879  1.00  0.00     0.014 C 
ATOM      3  C   UNL     1       5.879  -0.966   1.708  1.00  0.00     0.091 C 
ATOM      4  C   UNL     1       7.227   0.065   3.382  1.00  0.00     0.041 C 
ATOM      5  C   UNL     1       7.571  -1.436   3.367  1.00  0.00     0.175 C 
ATOM      6  C   UNL     1       4.473  -1.479   1.404  1.00  0.00     0.059 C 
ATOM      7  C   UNL     1       5.109   1.303   2.458  1.00  0.00     0.008 C 
ATOM      8  C   UNL     1       3.359  -0.449   1.691  1.00  0.00     0.143 C 
ATOM      9  C   UNL     1       3.872   1.002   1.587  1.00  0.00     0.034 C 
ENDROOT
BRANCH   1  10
ATOM     10  C   UNL     1       7.404  -3.039   1.489  1.00  0.00     0.246 C 
ATOM     11  O   UNL     1       7.041  -4.166   1.841  1.00  0.00    -0.272 OA
BRANCH  10  12
ATOM     12  C   UNL     1       8.388  -2.839   0.300  1.00  0.00     0.174 C 
BRANCH  12  13
ATOM     13  N   UNL     1       9.250  -1.686   0.554  1.00  0.00    -0.342 N 
ATOM     14  C   UNL     1      10.589  -1.753   0.865  1.00  0.00     0.249 C 
ATOM     15  O   UNL     1      11.221  -2.800   0.936  1.00  0.00    -0.272 OA
ATOM     16  H   UNL     1       8.835  -0.766   0.685  1.00  0.00     0.164 HD
BRANCH  14  17
ATOM     17  C   UNL     1      11.218  -0.362   1.094  1.00  0.00     0.207 C 
BRANCH  17  18
ATOM     18  C   UNL     1      10.981   0.102   2.534  1.00  0.00     0.077 C 
BRANCH  18  19
ATOM     19  C   UNL     1      11.718   1.388   2.839  1.00  0.00    -0.043 A 
ATOM     20  C   UNL     1      11.695   3.704   3.560  1.00  0.00     0.083 A 
ATOM     21  C   UNL     1      11.021   2.504   3.327  1.00  0.00     0.028 A 
ATOM     22  C   UNL     1      13.064   3.796   3.307  1.00  0.00     0.134 A 
ATOM     23  C   UNL     1      13.766   2.697   2.823  1.00  0.00     0.048 A 
ATOM     24  C   UNL     1      13.094   1.496   2.587  1.00  0.00     0.008 A 
ATOM     25  Cl  UNL     1      10.823   5.065   4.160  1.00  0.00    -0.080 Cl
BRANCH  22  26
ATOM     26  O   UNL     1      13.766   4.953   3.510  1.00  0.00    -0.506 OA
ATOM     27  H   UNL     1      14.067   4.939   4.437  1.00  0.00     0.293 HD
ENDBRANCH  22  26
ENDBRANCH  18  19
ENDBRANCH  17  18
BRANCH  17  28
ATOM     28  O   UNL     1      10.674   0.608   0.184  1.00  0.00    -0.383 OA
ATOM     29  H   UNL     1      10.996   0.352  -0.710  1.00  0.00     0.211 HD
ENDBRANCH  17  28
ENDBRANCH  14  17
ENDBRANCH  12  13
BRANCH  12  30
ATOM     30  C   UNL     1       7.663  -2.747  -1.069  1.00  0.00     0.018 C 
ATOM     31  C   UNL     1       7.360  -1.285  -1.430  1.00  0.00     0.010 C 
BRANCH  30  32
ATOM     32  C   UNL     1       6.368  -3.593  -1.146  1.00  0.00     0.002 C 
ATOM     33  C   UNL     1       5.399  -3.201  -2.253  1.00  0.00     0.004 C 
ENDBRANCH  30  32
ENDBRANCH  12  30
ENDBRANCH  10  12
ENDBRANCH   1  10
BRANCH   5  34
ATOM     34  C   UNL     1       7.030  -2.160   4.629  1.00  0.00     0.242 C 
ATOM     35  O   UNL     1       5.848  -2.482   4.746  1.00  0.00    -0.273 OA
ATOM     36  N   UNL     1       7.954  -2.365   5.628  1.00  0.00    -0.354 N 
ATOM     37  H   UNL     1       8.889  -1.969   5.522  1.00  0.00     0.163 HD
BRANCH  36  38
ATOM     38  C   UNL     1       7.681  -3.208   6.773  1.00  0.00     0.116 C 
BRANCH  38  39
ATOM     39  C   UNL     1       8.001  -2.453   8.061  1.00  0.00     0.023 C 
BRANCH  39  40
ATOM     40  C   UNL     1       6.826  -2.433   9.033  1.00  0.00     0.026 C 
BRANCH  40  41
ATOM     41  C   UNL     1       5.939  -3.663   8.837  1.00  0.00     0.146 C 
BRANCH  41  42
ATOM     42  N   UNL     1       4.543  -3.255   8.754  1.00  0.00    -0.254 NA
ATOM     43  C   UNL     1       3.834  -3.623   7.754  1.00  0.00     0.185 C 
ATOM     44  N   UNL     1       4.166  -4.373   6.687  1.00  0.00    -0.370 N 
ATOM     45  N   UNL     1       2.550  -3.232   7.694  1.00  0.00    -0.370 N 
ATOM     46  H   UNL     1       3.587  -4.379   5.864  1.00  0.00     0.159 HD
ATOM     47  H   UNL     1       5.097  -4.763   6.579  1.00  0.00     0.159 HD
ATOM     48  H   UNL     1       2.216  -2.670   8.465  1.00  0.00     0.159 HD
ATOM     49  H   UNL     1       1.878  -3.664   7.085  1.00  0.00     0.159 HD
ENDBRANCH  41  42
ENDBRANCH  40  41
ENDBRANCH  39  40
ENDBRANCH  38  39
ENDBRANCH  36  38
ENDBRANCH   5  34
BRANCH   8  50
ATOM     50  O   UNL     1       2.832  -0.650   3.003  1.00  0.00    -0.245 OA
BRANCH  50  51
ATOM     51  S   UNL     1       2.240  -2.108   3.415  1.00  0.00     0.397 S 
ATOM     52  O   UNL     1       2.791  -3.087   2.505  1.00  0.00    -0.169 OA
ATOM     53  O   UNL     1       0.814  -2.006   3.648  1.00  0.00    -0.169 OA
BRANCH  51  54
ATOM     54  O   UNL     1       2.956  -2.373   4.830  1.00  0.00    -0.264 OA
ATOM     55  H   UNL     1       3.228  -3.313   4.856  1.00  0.00     0.236 HD
ENDBRANCH  51  54
ENDBRANCH  50  51
ENDBRANCH   8  50
TORSDOF 19
ENDMDL
MODEL 23
REMARK VINA RESULT:    -7.334      3.954      7.408
REMARK INTER + INTRA:         -18.073
REMARK INTER:                 -13.350
REMARK INTRA:                  -4.722
REMARK UNBOUND:                -3.236
REMARK SMILES CC[C@@H](C)[C@@H](NC(=O)[C@@H](O)Cc1ccc(O)c(Cl)c1)C(=O)N1[C@H](C(=O)NCCCCN=C(N)N)C[C@H]2CC[C@H](OS(=O)(=O)O)C[C@@H]21
REMARK SMILES IDX 22 1 36 2 46 3 35 4 23 5 45 6 37 7 39 8 38 9 20 10 21 11
REMARK SMILES IDX 5 12 6 13 7 14 8 15 9 17 11 18 12 19 17 20 19 21 15 22 14 23
REMARK SMILES IDX 13 24 18 25 16 26 10 28 3 30 4 31 2 32 1 33 24 34 25 35
REMARK SMILES IDX 26 36 27 38 28 39 29 40 30 41 31 42 32 43 33 44 34 45 40 50
REMARK SMILES IDX 41 51 42 52 43 53 44 54
REMARK H PARENT 6 16 16 27 10 29 26 37 33 46 33 47 34 48 34 49 44 55
ROOT
ATOM      1  N   UNL     1       6.877  -1.727   2.915  1.00  0.00    -0.326 N 
ATOM      2  C   UNL     1       8.091  -3.321   1.678  1.00  0.00     0.014 C 
ATOM      3  C   UNL     1       7.448  -1.934   1.581  1.00  0.00     0.091 C 
ATOM      4  C   UNL     1       7.143  -4.064   2.606  1.00  0.00     0.041 C 
ATOM      5  C   UNL     1       6.926  -2.992   3.689  1.00  0.00     0.175 C 
ATOM      6  C   UNL     1       8.503  -0.947   1.084  1.00  0.00     0.059 C 
ATOM      7  C   UNL     1       8.375  -3.884   0.299  1.00  0.00     0.008 C 
ATOM      8  C   UNL     1       9.541  -1.575   0.129  1.00  0.00     0.143 C 
ATOM      9  C   UNL     1       8.974  -2.798  -0.619  1.00  0.00     0.034 C 
ENDROOT
BRANCH   1  10
ATOM     10  C   UNL     1       6.156  -0.657   3.415  1.00  0.00     0.246 C 
ATOM     11  O   UNL     1       6.672   0.066   4.275  1.00  0.00    -0.272 OA
BRANCH  10  12
ATOM     12  C   UNL     1       4.734  -0.361   2.856  1.00  0.00     0.174 C 
BRANCH  12  13
ATOM     13  N   UNL     1       4.232  -1.526   2.129  1.00  0.00    -0.342 N 
ATOM     14  C   UNL     1       3.450  -2.521   2.673  1.00  0.00     0.249 C 
ATOM     15  O   UNL     1       3.061  -2.524   3.834  1.00  0.00    -0.272 OA
ATOM     16  H   UNL     1       4.598  -1.740   1.205  1.00  0.00     0.164 HD
BRANCH  14  17
ATOM     17  C   UNL     1       3.096  -3.625   1.654  1.00  0.00     0.207 C 
BRANCH  17  18
ATOM     18  C   UNL     1       3.388  -3.150   0.227  1.00  0.00     0.077 C 
BRANCH  18  19
ATOM     19  C   UNL     1       4.349  -4.073  -0.487  1.00  0.00    -0.043 A 
ATOM     20  C   UNL     1       5.976  -4.465  -2.243  1.00  0.00     0.083 A 
ATOM     21  C   UNL     1       5.127  -3.598  -1.555  1.00  0.00     0.028 A 
ATOM     22  C   UNL     1       6.053  -5.808  -1.873  1.00  0.00     0.134 A 
ATOM     23  C   UNL     1       5.289  -6.292  -0.817  1.00  0.00     0.048 A 
ATOM     24  C   UNL     1       4.436  -5.427  -0.127  1.00  0.00     0.008 A 
ATOM     25  Cl  UNL     1       6.924  -3.863  -3.552  1.00  0.00    -0.080 Cl
BRANCH  22  26
ATOM     26  O   UNL     1       6.863  -6.698  -2.524  1.00  0.00    -0.506 OA
ATOM     27  H   UNL     1       7.424  -7.116  -1.845  1.00  0.00     0.293 HD
ENDBRANCH  22  26
ENDBRANCH  18  19
ENDBRANCH  17  18
BRANCH  17  28
ATOM     28  O   UNL     1       1.714  -4.001   1.758  1.00  0.00    -0.383 OA
ATOM     29  H   UNL     1       1.586  -4.315   2.682  1.00  0.00     0.211 HD
ENDBRANCH  17  28
ENDBRANCH  14  17
ENDBRANCH  12  13
BRANCH  12  30
ATOM     30  C   UNL     1       4.682   0.936   2.005  1.00  0.00     0.018 C 
ATOM     31  C   UNL     1       3.832   2.012   2.700  1.00  0.00     0.010 C 
BRANCH  30  32
ATOM     32  C   UNL     1       4.176   0.711   0.559  1.00  0.00     0.002 C 
ATOM     33  C   UNL     1       5.193   0.108  -0.400  1.00  0.00     0.004 C 
ENDBRANCH  30  32
ENDBRANCH  12  30
ENDBRANCH  10  12
ENDBRANCH   1  10
BRANCH   5  34
ATOM     34  C   UNL     1       8.094  -2.966   4.711  1.00  0.00     0.242 C 
ATOM     35  O   UNL     1       9.104  -3.655   4.573  1.00  0.00    -0.273 OA
ATOM     36  N   UNL     1       7.893  -2.159   5.809  1.00  0.00    -0.354 N 
ATOM     37  H   UNL     1       6.986  -1.706   5.927  1.00  0.00     0.163 HD
BRANCH  36  38
ATOM     38  C   UNL     1       8.954  -1.849   6.745  1.00  0.00     0.116 C 
BRANCH  38  39
ATOM     39  C   UNL     1       9.333  -0.375   6.629  1.00  0.00     0.023 C 
BRANCH  39  40
ATOM     40  C   UNL     1      10.806  -0.126   6.937  1.00  0.00     0.026 C 
BRANCH  40  41
ATOM     41  C   UNL     1      11.328   1.078   6.151  1.00  0.00     0.146 C 
BRANCH  41  42
ATOM     42  N   UNL     1      10.637   1.167   4.871  1.00  0.00    -0.254 NA
ATOM     43  C   UNL     1      11.300   1.450   3.813  1.00  0.00     0.185 C 
ATOM     44  N   UNL     1      12.613   1.696   3.654  1.00  0.00    -0.370 N 
ATOM     45  N   UNL     1      10.644   1.532   2.644  1.00  0.00    -0.370 N 
ATOM     46  H   UNL     1      12.954   2.142   2.819  1.00  0.00     0.159 HD
ATOM     47  H   UNL     1      13.260   1.663   4.436  1.00  0.00     0.159 HD
ATOM     48  H   UNL     1       9.650   1.351   2.673  1.00  0.00     0.159 HD
ATOM     49  H   UNL     1      11.112   1.512   1.755  1.00  0.00     0.159 HD
ENDBRANCH  41  42
ENDBRANCH  40  41
ENDBRANCH  39  40
ENDBRANCH  38  39
ENDBRANCH  36  38
ENDBRANCH   5  34
BRANCH   8  50
ATOM     50  O   UNL     1      10.695  -1.987   0.862  1.00  0.00    -0.245 OA
BRANCH  50  51
ATOM     51  S   UNL     1      12.099  -1.189   0.666  1.00  0.00     0.397 S 
ATOM     52  O   UNL     1      11.789   0.168   0.275  1.00  0.00    -0.169 OA
ATOM     53  O   UNL     1      13.021  -2.006  -0.094  1.00  0.00    -0.169 OA
BRANCH  51  54
ATOM     54  O   UNL     1      12.646  -1.096   2.175  1.00  0.00    -0.264 OA
ATOM     55  H   UNL     1      12.350  -0.240   2.547  1.00  0.00     0.236 HD
ENDBRANCH  51  54
ENDBRANCH  50  51
ENDBRANCH   8  50
TORSDOF 19
ENDMDL
MODEL 24
REMARK VINA RESULT:    -7.331      3.264      7.823
REMARK INTER + INTRA:         -18.068
REMARK INTER:                 -13.472
REMARK INTRA:                  -4.595
REMARK UNBOUND:                -3.236
REMARK SMILES CC[C@@H](C)[C@@H](NC(=O)[C@@H](O)Cc1ccc(O)c(Cl)c1)C(=O)N1[C@H](C(=O)NCCCCN=C(N)N)C[C@H]2CC[C@H](OS(=O)(=O)O)C[C@@H]21
REMARK SMILES IDX 22 1 36 2 46 3 35 4 23 5 45 6 37 7 39 8 38 9 20 10 21 11
REMARK SMILES IDX 5 12 6 13 7 14 8 15 9 17 11 18 12 19 17 20 19 21 15 22 14 23
REMARK SMILES IDX 13 24 18 25 16 26 10 28 3 30 4 31 2 32 1 33 24 34 25 35
REMARK SMILES IDX 26 36 27 38 28 39 29 40 30 41 31 42 32 43 33 44 34 45 40 50
REMARK SMILES IDX 41 51 42 52 43 53 44 54
REMARK H PARENT 6 16 16 27 10 29 26 37 33 46 33 47 34 48 34 49 44 55
ROOT
ATOM      1  N   UNL     1       8.897  -2.735   0.760  1.00  0.00    -0.326 N 
ATOM      2  C   UNL     1       7.588  -1.188   1.959  1.00  0.00     0.014 C 
ATOM      3  C   UNL     1       7.907  -2.681   1.840  1.00  0.00     0.091 C 
ATOM      4  C   UNL     1       7.686  -0.709   0.519  1.00  0.00     0.041 C 
ATOM      5  C   UNL     1       8.983  -1.416   0.084  1.00  0.00     0.175 C 
ATOM      6  C   UNL     1       8.311  -3.201   3.218  1.00  0.00     0.059 C 
ATOM      7  C   UNL     1       6.301  -0.969   2.729  1.00  0.00     0.008 C 
ATOM      8  C   UNL     1       7.606  -2.477   4.386  1.00  0.00     0.143 C 
ATOM      9  C   UNL     1       6.243  -1.891   3.966  1.00  0.00     0.034 C 
ENDROOT
BRANCH   1  10
ATOM     10  C   UNL     1       9.538  -3.825   0.196  1.00  0.00     0.246 C 
ATOM     11  O   UNL     1      10.748  -3.978   0.392  1.00  0.00    -0.272 OA
BRANCH  10  12
ATOM     12  C   UNL     1       8.716  -4.853  -0.633  1.00  0.00     0.174 C 
BRANCH  12  13
ATOM     13  N   UNL     1       7.361  -4.349  -0.851  1.00  0.00    -0.342 N 
ATOM     14  C   UNL     1       6.923  -3.731  -2.001  1.00  0.00     0.249 C 
ATOM     15  O   UNL     1       7.623  -3.559  -2.992  1.00  0.00    -0.272 OA
ATOM     16  H   UNL     1       6.717  -4.280  -0.067  1.00  0.00     0.164 HD
BRANCH  14  17
ATOM     17  C   UNL     1       5.445  -3.296  -1.918  1.00  0.00     0.207 C 
BRANCH  17  18
ATOM     18  C   UNL     1       4.704  -4.114  -0.855  1.00  0.00     0.077 C 
BRANCH  18  19
ATOM     19  C   UNL     1       4.072  -3.229   0.196  1.00  0.00    -0.043 A 
ATOM     20  C   UNL     1       3.568  -1.018   1.056  1.00  0.00     0.083 A 
ATOM     21  C   UNL     1       4.109  -1.832   0.061  1.00  0.00     0.028 A 
ATOM     22  C   UNL     1       2.989  -1.591   2.189  1.00  0.00     0.134 A 
ATOM     23  C   UNL     1       2.946  -2.972   2.335  1.00  0.00     0.048 A 
ATOM     24  C   UNL     1       3.488  -3.790   1.342  1.00  0.00     0.008 A 
ATOM     25  Cl  UNL     1       3.623   0.696   0.873  1.00  0.00    -0.080 Cl
BRANCH  22  26
ATOM     26  O   UNL     1       2.455  -0.833   3.196  1.00  0.00    -0.506 OA
ATOM     27  H   UNL     1       1.576  -1.207   3.393  1.00  0.00     0.293 HD
ENDBRANCH  22  26
ENDBRANCH  18  19
ENDBRANCH  17  18
BRANCH  17  28
ATOM     28  O   UNL     1       4.786  -3.454  -3.185  1.00  0.00    -0.383 OA
ATOM     29  H   UNL     1       3.874  -3.105  -3.063  1.00  0.00     0.211 HD
ENDBRANCH  17  28
ENDBRANCH  14  17
ENDBRANCH  12  13
BRANCH  12  30
ATOM     30  C   UNL     1       8.726  -6.274  -0.006  1.00  0.00     0.018 C 
ATOM     31  C   UNL     1       7.616  -7.147  -0.614  1.00  0.00     0.010 C 
BRANCH  30  32
ATOM     32  C   UNL     1       8.616  -6.273   1.538  1.00  0.00     0.002 C 
ATOM     33  C   UNL     1       9.746  -6.983   2.272  1.00  0.00     0.004 C 
ENDBRANCH  30  32
ENDBRANCH  12  30
ENDBRANCH  10  12
ENDBRANCH   1  10
BRANCH   5  34
ATOM     34  C   UNL     1      10.243  -0.640   0.552  1.00  0.00     0.242 C 
ATOM     35  O   UNL     1      10.561   0.448   0.071  1.00  0.00    -0.273 OA
ATOM     36  N   UNL     1      11.006  -1.280   1.502  1.00  0.00    -0.354 N 
ATOM     37  H   UNL     1      10.756  -2.231   1.774  1.00  0.00     0.163 HD
BRANCH  36  38
ATOM     38  C   UNL     1      12.086  -0.615   2.203  1.00  0.00     0.116 C 
BRANCH  38  39
ATOM     39  C   UNL     1      11.732  -0.469   3.681  1.00  0.00     0.023 C 
BRANCH  39  40
ATOM     40  C   UNL     1      11.560   0.988   4.097  1.00  0.00     0.026 C 
BRANCH  40  41
ATOM     41  C   UNL     1      10.203   1.525   3.643  1.00  0.00     0.146 C 
BRANCH  41  42
ATOM     42  N   UNL     1       9.755   2.568   4.557  1.00  0.00    -0.254 NA
ATOM     43  C   UNL     1       8.581   2.506   5.062  1.00  0.00     0.185 C 
ATOM     44  N   UNL     1       7.613   1.587   4.893  1.00  0.00    -0.370 N 
ATOM     45  N   UNL     1       8.186   3.481   5.898  1.00  0.00    -0.370 N 
ATOM     46  H   UNL     1       6.663   1.789   5.153  1.00  0.00     0.159 HD
ATOM     47  H   UNL     1       7.749   0.773   4.301  1.00  0.00     0.159 HD
ATOM     48  H   UNL     1       8.860   4.210   6.087  1.00  0.00     0.159 HD
ATOM     49  H   UNL     1       7.394   3.386   6.508  1.00  0.00     0.159 HD
ENDBRANCH  41  42
ENDBRANCH  40  41
ENDBRANCH  39  40
ENDBRANCH  38  39
ENDBRANCH  36  38
ENDBRANCH   5  34
BRANCH   8  50
ATOM     50  O   UNL     1       8.427  -1.413   4.870  1.00  0.00    -0.245 OA
BRANCH  50  51
ATOM     51  S   UNL     1       8.881  -1.396   6.432  1.00  0.00     0.397 S 
ATOM     52  O   UNL     1       7.776  -1.890   7.223  1.00  0.00    -0.169 OA
ATOM     53  O   UNL     1       9.530  -0.138   6.736  1.00  0.00    -0.169 OA
BRANCH  51  54
ATOM     54  O   UNL     1       9.998  -2.552   6.469  1.00  0.00    -0.264 OA
ATOM     55  H   UNL     1       9.827  -3.157   5.719  1.00  0.00     0.236 HD
ENDBRANCH  51  54
ENDBRANCH  50  51
ENDBRANCH   8  50
TORSDOF 19
ENDMDL
MODEL 25
REMARK VINA RESULT:    -7.328      2.778      5.886
REMARK INTER + INTRA:         -18.062
REMARK INTER:                 -14.420
REMARK INTRA:                  -3.641
REMARK UNBOUND:                -3.236
REMARK SMILES CC[C@@H](C)[C@@H](NC(=O)[C@@H](O)Cc1ccc(O)c(Cl)c1)C(=O)N1[C@H](C(=O)NCCCCN=C(N)N)C[C@H]2CC[C@H](OS(=O)(=O)O)C[C@@H]21
REMARK SMILES IDX 22 1 36 2 46 3 35 4 23 5 45 6 37 7 39 8 38 9 20 10 21 11
REMARK SMILES IDX 5 12 6 13 7 14 8 15 9 17 11 18 12 19 17 20 19 21 15 22 14 23
REMARK SMILES IDX 13 24 18 25 16 26 10 28 3 30 4 31 2 32 1 33 24 34 25 35
REMARK SMILES IDX 26 36 27 38 28 39 29 40 30 41 31 42 32 43 33 44 34 45 40 50
REMARK SMILES IDX 41 51 42 52 43 53 44 54
REMARK H PARENT 6 16 16 27 10 29 26 37 33 46 33 47 34 48 34 49 44 55
ROOT
ATOM      1  N   UNL     1       6.576  -2.896   0.247  1.00  0.00    -0.326 N 
ATOM      2  C   UNL     1       8.517  -1.833  -0.555  1.00  0.00     0.014 C 
ATOM      3  C   UNL     1       7.890  -2.436   0.705  1.00  0.00     0.091 C 
ATOM      4  C   UNL     1       7.318  -1.230  -1.271  1.00  0.00     0.041 C 
ATOM      5  C   UNL     1       6.304  -2.379  -1.117  1.00  0.00     0.175 C 
ATOM      6  C   UNL     1       8.858  -3.468   1.281  1.00  0.00     0.059 C 
ATOM      7  C   UNL     1       9.695  -0.946  -0.202  1.00  0.00     0.008 C 
ATOM      8  C   UNL     1      10.344  -3.129   1.036  1.00  0.00     0.143 C 
ATOM      9  C   UNL     1      10.575  -1.613   0.876  1.00  0.00     0.034 C 
ENDROOT
BRANCH   1  10
ATOM     10  C   UNL     1       5.554  -3.508   0.952  1.00  0.00     0.246 C 
ATOM     11  O   UNL     1       5.572  -4.735   1.094  1.00  0.00    -0.272 OA
BRANCH  10  12
ATOM     12  C   UNL     1       4.430  -2.637   1.586  1.00  0.00     0.174 C 
BRANCH  12  13
ATOM     13  N   UNL     1       5.015  -1.466   2.238  1.00  0.00    -0.342 N 
ATOM     14  C   UNL     1       5.021  -0.192   1.717  1.00  0.00     0.249 C 
ATOM     15  O   UNL     1       4.506   0.110   0.648  1.00  0.00    -0.272 OA
ATOM     16  H   UNL     1       5.612  -1.589   3.052  1.00  0.00     0.164 HD
BRANCH  14  17
ATOM     17  C   UNL     1       5.731   0.825   2.637  1.00  0.00     0.207 C 
BRANCH  17  18
ATOM     18  C   UNL     1       6.628   0.099   3.645  1.00  0.00     0.077 C 
BRANCH  18  19
ATOM     19  C   UNL     1       7.865   0.903   3.977  1.00  0.00    -0.043 A 
ATOM     20  C   UNL     1      10.159   1.526   3.496  1.00  0.00     0.083 A 
ATOM     21  C   UNL     1       9.003   0.822   3.160  1.00  0.00     0.028 A 
ATOM     22  C   UNL     1      10.187   2.313   4.648  1.00  0.00     0.134 A 
ATOM     23  C   UNL     1       9.067   2.403   5.466  1.00  0.00     0.048 A 
ATOM     24  C   UNL     1       7.908   1.697   5.133  1.00  0.00     0.008 A 
ATOM     25  Cl  UNL     1      11.548   1.414   2.480  1.00  0.00    -0.080 Cl
BRANCH  22  26
ATOM     26  O   UNL     1      11.301   3.014   5.025  1.00  0.00    -0.506 OA
ATOM     27  H   UNL     1      11.029   3.947   5.111  1.00  0.00     0.293 HD
ENDBRANCH  22  26
ENDBRANCH  18  19
ENDBRANCH  17  18
BRANCH  17  28
ATOM     28  O   UNL     1       4.779   1.636   3.343  1.00  0.00    -0.383 OA
ATOM     29  H   UNL     1       5.159   1.784   4.239  1.00  0.00     0.211 HD
ENDBRANCH  17  28
ENDBRANCH  14  17
ENDBRANCH  12  13
BRANCH  12  30
ATOM     30  C   UNL     1       3.508  -3.446   2.537  1.00  0.00     0.018 C 
ATOM     31  C   UNL     1       2.033  -3.283   2.138  1.00  0.00     0.010 C 
BRANCH  30  32
ATOM     32  C   UNL     1       3.697  -3.095   4.033  1.00  0.00     0.002 C 
ATOM     33  C   UNL     1       4.573  -4.059   4.823  1.00  0.00     0.004 C 
ENDBRANCH  30  32
ENDBRANCH  12  30
ENDBRANCH  10  12
ENDBRANCH   1  10
BRANCH   5  34
ATOM     34  C   UNL     1       6.529  -3.486  -2.181  1.00  0.00     0.242 C 
ATOM     35  O   UNL     1       6.989  -3.244  -3.297  1.00  0.00    -0.273 OA
ATOM     36  N   UNL     1       6.128  -4.749  -1.805  1.00  0.00    -0.354 N 
ATOM     37  H   UNL     1       5.644  -4.866  -0.914  1.00  0.00     0.163 HD
BRANCH  36  38
ATOM     38  C   UNL     1       6.458  -5.927  -2.580  1.00  0.00     0.116 C 
BRANCH  38  39
ATOM     39  C   UNL     1       7.053  -6.997  -1.668  1.00  0.00     0.023 C 
BRANCH  39  40
ATOM     40  C   UNL     1       7.909  -6.404  -0.554  1.00  0.00     0.026 C 
BRANCH  40  41
ATOM     41  C   UNL     1       9.013  -7.377  -0.141  1.00  0.00     0.146 C 
BRANCH  41  42
ATOM     42  N   UNL     1       8.624  -8.738  -0.487  1.00  0.00    -0.254 NA
ATOM     43  C   UNL     1       9.055  -9.717   0.216  1.00  0.00     0.185 C 
ATOM     44  N   UNL     1       9.859  -9.721   1.296  1.00  0.00    -0.370 N 
ATOM     45  N   UNL     1       8.688 -10.965  -0.121  1.00  0.00    -0.370 N 
ATOM     46  H   UNL     1      10.310 -10.568   1.596  1.00  0.00     0.159 HD
ATOM     47  H   UNL     1      10.218  -8.859   1.694  1.00  0.00     0.159 HD
ATOM     48  H   UNL     1       8.074 -11.051  -0.920  1.00  0.00     0.159 HD
ATOM     49  H   UNL     1       8.782 -11.747   0.502  1.00  0.00     0.159 HD
ENDBRANCH  41  42
ENDBRANCH  40  41
ENDBRANCH  39  40
ENDBRANCH  38  39
ENDBRANCH  36  38
ENDBRANCH   5  34
BRANCH   8  50
ATOM     50  O   UNL     1      10.808  -3.784  -0.145  1.00  0.00    -0.245 OA
BRANCH  50  51
ATOM     51  S   UNL     1      12.402  -4.043  -0.347  1.00  0.00     0.397 S 
ATOM     52  O   UNL     1      13.008  -4.136   0.962  1.00  0.00    -0.169 OA
ATOM     53  O   UNL     1      12.915  -3.145  -1.360  1.00  0.00    -0.169 OA
BRANCH  51  54
ATOM     54  O   UNL     1      12.426  -5.534  -0.947  1.00  0.00    -0.264 OA
ATOM     55  H   UNL     1      12.390  -6.160  -0.195  1.00  0.00     0.236 HD
ENDBRANCH  51  54
ENDBRANCH  50  51
ENDBRANCH   8  50
TORSDOF 19
ENDMDL
MODEL 26
REMARK VINA RESULT:    -7.303      4.311      8.374
REMARK INTER + INTRA:         -18.011
REMARK INTER:                 -16.199
REMARK INTRA:                  -1.812
REMARK UNBOUND:                -3.236
REMARK SMILES CC[C@@H](C)[C@@H](NC(=O)[C@@H](O)Cc1ccc(O)c(Cl)c1)C(=O)N1[C@H](C(=O)NCCCCN=C(N)N)C[C@H]2CC[C@H](OS(=O)(=O)O)C[C@@H]21
REMARK SMILES IDX 22 1 36 2 46 3 35 4 23 5 45 6 37 7 39 8 38 9 20 10 21 11
REMARK SMILES IDX 5 12 6 13 7 14 8 15 9 17 11 18 12 19 17 20 19 21 15 22 14 23
REMARK SMILES IDX 13 24 18 25 16 26 10 28 3 30 4 31 2 32 1 33 24 34 25 35
REMARK SMILES IDX 26 36 27 38 28 39 29 40 30 41 31 42 32 43 33 44 34 45 40 50
REMARK SMILES IDX 41 51 42 52 43 53 44 54
REMARK H PARENT 6 16 16 27 10 29 26 37 33 46 33 47 34 48 34 49 44 55
ROOT
ATOM      1  N   UNL     1       6.078  -2.121  -0.252  1.00  0.00    -0.326 N 
ATOM      2  C   UNL     1       6.809  -0.697   1.474  1.00  0.00     0.014 C 
ATOM      3  C   UNL     1       5.550  -1.251   0.802  1.00  0.00     0.091 C 
ATOM      4  C   UNL     1       7.780  -0.567   0.310  1.00  0.00     0.041 C 
ATOM      5  C   UNL     1       7.541  -1.914  -0.396  1.00  0.00     0.175 C 
ATOM      6  C   UNL     1       4.662  -1.873   1.878  1.00  0.00     0.059 C 
ATOM      7  C   UNL     1       6.485   0.524   2.311  1.00  0.00     0.008 C 
ATOM      8  C   UNL     1       4.771  -1.178   3.252  1.00  0.00     0.143 C 
ATOM      9  C   UNL     1       5.191   0.300   3.122  1.00  0.00     0.034 C 
ENDROOT
BRANCH   1  10
ATOM     10  C   UNL     1       5.408  -2.877  -1.199  1.00  0.00     0.246 C 
ATOM     11  O   UNL     1       4.420  -2.395  -1.764  1.00  0.00    -0.272 OA
BRANCH  10  12
ATOM     12  C   UNL     1       5.934  -4.296  -1.561  1.00  0.00     0.174 C 
BRANCH  12  13
ATOM     13  N   UNL     1       5.332  -4.747  -2.815  1.00  0.00    -0.342 N 
ATOM     14  C   UNL     1       5.895  -4.592  -4.062  1.00  0.00     0.249 C 
ATOM     15  O   UNL     1       6.989  -4.078  -4.257  1.00  0.00    -0.272 OA
ATOM     16  H   UNL     1       4.361  -5.048  -2.828  1.00  0.00     0.164 HD
BRANCH  14  17
ATOM     17  C   UNL     1       5.006  -5.157  -5.190  1.00  0.00     0.207 C 
BRANCH  17  18
ATOM     18  C   UNL     1       5.871  -5.706  -6.329  1.00  0.00     0.077 C 
BRANCH  18  19
ATOM     19  C   UNL     1       5.185  -5.574  -7.670  1.00  0.00    -0.043 A 
ATOM     20  C   UNL     1       3.453  -6.262  -9.223  1.00  0.00     0.083 A 
ATOM     21  C   UNL     1       4.054  -6.350  -7.967  1.00  0.00     0.028 A 
ATOM     22  C   UNL     1       3.976  -5.401 -10.188  1.00  0.00     0.134 A 
ATOM     23  C   UNL     1       5.095  -4.626  -9.908  1.00  0.00     0.048 A 
ATOM     24  C   UNL     1       5.701  -4.714  -8.652  1.00  0.00     0.008 A 
ATOM     25  Cl  UNL     1       2.065  -7.225  -9.569  1.00  0.00    -0.080 Cl
BRANCH  22  26
ATOM     26  O   UNL     1       3.428  -5.288 -11.437  1.00  0.00    -0.506 OA
ATOM     27  H   UNL     1       2.548  -5.708 -11.396  1.00  0.00     0.293 HD
ENDBRANCH  22  26
ENDBRANCH  18  19
ENDBRANCH  17  18
BRANCH  17  28
ATOM     28  O   UNL     1       4.123  -4.148  -5.707  1.00  0.00    -0.383 OA
ATOM     29  H   UNL     1       3.410  -4.042  -5.036  1.00  0.00     0.211 HD
ENDBRANCH  17  28
ENDBRANCH  14  17
ENDBRANCH  12  13
BRANCH  12  30
ATOM     30  C   UNL     1       5.741  -5.319  -0.409  1.00  0.00     0.018 C 
ATOM     31  C   UNL     1       6.609  -6.567  -0.636  1.00  0.00     0.010 C 
BRANCH  30  32
ATOM     32  C   UNL     1       4.266  -5.732  -0.186  1.00  0.00     0.002 C 
ATOM     33  C   UNL     1       3.574  -5.063   0.995  1.00  0.00     0.004 C 
ENDBRANCH  30  32
ENDBRANCH  12  30
ENDBRANCH  10  12
ENDBRANCH   1  10
BRANCH   5  34
ATOM     34  C   UNL     1       8.329  -3.065   0.285  1.00  0.00     0.242 C 
ATOM     35  O   UNL     1       8.058  -3.469   1.415  1.00  0.00    -0.273 OA
ATOM     36  N   UNL     1       9.384  -3.563  -0.445  1.00  0.00    -0.354 N 
ATOM     37  H   UNL     1       9.633  -3.107  -1.324  1.00  0.00     0.163 HD
BRANCH  36  38
ATOM     38  C   UNL     1      10.087  -4.771  -0.063  1.00  0.00     0.116 C 
BRANCH  38  39
ATOM     39  C   UNL     1      11.275  -4.419   0.829  1.00  0.00     0.023 C 
BRANCH  39  40
ATOM     40  C   UNL     1      12.237  -3.443   0.160  1.00  0.00     0.026 C 
BRANCH  40  41
ATOM     41  C   UNL     1      13.607  -4.088  -0.047  1.00  0.00     0.146 C 
BRANCH  41  42
ATOM     42  N   UNL     1      13.683  -4.664  -1.383  1.00  0.00    -0.254 NA
ATOM     43  C   UNL     1      13.660  -5.936  -1.526  1.00  0.00     0.185 C 
ATOM     44  N   UNL     1      13.571  -6.910  -0.601  1.00  0.00    -0.370 N 
ATOM     45  N   UNL     1      13.736  -6.448  -2.766  1.00  0.00    -0.370 N 
ATOM     46  H   UNL     1      13.809  -7.859  -0.832  1.00  0.00     0.159 HD
ATOM     47  H   UNL     1      13.492  -6.699   0.389  1.00  0.00     0.159 HD
ATOM     48  H   UNL     1      13.797  -5.781  -3.523  1.00  0.00     0.159 HD
ATOM     49  H   UNL     1      13.489  -7.398  -2.978  1.00  0.00     0.159 HD
ENDBRANCH  41  42
ENDBRANCH  40  41
ENDBRANCH  39  40
ENDBRANCH  38  39
ENDBRANCH  36  38
ENDBRANCH   5  34
BRANCH   8  50
ATOM     50  O   UNL     1       5.729  -1.851   4.068  1.00  0.00    -0.245 OA
BRANCH  50  51
ATOM     51  S   UNL     1       5.295  -3.196   4.873  1.00  0.00     0.397 S 
ATOM     52  O   UNL     1       5.988  -3.201   6.142  1.00  0.00    -0.169 OA
ATOM     53  O   UNL     1       5.342  -4.334   3.978  1.00  0.00    -0.169 OA
BRANCH  51  54
ATOM     54  O   UNL     1       3.753  -2.899   5.217  1.00  0.00    -0.264 OA
ATOM     55  H   UNL     1       3.256  -2.885   4.373  1.00  0.00     0.236 HD
ENDBRANCH  51  54
ENDBRANCH  50  51
ENDBRANCH   8  50
TORSDOF 19
ENDMDL
MODEL 27
REMARK VINA RESULT:    -7.256      3.873      6.588
REMARK INTER + INTRA:         -17.915
REMARK INTER:                 -14.782
REMARK INTRA:                  -3.133
REMARK UNBOUND:                -3.236
REMARK SMILES CC[C@@H](C)[C@@H](NC(=O)[C@@H](O)Cc1ccc(O)c(Cl)c1)C(=O)N1[C@H](C(=O)NCCCCN=C(N)N)C[C@H]2CC[C@H](OS(=O)(=O)O)C[C@@H]21
REMARK SMILES IDX 22 1 36 2 46 3 35 4 23 5 45 6 37 7 39 8 38 9 20 10 21 11
REMARK SMILES IDX 5 12 6 13 7 14 8 15 9 17 11 18 12 19 17 20 19 21 15 22 14 23
REMARK SMILES IDX 13 24 18 25 16 26 10 28 3 30 4 31 2 32 1 33 24 34 25 35
REMARK SMILES IDX 26 36 27 38 28 39 29 40 30 41 31 42 32 43 33 44 34 45 40 50
REMARK SMILES IDX 41 51 42 52 43 53 44 54
REMARK H PARENT 6 16 16 27 10 29 26 37 33 46 33 47 34 48 34 49 44 55
ROOT
ATOM      1  N   UNL     1       7.862  -2.286   1.167  1.00  0.00    -0.326 N 
ATOM      2  C   UNL     1       9.848  -3.518   0.882  1.00  0.00     0.014 C 
ATOM      3  C   UNL     1       8.552  -3.466   1.696  1.00  0.00     0.091 C 
ATOM      4  C   UNL     1      10.169  -2.046   0.670  1.00  0.00     0.041 C 
ATOM      5  C   UNL     1       8.775  -1.515   0.288  1.00  0.00     0.175 C 
ATOM      6  C   UNL     1       7.858  -4.823   1.584  1.00  0.00     0.059 C 
ATOM      7  C   UNL     1      10.873  -4.413   1.550  1.00  0.00     0.008 C 
ATOM      8  C   UNL     1       8.834  -6.010   1.437  1.00  0.00     0.143 C 
ATOM      9  C   UNL     1      10.211  -5.710   2.063  1.00  0.00     0.034 C 
ENDROOT
BRANCH   1  10
ATOM     10  C   UNL     1       6.648  -1.730   1.532  1.00  0.00     0.246 C 
ATOM     11  O   UNL     1       5.828  -1.447   0.653  1.00  0.00    -0.272 OA
BRANCH  10  12
ATOM     12  C   UNL     1       6.326  -1.514   3.040  1.00  0.00     0.174 C 
BRANCH  12  13
ATOM     13  N   UNL     1       7.250  -0.535   3.612  1.00  0.00    -0.342 N 
ATOM     14  C   UNL     1       6.962   0.795   3.822  1.00  0.00     0.249 C 
ATOM     15  O   UNL     1       5.877   1.305   3.575  1.00  0.00    -0.272 OA
ATOM     16  H   UNL     1       8.233  -0.774   3.719  1.00  0.00     0.164 HD
BRANCH  14  17
ATOM     17  C   UNL     1       8.151   1.573   4.424  1.00  0.00     0.207 C 
BRANCH  17  18
ATOM     18  C   UNL     1       9.472   1.088   3.817  1.00  0.00     0.077 C 
BRANCH  18  19
ATOM     19  C   UNL     1      10.492   2.200   3.727  1.00  0.00    -0.043 A 
ATOM     20  C   UNL     1      12.750   2.950   3.254  1.00  0.00     0.083 A 
ATOM     21  C   UNL     1      11.798   1.930   3.289  1.00  0.00     0.028 A 
ATOM     22  C   UNL     1      12.406   4.241   3.656  1.00  0.00     0.134 A 
ATOM     23  C   UNL     1      11.116   4.522   4.092  1.00  0.00     0.048 A 
ATOM     24  C   UNL     1      10.161   3.504   4.130  1.00  0.00     0.008 A 
ATOM     25  Cl  UNL     1      14.349   2.598   2.714  1.00  0.00    -0.080 Cl
BRANCH  22  26
ATOM     26  O   UNL     1      13.308   5.270   3.649  1.00  0.00    -0.506 OA
ATOM     27  H   UNL     1      12.790   6.096   3.624  1.00  0.00     0.293 HD
ENDBRANCH  22  26
ENDBRANCH  18  19
ENDBRANCH  17  18
BRANCH  17  28
ATOM     28  O   UNL     1       8.198   1.423   5.852  1.00  0.00    -0.383 OA
ATOM     29  H   UNL     1       8.152   2.333   6.223  1.00  0.00     0.211 HD
ENDBRANCH  17  28
ENDBRANCH  14  17
ENDBRANCH  12  13
BRANCH  12  30
ATOM     30  C   UNL     1       6.297  -2.842   3.843  1.00  0.00     0.018 C 
ATOM     31  C   UNL     1       4.852  -3.264   4.150  1.00  0.00     0.010 C 
BRANCH  30  32
ATOM     32  C   UNL     1       7.127  -2.796   5.150  1.00  0.00     0.002 C 
ATOM     33  C   UNL     1       8.432  -3.580   5.120  1.00  0.00     0.004 C 
ENDBRANCH  30  32
ENDBRANCH  12  30
ENDBRANCH  10  12
ENDBRANCH   1  10
BRANCH   5  34
ATOM     34  C   UNL     1       8.453  -1.780  -1.207  1.00  0.00     0.242 C 
ATOM     35  O   UNL     1       9.036  -1.194  -2.119  1.00  0.00    -0.273 OA
ATOM     36  N   UNL     1       7.433  -2.676  -1.437  1.00  0.00    -0.354 N 
ATOM     37  H   UNL     1       6.908  -3.038  -0.640  1.00  0.00     0.163 HD
BRANCH  36  38
ATOM     38  C   UNL     1       7.147  -3.200  -2.756  1.00  0.00     0.116 C 
BRANCH  38  39
ATOM     39  C   UNL     1       5.739  -3.790  -2.785  1.00  0.00     0.023 C 
BRANCH  39  40
ATOM     40  C   UNL     1       5.690  -5.208  -2.227  1.00  0.00     0.026 C 
BRANCH  40  41
ATOM     41  C   UNL     1       4.965  -5.236  -0.881  1.00  0.00     0.146 C 
BRANCH  41  42
ATOM     42  N   UNL     1       4.328  -3.948  -0.638  1.00  0.00    -0.254 NA
ATOM     43  C   UNL     1       3.583  -3.794   0.391  1.00  0.00     0.185 C 
ATOM     44  N   UNL     1       3.257  -4.667   1.362  1.00  0.00    -0.370 N 
ATOM     45  N   UNL     1       3.001  -2.601   0.595  1.00  0.00    -0.370 N 
ATOM     46  H   UNL     1       2.476  -4.491   1.970  1.00  0.00     0.159 HD
ATOM     47  H   UNL     1       3.622  -5.615   1.371  1.00  0.00     0.159 HD
ATOM     48  H   UNL     1       3.202  -1.882  -0.087  1.00  0.00     0.159 HD
ATOM     49  H   UNL     1       2.608  -2.331   1.479  1.00  0.00     0.159 HD
ENDBRANCH  41  42
ENDBRANCH  40  41
ENDBRANCH  39  40
ENDBRANCH  38  39
ENDBRANCH  36  38
ENDBRANCH   5  34
BRANCH   8  50
ATOM     50  O   UNL     1       9.022  -6.321   0.056  1.00  0.00    -0.245 OA
BRANCH  50  51
ATOM     51  S   UNL     1       8.770  -7.841  -0.466  1.00  0.00     0.397 S 
ATOM     52  O   UNL     1       8.013  -7.771  -1.696  1.00  0.00    -0.169 OA
ATOM     53  O   UNL     1       8.344  -8.671   0.642  1.00  0.00    -0.169 OA
BRANCH  51  54
ATOM     54  O   UNL     1      10.252  -8.301  -0.889  1.00  0.00    -0.264 OA
ATOM     55  H   UNL     1      10.675  -8.703  -0.104  1.00  0.00     0.236 HD
ENDBRANCH  51  54
ENDBRANCH  50  51
ENDBRANCH   8  50
TORSDOF 19
ENDMDL
MODEL 28
REMARK VINA RESULT:    -7.232      2.809      5.749
REMARK INTER + INTRA:         -17.867
REMARK INTER:                 -14.681
REMARK INTRA:                  -3.186
REMARK UNBOUND:                -3.236
REMARK SMILES CC[C@@H](C)[C@@H](NC(=O)[C@@H](O)Cc1ccc(O)c(Cl)c1)C(=O)N1[C@H](C(=O)NCCCCN=C(N)N)C[C@H]2CC[C@H](OS(=O)(=O)O)C[C@@H]21
REMARK SMILES IDX 22 1 36 2 46 3 35 4 23 5 45 6 37 7 39 8 38 9 20 10 21 11
REMARK SMILES IDX 5 12 6 13 7 14 8 15 9 17 11 18 12 19 17 20 19 21 15 22 14 23
REMARK SMILES IDX 13 24 18 25 16 26 10 28 3 30 4 31 2 32 1 33 24 34 25 35
REMARK SMILES IDX 26 36 27 38 28 39 29 40 30 41 31 42 32 43 33 44 34 45 40 50
REMARK SMILES IDX 41 51 42 52 43 53 44 54
REMARK H PARENT 6 16 16 27 10 29 26 37 33 46 33 47 34 48 34 49 44 55
ROOT
ATOM      1  N   UNL     1       8.741  -1.882   1.952  1.00  0.00    -0.326 N 
ATOM      2  C   UNL     1      10.524  -0.896   0.772  1.00  0.00     0.014 C 
ATOM      3  C   UNL     1       9.954  -1.091   2.180  1.00  0.00     0.091 C 
ATOM      4  C   UNL     1       9.272  -0.786  -0.084  1.00  0.00     0.041 C 
ATOM      5  C   UNL     1       8.439  -1.942   0.500  1.00  0.00     0.175 C 
ATOM      6  C   UNL     1      11.048  -1.683   3.066  1.00  0.00     0.059 C 
ATOM      7  C   UNL     1      11.541   0.228   0.750  1.00  0.00     0.008 C 
ATOM      8  C   UNL     1      12.473  -1.231   2.679  1.00  0.00     0.143 C 
ATOM      9  C   UNL     1      12.475   0.141   1.975  1.00  0.00     0.034 C 
ENDROOT
BRANCH   1  10
ATOM     10  C   UNL     1       7.801  -2.346   2.856  1.00  0.00     0.246 C 
ATOM     11  O   UNL     1       8.015  -3.405   3.456  1.00  0.00    -0.272 OA
BRANCH  10  12
ATOM     12  C   UNL     1       6.519  -1.507   3.128  1.00  0.00     0.174 C 
BRANCH  12  13
ATOM     13  N   UNL     1       5.372  -2.116   2.455  1.00  0.00    -0.342 N 
ATOM     14  C   UNL     1       4.211  -2.516   3.078  1.00  0.00     0.249 C 
ATOM     15  O   UNL     1       3.998  -2.379   4.276  1.00  0.00    -0.272 OA
ATOM     16  H   UNL     1       5.463  -2.435   1.494  1.00  0.00     0.164 HD
BRANCH  14  17
ATOM     17  C   UNL     1       3.194  -3.140   2.099  1.00  0.00     0.207 C 
BRANCH  17  18
ATOM     18  C   UNL     1       3.455  -2.648   0.671  1.00  0.00     0.077 C 
BRANCH  18  19
ATOM     19  C   UNL     1       4.214  -3.670  -0.145  1.00  0.00    -0.043 A 
ATOM     20  C   UNL     1       5.689  -4.209  -1.994  1.00  0.00     0.083 A 
ATOM     21  C   UNL     1       5.029  -3.260  -1.212  1.00  0.00     0.028 A 
ATOM     22  C   UNL     1       5.539  -5.568  -1.717  1.00  0.00     0.134 A 
ATOM     23  C   UNL     1       4.736  -5.988  -0.663  1.00  0.00     0.048 A 
ATOM     24  C   UNL     1       4.072  -5.041   0.120  1.00  0.00     0.008 A 
ATOM     25  Cl  UNL     1       6.685  -3.686  -3.301  1.00  0.00    -0.080 Cl
BRANCH  22  26
ATOM     26  O   UNL     1       6.158  -6.536  -2.462  1.00  0.00    -0.506 OA
ATOM     27  H   UNL     1       7.082  -6.247  -2.584  1.00  0.00     0.293 HD
ENDBRANCH  22  26
ENDBRANCH  18  19
ENDBRANCH  17  18
BRANCH  17  28
ATOM     28  O   UNL     1       1.846  -2.815   2.476  1.00  0.00    -0.383 OA
ATOM     29  H   UNL     1       1.281  -3.532   2.110  1.00  0.00     0.211 HD
ENDBRANCH  17  28
ENDBRANCH  14  17
ENDBRANCH  12  13
BRANCH  12  30
ATOM     30  C   UNL     1       6.693  -0.009   2.762  1.00  0.00     0.018 C 
ATOM     31  C   UNL     1       6.780   0.856   4.029  1.00  0.00     0.010 C 
BRANCH  30  32
ATOM     32  C   UNL     1       5.590   0.534   1.822  1.00  0.00     0.002 C 
ATOM     33  C   UNL     1       4.446   1.264   2.513  1.00  0.00     0.004 C 
ENDBRANCH  30  32
ENDBRANCH  12  30
ENDBRANCH  10  12
ENDBRANCH   1  10
BRANCH   5  34
ATOM     34  C   UNL     1       8.866  -3.311  -0.094  1.00  0.00     0.242 C 
ATOM     35  O   UNL     1       9.304  -3.423  -1.239  1.00  0.00    -0.273 OA
ATOM     36  N   UNL     1       8.668  -4.395   0.731  1.00  0.00    -0.354 N 
ATOM     37  H   UNL     1       8.190  -4.254   1.622  1.00  0.00     0.163 HD
BRANCH  36  38
ATOM     38  C   UNL     1       9.203  -5.706   0.427  1.00  0.00     0.116 C 
BRANCH  38  39
ATOM     39  C   UNL     1       8.118  -6.764   0.613  1.00  0.00     0.023 C 
BRANCH  39  40
ATOM     40  C   UNL     1       8.427  -8.054  -0.139  1.00  0.00     0.026 C 
BRANCH  40  41
ATOM     41  C   UNL     1       9.351  -8.953   0.683  1.00  0.00     0.146 C 
BRANCH  41  42
ATOM     42  N   UNL     1       8.768 -10.283   0.800  1.00  0.00    -0.254 NA
ATOM     43  C   UNL     1       8.668 -10.832   1.952  1.00  0.00     0.185 C 
ATOM     44  N   UNL     1       9.028 -10.371   3.164  1.00  0.00    -0.370 N 
ATOM     45  N   UNL     1       8.132 -12.061   2.037  1.00  0.00    -0.370 N 
ATOM     46  H   UNL     1       9.117 -10.999   3.945  1.00  0.00     0.159 HD
ATOM     47  H   UNL     1       9.438  -9.450   3.284  1.00  0.00     0.159 HD
ATOM     48  H   UNL     1       7.826 -12.478   1.169  1.00  0.00     0.159 HD
ATOM     49  H   UNL     1       7.805 -12.452   2.903  1.00  0.00     0.159 HD
ENDBRANCH  41  42
ENDBRANCH  40  41
ENDBRANCH  39  40
ENDBRANCH  38  39
ENDBRANCH  36  38
ENDBRANCH   5  34
BRANCH   8  50
ATOM     50  O   UNL     1      13.070  -2.190   1.806  1.00  0.00    -0.245 OA
BRANCH  50  51
ATOM     51  S   UNL     1      14.681  -2.413   1.839  1.00  0.00     0.397 S 
ATOM     52  O   UNL     1      14.945  -3.806   1.559  1.00  0.00    -0.169 OA
ATOM     53  O   UNL     1      15.239  -1.752   3.001  1.00  0.00    -0.169 OA
BRANCH  51  54
ATOM     54  O   UNL     1      15.158  -1.605   0.533  1.00  0.00    -0.264 OA
ATOM     55  H   UNL     1      14.417  -1.606  -0.106  1.00  0.00     0.236 HD
ENDBRANCH  51  54
ENDBRANCH  50  51
ENDBRANCH   8  50
TORSDOF 19
ENDMDL
MODEL 29
REMARK VINA RESULT:    -7.189      4.324      8.102
REMARK INTER + INTRA:         -17.779
REMARK INTER:                 -13.876
REMARK INTRA:                  -3.904
REMARK UNBOUND:                -3.236
REMARK SMILES CC[C@@H](C)[C@@H](NC(=O)[C@@H](O)Cc1ccc(O)c(Cl)c1)C(=O)N1[C@H](C(=O)NCCCCN=C(N)N)C[C@H]2CC[C@H](OS(=O)(=O)O)C[C@@H]21
REMARK SMILES IDX 22 1 36 2 46 3 35 4 23 5 45 6 37 7 39 8 38 9 20 10 21 11
REMARK SMILES IDX 5 12 6 13 7 14 8 15 9 17 11 18 12 19 17 20 19 21 15 22 14 23
REMARK SMILES IDX 13 24 18 25 16 26 10 28 3 30 4 31 2 32 1 33 24 34 25 35
REMARK SMILES IDX 26 36 27 38 28 39 29 40 30 41 31 42 32 43 33 44 34 45 40 50
REMARK SMILES IDX 41 51 42 52 43 53 44 54
REMARK H PARENT 6 16 16 27 10 29 26 37 33 46 33 47 34 48 34 49 44 55
ROOT
ATOM      1  N   UNL     1       7.810  -3.657   3.120  1.00  0.00    -0.326 N 
ATOM      2  C   UNL     1       6.140  -2.206   3.924  1.00  0.00     0.014 C 
ATOM      3  C   UNL     1       6.356  -3.583   3.291  1.00  0.00     0.091 C 
ATOM      4  C   UNL     1       7.224  -1.363   3.271  1.00  0.00     0.041 C 
ATOM      5  C   UNL     1       8.419  -2.328   3.375  1.00  0.00     0.175 C 
ATOM      6  C   UNL     1       5.677  -4.631   4.171  1.00  0.00     0.059 C 
ATOM      7  C   UNL     1       4.691  -1.776   3.805  1.00  0.00     0.008 C 
ATOM      8  C   UNL     1       4.415  -4.112   4.894  1.00  0.00     0.143 C 
ATOM      9  C   UNL     1       3.746  -2.951   4.130  1.00  0.00     0.034 C 
ENDROOT
BRANCH   1  10
ATOM     10  C   UNL     1       8.590  -4.664   2.577  1.00  0.00     0.246 C 
ATOM     11  O   UNL     1       9.263  -5.375   3.330  1.00  0.00    -0.272 OA
BRANCH  10  12
ATOM     12  C   UNL     1       8.569  -4.905   1.039  1.00  0.00     0.174 C 
BRANCH  12  13
ATOM     13  N   UNL     1       8.179  -3.678   0.347  1.00  0.00    -0.342 N 
ATOM     14  C   UNL     1       8.962  -3.001  -0.562  1.00  0.00     0.249 C 
ATOM     15  O   UNL     1      10.074  -3.374  -0.916  1.00  0.00    -0.272 OA
ATOM     16  H   UNL     1       7.355  -3.167   0.652  1.00  0.00     0.164 HD
BRANCH  14  17
ATOM     17  C   UNL     1       8.277  -1.729  -1.107  1.00  0.00     0.207 C 
BRANCH  17  18
ATOM     18  C   UNL     1       6.943  -2.082  -1.772  1.00  0.00     0.077 C 
BRANCH  18  19
ATOM     19  C   UNL     1       5.764  -1.689  -0.911  1.00  0.00    -0.043 A 
ATOM     20  C   UNL     1       4.768  -0.230   0.751  1.00  0.00     0.083 A 
ATOM     21  C   UNL     1       5.840  -0.561  -0.079  1.00  0.00     0.028 A 
ATOM     22  C   UNL     1       3.619  -1.021   0.757  1.00  0.00     0.134 A 
ATOM     23  C   UNL     1       3.531  -2.141  -0.062  1.00  0.00     0.048 A 
ATOM     24  C   UNL     1       4.602  -2.476  -0.892  1.00  0.00     0.008 A 
ATOM     25  Cl  UNL     1       4.880   1.160   1.767  1.00  0.00    -0.080 Cl
BRANCH  22  26
ATOM     26  O   UNL     1       2.547  -0.742   1.562  1.00  0.00    -0.506 OA
ATOM     27  H   UNL     1       2.780  -1.054   2.456  1.00  0.00     0.293 HD
ENDBRANCH  22  26
ENDBRANCH  18  19
ENDBRANCH  17  18
BRANCH  17  28
ATOM     28  O   UNL     1       9.119  -1.054  -2.055  1.00  0.00    -0.383 OA
ATOM     29  H   UNL     1       8.739  -0.153  -2.163  1.00  0.00     0.211 HD
ENDBRANCH  17  28
ENDBRANCH  14  17
ENDBRANCH  12  13
BRANCH  12  30
ATOM     30  C   UNL     1       7.689  -6.119   0.635  1.00  0.00     0.018 C 
ATOM     31  C   UNL     1       8.485  -7.107  -0.231  1.00  0.00     0.010 C 
BRANCH  30  32
ATOM     32  C   UNL     1       6.375  -5.722  -0.082  1.00  0.00     0.002 C 
ATOM     33  C   UNL     1       6.226  -6.245  -1.504  1.00  0.00     0.004 C 
ENDBRANCH  30  32
ENDBRANCH  12  30
ENDBRANCH  10  12
ENDBRANCH   1  10
BRANCH   5  34
ATOM     34  C   UNL     1       9.070  -2.283   4.783  1.00  0.00     0.242 C 
ATOM     35  O   UNL     1       9.846  -1.389   5.121  1.00  0.00    -0.273 OA
ATOM     36  N   UNL     1       8.760  -3.343   5.606  1.00  0.00    -0.354 N 
ATOM     37  H   UNL     1       8.208  -4.114   5.228  1.00  0.00     0.163 HD
BRANCH  36  38
ATOM     38  C   UNL     1       9.101  -3.354   7.014  1.00  0.00     0.116 C 
BRANCH  38  39
ATOM     39  C   UNL     1       7.867  -3.017   7.848  1.00  0.00     0.023 C 
BRANCH  39  40
ATOM     40  C   UNL     1       7.882  -1.580   8.356  1.00  0.00     0.026 C 
BRANCH  40  41
ATOM     41  C   UNL     1       7.392  -1.510   9.802  1.00  0.00     0.146 C 
BRANCH  41  42
ATOM     42  N   UNL     1       5.995  -1.100   9.830  1.00  0.00    -0.254 NA
ATOM     43  C   UNL     1       5.442  -0.811  10.947  1.00  0.00     0.185 C 
ATOM     44  N   UNL     1       5.952  -0.815  12.192  1.00  0.00    -0.370 N 
ATOM     45  N   UNL     1       4.151  -0.439  10.952  1.00  0.00    -0.370 N 
ATOM     46  H   UNL     1       5.346  -0.805  12.995  1.00  0.00     0.159 HD
ATOM     47  H   UNL     1       6.921  -1.060  12.370  1.00  0.00     0.159 HD
ATOM     48  H   UNL     1       3.692  -0.400  10.051  1.00  0.00     0.159 HD
ATOM     49  H   UNL     1       3.721   0.024  11.733  1.00  0.00     0.159 HD
ENDBRANCH  41  42
ENDBRANCH  40  41
ENDBRANCH  39  40
ENDBRANCH  38  39
ENDBRANCH  36  38
ENDBRANCH   5  34
BRANCH   8  50
ATOM     50  O   UNL     1       4.753  -3.657   6.205  1.00  0.00    -0.245 OA
BRANCH  50  51
ATOM     51  S   UNL     1       3.653  -3.759   7.399  1.00  0.00     0.397 S 
ATOM     52  O   UNL     1       3.419  -5.159   7.671  1.00  0.00    -0.169 OA
ATOM     53  O   UNL     1       2.563  -2.843   7.134  1.00  0.00    -0.169 OA
BRANCH  51  54
ATOM     54  O   UNL     1       4.476  -3.198   8.661  1.00  0.00    -0.264 OA
ATOM     55  H   UNL     1       4.354  -3.828   9.401  1.00  0.00     0.236 HD
ENDBRANCH  51  54
ENDBRANCH  50  51
ENDBRANCH   8  50
TORSDOF 19
ENDMDL
MODEL 30
REMARK VINA RESULT:    -7.158      4.204      6.957
REMARK INTER + INTRA:         -17.717
REMARK INTER:                 -15.659
REMARK INTRA:                  -2.057
REMARK UNBOUND:                -3.236
REMARK SMILES CC[C@@H](C)[C@@H](NC(=O)[C@@H](O)Cc1ccc(O)c(Cl)c1)C(=O)N1[C@H](C(=O)NCCCCN=C(N)N)C[C@H]2CC[C@H](OS(=O)(=O)O)C[C@@H]21
REMARK SMILES IDX 22 1 36 2 46 3 35 4 23 5 45 6 37 7 39 8 38 9 20 10 21 11
REMARK SMILES IDX 5 12 6 13 7 14 8 15 9 17 11 18 12 19 17 20 19 21 15 22 14 23
REMARK SMILES IDX 13 24 18 25 16 26 10 28 3 30 4 31 2 32 1 33 24 34 25 35
REMARK SMILES IDX 26 36 27 38 28 39 29 40 30 41 31 42 32 43 33 44 34 45 40 50
REMARK SMILES IDX 41 51 42 52 43 53 44 54
REMARK H PARENT 6 16 16 27 10 29 26 37 33 46 33 47 34 48 34 49 44 55
ROOT
ATOM      1  N   UNL     1       7.783  -2.301   1.746  1.00  0.00    -0.326 N 
ATOM      2  C   UNL     1       6.823  -1.249  -0.128  1.00  0.00     0.014 C 
ATOM      3  C   UNL     1       8.076  -1.993   0.344  1.00  0.00     0.091 C 
ATOM      4  C   UNL     1       6.405  -0.477   1.113  1.00  0.00     0.041 C 
ATOM      5  C   UNL     1       6.566  -1.573   2.183  1.00  0.00     0.175 C 
ATOM      6  C   UNL     1       8.337  -3.155  -0.614  1.00  0.00     0.059 C 
ATOM      7  C   UNL     1       7.093  -0.496  -1.416  1.00  0.00     0.008 C 
ATOM      8  C   UNL     1       7.898  -2.873  -2.067  1.00  0.00     0.143 C 
ATOM      9  C   UNL     1       7.911  -1.366  -2.394  1.00  0.00     0.034 C 
ENDROOT
BRANCH   1  10
ATOM     10  C   UNL     1       8.557  -2.949   2.694  1.00  0.00     0.246 C 
ATOM     11  O   UNL     1       8.540  -4.184   2.742  1.00  0.00    -0.272 OA
BRANCH  10  12
ATOM     12  C   UNL     1       9.463  -2.114   3.645  1.00  0.00     0.174 C 
BRANCH  12  13
ATOM     13  N   UNL     1       9.039  -0.715   3.636  1.00  0.00    -0.342 N 
ATOM     14  C   UNL     1       8.326  -0.098   4.640  1.00  0.00     0.249 C 
ATOM     15  O   UNL     1       7.988  -0.655   5.677  1.00  0.00    -0.272 OA
ATOM     16  H   UNL     1       9.110  -0.172   2.779  1.00  0.00     0.164 HD
BRANCH  14  17
ATOM     17  C   UNL     1       8.015   1.381   4.327  1.00  0.00     0.207 C 
BRANCH  17  18
ATOM     18  C   UNL     1       8.520   2.284   5.457  1.00  0.00     0.077 C 
BRANCH  18  19
ATOM     19  C   UNL     1       9.741   3.074   5.041  1.00  0.00    -0.043 A 
ATOM     20  C   UNL     1      11.280   4.914   5.404  1.00  0.00     0.083 A 
ATOM     21  C   UNL     1      10.183   4.157   5.817  1.00  0.00     0.028 A 
ATOM     22  C   UNL     1      11.940   4.596   4.217  1.00  0.00     0.134 A 
ATOM     23  C   UNL     1      11.514   3.527   3.438  1.00  0.00     0.048 A 
ATOM     24  C   UNL     1      10.415   2.768   3.848  1.00  0.00     0.008 A 
ATOM     25  Cl  UNL     1      11.807   6.241   6.371  1.00  0.00    -0.080 Cl
BRANCH  22  26
ATOM     26  O   UNL     1      13.013   5.316   3.766  1.00  0.00    -0.506 OA
ATOM     27  H   UNL     1      13.677   4.669   3.463  1.00  0.00     0.293 HD
ENDBRANCH  22  26
ENDBRANCH  18  19
ENDBRANCH  17  18
BRANCH  17  28
ATOM     28  O   UNL     1       6.604   1.586   4.148  1.00  0.00    -0.383 OA
ATOM     29  H   UNL     1       6.363   1.109   3.322  1.00  0.00     0.211 HD
ENDBRANCH  17  28
ENDBRANCH  14  17
ENDBRANCH  12  13
BRANCH  12  30
ATOM     30  C   UNL     1      10.974  -2.277   3.331  1.00  0.00     0.018 C 
ATOM     31  C   UNL     1      11.806  -1.226   4.083  1.00  0.00     0.010 C 
BRANCH  30  32
ATOM     32  C   UNL     1      11.303  -2.233   1.818  1.00  0.00     0.002 C 
ATOM     33  C   UNL     1      11.528  -0.842   1.241  1.00  0.00     0.004 C 
ENDBRANCH  30  32
ENDBRANCH  12  30
ENDBRANCH  10  12
ENDBRANCH   1  10
BRANCH   5  34
ATOM     34  C   UNL     1       5.339  -2.523   2.218  1.00  0.00     0.242 C 
ATOM     35  O   UNL     1       4.581  -2.654   1.257  1.00  0.00    -0.273 OA
ATOM     36  N   UNL     1       5.129  -3.165   3.418  1.00  0.00    -0.354 N 
ATOM     37  H   UNL     1       5.720  -2.923   4.214  1.00  0.00     0.163 HD
BRANCH  36  38
ATOM     38  C   UNL     1       4.170  -4.240   3.562  1.00  0.00     0.116 C 
BRANCH  38  39
ATOM     39  C   UNL     1       4.257  -4.827   4.969  1.00  0.00     0.023 C 
BRANCH  39  40
ATOM     40  C   UNL     1       4.284  -3.751   6.049  1.00  0.00     0.026 C 
BRANCH  40  41
ATOM     41  C   UNL     1       3.688  -4.278   7.354  1.00  0.00     0.146 C 
BRANCH  41  42
ATOM     42  N   UNL     1       3.582  -3.193   8.320  1.00  0.00    -0.254 NA
ATOM     43  C   UNL     1       2.461  -2.596   8.481  1.00  0.00     0.185 C 
ATOM     44  N   UNL     1       1.276  -2.803   7.878  1.00  0.00    -0.370 N 
ATOM     45  N   UNL     1       2.384  -1.595   9.373  1.00  0.00    -0.370 N 
ATOM     46  H   UNL     1       0.550  -2.108   7.920  1.00  0.00     0.159 HD
ATOM     47  H   UNL     1       1.152  -3.533   7.183  1.00  0.00     0.159 HD
ATOM     48  H   UNL     1       3.233  -1.380   9.879  1.00  0.00     0.159 HD
ATOM     49  H   UNL     1       1.511  -1.245   9.724  1.00  0.00     0.159 HD
ENDBRANCH  41  42
ENDBRANCH  40  41
ENDBRANCH  39  40
ENDBRANCH  38  39
ENDBRANCH  36  38
ENDBRANCH   5  34
BRANCH   8  50
ATOM     50  O   UNL     1       6.578  -3.373  -2.286  1.00  0.00    -0.245 OA
BRANCH  50  51
ATOM     51  S   UNL     1       6.300  -4.387  -3.527  1.00  0.00     0.397 S 
ATOM     52  O   UNL     1       7.213  -4.046  -4.595  1.00  0.00    -0.169 OA
ATOM     53  O   UNL     1       4.874  -4.497  -3.754  1.00  0.00    -0.169 OA
BRANCH  51  54
ATOM     54  O   UNL     1       6.819  -5.790  -2.938  1.00  0.00    -0.264 OA
ATOM     55  H   UNL     1       7.757  -5.894  -3.199  1.00  0.00     0.236 HD
ENDBRANCH  51  54
ENDBRANCH  50  51
ENDBRANCH   8  50
TORSDOF 19
ENDMDL
MODEL 31
REMARK VINA RESULT:    -7.157      3.770      6.336
REMARK INTER + INTRA:         -17.715
REMARK INTER:                 -15.124
REMARK INTRA:                  -2.591
REMARK UNBOUND:                -3.236
REMARK SMILES CC[C@@H](C)[C@@H](NC(=O)[C@@H](O)Cc1ccc(O)c(Cl)c1)C(=O)N1[C@H](C(=O)NCCCCN=C(N)N)C[C@H]2CC[C@H](OS(=O)(=O)O)C[C@@H]21
REMARK SMILES IDX 22 1 36 2 46 3 35 4 23 5 45 6 37 7 39 8 38 9 20 10 21 11
REMARK SMILES IDX 5 12 6 13 7 14 8 15 9 17 11 18 12 19 17 20 19 21 15 22 14 23
REMARK SMILES IDX 13 24 18 25 16 26 10 28 3 30 4 31 2 32 1 33 24 34 25 35
REMARK SMILES IDX 26 36 27 38 28 39 29 40 30 41 31 42 32 43 33 44 34 45 40 50
REMARK SMILES IDX 41 51 42 52 43 53 44 54
REMARK H PARENT 6 16 16 27 10 29 26 37 33 46 33 47 34 48 34 49 44 55
ROOT
ATOM      1  N   UNL     1       9.055  -2.750   1.131  1.00  0.00    -0.326 N 
ATOM      2  C   UNL     1       7.102  -2.425   2.405  1.00  0.00     0.014 C 
ATOM      3  C   UNL     1       8.205  -1.676   1.652  1.00  0.00     0.091 C 
ATOM      4  C   UNL     1       7.840  -3.629   2.969  1.00  0.00     0.041 C 
ATOM      5  C   UNL     1       8.663  -4.047   1.736  1.00  0.00     0.175 C 
ATOM      6  C   UNL     1       7.548  -0.723   0.655  1.00  0.00     0.059 C 
ATOM      7  C   UNL     1       6.363  -1.497   3.349  1.00  0.00     0.008 C 
ATOM      8  C   UNL     1       6.185  -0.172   1.128  1.00  0.00     0.143 C 
ATOM      9  C   UNL     1       6.074  -0.144   2.666  1.00  0.00     0.034 C 
ENDROOT
BRANCH   1  10
ATOM     10  C   UNL     1      10.219  -2.678   0.384  1.00  0.00     0.246 C 
ATOM     11  O   UNL     1      10.139  -2.560  -0.843  1.00  0.00    -0.272 OA
BRANCH  10  12
ATOM     12  C   UNL     1      11.596  -2.705   1.107  1.00  0.00     0.174 C 
BRANCH  12  13
ATOM     13  N   UNL     1      12.021  -1.341   1.421  1.00  0.00    -0.342 N 
ATOM     14  C   UNL     1      12.303  -0.872   2.685  1.00  0.00     0.249 C 
ATOM     15  O   UNL     1      12.256  -1.563   3.695  1.00  0.00    -0.272 OA
ATOM     16  H   UNL     1      11.955  -0.617   0.710  1.00  0.00     0.164 HD
BRANCH  14  17
ATOM     17  C   UNL     1      12.708   0.617   2.691  1.00  0.00     0.207 C 
BRANCH  17  18
ATOM     18  C   UNL     1      11.571   1.484   2.141  1.00  0.00     0.077 C 
BRANCH  18  19
ATOM     19  C   UNL     1      10.805   2.175   3.247  1.00  0.00    -0.043 A 
ATOM     20  C   UNL     1       9.022   2.168   4.891  1.00  0.00     0.083 A 
ATOM     21  C   UNL     1       9.758   1.511   3.905  1.00  0.00     0.028 A 
ATOM     22  C   UNL     1       9.324   3.489   5.224  1.00  0.00     0.134 A 
ATOM     23  C   UNL     1      10.359   4.158   4.581  1.00  0.00     0.048 A 
ATOM     24  C   UNL     1      11.097   3.503   3.592  1.00  0.00     0.008 A 
ATOM     25  Cl  UNL     1       7.738   1.336   5.687  1.00  0.00    -0.080 Cl
BRANCH  22  26
ATOM     26  O   UNL     1       8.623   4.178   6.176  1.00  0.00    -0.506 OA
ATOM     27  H   UNL     1       7.845   3.635   6.399  1.00  0.00     0.293 HD
ENDBRANCH  22  26
ENDBRANCH  18  19
ENDBRANCH  17  18
BRANCH  17  28
ATOM     28  O   UNL     1      13.894   0.834   1.908  1.00  0.00    -0.383 OA
ATOM     29  H   UNL     1      14.536   1.282   2.505  1.00  0.00     0.211 HD
ENDBRANCH  17  28
ENDBRANCH  14  17
ENDBRANCH  12  13
BRANCH  12  30
ATOM     30  C   UNL     1      12.674  -3.493   0.316  1.00  0.00     0.018 C 
ATOM     31  C   UNL     1      13.400  -4.494   1.229  1.00  0.00     0.010 C 
BRANCH  30  32
ATOM     32  C   UNL     1      13.703  -2.588  -0.405  1.00  0.00     0.002 C 
ATOM     33  C   UNL     1      14.272  -3.153  -1.700  1.00  0.00     0.004 C 
ENDBRANCH  30  32
ENDBRANCH  12  30
ENDBRANCH  10  12
ENDBRANCH   1  10
BRANCH   5  34
ATOM     34  C   UNL     1       7.817  -4.885   0.741  1.00  0.00     0.242 C 
ATOM     35  O   UNL     1       7.929  -6.108   0.650  1.00  0.00    -0.273 OA
ATOM     36  N   UNL     1       6.972  -4.158  -0.067  1.00  0.00    -0.354 N 
ATOM     37  H   UNL     1       7.012  -3.139  -0.028  1.00  0.00     0.163 HD
BRANCH  36  38
ATOM     38  C   UNL     1       5.963  -4.785  -0.894  1.00  0.00     0.116 C 
BRANCH  38  39
ATOM     39  C   UNL     1       5.131  -3.716  -1.598  1.00  0.00     0.023 C 
BRANCH  39  40
ATOM     40  C   UNL     1       5.401  -3.661  -3.098  1.00  0.00     0.026 C 
BRANCH  40  41
ATOM     41  C   UNL     1       6.079  -4.946  -3.574  1.00  0.00     0.146 C 
BRANCH  41  42
ATOM     42  N   UNL     1       6.553  -4.775  -4.941  1.00  0.00    -0.254 NA
ATOM     43  C   UNL     1       6.112  -5.543  -5.865  1.00  0.00     0.185 C 
ATOM     44  N   UNL     1       5.224  -6.552  -5.802  1.00  0.00    -0.370 N 
ATOM     45  N   UNL     1       6.565  -5.372  -7.118  1.00  0.00    -0.370 N 
ATOM     46  H   UNL     1       5.155  -7.222  -6.548  1.00  0.00     0.159 HD
ATOM     47  H   UNL     1       4.771  -6.809  -4.930  1.00  0.00     0.159 HD
ATOM     48  H   UNL     1       7.233  -4.625  -7.255  1.00  0.00     0.159 HD
ATOM     49  H   UNL     1       6.104  -5.761  -7.921  1.00  0.00     0.159 HD
ENDBRANCH  41  42
ENDBRANCH  40  41
ENDBRANCH  39  40
ENDBRANCH  38  39
ENDBRANCH  36  38
ENDBRANCH   5  34
BRANCH   8  50
ATOM     50  O   UNL     1       5.125  -0.976   0.611  1.00  0.00    -0.245 OA
BRANCH  50  51
ATOM     51  S   UNL     1       3.672  -0.303   0.327  1.00  0.00     0.397 S 
ATOM     52  O   UNL     1       3.149  -0.870  -0.896  1.00  0.00    -0.169 OA
ATOM     53  O   UNL     1       3.752   1.129   0.527  1.00  0.00    -0.169 OA
BRANCH  51  54
ATOM     54  O   UNL     1       2.778  -0.920   1.513  1.00  0.00    -0.264 OA
ATOM     55  H   UNL     1       1.856  -0.981   1.192  1.00  0.00     0.236 HD
ENDBRANCH  51  54
ENDBRANCH  50  51
ENDBRANCH   8  50
TORSDOF 19
ENDMDL
MODEL 32
REMARK VINA RESULT:    -7.143      3.981      6.885
REMARK INTER + INTRA:         -17.686
REMARK INTER:                 -13.840
REMARK INTRA:                  -3.846
REMARK UNBOUND:                -3.236
REMARK SMILES CC[C@@H](C)[C@@H](NC(=O)[C@@H](O)Cc1ccc(O)c(Cl)c1)C(=O)N1[C@H](C(=O)NCCCCN=C(N)N)C[C@H]2CC[C@H](OS(=O)(=O)O)C[C@@H]21
REMARK SMILES IDX 22 1 36 2 46 3 35 4 23 5 45 6 37 7 39 8 38 9 20 10 21 11
REMARK SMILES IDX 5 12 6 13 7 14 8 15 9 17 11 18 12 19 17 20 19 21 15 22 14 23
REMARK SMILES IDX 13 24 18 25 16 26 10 28 3 30 4 31 2 32 1 33 24 34 25 35
REMARK SMILES IDX 26 36 27 38 28 39 29 40 30 41 31 42 32 43 33 44 34 45 40 50
REMARK SMILES IDX 41 51 42 52 43 53 44 54
REMARK H PARENT 6 16 16 27 10 29 26 37 33 46 33 47 34 48 34 49 44 55
ROOT
ATOM      1  N   UNL     1       4.612  -3.081  -0.342  1.00  0.00    -0.326 N 
ATOM      2  C   UNL     1       5.222  -5.347  -0.165  1.00  0.00     0.014 C 
ATOM      3  C   UNL     1       5.406  -4.100  -1.033  1.00  0.00     0.091 C 
ATOM      4  C   UNL     1       3.791  -5.203   0.330  1.00  0.00     0.041 C 
ATOM      5  C   UNL     1       3.786  -3.712   0.717  1.00  0.00     0.175 C 
ATOM      6  C   UNL     1       6.903  -3.853  -1.212  1.00  0.00     0.059 C 
ATOM      7  C   UNL     1       5.624  -6.598  -0.921  1.00  0.00     0.008 C 
ATOM      8  C   UNL     1       7.749  -5.145  -1.224  1.00  0.00     0.143 C 
ATOM      9  C   UNL     1       6.936  -6.365  -1.700  1.00  0.00     0.034 C 
ENDROOT
BRANCH   1  10
ATOM     10  C   UNL     1       4.385  -1.755  -0.673  1.00  0.00     0.246 C 
ATOM     11  O   UNL     1       3.577  -1.489  -1.568  1.00  0.00    -0.272 OA
BRANCH  10  12
ATOM     12  C   UNL     1       5.119  -0.632   0.115  1.00  0.00     0.174 C 
BRANCH  12  13
ATOM     13  N   UNL     1       6.487  -1.049   0.422  1.00  0.00    -0.342 N 
ATOM     14  C   UNL     1       7.598  -0.725  -0.322  1.00  0.00     0.249 C 
ATOM     15  O   UNL     1       7.566  -0.018  -1.322  1.00  0.00    -0.272 OA
ATOM     16  H   UNL     1       6.649  -1.764   1.128  1.00  0.00     0.164 HD
BRANCH  14  17
ATOM     17  C   UNL     1       8.897  -1.331   0.250  1.00  0.00     0.207 C 
BRANCH  17  18
ATOM     18  C   UNL     1       9.674  -0.278   1.047  1.00  0.00     0.077 C 
BRANCH  18  19
ATOM     19  C   UNL     1       9.244  -0.239   2.496  1.00  0.00    -0.043 A 
ATOM     20  C   UNL     1       8.244  -1.322   4.422  1.00  0.00     0.083 A 
ATOM     21  C   UNL     1       8.685  -1.376   3.099  1.00  0.00     0.028 A 
ATOM     22  C   UNL     1       8.357  -0.135   5.148  1.00  0.00     0.134 A 
ATOM     23  C   UNL     1       8.910   0.998   4.563  1.00  0.00     0.048 A 
ATOM     24  C   UNL     1       9.350   0.948   3.238  1.00  0.00     0.008 A 
ATOM     25  Cl  UNL     1       7.559  -2.729   5.146  1.00  0.00    -0.080 Cl
BRANCH  22  26
ATOM     26  O   UNL     1       7.930  -0.031   6.444  1.00  0.00    -0.506 OA
ATOM     27  H   UNL     1       8.253  -0.824   6.910  1.00  0.00     0.293 HD
ENDBRANCH  22  26
ENDBRANCH  18  19
ENDBRANCH  17  18
BRANCH  17  28
ATOM     28  O   UNL     1       9.732  -1.848  -0.798  1.00  0.00    -0.383 OA
ATOM     29  H   UNL     1      10.262  -1.086  -1.125  1.00  0.00     0.211 HD
ENDBRANCH  17  28
ENDBRANCH  14  17
ENDBRANCH  12  13
BRANCH  12  30
ATOM     30  C   UNL     1       4.340  -0.179   1.379  1.00  0.00     0.018 C 
ATOM     31  C   UNL     1       3.657   1.177   1.144  1.00  0.00     0.010 C 
BRANCH  30  32
ATOM     32  C   UNL     1       5.210  -0.121   2.658  1.00  0.00     0.002 C 
ATOM     33  C   UNL     1       5.580   1.279   3.131  1.00  0.00     0.004 C 
ENDBRANCH  30  32
ENDBRANCH  12  30
ENDBRANCH  10  12
ENDBRANCH   1  10
BRANCH   5  34
ATOM     34  C   UNL     1       4.416  -3.483   2.117  1.00  0.00     0.242 C 
ATOM     35  O   UNL     1       5.627  -3.325   2.275  1.00  0.00    -0.273 OA
ATOM     36  N   UNL     1       3.532  -3.524   3.171  1.00  0.00    -0.354 N 
ATOM     37  H   UNL     1       2.560  -3.778   2.988  1.00  0.00     0.163 HD
BRANCH  36  38
ATOM     38  C   UNL     1       3.906  -3.120   4.511  1.00  0.00     0.116 C 
BRANCH  38  39
ATOM     39  C   UNL     1       4.195  -4.354   5.362  1.00  0.00     0.023 C 
BRANCH  39  40
ATOM     40  C   UNL     1       4.540  -3.999   6.805  1.00  0.00     0.026 C 
BRANCH  40  41
ATOM     41  C   UNL     1       3.272  -3.734   7.616  1.00  0.00     0.146 C 
BRANCH  41  42
ATOM     42  N   UNL     1       3.111  -4.769   8.629  1.00  0.00    -0.254 NA
ATOM     43  C   UNL     1       2.309  -4.576   9.609  1.00  0.00     0.185 C 
ATOM     44  N   UNL     1       1.530  -3.517   9.894  1.00  0.00    -0.370 N 
ATOM     45  N   UNL     1       2.178  -5.541  10.534  1.00  0.00    -0.370 N 
ATOM     46  H   UNL     1       1.142  -3.399  10.814  1.00  0.00     0.159 HD
ATOM     47  H   UNL     1       1.496  -2.702   9.290  1.00  0.00     0.159 HD
ATOM     48  H   UNL     1       2.725  -6.379  10.390  1.00  0.00     0.159 HD
ATOM     49  H   UNL     1       1.414  -5.570  11.185  1.00  0.00     0.159 HD
ENDBRANCH  41  42
ENDBRANCH  40  41
ENDBRANCH  39  40
ENDBRANCH  38  39
ENDBRANCH  36  38
ENDBRANCH   5  34
BRANCH   8  50
ATOM     50  O   UNL     1       8.249  -5.415   0.086  1.00  0.00    -0.245 OA
BRANCH  50  51
ATOM     51  S   UNL     1       9.854  -5.449   0.342  1.00  0.00     0.397 S 
ATOM     52  O   UNL     1      10.078  -5.515   1.768  1.00  0.00    -0.169 OA
ATOM     53  O   UNL     1      10.499  -4.448  -0.483  1.00  0.00    -0.169 OA
BRANCH  51  54
ATOM     54  O   UNL     1      10.255  -6.897  -0.232  1.00  0.00    -0.264 OA
ATOM     55  H   UNL     1      11.156  -7.106   0.089  1.00  0.00     0.236 HD
ENDBRANCH  51  54
ENDBRANCH  50  51
ENDBRANCH   8  50
TORSDOF 19
ENDMDL
MODEL 33
REMARK VINA RESULT:    -7.119      4.381      9.287
REMARK INTER + INTRA:         -17.637
REMARK INTER:                 -15.355
REMARK INTRA:                  -2.282
REMARK UNBOUND:                -3.236
REMARK SMILES CC[C@@H](C)[C@@H](NC(=O)[C@@H](O)Cc1ccc(O)c(Cl)c1)C(=O)N1[C@H](C(=O)NCCCCN=C(N)N)C[C@H]2CC[C@H](OS(=O)(=O)O)C[C@@H]21
REMARK SMILES IDX 22 1 36 2 46 3 35 4 23 5 45 6 37 7 39 8 38 9 20 10 21 11
REMARK SMILES IDX 5 12 6 13 7 14 8 15 9 17 11 18 12 19 17 20 19 21 15 22 14 23
REMARK SMILES IDX 13 24 18 25 16 26 10 28 3 30 4 31 2 32 1 33 24 34 25 35
REMARK SMILES IDX 26 36 27 38 28 39 29 40 30 41 31 42 32 43 33 44 34 45 40 50
REMARK SMILES IDX 41 51 42 52 43 53 44 54
REMARK H PARENT 6 16 16 27 10 29 26 37 33 46 33 47 34 48 34 49 44 55
ROOT
ATOM      1  N   UNL     1       5.844  -2.226  -1.024  1.00  0.00    -0.326 N 
ATOM      2  C   UNL     1       6.442  -0.673   0.642  1.00  0.00     0.014 C 
ATOM      3  C   UNL     1       5.302  -1.584   0.178  1.00  0.00     0.091 C 
ATOM      4  C   UNL     1       7.067  -0.224  -0.670  1.00  0.00     0.041 C 
ATOM      5  C   UNL     1       7.111  -1.565  -1.425  1.00  0.00     0.175 C 
ATOM      6  C   UNL     1       4.887  -2.473   1.349  1.00  0.00     0.059 C 
ATOM      7  C   UNL     1       5.939   0.369   1.621  1.00  0.00     0.008 C 
ATOM      8  C   UNL     1       5.058  -1.802   2.729  1.00  0.00     0.143 C 
ATOM      9  C   UNL     1       4.970  -0.265   2.641  1.00  0.00     0.034 C 
ENDROOT
BRANCH   1  10
ATOM     10  C   UNL     1       5.257  -3.138  -1.884  1.00  0.00     0.246 C 
ATOM     11  O   UNL     1       4.214  -2.829  -2.468  1.00  0.00    -0.272 OA
BRANCH  10  12
ATOM     12  C   UNL     1       5.945  -4.513  -2.128  1.00  0.00     0.174 C 
BRANCH  12  13
ATOM     13  N   UNL     1       5.431  -5.116  -3.358  1.00  0.00    -0.342 N 
ATOM     14  C   UNL     1       5.995  -4.969  -4.605  1.00  0.00     0.249 C 
ATOM     15  O   UNL     1       7.018  -4.331  -4.820  1.00  0.00    -0.272 OA
ATOM     16  H   UNL     1       4.507  -5.540  -3.362  1.00  0.00     0.164 HD
BRANCH  14  17
ATOM     17  C   UNL     1       5.209  -5.714  -5.705  1.00  0.00     0.207 C 
BRANCH  17  18
ATOM     18  C   UNL     1       5.327  -4.975  -7.042  1.00  0.00     0.077 C 
BRANCH  18  19
ATOM     19  C   UNL     1       6.186  -5.733  -8.029  1.00  0.00    -0.043 A 
ATOM     20  C   UNL     1       6.393  -7.323  -9.850  1.00  0.00     0.083 A 
ATOM     21  C   UNL     1       5.595  -6.587  -8.973  1.00  0.00     0.028 A 
ATOM     22  C   UNL     1       7.783  -7.212  -9.788  1.00  0.00     0.134 A 
ATOM     23  C   UNL     1       8.381  -6.371  -8.858  1.00  0.00     0.048 A 
ATOM     24  C   UNL     1       7.585  -5.634  -7.978  1.00  0.00     0.008 A 
ATOM     25  Cl  UNL     1       5.648  -8.366 -11.003  1.00  0.00    -0.080 Cl
BRANCH  22  26
ATOM     26  O   UNL     1       8.606  -7.922 -10.620  1.00  0.00    -0.506 OA
ATOM     27  H   UNL     1       8.171  -8.779 -10.781  1.00  0.00     0.293 HD
ENDBRANCH  22  26
ENDBRANCH  18  19
ENDBRANCH  17  18
BRANCH  17  28
ATOM     28  O   UNL     1       3.822  -5.843  -5.353  1.00  0.00    -0.383 OA
ATOM     29  H   UNL     1       3.804  -6.076  -4.397  1.00  0.00     0.211 HD
ENDBRANCH  17  28
ENDBRANCH  14  17
ENDBRANCH  12  13
BRANCH  12  30
ATOM     30  C   UNL     1       5.830  -5.466  -0.908  1.00  0.00     0.018 C 
ATOM     31  C   UNL     1       6.774  -6.669  -1.064  1.00  0.00     0.010 C 
BRANCH  30  32
ATOM     32  C   UNL     1       4.387  -5.955  -0.634  1.00  0.00     0.002 C 
ATOM     33  C   UNL     1       3.713  -5.343   0.587  1.00  0.00     0.004 C 
ENDBRANCH  30  32
ENDBRANCH  12  30
ENDBRANCH  10  12
ENDBRANCH   1  10
BRANCH   5  34
ATOM     34  C   UNL     1       8.335  -2.420  -1.000  1.00  0.00     0.242 C 
ATOM     35  O   UNL     1       8.566  -3.526  -1.489  1.00  0.00    -0.273 OA
ATOM     36  N   UNL     1       9.111  -1.877  -0.001  1.00  0.00    -0.354 N 
ATOM     37  H   UNL     1       8.801  -1.014   0.448  1.00  0.00     0.163 HD
BRANCH  36  38
ATOM     38  C   UNL     1      10.399  -2.428   0.364  1.00  0.00     0.116 C 
BRANCH  38  39
ATOM     39  C   UNL     1      10.778  -1.972   1.771  1.00  0.00     0.023 C 
BRANCH  39  40
ATOM     40  C   UNL     1       9.576  -1.906   2.706  1.00  0.00     0.026 C 
BRANCH  40  41
ATOM     41  C   UNL     1       9.811  -0.886   3.820  1.00  0.00     0.146 C 
BRANCH  41  42
ATOM     42  N   UNL     1       8.823   0.181   3.727  1.00  0.00    -0.254 NA
ATOM     43  C   UNL     1       8.288   0.643   4.795  1.00  0.00     0.185 C 
ATOM     44  N   UNL     1       8.485   0.300   6.081  1.00  0.00    -0.370 N 
ATOM     45  N   UNL     1       7.376   1.624   4.687  1.00  0.00    -0.370 N 
ATOM     46  H   UNL     1       7.826   0.569   6.790  1.00  0.00     0.159 HD
ATOM     47  H   UNL     1       9.153  -0.418   6.344  1.00  0.00     0.159 HD
ATOM     48  H   UNL     1       7.175   1.948   3.751  1.00  0.00     0.159 HD
ATOM     49  H   UNL     1       7.094   2.192   5.466  1.00  0.00     0.159 HD
ENDBRANCH  41  42
ENDBRANCH  40  41
ENDBRANCH  39  40
ENDBRANCH  38  39
ENDBRANCH  36  38
ENDBRANCH   5  34
BRANCH   8  50
ATOM     50  O   UNL     1       6.322  -2.153   3.292  1.00  0.00    -0.245 OA
BRANCH  50  51
ATOM     51  S   UNL     1       6.379  -3.104   4.610  1.00  0.00     0.397 S 
ATOM     52  O   UNL     1       7.131  -2.409   5.630  1.00  0.00    -0.169 OA
ATOM     53  O   UNL     1       6.704  -4.460   4.217  1.00  0.00    -0.169 OA
BRANCH  51  54
ATOM     54  O   UNL     1       4.849  -3.085   5.104  1.00  0.00    -0.264 OA
ATOM     55  H   UNL     1       4.403  -2.331   4.666  1.00  0.00     0.236 HD
ENDBRANCH  51  54
ENDBRANCH  50  51
ENDBRANCH   8  50
TORSDOF 19
ENDMDL
MODEL 34
REMARK VINA RESULT:    -7.113      3.526      6.768
REMARK INTER + INTRA:         -17.626
REMARK INTER:                 -13.785
REMARK INTRA:                  -3.841
REMARK UNBOUND:                -3.236
REMARK SMILES CC[C@@H](C)[C@@H](NC(=O)[C@@H](O)Cc1ccc(O)c(Cl)c1)C(=O)N1[C@H](C(=O)NCCCCN=C(N)N)C[C@H]2CC[C@H](OS(=O)(=O)O)C[C@@H]21
REMARK SMILES IDX 22 1 36 2 46 3 35 4 23 5 45 6 37 7 39 8 38 9 20 10 21 11
REMARK SMILES IDX 5 12 6 13 7 14 8 15 9 17 11 18 12 19 17 20 19 21 15 22 14 23
REMARK SMILES IDX 13 24 18 25 16 26 10 28 3 30 4 31 2 32 1 33 24 34 25 35
REMARK SMILES IDX 26 36 27 38 28 39 29 40 30 41 31 42 32 43 33 44 34 45 40 50
REMARK SMILES IDX 41 51 42 52 43 53 44 54
REMARK H PARENT 6 16 16 27 10 29 26 37 33 46 33 47 34 48 34 49 44 55
ROOT
ATOM      1  N   UNL     1       8.988  -0.797   1.304  1.00  0.00    -0.326 N 
ATOM      2  C   UNL     1       6.635  -0.724   1.305  1.00  0.00     0.014 C 
ATOM      3  C   UNL     1       7.858  -0.587   0.394  1.00  0.00     0.091 C 
ATOM      4  C   UNL     1       7.127  -0.135   2.618  1.00  0.00     0.041 C 
ATOM      5  C   UNL     1       8.515  -0.797   2.711  1.00  0.00     0.175 C 
ATOM      6  C   UNL     1       7.691  -1.542  -0.786  1.00  0.00     0.059 C 
ATOM      7  C   UNL     1       5.400  -0.142   0.646  1.00  0.00     0.008 C 
ATOM      8  C   UNL     1       6.221  -1.760  -1.206  1.00  0.00     0.143 C 
ATOM      9  C   UNL     1       5.330  -0.556  -0.839  1.00  0.00     0.034 C 
ENDROOT
BRANCH   1  10
ATOM     10  C   UNL     1      10.349  -0.771   1.051  1.00  0.00     0.246 C 
ATOM     11  O   UNL     1      10.959   0.298   1.150  1.00  0.00    -0.272 OA
BRANCH  10  12
ATOM     12  C   UNL     1      11.087  -2.093   0.688  1.00  0.00     0.174 C 
BRANCH  12  13
ATOM     13  N   UNL     1      10.229  -3.240   0.984  1.00  0.00    -0.342 N 
ATOM     14  C   UNL     1      10.348  -4.485   0.408  1.00  0.00     0.249 C 
ATOM     15  O   UNL     1      11.214  -4.780  -0.406  1.00  0.00    -0.272 OA
ATOM     16  H   UNL     1       9.375  -3.106   1.519  1.00  0.00     0.164 HD
BRANCH  14  17
ATOM     17  C   UNL     1       9.282  -5.480   0.915  1.00  0.00     0.207 C 
BRANCH  17  18
ATOM     18  C   UNL     1       9.373  -6.801   0.145  1.00  0.00     0.077 C 
BRANCH  18  19
ATOM     19  C   UNL     1       9.453  -7.990   1.075  1.00  0.00    -0.043 A 
ATOM     20  C   UNL     1       9.054 -10.340   1.523  1.00  0.00     0.083 A 
ATOM     21  C   UNL     1       9.024  -9.256   0.646  1.00  0.00     0.028 A 
ATOM     22  C   UNL     1       9.509 -10.168   2.831  1.00  0.00     0.134 A 
ATOM     23  C   UNL     1       9.937  -8.921   3.269  1.00  0.00     0.048 A 
ATOM     24  C   UNL     1       9.907  -7.833   2.394  1.00  0.00     0.008 A 
ATOM     25  Cl  UNL     1       8.522 -11.887   0.978  1.00  0.00    -0.080 Cl
BRANCH  22  26
ATOM     26  O   UNL     1       9.547 -11.200   3.730  1.00  0.00    -0.506 OA
ATOM     27  H   UNL     1       8.732 -11.136   4.263  1.00  0.00     0.293 HD
ENDBRANCH  22  26
ENDBRANCH  18  19
ENDBRANCH  17  18
BRANCH  17  28
ATOM     28  O   UNL     1       7.959  -4.937   0.776  1.00  0.00    -0.383 OA
ATOM     29  H   UNL     1       7.340  -5.680   0.955  1.00  0.00     0.211 HD
ENDBRANCH  17  28
ENDBRANCH  14  17
ENDBRANCH  12  13
BRANCH  12  30
ATOM     30  C   UNL     1      12.481  -2.206   1.362  1.00  0.00     0.018 C 
ATOM     31  C   UNL     1      12.455  -1.603   2.775  1.00  0.00     0.010 C 
BRANCH  30  32
ATOM     32  C   UNL     1      13.625  -1.572   0.534  1.00  0.00     0.002 C 
ATOM     33  C   UNL     1      14.255  -2.484  -0.510  1.00  0.00     0.004 C 
ENDBRANCH  30  32
ENDBRANCH  12  30
ENDBRANCH  10  12
ENDBRANCH   1  10
BRANCH   5  34
ATOM     34  C   UNL     1       8.422  -2.245   3.261  1.00  0.00     0.242 C 
ATOM     35  O   UNL     1       9.383  -2.814   3.779  1.00  0.00    -0.273 OA
ATOM     36  N   UNL     1       7.206  -2.864   3.078  1.00  0.00    -0.354 N 
ATOM     37  H   UNL     1       6.487  -2.385   2.535  1.00  0.00     0.163 HD
BRANCH  36  38
ATOM     38  C   UNL     1       6.876  -4.123   3.714  1.00  0.00     0.116 C 
BRANCH  38  39
ATOM     39  C   UNL     1       5.612  -3.964   4.554  1.00  0.00     0.023 C 
BRANCH  39  40
ATOM     40  C   UNL     1       4.980  -2.585   4.402  1.00  0.00     0.026 C 
BRANCH  40  41
ATOM     41  C   UNL     1       3.488  -2.703   4.094  1.00  0.00     0.146 C 
BRANCH  41  42
ATOM     42  N   UNL     1       3.234  -2.289   2.720  1.00  0.00    -0.254 NA
ATOM     43  C   UNL     1       3.054  -3.177   1.815  1.00  0.00     0.185 C 
ATOM     44  N   UNL     1       3.056  -4.519   1.907  1.00  0.00    -0.370 N 
ATOM     45  N   UNL     1       2.826  -2.775   0.554  1.00  0.00    -0.370 N 
ATOM     46  H   UNL     1       3.146  -5.089   1.083  1.00  0.00     0.159 HD
ATOM     47  H   UNL     1       3.201  -4.993   2.793  1.00  0.00     0.159 HD
ATOM     48  H   UNL     1       2.800  -1.776   0.399  1.00  0.00     0.159 HD
ATOM     49  H   UNL     1       2.447  -3.383  -0.150  1.00  0.00     0.159 HD
ENDBRANCH  41  42
ENDBRANCH  40  41
ENDBRANCH  39  40
ENDBRANCH  38  39
ENDBRANCH  36  38
ENDBRANCH   5  34
BRANCH   8  50
ATOM     50  O   UNL     1       5.697  -2.924  -0.567  1.00  0.00    -0.245 OA
BRANCH  50  51
ATOM     51  S   UNL     1       5.472  -4.282  -1.434  1.00  0.00     0.397 S 
ATOM     52  O   UNL     1       4.436  -5.057  -0.789  1.00  0.00    -0.169 OA
ATOM     53  O   UNL     1       6.756  -4.862  -1.770  1.00  0.00    -0.169 OA
BRANCH  51  54
ATOM     54  O   UNL     1       4.816  -3.713  -2.786  1.00  0.00    -0.264 OA
ATOM     55  H   UNL     1       4.229  -4.408  -3.149  1.00  0.00     0.236 HD
ENDBRANCH  51  54
ENDBRANCH  50  51
ENDBRANCH   8  50
TORSDOF 19
ENDMDL
MODEL 35
REMARK VINA RESULT:    -7.096      3.880      8.517
REMARK INTER + INTRA:         -17.591
REMARK INTER:                 -13.506
REMARK INTRA:                  -4.084
REMARK UNBOUND:                -3.236
REMARK SMILES CC[C@@H](C)[C@@H](NC(=O)[C@@H](O)Cc1ccc(O)c(Cl)c1)C(=O)N1[C@H](C(=O)NCCCCN=C(N)N)C[C@H]2CC[C@H](OS(=O)(=O)O)C[C@@H]21
REMARK SMILES IDX 22 1 36 2 46 3 35 4 23 5 45 6 37 7 39 8 38 9 20 10 21 11
REMARK SMILES IDX 5 12 6 13 7 14 8 15 9 17 11 18 12 19 17 20 19 21 15 22 14 23
REMARK SMILES IDX 13 24 18 25 16 26 10 28 3 30 4 31 2 32 1 33 24 34 25 35
REMARK SMILES IDX 26 36 27 38 28 39 29 40 30 41 31 42 32 43 33 44 34 45 40 50
REMARK SMILES IDX 41 51 42 52 43 53 44 54
REMARK H PARENT 6 16 16 27 10 29 26 37 33 46 33 47 34 48 34 49 44 55
ROOT
ATOM      1  N   UNL     1       8.359  -2.696   2.257  1.00  0.00    -0.326 N 
ATOM      2  C   UNL     1       8.384  -3.097   4.576  1.00  0.00     0.014 C 
ATOM      3  C   UNL     1       9.192  -2.463   3.440  1.00  0.00     0.091 C 
ATOM      4  C   UNL     1       7.730  -4.290   3.897  1.00  0.00     0.041 C 
ATOM      5  C   UNL     1       7.257  -3.632   2.588  1.00  0.00     0.175 C 
ATOM      6  C   UNL     1       9.517  -1.021   3.825  1.00  0.00     0.059 C 
ATOM      7  C   UNL     1       9.252  -3.322   5.799  1.00  0.00     0.008 C 
ATOM      8  C   UNL     1       9.697  -0.809   5.344  1.00  0.00     0.143 C 
ATOM      9  C   UNL     1      10.154  -2.096   6.059  1.00  0.00     0.034 C 
ENDROOT
BRANCH   1  10
ATOM     10  C   UNL     1       8.585  -2.360   0.933  1.00  0.00     0.246 C 
ATOM     11  O   UNL     1       8.198  -1.263   0.516  1.00  0.00    -0.272 OA
BRANCH  10  12
ATOM     12  C   UNL     1       9.356  -3.349   0.011  1.00  0.00     0.174 C 
BRANCH  12  13
ATOM     13  N   UNL     1       8.750  -4.677   0.088  1.00  0.00    -0.342 N 
ATOM     14  C   UNL     1       7.665  -5.095  -0.651  1.00  0.00     0.249 C 
ATOM     15  O   UNL     1       7.098  -4.398  -1.484  1.00  0.00    -0.272 OA
ATOM     16  H   UNL     1       9.011  -5.308   0.842  1.00  0.00     0.164 HD
BRANCH  14  17
ATOM     17  C   UNL     1       7.250  -6.547  -0.331  1.00  0.00     0.207 C 
BRANCH  17  18
ATOM     18  C   UNL     1       8.361  -7.522  -0.732  1.00  0.00     0.077 C 
BRANCH  18  19
ATOM     19  C   UNL     1       8.763  -8.418   0.417  1.00  0.00    -0.043 A 
ATOM     20  C   UNL     1       8.608 -10.539   1.584  1.00  0.00     0.083 A 
ATOM     21  C   UNL     1       8.274  -9.732   0.496  1.00  0.00     0.028 A 
ATOM     22  C   UNL     1       9.429 -10.043   2.597  1.00  0.00     0.134 A 
ATOM     23  C   UNL     1       9.920  -8.744   2.531  1.00  0.00     0.048 A 
ATOM     24  C   UNL     1       9.587  -7.932   1.445  1.00  0.00     0.008 A 
ATOM     25  Cl  UNL     1       7.997 -12.150   1.664  1.00  0.00    -0.080 Cl
BRANCH  22  26
ATOM     26  O   UNL     1       9.775 -10.794   3.688  1.00  0.00    -0.506 OA
ATOM     27  H   UNL     1      10.749 -10.809   3.720  1.00  0.00     0.293 HD
ENDBRANCH  22  26
ENDBRANCH  18  19
ENDBRANCH  17  18
BRANCH  17  28
ATOM     28  O   UNL     1       6.036  -6.900  -1.014  1.00  0.00    -0.383 OA
ATOM     29  H   UNL     1       5.426  -7.245  -0.323  1.00  0.00     0.211 HD
ENDBRANCH  17  28
ENDBRANCH  14  17
ENDBRANCH  12  13
BRANCH  12  30
ATOM     30  C   UNL     1      10.880  -3.376   0.303  1.00  0.00     0.018 C 
ATOM     31  C   UNL     1      11.215  -4.439   1.361  1.00  0.00     0.010 C 
BRANCH  30  32
ATOM     32  C   UNL     1      11.457  -2.003   0.727  1.00  0.00     0.002 C 
ATOM     33  C   UNL     1      12.548  -2.054   1.788  1.00  0.00     0.004 C 
ENDBRANCH  30  32
ENDBRANCH  12  30
ENDBRANCH  10  12
ENDBRANCH   1  10
BRANCH   5  34
ATOM     34  C   UNL     1       5.922  -2.864   2.783  1.00  0.00     0.242 C 
ATOM     35  O   UNL     1       4.924  -3.393   3.272  1.00  0.00    -0.273 OA
ATOM     36  N   UNL     1       5.920  -1.567   2.321  1.00  0.00    -0.354 N 
ATOM     37  H   UNL     1       6.739  -1.223   1.817  1.00  0.00     0.163 HD
BRANCH  36  38
ATOM     38  C   UNL     1       4.843  -0.644   2.614  1.00  0.00     0.116 C 
BRANCH  38  39
ATOM     39  C   UNL     1       4.855   0.503   1.606  1.00  0.00     0.023 C 
BRANCH  39  40
ATOM     40  C   UNL     1       4.970   0.013   0.166  1.00  0.00     0.026 C 
BRANCH  40  41
ATOM     41  C   UNL     1       3.794  -0.896  -0.192  1.00  0.00     0.146 C 
BRANCH  41  42
ATOM     42  N   UNL     1       4.281  -2.234  -0.502  1.00  0.00    -0.254 NA
ATOM     43  C   UNL     1       3.748  -3.249   0.066  1.00  0.00     0.185 C 
ATOM     44  N   UNL     1       2.746  -3.313   0.961  1.00  0.00    -0.370 N 
ATOM     45  N   UNL     1       4.215  -4.474  -0.230  1.00  0.00    -0.370 N 
ATOM     46  H   UNL     1       2.595  -4.147   1.503  1.00  0.00     0.159 HD
ATOM     47  H   UNL     1       2.268  -2.479   1.287  1.00  0.00     0.159 HD
ATOM     48  H   UNL     1       4.967  -4.515  -0.905  1.00  0.00     0.159 HD
ATOM     49  H   UNL     1       3.709  -5.315  -0.019  1.00  0.00     0.159 HD
ENDBRANCH  41  42
ENDBRANCH  40  41
ENDBRANCH  39  40
ENDBRANCH  38  39
ENDBRANCH  36  38
ENDBRANCH   5  34
BRANCH   8  50
ATOM     50  O   UNL     1       8.467  -0.378   5.928  1.00  0.00    -0.245 OA
BRANCH  50  51
ATOM     51  S   UNL     1       8.476   0.822   7.026  1.00  0.00     0.397 S 
ATOM     52  O   UNL     1       9.853   1.168   7.297  1.00  0.00    -0.169 OA
ATOM     53  O   UNL     1       7.546   0.513   8.091  1.00  0.00    -0.169 OA
BRANCH  51  54
ATOM     54  O   UNL     1       7.874   2.052   6.183  1.00  0.00    -0.264 OA
ATOM     55  H   UNL     1       8.106   1.912   5.242  1.00  0.00     0.236 HD
ENDBRANCH  51  54
ENDBRANCH  50  51
ENDBRANCH   8  50
TORSDOF 19
ENDMDL
MODEL 36
REMARK VINA RESULT:    -7.075      3.947      7.229
REMARK INTER + INTRA:         -17.549
REMARK INTER:                 -13.307
REMARK INTRA:                  -4.242
REMARK UNBOUND:                -3.236
REMARK SMILES CC[C@@H](C)[C@@H](NC(=O)[C@@H](O)Cc1ccc(O)c(Cl)c1)C(=O)N1[C@H](C(=O)NCCCCN=C(N)N)C[C@H]2CC[C@H](OS(=O)(=O)O)C[C@@H]21
REMARK SMILES IDX 22 1 36 2 46 3 35 4 23 5 45 6 37 7 39 8 38 9 20 10 21 11
REMARK SMILES IDX 5 12 6 13 7 14 8 15 9 17 11 18 12 19 17 20 19 21 15 22 14 23
REMARK SMILES IDX 13 24 18 25 16 26 10 28 3 30 4 31 2 32 1 33 24 34 25 35
REMARK SMILES IDX 26 36 27 38 28 39 29 40 30 41 31 42 32 43 33 44 34 45 40 50
REMARK SMILES IDX 41 51 42 52 43 53 44 54
REMARK H PARENT 6 16 16 27 10 29 26 37 33 46 33 47 34 48 34 49 44 55
ROOT
ATOM      1  N   UNL     1       7.856  -3.827   0.715  1.00  0.00    -0.326 N 
ATOM      2  C   UNL     1       7.304  -6.076   0.292  1.00  0.00     0.014 C 
ATOM      3  C   UNL     1       8.437  -5.055   0.164  1.00  0.00     0.091 C 
ATOM      4  C   UNL     1       6.062  -5.231   0.052  1.00  0.00     0.041 C 
ATOM      5  C   UNL     1       6.397  -4.004   0.920  1.00  0.00     0.175 C 
ATOM      6  C   UNL     1       9.684  -5.630   0.833  1.00  0.00     0.059 C 
ATOM      7  C   UNL     1       7.561  -7.285  -0.587  1.00  0.00     0.008 C 
ATOM      8  C   UNL     1       9.785  -7.168   0.741  1.00  0.00     0.143 C 
ATOM      9  C   UNL     1       9.037  -7.725  -0.487  1.00  0.00     0.034 C 
ENDROOT
BRANCH   1  10
ATOM     10  C   UNL     1       8.408  -2.564   0.845  1.00  0.00     0.246 C 
ATOM     11  O   UNL     1       8.317  -1.769  -0.096  1.00  0.00    -0.272 OA
BRANCH  10  12
ATOM     12  C   UNL     1       9.091  -2.159   2.184  1.00  0.00     0.174 C 
BRANCH  12  13
ATOM     13  N   UNL     1       8.616  -0.842   2.607  1.00  0.00    -0.342 N 
ATOM     14  C   UNL     1       7.695  -0.618   3.606  1.00  0.00     0.249 C 
ATOM     15  O   UNL     1       7.187  -1.508   4.278  1.00  0.00    -0.272 OA
ATOM     16  H   UNL     1       8.828  -0.025   2.041  1.00  0.00     0.164 HD
BRANCH  14  17
ATOM     17  C   UNL     1       7.386   0.881   3.806  1.00  0.00     0.207 C 
BRANCH  17  18
ATOM     18  C   UNL     1       8.027   1.392   5.100  1.00  0.00     0.077 C 
BRANCH  18  19
ATOM     19  C   UNL     1       9.183   2.327   4.824  1.00  0.00    -0.043 A 
ATOM     20  C   UNL     1      10.553   4.224   5.464  1.00  0.00     0.083 A 
ATOM     21  C   UNL     1       9.517   3.332   5.745  1.00  0.00     0.028 A 
ATOM     22  C   UNL     1      11.258   4.119   4.265  1.00  0.00     0.134 A 
ATOM     23  C   UNL     1      10.938   3.129   3.344  1.00  0.00     0.048 A 
ATOM     24  C   UNL     1       9.901   2.235   3.621  1.00  0.00     0.008 A 
ATOM     25  Cl  UNL     1      10.948   5.453   6.608  1.00  0.00    -0.080 Cl
BRANCH  22  26
ATOM     26  O   UNL     1      12.274   4.977   3.941  1.00  0.00    -0.506 OA
ATOM     27  H   UNL     1      13.018   4.427   3.633  1.00  0.00     0.293 HD
ENDBRANCH  22  26
ENDBRANCH  18  19
ENDBRANCH  17  18
BRANCH  17  28
ATOM     28  O   UNL     1       5.970   1.115   3.850  1.00  0.00    -0.383 OA
ATOM     29  H   UNL     1       5.781   1.774   3.144  1.00  0.00     0.211 HD
ENDBRANCH  17  28
ENDBRANCH  14  17
ENDBRANCH  12  13
BRANCH  12  30
ATOM     30  C   UNL     1      10.640  -2.236   2.114  1.00  0.00     0.018 C 
ATOM     31  C   UNL     1      11.188  -3.192   3.185  1.00  0.00     0.010 C 
BRANCH  30  32
ATOM     32  C   UNL     1      11.336  -0.858   2.225  1.00  0.00     0.002 C 
ATOM     33  C   UNL     1      11.591  -0.149   0.901  1.00  0.00     0.004 C 
ENDBRANCH  30  32
ENDBRANCH  12  30
ENDBRANCH  10  12
ENDBRANCH   1  10
BRANCH   5  34
ATOM     34  C   UNL     1       6.078  -4.257   2.417  1.00  0.00     0.242 C 
ATOM     35  O   UNL     1       6.920  -4.686   3.206  1.00  0.00    -0.273 OA
ATOM     36  N   UNL     1       4.772  -4.020   2.786  1.00  0.00    -0.354 N 
ATOM     37  H   UNL     1       4.093  -3.782   2.062  1.00  0.00     0.163 HD
BRANCH  36  38
ATOM     38  C   UNL     1       4.352  -3.996   4.172  1.00  0.00     0.116 C 
BRANCH  38  39
ATOM     39  C   UNL     1       3.527  -2.740   4.442  1.00  0.00     0.023 C 
BRANCH  39  40
ATOM     40  C   UNL     1       2.744  -2.283   3.216  1.00  0.00     0.026 C 
BRANCH  40  41
ATOM     41  C   UNL     1       3.124  -0.853   2.832  1.00  0.00     0.146 C 
BRANCH  41  42
ATOM     42  N   UNL     1       4.388  -0.857   2.107  1.00  0.00    -0.254 NA
ATOM     43  C   UNL     1       4.460  -0.295   0.959  1.00  0.00     0.185 C 
ATOM     44  N   UNL     1       3.515   0.347   0.248  1.00  0.00    -0.370 N 
ATOM     45  N   UNL     1       5.633  -0.314   0.304  1.00  0.00    -0.370 N 
ATOM     46  H   UNL     1       3.643   0.523  -0.734  1.00  0.00     0.159 HD
ATOM     47  H   UNL     1       2.571   0.466   0.602  1.00  0.00     0.159 HD
ATOM     48  H   UNL     1       6.402  -0.772   0.775  1.00  0.00     0.159 HD
ATOM     49  H   UNL     1       5.834   0.294  -0.470  1.00  0.00     0.159 HD
ENDBRANCH  41  42
ENDBRANCH  40  41
ENDBRANCH  39  40
ENDBRANCH  38  39
ENDBRANCH  36  38
ENDBRANCH   5  34
BRANCH   8  50
ATOM     50  O   UNL     1       9.237  -7.766   1.916  1.00  0.00    -0.245 OA
BRANCH  50  51
ATOM     51  S   UNL     1       9.869  -9.154   2.480  1.00  0.00     0.397 S 
ATOM     52  O   UNL     1       9.712  -9.165   3.917  1.00  0.00    -0.169 OA
ATOM     53  O   UNL     1      11.153  -9.393   1.855  1.00  0.00    -0.169 OA
BRANCH  51  54
ATOM     54  O   UNL     1       8.833 -10.248   1.918  1.00  0.00    -0.264 OA
ATOM     55  H   UNL     1       8.687 -10.911   2.624  1.00  0.00     0.236 HD
ENDBRANCH  51  54
ENDBRANCH  50  51
ENDBRANCH   8  50
TORSDOF 19
ENDMDL
MODEL 37
REMARK VINA RESULT:    -7.047      4.234      7.433
REMARK INTER + INTRA:         -17.492
REMARK INTER:                 -12.357
REMARK INTRA:                  -5.135
REMARK UNBOUND:                -3.236
REMARK SMILES CC[C@@H](C)[C@@H](NC(=O)[C@@H](O)Cc1ccc(O)c(Cl)c1)C(=O)N1[C@H](C(=O)NCCCCN=C(N)N)C[C@H]2CC[C@H](OS(=O)(=O)O)C[C@@H]21
REMARK SMILES IDX 22 1 36 2 46 3 35 4 23 5 45 6 37 7 39 8 38 9 20 10 21 11
REMARK SMILES IDX 5 12 6 13 7 14 8 15 9 17 11 18 12 19 17 20 19 21 15 22 14 23
REMARK SMILES IDX 13 24 18 25 16 26 10 28 3 30 4 31 2 32 1 33 24 34 25 35
REMARK SMILES IDX 26 36 27 38 28 39 29 40 30 41 31 42 32 43 33 44 34 45 40 50
REMARK SMILES IDX 41 51 42 52 43 53 44 54
REMARK H PARENT 6 16 16 27 10 29 26 37 33 46 33 47 34 48 34 49 44 55
ROOT
ATOM      1  N   UNL     1       9.730   0.502   6.036  1.00  0.00    -0.326 N 
ATOM      2  C   UNL     1       9.923   2.181   4.398  1.00  0.00     0.014 C 
ATOM      3  C   UNL     1      10.735   1.154   5.191  1.00  0.00     0.091 C 
ATOM      4  C   UNL     1       8.863   2.616   5.398  1.00  0.00     0.041 C 
ATOM      5  C   UNL     1       8.449   1.247   5.968  1.00  0.00     0.175 C 
ATOM      6  C   UNL     1      11.521   0.293   4.204  1.00  0.00     0.059 C 
ATOM      7  C   UNL     1      10.829   3.225   3.774  1.00  0.00     0.008 C 
ATOM      8  C   UNL     1      11.944   1.044   2.923  1.00  0.00     0.143 C 
ATOM      9  C   UNL     1      12.080   2.562   3.160  1.00  0.00     0.034 C 
ENDROOT
BRANCH   1  10
ATOM     10  C   UNL     1       9.879  -0.500   6.980  1.00  0.00     0.246 C 
ATOM     11  O   UNL     1       9.771  -0.217   8.178  1.00  0.00    -0.272 OA
BRANCH  10  12
ATOM     12  C   UNL     1      10.136  -1.962   6.513  1.00  0.00     0.174 C 
BRANCH  12  13
ATOM     13  N   UNL     1       9.329  -2.257   5.330  1.00  0.00    -0.342 N 
ATOM     14  C   UNL     1       9.794  -2.871   4.189  1.00  0.00     0.249 C 
ATOM     15  O   UNL     1      10.944  -3.268   4.049  1.00  0.00    -0.272 OA
ATOM     16  H   UNL     1       8.402  -1.848   5.238  1.00  0.00     0.164 HD
BRANCH  14  17
ATOM     17  C   UNL     1       8.702  -3.026   3.109  1.00  0.00     0.207 C 
BRANCH  17  18
ATOM     18  C   UNL     1       7.712  -4.127   3.503  1.00  0.00     0.077 C 
BRANCH  18  19
ATOM     19  C   UNL     1       6.372  -3.945   2.825  1.00  0.00    -0.043 A 
ATOM     20  C   UNL     1       4.872  -4.404   0.975  1.00  0.00     0.083 A 
ATOM     21  C   UNL     1       6.090  -4.612   1.623  1.00  0.00     0.028 A 
ATOM     22  C   UNL     1       3.931  -3.530   1.521  1.00  0.00     0.134 A 
ATOM     23  C   UNL     1       4.197  -2.863   2.711  1.00  0.00     0.048 A 
ATOM     24  C   UNL     1       5.417  -3.068   3.361  1.00  0.00     0.008 A 
ATOM     25  Cl  UNL     1       4.544  -5.232  -0.501  1.00  0.00    -0.080 Cl
BRANCH  22  26
ATOM     26  O   UNL     1       2.727  -3.286   0.917  1.00  0.00    -0.506 OA
ATOM     27  H   UNL     1       2.744  -2.356   0.625  1.00  0.00     0.293 HD
ENDBRANCH  22  26
ENDBRANCH  18  19
ENDBRANCH  17  18
BRANCH  17  28
ATOM     28  O   UNL     1       9.280  -3.339   1.831  1.00  0.00    -0.383 OA
ATOM     29  H   UNL     1       9.503  -4.297   1.861  1.00  0.00     0.211 HD
ENDBRANCH  17  28
ENDBRANCH  14  17
ENDBRANCH  12  13
BRANCH  12  30
ATOM     30  C   UNL     1       9.925  -3.000   7.649  1.00  0.00     0.018 C 
ATOM     31  C   UNL     1      11.091  -4.000   7.697  1.00  0.00     0.010 C 
BRANCH  30  32
ATOM     32  C   UNL     1       8.578  -3.757   7.556  1.00  0.00     0.002 C 
ATOM     33  C   UNL     1       7.424  -3.128   8.326  1.00  0.00     0.004 C 
ENDBRANCH  30  32
ENDBRANCH  12  30
ENDBRANCH  10  12
ENDBRANCH   1  10
BRANCH   5  34
ATOM     34  C   UNL     1       7.440   0.522   5.038  1.00  0.00     0.242 C 
ATOM     35  O   UNL     1       7.158  -0.669   5.174  1.00  0.00    -0.273 OA
ATOM     36  N   UNL     1       6.926   1.291   4.019  1.00  0.00    -0.354 N 
ATOM     37  H   UNL     1       7.288   2.236   3.885  1.00  0.00     0.163 HD
BRANCH  36  38
ATOM     38  C   UNL     1       5.820   0.846   3.196  1.00  0.00     0.116 C 
BRANCH  38  39
ATOM     39  C   UNL     1       6.348   0.272   1.884  1.00  0.00     0.023 C 
BRANCH  39  40
ATOM     40  C   UNL     1       5.306   0.307   0.771  1.00  0.00     0.026 C 
BRANCH  40  41
ATOM     41  C   UNL     1       5.521  -0.846  -0.210  1.00  0.00     0.146 C 
BRANCH  41  42
ATOM     42  N   UNL     1       6.884  -1.347  -0.090  1.00  0.00    -0.254 NA
ATOM     43  C   UNL     1       7.317  -2.209  -0.931  1.00  0.00     0.185 C 
ATOM     44  N   UNL     1       6.700  -2.778  -1.983  1.00  0.00    -0.370 N 
ATOM     45  N   UNL     1       8.575  -2.662  -0.801  1.00  0.00    -0.370 N 
ATOM     46  H   UNL     1       7.071  -3.612  -2.406  1.00  0.00     0.159 HD
ATOM     47  H   UNL     1       5.746  -2.539  -2.235  1.00  0.00     0.159 HD
ATOM     48  H   UNL     1       9.113  -2.277  -0.037  1.00  0.00     0.159 HD
ATOM     49  H   UNL     1       9.059  -3.144  -1.538  1.00  0.00     0.159 HD
ENDBRANCH  41  42
ENDBRANCH  40  41
ENDBRANCH  39  40
ENDBRANCH  38  39
ENDBRANCH  36  38
ENDBRANCH   5  34
BRANCH   8  50
ATOM     50  O   UNL     1      10.981   0.832   1.890  1.00  0.00    -0.245 OA
BRANCH  50  51
ATOM     51  S   UNL     1      11.326  -0.185   0.668  1.00  0.00     0.397 S 
ATOM     52  O   UNL     1      12.679   0.083   0.233  1.00  0.00    -0.169 OA
ATOM     53  O   UNL     1      10.220  -0.216  -0.266  1.00  0.00    -0.169 OA
BRANCH  51  54
ATOM     54  O   UNL     1      11.381  -1.606   1.419  1.00  0.00    -0.264 OA
ATOM     55  H   UNL     1      10.541  -2.074   1.234  1.00  0.00     0.236 HD
ENDBRANCH  51  54
ENDBRANCH  50  51
ENDBRANCH   8  50
TORSDOF 19
ENDMDL
MODEL 38
REMARK VINA RESULT:    -7.023      4.151      8.400
REMARK INTER + INTRA:         -17.444
REMARK INTER:                 -14.362
REMARK INTRA:                  -3.082
REMARK UNBOUND:                -3.236
REMARK SMILES CC[C@@H](C)[C@@H](NC(=O)[C@@H](O)Cc1ccc(O)c(Cl)c1)C(=O)N1[C@H](C(=O)NCCCCN=C(N)N)C[C@H]2CC[C@H](OS(=O)(=O)O)C[C@@H]21
REMARK SMILES IDX 22 1 36 2 46 3 35 4 23 5 45 6 37 7 39 8 38 9 20 10 21 11
REMARK SMILES IDX 5 12 6 13 7 14 8 15 9 17 11 18 12 19 17 20 19 21 15 22 14 23
REMARK SMILES IDX 13 24 18 25 16 26 10 28 3 30 4 31 2 32 1 33 24 34 25 35
REMARK SMILES IDX 26 36 27 38 28 39 29 40 30 41 31 42 32 43 33 44 34 45 40 50
REMARK SMILES IDX 41 51 42 52 43 53 44 54
REMARK H PARENT 6 16 16 27 10 29 26 37 33 46 33 47 34 48 34 49 44 55
ROOT
ATOM      1  N   UNL     1       9.346   0.436   5.902  1.00  0.00    -0.326 N 
ATOM      2  C   UNL     1       9.657   2.163   4.332  1.00  0.00     0.014 C 
ATOM      3  C   UNL     1      10.410   1.114   5.155  1.00  0.00     0.091 C 
ATOM      4  C   UNL     1       8.523   2.567   5.262  1.00  0.00     0.041 C 
ATOM      5  C   UNL     1       8.071   1.181   5.759  1.00  0.00     0.175 C 
ATOM      6  C   UNL     1      11.272   0.283   4.206  1.00  0.00     0.059 C 
ATOM      7  C   UNL     1      10.605   3.225   3.810  1.00  0.00     0.008 C 
ATOM      8  C   UNL     1      11.788   1.072   2.983  1.00  0.00     0.143 C 
ATOM      9  C   UNL     1      11.901   2.582   3.274  1.00  0.00     0.034 C 
ENDROOT
BRANCH   1  10
ATOM     10  C   UNL     1       9.427  -0.592   6.826  1.00  0.00     0.246 C 
ATOM     11  O   UNL     1       8.986  -0.412   7.966  1.00  0.00    -0.272 OA
BRANCH  10  12
ATOM     12  C   UNL     1      10.029  -1.962   6.398  1.00  0.00     0.174 C 
BRANCH  12  13
ATOM     13  N   UNL     1       9.036  -2.730   5.647  1.00  0.00    -0.342 N 
ATOM     14  C   UNL     1       9.228  -3.252   4.388  1.00  0.00     0.249 C 
ATOM     15  O   UNL     1      10.275  -3.151   3.760  1.00  0.00    -0.272 OA
ATOM     16  H   UNL     1       8.073  -2.761   5.972  1.00  0.00     0.164 HD
BRANCH  14  17
ATOM     17  C   UNL     1       7.985  -3.998   3.857  1.00  0.00     0.207 C 
BRANCH  17  18
ATOM     18  C   UNL     1       7.630  -3.512   2.448  1.00  0.00     0.077 C 
BRANCH  18  19
ATOM     19  C   UNL     1       7.774  -4.612   1.421  1.00  0.00    -0.043 A 
ATOM     20  C   UNL     1       6.806  -6.022  -0.300  1.00  0.00     0.083 A 
ATOM     21  C   UNL     1       6.685  -4.973   0.612  1.00  0.00     0.028 A 
ATOM     22  C   UNL     1       8.011  -6.716  -0.409  1.00  0.00     0.134 A 
ATOM     23  C   UNL     1       9.098  -6.370   0.385  1.00  0.00     0.048 A 
ATOM     24  C   UNL     1       8.979  -5.321   1.301  1.00  0.00     0.008 A 
ATOM     25  Cl  UNL     1       5.457  -6.450  -1.285  1.00  0.00    -0.080 Cl
BRANCH  22  26
ATOM     26  O   UNL     1       8.175  -7.758  -1.281  1.00  0.00    -0.506 OA
ATOM     27  H   UNL     1       8.537  -7.381  -2.104  1.00  0.00     0.293 HD
ENDBRANCH  22  26
ENDBRANCH  18  19
ENDBRANCH  17  18
BRANCH  17  28
ATOM     28  O   UNL     1       6.857  -3.807   4.725  1.00  0.00    -0.383 OA
ATOM     29  H   UNL     1       6.333  -3.072   4.333  1.00  0.00     0.211 HD
ENDBRANCH  17  28
ENDBRANCH  14  17
ENDBRANCH  12  13
BRANCH  12  30
ATOM     30  C   UNL     1      10.616  -2.759   7.593  1.00  0.00     0.018 C 
ATOM     31  C   UNL     1      12.151  -2.705   7.586  1.00  0.00     0.010 C 
BRANCH  30  32
ATOM     32  C   UNL     1      10.136  -4.230   7.655  1.00  0.00     0.002 C 
ATOM     33  C   UNL     1       9.046  -4.517   8.680  1.00  0.00     0.004 C 
ENDBRANCH  30  32
ENDBRANCH  12  30
ENDBRANCH  10  12
ENDBRANCH   1  10
BRANCH   5  34
ATOM     34  C   UNL     1       7.138   0.483   4.734  1.00  0.00     0.242 C 
ATOM     35  O   UNL     1       7.003  -0.740   4.694  1.00  0.00    -0.273 OA
ATOM     36  N   UNL     1       6.516   1.324   3.840  1.00  0.00    -0.354 N 
ATOM     37  H   UNL     1       6.760   2.315   3.846  1.00  0.00     0.163 HD
BRANCH  36  38
ATOM     38  C   UNL     1       5.455   0.873   2.963  1.00  0.00     0.116 C 
BRANCH  38  39
ATOM     39  C   UNL     1       6.049   0.354   1.656  1.00  0.00     0.023 C 
BRANCH  39  40
ATOM     40  C   UNL     1       4.994  -0.253   0.737  1.00  0.00     0.026 C 
BRANCH  40  41
ATOM     41  C   UNL     1       4.115   0.839   0.127  1.00  0.00     0.146 C 
BRANCH  41  42
ATOM     42  N   UNL     1       3.255   0.263  -0.899  1.00  0.00    -0.254 NA
ATOM     43  C   UNL     1       2.397   1.003  -1.495  1.00  0.00     0.185 C 
ATOM     44  N   UNL     1       2.124   2.311  -1.337  1.00  0.00    -0.370 N 
ATOM     45  N   UNL     1       1.611   0.452  -2.434  1.00  0.00    -0.370 N 
ATOM     46  H   UNL     1       1.268   2.703  -1.691  1.00  0.00     0.159 HD
ATOM     47  H   UNL     1       2.636   2.886  -0.675  1.00  0.00     0.159 HD
ATOM     48  H   UNL     1       1.758  -0.531  -2.622  1.00  0.00     0.159 HD
ATOM     49  H   UNL     1       1.094   0.998  -3.100  1.00  0.00     0.159 HD
ENDBRANCH  41  42
ENDBRANCH  40  41
ENDBRANCH  39  40
ENDBRANCH  38  39
ENDBRANCH  36  38
ENDBRANCH   5  34
BRANCH   8  50
ATOM     50  O   UNL     1      10.907   0.888   1.875  1.00  0.00    -0.245 OA
BRANCH  50  51
ATOM     51  S   UNL     1      11.261  -0.226   0.744  1.00  0.00     0.397 S 
ATOM     52  O   UNL     1      12.630  -0.019   0.327  1.00  0.00    -0.169 OA
ATOM     53  O   UNL     1      10.179  -0.306  -0.215  1.00  0.00    -0.169 OA
BRANCH  51  54
ATOM     54  O   UNL     1      11.265  -1.585   1.602  1.00  0.00    -0.264 OA
ATOM     55  H   UNL     1      10.353  -1.940   1.602  1.00  0.00     0.236 HD
ENDBRANCH  51  54
ENDBRANCH  50  51
ENDBRANCH   8  50
TORSDOF 19
ENDMDL
MODEL 39
REMARK VINA RESULT:    -7.012      4.389      8.422
REMARK INTER + INTRA:         -17.422
REMARK INTER:                 -13.974
REMARK INTRA:                  -3.447
REMARK UNBOUND:                -3.236
REMARK SMILES CC[C@@H](C)[C@@H](NC(=O)[C@@H](O)Cc1ccc(O)c(Cl)c1)C(=O)N1[C@H](C(=O)NCCCCN=C(N)N)C[C@H]2CC[C@H](OS(=O)(=O)O)C[C@@H]21
REMARK SMILES IDX 22 1 36 2 46 3 35 4 23 5 45 6 37 7 39 8 38 9 20 10 21 11
REMARK SMILES IDX 5 12 6 13 7 14 8 15 9 17 11 18 12 19 17 20 19 21 15 22 14 23
REMARK SMILES IDX 13 24 18 25 16 26 10 28 3 30 4 31 2 32 1 33 24 34 25 35
REMARK SMILES IDX 26 36 27 38 28 39 29 40 30 41 31 42 32 43 33 44 34 45 40 50
REMARK SMILES IDX 41 51 42 52 43 53 44 54
REMARK H PARENT 6 16 16 27 10 29 26 37 33 46 33 47 34 48 34 49 44 55
ROOT
ATOM      1  N   UNL     1       7.683  -1.053   3.574  1.00  0.00    -0.326 N 
ATOM      2  C   UNL     1       8.469  -1.874   5.636  1.00  0.00     0.014 C 
ATOM      3  C   UNL     1       8.556  -0.674   4.688  1.00  0.00     0.091 C 
ATOM      4  C   UNL     1       8.339  -3.048   4.678  1.00  0.00     0.041 C 
ATOM      5  C   UNL     1       7.300  -2.482   3.692  1.00  0.00     0.175 C 
ATOM      6  C   UNL     1       8.217   0.590   5.477  1.00  0.00     0.059 C 
ATOM      7  C   UNL     1       9.605  -1.856   6.640  1.00  0.00     0.008 C 
ATOM      8  C   UNL     1       8.635   0.527   6.962  1.00  0.00     0.143 C 
ATOM      9  C   UNL     1       9.823  -0.430   7.189  1.00  0.00     0.034 C 
ENDROOT
BRANCH   1  10
ATOM     10  C   UNL     1       7.383  -0.369   2.408  1.00  0.00     0.246 C 
ATOM     11  O   UNL     1       6.420   0.405   2.397  1.00  0.00    -0.272 OA
BRANCH  10  12
ATOM     12  C   UNL     1       8.287  -0.555   1.155  1.00  0.00     0.174 C 
BRANCH  12  13
ATOM     13  N   UNL     1       7.790  -1.665   0.342  1.00  0.00    -0.342 N 
ATOM     14  C   UNL     1       7.545  -1.604  -1.011  1.00  0.00     0.249 C 
ATOM     15  O   UNL     1       7.745  -0.610  -1.697  1.00  0.00    -0.272 OA
ATOM     16  H   UNL     1       7.432  -2.501   0.797  1.00  0.00     0.164 HD
BRANCH  14  17
ATOM     17  C   UNL     1       7.008  -2.936  -1.579  1.00  0.00     0.207 C 
BRANCH  17  18
ATOM     18  C   UNL     1       5.543  -2.787  -1.999  1.00  0.00     0.077 C 
BRANCH  18  19
ATOM     19  C   UNL     1       4.672  -2.330  -0.850  1.00  0.00    -0.043 A 
ATOM     20  C   UNL     1       3.703  -0.542   0.472  1.00  0.00     0.083 A 
ATOM     21  C   UNL     1       4.466  -0.961  -0.619  1.00  0.00     0.028 A 
ATOM     22  C   UNL     1       3.144  -1.484   1.336  1.00  0.00     0.134 A 
ATOM     23  C   UNL     1       3.340  -2.842   1.119  1.00  0.00     0.048 A 
ATOM     24  C   UNL     1       4.105  -3.265   0.030  1.00  0.00     0.008 A 
ATOM     25  Cl  UNL     1       3.461   1.145   0.740  1.00  0.00    -0.080 Cl
BRANCH  22  26
ATOM     26  O   UNL     1       2.398  -1.120   2.424  1.00  0.00    -0.506 OA
ATOM     27  H   UNL     1       1.528  -0.838   2.086  1.00  0.00     0.293 HD
ENDBRANCH  22  26
ENDBRANCH  18  19
ENDBRANCH  17  18
BRANCH  17  28
ATOM     28  O   UNL     1       7.123  -3.993  -0.613  1.00  0.00    -0.383 OA
ATOM     29  H   UNL     1       6.659  -3.675   0.195  1.00  0.00     0.211 HD
ENDBRANCH  17  28
ENDBRANCH  14  17
ENDBRANCH  12  13
BRANCH  12  30
ATOM     30  C   UNL     1       9.789  -0.712   1.517  1.00  0.00     0.018 C 
ATOM     31  C   UNL     1      10.599   0.497   1.023  1.00  0.00     0.010 C 
BRANCH  30  32
ATOM     32  C   UNL     1      10.420  -2.025   0.993  1.00  0.00     0.002 C 
ATOM     33  C   UNL     1      10.763  -3.054   2.063  1.00  0.00     0.004 C 
ENDBRANCH  30  32
ENDBRANCH  12  30
ENDBRANCH  10  12
ENDBRANCH   1  10
BRANCH   5  34
ATOM     34  C   UNL     1       5.855  -2.620   4.242  1.00  0.00     0.242 C 
ATOM     35  O   UNL     1       5.021  -1.722   4.134  1.00  0.00    -0.273 OA
ATOM     36  N   UNL     1       5.592  -3.797   4.907  1.00  0.00    -0.354 N 
ATOM     37  H   UNL     1       6.358  -4.452   5.069  1.00  0.00     0.163 HD
BRANCH  36  38
ATOM     38  C   UNL     1       4.250  -4.184   5.292  1.00  0.00     0.116 C 
BRANCH  38  39
ATOM     39  C   UNL     1       4.136  -4.210   6.814  1.00  0.00     0.023 C 
BRANCH  39  40
ATOM     40  C   UNL     1       3.030  -3.297   7.331  1.00  0.00     0.026 C 
BRANCH  40  41
ATOM     41  C   UNL     1       2.734  -3.583   8.804  1.00  0.00     0.146 C 
BRANCH  41  42
ATOM     42  N   UNL     1       2.599  -2.329   9.532  1.00  0.00    -0.254 NA
ATOM     43  C   UNL     1       3.629  -1.801  10.080  1.00  0.00     0.185 C 
ATOM     44  N   UNL     1       4.907  -2.223  10.107  1.00  0.00    -0.370 N 
ATOM     45  N   UNL     1       3.484  -0.647  10.751  1.00  0.00    -0.370 N 
ATOM     46  H   UNL     1       5.558  -1.845  10.773  1.00  0.00     0.159 HD
ATOM     47  H   UNL     1       5.197  -3.075   9.636  1.00  0.00     0.159 HD
ATOM     48  H   UNL     1       2.552  -0.255  10.772  1.00  0.00     0.159 HD
ATOM     49  H   UNL     1       4.260  -0.059  10.997  1.00  0.00     0.159 HD
ENDBRANCH  41  42
ENDBRANCH  40  41
ENDBRANCH  39  40
ENDBRANCH  38  39
ENDBRANCH  36  38
ENDBRANCH   5  34
BRANCH   8  50
ATOM     50  O   UNL     1       7.538   0.086   7.762  1.00  0.00    -0.245 OA
BRANCH  50  51
ATOM     51  S   UNL     1       7.588   0.289   9.375  1.00  0.00     0.397 S 
ATOM     52  O   UNL     1       6.235   0.488   9.842  1.00  0.00    -0.169 OA
ATOM     53  O   UNL     1       8.653   1.209   9.716  1.00  0.00    -0.169 OA
BRANCH  51  54
ATOM     54  O   UNL     1       8.016  -1.175   9.885  1.00  0.00    -0.264 OA
ATOM     55  H   UNL     1       8.928  -1.345   9.573  1.00  0.00     0.236 HD
ENDBRANCH  51  54
ENDBRANCH  50  51
ENDBRANCH   8  50
TORSDOF 19
ENDMDL
MODEL 40
REMARK VINA RESULT:    -7.010      2.836      5.080
REMARK INTER + INTRA:         -17.417
REMARK INTER:                 -15.296
REMARK INTRA:                  -2.122
REMARK UNBOUND:                -3.236
REMARK SMILES CC[C@@H](C)[C@@H](NC(=O)[C@@H](O)Cc1ccc(O)c(Cl)c1)C(=O)N1[C@H](C(=O)NCCCCN=C(N)N)C[C@H]2CC[C@H](OS(=O)(=O)O)C[C@@H]21
REMARK SMILES IDX 22 1 36 2 46 3 35 4 23 5 45 6 37 7 39 8 38 9 20 10 21 11
REMARK SMILES IDX 5 12 6 13 7 14 8 15 9 17 11 18 12 19 17 20 19 21 15 22 14 23
REMARK SMILES IDX 13 24 18 25 16 26 10 28 3 30 4 31 2 32 1 33 24 34 25 35
REMARK SMILES IDX 26 36 27 38 28 39 29 40 30 41 31 42 32 43 33 44 34 45 40 50
REMARK SMILES IDX 41 51 42 52 43 53 44 54
REMARK H PARENT 6 16 16 27 10 29 26 37 33 46 33 47 34 48 34 49 44 55
ROOT
ATOM      1  N   UNL     1       8.661  -2.905   0.412  1.00  0.00    -0.326 N 
ATOM      2  C   UNL     1       6.613  -4.064   0.345  1.00  0.00     0.014 C 
ATOM      3  C   UNL     1       7.306  -2.785  -0.134  1.00  0.00     0.091 C 
ATOM      4  C   UNL     1       7.243  -4.295   1.710  1.00  0.00     0.041 C 
ATOM      5  C   UNL     1       8.722  -4.033   1.375  1.00  0.00     0.175 C 
ATOM      6  C   UNL     1       7.142  -2.686  -1.650  1.00  0.00     0.059 C 
ATOM      7  C   UNL     1       5.106  -3.938   0.234  1.00  0.00     0.008 C 
ATOM      8  C   UNL     1       5.825  -3.299  -2.174  1.00  0.00     0.143 C 
ATOM      9  C   UNL     1       4.713  -3.280  -1.106  1.00  0.00     0.034 C 
ENDROOT
BRANCH   1  10
ATOM     10  C   UNL     1       9.735  -2.036   0.321  1.00  0.00     0.246 C 
ATOM     11  O   UNL     1       9.752  -1.194  -0.583  1.00  0.00    -0.272 OA
BRANCH  10  12
ATOM     12  C   UNL     1      10.873  -2.110   1.380  1.00  0.00     0.174 C 
BRANCH  12  13
ATOM     13  N   UNL     1      10.822  -0.935   2.249  1.00  0.00    -0.342 N 
ATOM     14  C   UNL     1      10.157  -0.870   3.453  1.00  0.00     0.249 C 
ATOM     15  O   UNL     1       9.550  -1.812   3.947  1.00  0.00    -0.272 OA
ATOM     16  H   UNL     1      11.146  -0.036   1.900  1.00  0.00     0.164 HD
BRANCH  14  17
ATOM     17  C   UNL     1      10.276   0.514   4.126  1.00  0.00     0.207 C 
BRANCH  17  18
ATOM     18  C   UNL     1      10.451   1.610   3.069  1.00  0.00     0.077 C 
BRANCH  18  19
ATOM     19  C   UNL     1      11.507   2.615   3.471  1.00  0.00    -0.043 A 
ATOM     20  C   UNL     1      12.160   4.598   4.705  1.00  0.00     0.083 A 
ATOM     21  C   UNL     1      11.198   3.643   4.375  1.00  0.00     0.028 A 
ATOM     22  C   UNL     1      13.433   4.533   4.136  1.00  0.00     0.134 A 
ATOM     23  C   UNL     1      13.752   3.519   3.240  1.00  0.00     0.048 A 
ATOM     24  C   UNL     1      12.790   2.563   2.906  1.00  0.00     0.008 A 
ATOM     25  Cl  UNL     1      11.762   5.855   5.817  1.00  0.00    -0.080 Cl
BRANCH  22  26
ATOM     26  O   UNL     1      14.406   5.452   4.422  1.00  0.00    -0.506 OA
ATOM     27  H   UNL     1      15.256   4.974   4.408  1.00  0.00     0.293 HD
ENDBRANCH  22  26
ENDBRANCH  18  19
ENDBRANCH  17  18
BRANCH  17  28
ATOM     28  O   UNL     1      11.385   0.551   5.039  1.00  0.00    -0.383 OA
ATOM     29  H   UNL     1      11.924   1.333   4.780  1.00  0.00     0.211 HD
ENDBRANCH  17  28
ENDBRANCH  14  17
ENDBRANCH  12  13
BRANCH  12  30
ATOM     30  C   UNL     1      12.273  -2.315   0.742  1.00  0.00     0.018 C 
ATOM     31  C   UNL     1      12.955  -3.568   1.313  1.00  0.00     0.010 C 
BRANCH  30  32
ATOM     32  C   UNL     1      13.208  -1.089   0.886  1.00  0.00     0.002 C 
ATOM     33  C   UNL     1      14.545  -1.201   0.166  1.00  0.00     0.004 C 
ENDBRANCH  30  32
ENDBRANCH  12  30
ENDBRANCH  10  12
ENDBRANCH   1  10
BRANCH   5  34
ATOM     34  C   UNL     1       9.391  -5.274   0.727  1.00  0.00     0.242 C 
ATOM     35  O   UNL     1      10.138  -5.186  -0.247  1.00  0.00    -0.273 OA
ATOM     36  N   UNL     1       9.045  -6.484   1.285  1.00  0.00    -0.354 N 
ATOM     37  H   UNL     1       8.328  -6.503   2.012  1.00  0.00     0.163 HD
BRANCH  36  38
ATOM     38  C   UNL     1       9.732  -7.715   0.951  1.00  0.00     0.116 C 
BRANCH  38  39
ATOM     39  C   UNL     1       8.923  -8.497  -0.080  1.00  0.00     0.023 C 
BRANCH  39  40
ATOM     40  C   UNL     1       8.955 -10.001   0.172  1.00  0.00     0.026 C 
BRANCH  40  41
ATOM     41  C   UNL     1       8.715 -10.308   1.650  1.00  0.00     0.146 C 
BRANCH  41  42
ATOM     42  N   UNL     1       9.260 -11.619   1.975  1.00  0.00    -0.254 NA
ATOM     43  C   UNL     1      10.422 -11.708   2.505  1.00  0.00     0.185 C 
ATOM     44  N   UNL     1      11.295 -10.741   2.843  1.00  0.00    -0.370 N 
ATOM     45  N   UNL     1      10.908 -12.926   2.794  1.00  0.00    -0.370 N 
ATOM     46  H   UNL     1      12.260 -10.962   3.021  1.00  0.00     0.159 HD
ATOM     47  H   UNL     1      11.082  -9.758   2.705  1.00  0.00     0.159 HD
ATOM     48  H   UNL     1      10.308 -13.711   2.579  1.00  0.00     0.159 HD
ATOM     49  H   UNL     1      11.686 -13.068   3.413  1.00  0.00     0.159 HD
ENDBRANCH  41  42
ENDBRANCH  40  41
ENDBRANCH  39  40
ENDBRANCH  38  39
ENDBRANCH  36  38
ENDBRANCH   5  34
BRANCH   8  50
ATOM     50  O   UNL     1       6.041  -4.650  -2.580  1.00  0.00    -0.245 OA
BRANCH  50  51
ATOM     51  S   UNL     1       5.943  -5.041  -4.156  1.00  0.00     0.397 S 
ATOM     52  O   UNL     1       6.978  -4.317  -4.860  1.00  0.00    -0.169 OA
ATOM     53  O   UNL     1       4.560  -4.996  -4.583  1.00  0.00    -0.169 OA
BRANCH  51  54
ATOM     54  O   UNL     1       6.410  -6.579  -4.151  1.00  0.00    -0.264 OA
ATOM     55  H   UNL     1       6.900  -6.745  -4.982  1.00  0.00     0.236 HD
ENDBRANCH  51  54
ENDBRANCH  50  51
ENDBRANCH   8  50
TORSDOF 19
ENDMDL
MODEL 41
REMARK VINA RESULT:    -6.981      3.568      8.555
REMARK INTER + INTRA:         -17.360
REMARK INTER:                 -13.359
REMARK INTRA:                  -4.001
REMARK UNBOUND:                -3.236
REMARK SMILES CC[C@@H](C)[C@@H](NC(=O)[C@@H](O)Cc1ccc(O)c(Cl)c1)C(=O)N1[C@H](C(=O)NCCCCN=C(N)N)C[C@H]2CC[C@H](OS(=O)(=O)O)C[C@@H]21
REMARK SMILES IDX 22 1 36 2 46 3 35 4 23 5 45 6 37 7 39 8 38 9 20 10 21 11
REMARK SMILES IDX 5 12 6 13 7 14 8 15 9 17 11 18 12 19 17 20 19 21 15 22 14 23
REMARK SMILES IDX 13 24 18 25 16 26 10 28 3 30 4 31 2 32 1 33 24 34 25 35
REMARK SMILES IDX 26 36 27 38 28 39 29 40 30 41 31 42 32 43 33 44 34 45 40 50
REMARK SMILES IDX 41 51 42 52 43 53 44 54
REMARK H PARENT 6 16 16 27 10 29 26 37 33 46 33 47 34 48 34 49 44 55
ROOT
ATOM      1  N   UNL     1       7.234  -2.576  -0.563  1.00  0.00    -0.326 N 
ATOM      2  C   UNL     1       5.850  -0.726  -0.111  1.00  0.00     0.014 C 
ATOM      3  C   UNL     1       5.871  -2.092  -0.803  1.00  0.00     0.091 C 
ATOM      4  C   UNL     1       7.265  -0.215  -0.335  1.00  0.00     0.041 C 
ATOM      5  C   UNL     1       8.069  -1.485  -0.002  1.00  0.00     0.175 C 
ATOM      6  C   UNL     1       4.703  -2.921  -0.272  1.00  0.00     0.059 C 
ATOM      7  C   UNL     1       4.675   0.105  -0.589  1.00  0.00     0.008 C 
ATOM      8  C   UNL     1       3.469  -2.079   0.116  1.00  0.00     0.143 C 
ATOM      9  C   UNL     1       3.398  -0.757  -0.675  1.00  0.00     0.034 C 
ENDROOT
BRANCH   1  10
ATOM     10  C   UNL     1       7.842  -3.751  -0.969  1.00  0.00     0.246 C 
ATOM     11  O   UNL     1       7.613  -4.187  -2.102  1.00  0.00    -0.272 OA
BRANCH  10  12
ATOM     12  C   UNL     1       8.832  -4.473  -0.009  1.00  0.00     0.174 C 
BRANCH  12  13
ATOM     13  N   UNL     1      10.126  -4.650  -0.668  1.00  0.00    -0.342 N 
ATOM     14  C   UNL     1      11.194  -3.789  -0.555  1.00  0.00     0.249 C 
ATOM     15  O   UNL     1      11.188  -2.781   0.140  1.00  0.00    -0.272 OA
ATOM     16  H   UNL     1      10.228  -5.352  -1.397  1.00  0.00     0.164 HD
BRANCH  14  17
ATOM     17  C   UNL     1      12.414  -4.242  -1.386  1.00  0.00     0.207 C 
BRANCH  17  18
ATOM     18  C   UNL     1      13.417  -4.990  -0.501  1.00  0.00     0.077 C 
BRANCH  18  19
ATOM     19  C   UNL     1      13.228  -6.488  -0.580  1.00  0.00    -0.043 A 
ATOM     20  C   UNL     1      12.421  -8.560   0.390  1.00  0.00     0.083 A 
ATOM     21  C   UNL     1      12.551  -7.171   0.441  1.00  0.00     0.028 A 
ATOM     22  C   UNL     1      12.967  -9.272  -0.678  1.00  0.00     0.134 A 
ATOM     23  C   UNL     1      13.641  -8.608  -1.697  1.00  0.00     0.048 A 
ATOM     24  C   UNL     1      13.773  -7.219  -1.647  1.00  0.00     0.008 A 
ATOM     25  Cl  UNL     1      11.586  -9.382   1.655  1.00  0.00    -0.080 Cl
BRANCH  22  26
ATOM     26  O   UNL     1      12.875 -10.635  -0.767  1.00  0.00    -0.506 OA
ATOM     27  H   UNL     1      12.587 -10.838  -1.676  1.00  0.00     0.293 HD
ENDBRANCH  22  26
ENDBRANCH  18  19
ENDBRANCH  17  18
BRANCH  17  28
ATOM     28  O   UNL     1      13.066  -3.119  -2.002  1.00  0.00    -0.383 OA
ATOM     29  H   UNL     1      13.693  -3.496  -2.660  1.00  0.00     0.211 HD
ENDBRANCH  17  28
ENDBRANCH  14  17
ENDBRANCH  12  13
BRANCH  12  30
ATOM     30  C   UNL     1       8.264  -5.807   0.547  1.00  0.00     0.018 C 
ATOM     31  C   UNL     1       9.186  -6.383   1.633  1.00  0.00     0.010 C 
BRANCH  30  32
ATOM     32  C   UNL     1       7.997  -6.872  -0.544  1.00  0.00     0.002 C 
ATOM     33  C   UNL     1       8.862  -8.122  -0.459  1.00  0.00     0.004 C 
ENDBRANCH  30  32
ENDBRANCH  12  30
ENDBRANCH  10  12
ENDBRANCH   1  10
BRANCH   5  34
ATOM     34  C   UNL     1       8.250  -1.663   1.529  1.00  0.00     0.242 C 
ATOM     35  O   UNL     1       7.428  -2.259   2.224  1.00  0.00    -0.273 OA
ATOM     36  N   UNL     1       9.368  -1.058   2.060  1.00  0.00    -0.354 N 
ATOM     37  H   UNL     1       9.947  -0.477   1.454  1.00  0.00     0.163 HD
BRANCH  36  38
ATOM     38  C   UNL     1       9.805  -1.301   3.419  1.00  0.00     0.116 C 
BRANCH  38  39
ATOM     39  C   UNL     1      10.218   0.016   4.074  1.00  0.00     0.023 C 
BRANCH  39  40
ATOM     40  C   UNL     1       9.144   1.091   3.946  1.00  0.00     0.026 C 
BRANCH  40  41
ATOM     41  C   UNL     1       7.820   0.609   4.537  1.00  0.00     0.146 C 
BRANCH  41  42
ATOM     42  N   UNL     1       6.709   1.246   3.842  1.00  0.00    -0.254 NA
ATOM     43  C   UNL     1       5.699   0.545   3.485  1.00  0.00     0.185 C 
ATOM     44  N   UNL     1       5.458  -0.769   3.646  1.00  0.00    -0.370 N 
ATOM     45  N   UNL     1       4.688   1.151   2.842  1.00  0.00    -0.370 N 
ATOM     46  H   UNL     1       4.745  -1.229   3.106  1.00  0.00     0.159 HD
ATOM     47  H   UNL     1       6.115  -1.377   4.125  1.00  0.00     0.159 HD
ATOM     48  H   UNL     1       4.786   2.145   2.687  1.00  0.00     0.159 HD
ATOM     49  H   UNL     1       3.779   0.734   2.743  1.00  0.00     0.159 HD
ENDBRANCH  41  42
ENDBRANCH  40  41
ENDBRANCH  39  40
ENDBRANCH  38  39
ENDBRANCH  36  38
ENDBRANCH   5  34
BRANCH   8  50
ATOM     50  O   UNL     1       3.503  -1.771   1.510  1.00  0.00    -0.245 OA
BRANCH  50  51
ATOM     51  S   UNL     1       2.756  -2.755   2.568  1.00  0.00     0.397 S 
ATOM     52  O   UNL     1       3.640  -2.955   3.694  1.00  0.00    -0.169 OA
ATOM     53  O   UNL     1       2.164  -3.871   1.859  1.00  0.00    -0.169 OA
BRANCH  51  54
ATOM     54  O   UNL     1       1.562  -1.822   3.108  1.00  0.00    -0.264 OA
ATOM     55  H   UNL     1       1.421  -1.109   2.452  1.00  0.00     0.236 HD
ENDBRANCH  51  54
ENDBRANCH  50  51
ENDBRANCH   8  50
TORSDOF 19
ENDMDL
MODEL 42
REMARK VINA RESULT:    -6.954      3.748      8.339
REMARK INTER + INTRA:         -17.305
REMARK INTER:                 -13.731
REMARK INTRA:                  -3.573
REMARK UNBOUND:                -3.236
REMARK SMILES CC[C@@H](C)[C@@H](NC(=O)[C@@H](O)Cc1ccc(O)c(Cl)c1)C(=O)N1[C@H](C(=O)NCCCCN=C(N)N)C[C@H]2CC[C@H](OS(=O)(=O)O)C[C@@H]21
REMARK SMILES IDX 22 1 36 2 46 3 35 4 23 5 45 6 37 7 39 8 38 9 20 10 21 11
REMARK SMILES IDX 5 12 6 13 7 14 8 15 9 17 11 18 12 19 17 20 19 21 15 22 14 23
REMARK SMILES IDX 13 24 18 25 16 26 10 28 3 30 4 31 2 32 1 33 24 34 25 35
REMARK SMILES IDX 26 36 27 38 28 39 29 40 30 41 31 42 32 43 33 44 34 45 40 50
REMARK SMILES IDX 41 51 42 52 43 53 44 54
REMARK H PARENT 6 16 16 27 10 29 26 37 33 46 33 47 34 48 34 49 44 55
ROOT
ATOM      1  N   UNL     1      10.334  -2.628   0.704  1.00  0.00    -0.326 N 
ATOM      2  C   UNL     1      11.230  -1.596   2.621  1.00  0.00     0.014 C 
ATOM      3  C   UNL     1      10.651  -1.299   1.235  1.00  0.00     0.091 C 
ATOM      4  C   UNL     1      11.966  -2.908   2.402  1.00  0.00     0.041 C 
ATOM      5  C   UNL     1      10.916  -3.676   1.578  1.00  0.00     0.175 C 
ATOM      6  C   UNL     1       9.514  -0.291   1.392  1.00  0.00     0.059 C 
ATOM      7  C   UNL     1      11.988  -0.399   3.160  1.00  0.00     0.008 C 
ATOM      8  C   UNL     1       9.715   0.696   2.562  1.00  0.00     0.143 C 
ATOM      9  C   UNL     1      11.206   0.905   2.893  1.00  0.00     0.034 C 
ENDROOT
BRANCH   1  10
ATOM     10  C   UNL     1       9.801  -2.990  -0.522  1.00  0.00     0.246 C 
ATOM     11  O   UNL     1      10.552  -3.086  -1.498  1.00  0.00    -0.272 OA
BRANCH  10  12
ATOM     12  C   UNL     1       8.282  -3.310  -0.633  1.00  0.00     0.174 C 
BRANCH  12  13
ATOM     13  N   UNL     1       8.089  -4.745  -0.837  1.00  0.00    -0.342 N 
ATOM     14  C   UNL     1       7.395  -5.577   0.013  1.00  0.00     0.249 C 
ATOM     15  O   UNL     1       6.834  -5.196   1.033  1.00  0.00    -0.272 OA
ATOM     16  H   UNL     1       8.625  -5.229  -1.552  1.00  0.00     0.164 HD
BRANCH  14  17
ATOM     17  C   UNL     1       7.383  -7.044  -0.468  1.00  0.00     0.207 C 
BRANCH  17  18
ATOM     18  C   UNL     1       8.800  -7.625  -0.450  1.00  0.00     0.077 C 
BRANCH  18  19
ATOM     19  C   UNL     1       8.901  -8.832   0.456  1.00  0.00    -0.043 A 
ATOM     20  C   UNL     1      10.003 -10.019   2.262  1.00  0.00     0.083 A 
ATOM     21  C   UNL     1       9.880  -8.884   1.460  1.00  0.00     0.028 A 
ATOM     22  C   UNL     1       9.152 -11.108   2.065  1.00  0.00     0.134 A 
ATOM     23  C   UNL     1       8.178 -11.070   1.075  1.00  0.00     0.048 A 
ATOM     24  C   UNL     1       8.054  -9.935   0.269  1.00  0.00     0.008 A 
ATOM     25  Cl  UNL     1      11.212 -10.064   3.491  1.00  0.00    -0.080 Cl
BRANCH  22  26
ATOM     26  O   UNL     1       9.241 -12.247   2.819  1.00  0.00    -0.506 OA
ATOM     27  H   UNL     1       9.384 -12.984   2.197  1.00  0.00     0.293 HD
ENDBRANCH  22  26
ENDBRANCH  18  19
ENDBRANCH  17  18
BRANCH  17  28
ATOM     28  O   UNL     1       6.842  -7.149  -1.794  1.00  0.00    -0.383 OA
ATOM     29  H   UNL     1       5.863  -7.119  -1.692  1.00  0.00     0.211 HD
ENDBRANCH  17  28
ENDBRANCH  14  17
ENDBRANCH  12  13
BRANCH  12  30
ATOM     30  C   UNL     1       7.568  -2.456  -1.716  1.00  0.00     0.018 C 
ATOM     31  C   UNL     1       6.784  -1.302  -1.072  1.00  0.00     0.010 C 
BRANCH  30  32
ATOM     32  C   UNL     1       6.639  -3.278  -2.642  1.00  0.00     0.002 C 
ATOM     33  C   UNL     1       5.178  -3.336  -2.214  1.00  0.00     0.004 C 
ENDBRANCH  30  32
ENDBRANCH  12  30
ENDBRANCH  10  12
ENDBRANCH   1  10
BRANCH   5  34
ATOM     34  C   UNL     1       9.825  -4.305   2.485  1.00  0.00     0.242 C 
ATOM     35  O   UNL     1       9.779  -5.513   2.717  1.00  0.00    -0.273 OA
ATOM     36  N   UNL     1       8.883  -3.423   2.965  1.00  0.00    -0.354 N 
ATOM     37  H   UNL     1       8.904  -2.456   2.640  1.00  0.00     0.163 HD
BRANCH  36  38
ATOM     38  C   UNL     1       7.929  -3.794   3.989  1.00  0.00     0.116 C 
BRANCH  38  39
ATOM     39  C   UNL     1       6.693  -2.901   3.894  1.00  0.00     0.023 C 
BRANCH  39  40
ATOM     40  C   UNL     1       6.653  -2.098   2.599  1.00  0.00     0.026 C 
BRANCH  40  41
ATOM     41  C   UNL     1       5.246  -1.563   2.336  1.00  0.00     0.146 C 
BRANCH  41  42
ATOM     42  N   UNL     1       4.342  -2.671   2.057  1.00  0.00    -0.254 NA
ATOM     43  C   UNL     1       3.418  -2.530   1.182  1.00  0.00     0.185 C 
ATOM     44  N   UNL     1       3.107  -1.469   0.415  1.00  0.00    -0.370 N 
ATOM     45  N   UNL     1       2.592  -3.562   0.943  1.00  0.00    -0.370 N 
ATOM     46  H   UNL     1       2.215  -1.414  -0.046  1.00  0.00     0.159 HD
ATOM     47  H   UNL     1       3.640  -0.606   0.458  1.00  0.00     0.159 HD
ATOM     48  H   UNL     1       2.764  -4.406   1.474  1.00  0.00     0.159 HD
ATOM     49  H   UNL     1       2.011  -3.616   0.125  1.00  0.00     0.159 HD
ENDBRANCH  41  42
ENDBRANCH  40  41
ENDBRANCH  39  40
ENDBRANCH  38  39
ENDBRANCH  36  38
ENDBRANCH   5  34
BRANCH   8  50
ATOM     50  O   UNL     1       9.055   0.211   3.731  1.00  0.00    -0.245 OA
BRANCH  50  51
ATOM     51  S   UNL     1       7.942   1.140   4.469  1.00  0.00     0.397 S 
ATOM     52  O   UNL     1       6.759   1.165   3.637  1.00  0.00    -0.169 OA
ATOM     53  O   UNL     1       8.563   2.360   4.942  1.00  0.00    -0.169 OA
BRANCH  51  54
ATOM     54  O   UNL     1       7.557   0.250   5.751  1.00  0.00    -0.264 OA
ATOM     55  H   UNL     1       6.612   0.407   5.951  1.00  0.00     0.236 HD
ENDBRANCH  51  54
ENDBRANCH  50  51
ENDBRANCH   8  50
TORSDOF 19
ENDMDL
MODEL 43
REMARK VINA RESULT:    -6.934      3.714      7.880
REMARK INTER + INTRA:         -17.263
REMARK INTER:                 -14.647
REMARK INTRA:                  -2.616
REMARK UNBOUND:                -3.236
REMARK SMILES CC[C@@H](C)[C@@H](NC(=O)[C@@H](O)Cc1ccc(O)c(Cl)c1)C(=O)N1[C@H](C(=O)NCCCCN=C(N)N)C[C@H]2CC[C@H](OS(=O)(=O)O)C[C@@H]21
REMARK SMILES IDX 22 1 36 2 46 3 35 4 23 5 45 6 37 7 39 8 38 9 20 10 21 11
REMARK SMILES IDX 5 12 6 13 7 14 8 15 9 17 11 18 12 19 17 20 19 21 15 22 14 23
REMARK SMILES IDX 13 24 18 25 16 26 10 28 3 30 4 31 2 32 1 33 24 34 25 35
REMARK SMILES IDX 26 36 27 38 28 39 29 40 30 41 31 42 32 43 33 44 34 45 40 50
REMARK SMILES IDX 41 51 42 52 43 53 44 54
REMARK H PARENT 6 16 16 27 10 29 26 37 33 46 33 47 34 48 34 49 44 55
ROOT
ATOM      1  N   UNL     1       8.626  -2.855   1.475  1.00  0.00    -0.326 N 
ATOM      2  C   UNL     1       9.873  -4.285   0.081  1.00  0.00     0.014 C 
ATOM      3  C   UNL     1       9.648  -3.903   1.547  1.00  0.00     0.091 C 
ATOM      4  C   UNL     1       9.692  -2.959  -0.642  1.00  0.00     0.041 C 
ATOM      5  C   UNL     1       8.430  -2.433   0.066  1.00  0.00     0.175 C 
ATOM      6  C   UNL     1       9.329  -5.173   2.334  1.00  0.00     0.059 C 
ATOM      7  C   UNL     1      11.169  -5.052  -0.087  1.00  0.00     0.008 C 
ATOM      8  C   UNL     1      10.026  -6.436   1.784  1.00  0.00     0.143 C 
ATOM      9  C   UNL     1      11.331  -6.099   1.036  1.00  0.00     0.034 C 
ENDROOT
BRANCH   1  10
ATOM     10  C   UNL     1       8.039  -2.117   2.489  1.00  0.00     0.246 C 
ATOM     11  O   UNL     1       7.353  -2.699   3.336  1.00  0.00    -0.272 OA
BRANCH  10  12
ATOM     12  C   UNL     1       8.289  -0.583   2.565  1.00  0.00     0.174 C 
BRANCH  12  13
ATOM     13  N   UNL     1       9.652  -0.322   3.026  1.00  0.00    -0.342 N 
ATOM     14  C   UNL     1      10.691   0.095   2.224  1.00  0.00     0.249 C 
ATOM     15  O   UNL     1      10.579   0.323   1.026  1.00  0.00    -0.272 OA
ATOM     16  H   UNL     1       9.933  -0.615   3.958  1.00  0.00     0.164 HD
BRANCH  14  17
ATOM     17  C   UNL     1      12.012   0.266   3.003  1.00  0.00     0.207 C 
BRANCH  17  18
ATOM     18  C   UNL     1      12.793   1.474   2.475  1.00  0.00     0.077 C 
BRANCH  18  19
ATOM     19  C   UNL     1      12.535   2.715   3.300  1.00  0.00    -0.043 A 
ATOM     20  C   UNL     1      11.084   4.014   4.747  1.00  0.00     0.083 A 
ATOM     21  C   UNL     1      11.341   2.847   4.026  1.00  0.00     0.028 A 
ATOM     22  C   UNL     1      12.014   5.054   4.746  1.00  0.00     0.134 A 
ATOM     23  C   UNL     1      13.201   4.936   4.032  1.00  0.00     0.048 A 
ATOM     24  C   UNL     1      13.460   3.770   3.308  1.00  0.00     0.008 A 
ATOM     25  Cl  UNL     1       9.611   4.157   5.632  1.00  0.00    -0.080 Cl
BRANCH  22  26
ATOM     26  O   UNL     1      11.802   6.221   5.429  1.00  0.00    -0.506 OA
ATOM     27  H   UNL     1      10.847   6.263   5.621  1.00  0.00     0.293 HD
ENDBRANCH  22  26
ENDBRANCH  18  19
ENDBRANCH  17  18
BRANCH  17  28
ATOM     28  O   UNL     1      12.829  -0.911   2.901  1.00  0.00    -0.383 OA
ATOM     29  H   UNL     1      12.911  -1.265   3.816  1.00  0.00     0.211 HD
ENDBRANCH  17  28
ENDBRANCH  14  17
ENDBRANCH  12  13
BRANCH  12  30
ATOM     30  C   UNL     1       7.223   0.158   3.417  1.00  0.00     0.018 C 
ATOM     31  C   UNL     1       6.074   0.668   2.533  1.00  0.00     0.010 C 
BRANCH  30  32
ATOM     32  C   UNL     1       7.800   1.319   4.262  1.00  0.00     0.002 C 
ATOM     33  C   UNL     1       7.789   1.096   5.769  1.00  0.00     0.004 C 
ENDBRANCH  30  32
ENDBRANCH  12  30
ENDBRANCH  10  12
ENDBRANCH   1  10
BRANCH   5  34
ATOM     34  C   UNL     1       7.139  -3.063  -0.522  1.00  0.00     0.242 C 
ATOM     35  O   UNL     1       7.104  -3.564  -1.645  1.00  0.00    -0.273 OA
ATOM     36  N   UNL     1       6.024  -2.971   0.281  1.00  0.00    -0.354 N 
ATOM     37  H   UNL     1       6.087  -2.438   1.150  1.00  0.00     0.163 HD
BRANCH  36  38
ATOM     38  C   UNL     1       4.800  -3.687  -0.011  1.00  0.00     0.116 C 
BRANCH  38  39
ATOM     39  C   UNL     1       3.681  -2.696  -0.324  1.00  0.00     0.023 C 
BRANCH  39  40
ATOM     40  C   UNL     1       3.978  -1.297   0.206  1.00  0.00     0.026 C 
BRANCH  40  41
ATOM     41  C   UNL     1       4.269  -0.332  -0.944  1.00  0.00     0.146 C 
BRANCH  41  42
ATOM     42  N   UNL     1       3.618   0.946  -0.691  1.00  0.00    -0.254 NA
ATOM     43  C   UNL     1       2.556   1.254  -1.337  1.00  0.00     0.185 C 
ATOM     44  N   UNL     1       1.881   0.562  -2.273  1.00  0.00    -0.370 N 
ATOM     45  N   UNL     1       1.973   2.439  -1.093  1.00  0.00    -0.370 N 
ATOM     46  H   UNL     1       1.212   1.021  -2.867  1.00  0.00     0.159 HD
ATOM     47  H   UNL     1       2.177  -0.363  -2.569  1.00  0.00     0.159 HD
ATOM     48  H   UNL     1       2.414   3.020  -0.392  1.00  0.00     0.159 HD
ATOM     49  H   UNL     1       1.031   2.649  -1.371  1.00  0.00     0.159 HD
ENDBRANCH  41  42
ENDBRANCH  40  41
ENDBRANCH  39  40
ENDBRANCH  38  39
ENDBRANCH  36  38
ENDBRANCH   5  34
BRANCH   8  50
ATOM     50  O   UNL     1       9.154  -7.125   0.886  1.00  0.00    -0.245 OA
BRANCH  50  51
ATOM     51  S   UNL     1       9.373  -8.714   0.615  1.00  0.00     0.397 S 
ATOM     52  O   UNL     1       9.691  -9.342   1.878  1.00  0.00    -0.169 OA
ATOM     53  O   UNL     1      10.205  -8.898  -0.555  1.00  0.00    -0.169 OA
BRANCH  51  54
ATOM     54  O   UNL     1       7.885  -9.199   0.247  1.00  0.00    -0.264 OA
ATOM     55  H   UNL     1       7.489  -8.527  -0.345  1.00  0.00     0.236 HD
ENDBRANCH  51  54
ENDBRANCH  50  51
ENDBRANCH   8  50
TORSDOF 19
ENDMDL
MODEL 44
REMARK VINA RESULT:    -6.884      3.437      5.650
REMARK INTER + INTRA:         -17.162
REMARK INTER:                 -13.135
REMARK INTRA:                  -4.027
REMARK UNBOUND:                -3.236
REMARK SMILES CC[C@@H](C)[C@@H](NC(=O)[C@@H](O)Cc1ccc(O)c(Cl)c1)C(=O)N1[C@H](C(=O)NCCCCN=C(N)N)C[C@H]2CC[C@H](OS(=O)(=O)O)C[C@@H]21
REMARK SMILES IDX 22 1 36 2 46 3 35 4 23 5 45 6 37 7 39 8 38 9 20 10 21 11
REMARK SMILES IDX 5 12 6 13 7 14 8 15 9 17 11 18 12 19 17 20 19 21 15 22 14 23
REMARK SMILES IDX 13 24 18 25 16 26 10 28 3 30 4 31 2 32 1 33 24 34 25 35
REMARK SMILES IDX 26 36 27 38 28 39 29 40 30 41 31 42 32 43 33 44 34 45 40 50
REMARK SMILES IDX 41 51 42 52 43 53 44 54
REMARK H PARENT 6 16 16 27 10 29 26 37 33 46 33 47 34 48 34 49 44 55
ROOT
ATOM      1  N   UNL     1       6.053  -1.861   2.861  1.00  0.00    -0.326 N 
ATOM      2  C   UNL     1       4.810  -3.860   2.825  1.00  0.00     0.014 C 
ATOM      3  C   UNL     1       4.917  -2.480   2.171  1.00  0.00     0.091 C 
ATOM      4  C   UNL     1       5.216  -3.581   4.264  1.00  0.00     0.041 C 
ATOM      5  C   UNL     1       6.446  -2.684   4.031  1.00  0.00     0.175 C 
ATOM      6  C   UNL     1       5.005  -2.668   0.658  1.00  0.00     0.059 C 
ATOM      7  C   UNL     1       3.461  -4.491   2.543  1.00  0.00     0.008 C 
ATOM      8  C   UNL     1       4.233  -3.901   0.139  1.00  0.00     0.143 C 
ATOM      9  C   UNL     1       3.062  -4.283   1.067  1.00  0.00     0.034 C 
ENDROOT
BRANCH   1  10
ATOM     10  C   UNL     1       6.607  -0.602   2.705  1.00  0.00     0.246 C 
ATOM     11  O   UNL     1       5.880   0.337   2.364  1.00  0.00    -0.272 OA
BRANCH  10  12
ATOM     12  C   UNL     1       8.120  -0.387   3.003  1.00  0.00     0.174 C 
BRANCH  12  13
ATOM     13  N   UNL     1       8.283   0.617   4.053  1.00  0.00    -0.342 N 
ATOM     14  C   UNL     1       8.651   0.348   5.353  1.00  0.00     0.249 C 
ATOM     15  O   UNL     1       8.911  -0.773   5.770  1.00  0.00    -0.272 OA
ATOM     16  H   UNL     1       7.952   1.566   3.899  1.00  0.00     0.164 HD
BRANCH  14  17
ATOM     17  C   UNL     1       8.721   1.619   6.227  1.00  0.00     0.207 C 
BRANCH  17  18
ATOM     18  C   UNL     1       8.553   2.873   5.363  1.00  0.00     0.077 C 
BRANCH  18  19
ATOM     19  C   UNL     1       9.882   3.528   5.059  1.00  0.00    -0.043 A 
ATOM     20  C   UNL     1      11.560   5.208   5.553  1.00  0.00     0.083 A 
ATOM     21  C   UNL     1      10.357   4.573   5.866  1.00  0.00     0.028 A 
ATOM     22  C   UNL     1      12.292   4.806   4.436  1.00  0.00     0.134 A 
ATOM     23  C   UNL     1      11.833   3.772   3.628  1.00  0.00     0.048 A 
ATOM     24  C   UNL     1      10.628   3.136   3.937  1.00  0.00     0.008 A 
ATOM     25  Cl  UNL     1      12.127   6.491   6.557  1.00  0.00    -0.080 Cl
BRANCH  22  26
ATOM     26  O   UNL     1      13.471   5.406   4.084  1.00  0.00    -0.506 OA
ATOM     27  H   UNL     1      13.271   6.347   3.928  1.00  0.00     0.293 HD
ENDBRANCH  22  26
ENDBRANCH  18  19
ENDBRANCH  17  18
BRANCH  17  28
ATOM     28  O   UNL     1       9.969   1.692   6.935  1.00  0.00    -0.383 OA
ATOM     29  H   UNL     1      10.155   0.778   7.251  1.00  0.00     0.211 HD
ENDBRANCH  17  28
ENDBRANCH  14  17
ENDBRANCH  12  13
BRANCH  12  30
ATOM     30  C   UNL     1       8.940  -0.051   1.729  1.00  0.00     0.018 C 
ATOM     31  C   UNL     1       8.645  -1.059   0.607  1.00  0.00     0.010 C 
BRANCH  30  32
ATOM     32  C   UNL     1      10.466   0.036   1.977  1.00  0.00     0.002 C 
ATOM     33  C   UNL     1      11.320   0.212   0.728  1.00  0.00     0.004 C 
ENDBRANCH  30  32
ENDBRANCH  12  30
ENDBRANCH  10  12
ENDBRANCH   1  10
BRANCH   5  34
ATOM     34  C   UNL     1       7.713  -3.522   3.713  1.00  0.00     0.242 C 
ATOM     35  O   UNL     1       7.963  -3.932   2.580  1.00  0.00    -0.273 OA
ATOM     36  N   UNL     1       8.507  -3.818   4.799  1.00  0.00    -0.354 N 
ATOM     37  H   UNL     1       8.185  -3.552   5.730  1.00  0.00     0.163 HD
BRANCH  36  38
ATOM     38  C   UNL     1       9.826  -4.399   4.657  1.00  0.00     0.116 C 
BRANCH  38  39
ATOM     39  C   UNL     1       9.808  -5.848   5.135  1.00  0.00     0.023 C 
BRANCH  39  40
ATOM     40  C   UNL     1       9.465  -6.827   4.017  1.00  0.00     0.026 C 
BRANCH  40  41
ATOM     41  C   UNL     1      10.312  -6.549   2.775  1.00  0.00     0.146 C 
BRANCH  41  42
ATOM     42  N   UNL     1       9.734  -7.230   1.623  1.00  0.00    -0.254 NA
ATOM     43  C   UNL     1       9.433  -6.557   0.576  1.00  0.00     0.185 C 
ATOM     44  N   UNL     1       9.563  -5.242   0.325  1.00  0.00    -0.370 N 
ATOM     45  N   UNL     1       8.898  -7.202  -0.474  1.00  0.00    -0.370 N 
ATOM     46  H   UNL     1       9.065  -4.813  -0.436  1.00  0.00     0.159 HD
ATOM     47  H   UNL     1       9.964  -4.606   1.008  1.00  0.00     0.159 HD
ATOM     48  H   UNL     1       8.774  -8.200  -0.371  1.00  0.00     0.159 HD
ATOM     49  H   UNL     1       8.857  -6.803  -1.394  1.00  0.00     0.159 HD
ENDBRANCH  41  42
ENDBRANCH  40  41
ENDBRANCH  39  40
ENDBRANCH  38  39
ENDBRANCH  36  38
ENDBRANCH   5  34
BRANCH   8  50
ATOM     50  O   UNL     1       5.113  -5.021   0.035  1.00  0.00    -0.245 OA
BRANCH  50  51
ATOM     51  S   UNL     1       5.770  -5.394  -1.406  1.00  0.00     0.397 S 
ATOM     52  O   UNL     1       4.999  -4.730  -2.433  1.00  0.00    -0.169 OA
ATOM     53  O   UNL     1       6.046  -6.815  -1.461  1.00  0.00    -0.169 OA
BRANCH  51  54
ATOM     54  O   UNL     1       7.177  -4.618  -1.344  1.00  0.00    -0.264 OA
ATOM     55  H   UNL     1       7.613  -4.858  -0.501  1.00  0.00     0.236 HD
ENDBRANCH  51  54
ENDBRANCH  50  51
ENDBRANCH   8  50
TORSDOF 19
ENDMDL
MODEL 45
REMARK VINA RESULT:    -6.881      4.546      8.432
REMARK INTER + INTRA:         -17.156
REMARK INTER:                 -14.656
REMARK INTRA:                  -2.500
REMARK UNBOUND:                -3.236
REMARK SMILES CC[C@@H](C)[C@@H](NC(=O)[C@@H](O)Cc1ccc(O)c(Cl)c1)C(=O)N1[C@H](C(=O)NCCCCN=C(N)N)C[C@H]2CC[C@H](OS(=O)(=O)O)C[C@@H]21
REMARK SMILES IDX 22 1 36 2 46 3 35 4 23 5 45 6 37 7 39 8 38 9 20 10 21 11
REMARK SMILES IDX 5 12 6 13 7 14 8 15 9 17 11 18 12 19 17 20 19 21 15 22 14 23
REMARK SMILES IDX 13 24 18 25 16 26 10 28 3 30 4 31 2 32 1 33 24 34 25 35
REMARK SMILES IDX 26 36 27 38 28 39 29 40 30 41 31 42 32 43 33 44 34 45 40 50
REMARK SMILES IDX 41 51 42 52 43 53 44 54
REMARK H PARENT 6 16 16 27 10 29 26 37 33 46 33 47 34 48 34 49 44 55
ROOT
ATOM      1  N   UNL     1       6.934  -1.749   1.930  1.00  0.00    -0.326 N 
ATOM      2  C   UNL     1       5.769   0.171   2.636  1.00  0.00     0.014 C 
ATOM      3  C   UNL     1       5.829  -0.877   1.521  1.00  0.00     0.091 C 
ATOM      4  C   UNL     1       7.232   0.338   3.018  1.00  0.00     0.041 C 
ATOM      5  C   UNL     1       7.672  -1.137   3.063  1.00  0.00     0.175 C 
ATOM      6  C   UNL     1       4.441  -1.493   1.362  1.00  0.00     0.059 C 
ATOM      7  C   UNL     1       4.972   1.384   2.197  1.00  0.00     0.008 C 
ATOM      8  C   UNL     1       3.287  -0.516   1.678  1.00  0.00     0.143 C 
ATOM      9  C   UNL     1       3.694   0.953   1.448  1.00  0.00     0.034 C 
ENDROOT
BRANCH   1  10
ATOM     10  C   UNL     1       7.466  -2.862   1.302  1.00  0.00     0.246 C 
ATOM     11  O   UNL     1       7.108  -3.987   1.667  1.00  0.00    -0.272 OA
BRANCH  10  12
ATOM     12  C   UNL     1       8.466  -2.674   0.124  1.00  0.00     0.174 C 
BRANCH  12  13
ATOM     13  N   UNL     1       9.401  -1.593   0.433  1.00  0.00    -0.342 N 
ATOM     14  C   UNL     1      10.754  -1.752   0.636  1.00  0.00     0.249 C 
ATOM     15  O   UNL     1      11.334  -2.828   0.552  1.00  0.00    -0.272 OA
ATOM     16  H   UNL     1       9.044  -0.675   0.687  1.00  0.00     0.164 HD
BRANCH  14  17
ATOM     17  C   UNL     1      11.468  -0.423   0.961  1.00  0.00     0.207 C 
BRANCH  17  18
ATOM     18  C   UNL     1      11.310  -0.080   2.446  1.00  0.00     0.077 C 
BRANCH  18  19
ATOM     19  C   UNL     1      11.907   1.270   2.777  1.00  0.00    -0.043 A 
ATOM     20  C   UNL     1      11.633   3.571   3.493  1.00  0.00     0.083 A 
ATOM     21  C   UNL     1      11.087   2.313   3.235  1.00  0.00     0.028 A 
ATOM     22  C   UNL     1      12.995   3.796   3.293  1.00  0.00     0.134 A 
ATOM     23  C   UNL     1      13.818   2.771   2.839  1.00  0.00     0.048 A 
ATOM     24  C   UNL     1      13.275   1.511   2.579  1.00  0.00     0.008 A 
ATOM     25  Cl  UNL     1      10.610   4.841   4.055  1.00  0.00    -0.080 Cl
BRANCH  22  26
ATOM     26  O   UNL     1      13.574   5.015   3.522  1.00  0.00    -0.506 OA
ATOM     27  H   UNL     1      13.838   5.028   4.460  1.00  0.00     0.293 HD
ENDBRANCH  22  26
ENDBRANCH  18  19
ENDBRANCH  17  18
BRANCH  17  28
ATOM     28  O   UNL     1      10.946   0.653   0.165  1.00  0.00    -0.383 OA
ATOM     29  H   UNL     1      11.243   1.483   0.602  1.00  0.00     0.211 HD
ENDBRANCH  17  28
ENDBRANCH  14  17
ENDBRANCH  12  13
BRANCH  12  30
ATOM     30  C   UNL     1       7.754  -2.471  -1.240  1.00  0.00     0.018 C 
ATOM     31  C   UNL     1       7.539  -0.976  -1.527  1.00  0.00     0.010 C 
BRANCH  30  32
ATOM     32  C   UNL     1       6.413  -3.234  -1.362  1.00  0.00     0.002 C 
ATOM     33  C   UNL     1       6.532  -4.698  -1.768  1.00  0.00     0.004 C 
ENDBRANCH  30  32
ENDBRANCH  12  30
ENDBRANCH  10  12
ENDBRANCH   1  10
BRANCH   5  34
ATOM     34  C   UNL     1       7.277  -1.811   4.404  1.00  0.00     0.242 C 
ATOM     35  O   UNL     1       6.216  -2.417   4.549  1.00  0.00    -0.273 OA
ATOM     36  N   UNL     1       8.175  -1.635   5.434  1.00  0.00    -0.354 N 
ATOM     37  H   UNL     1       8.978  -1.022   5.286  1.00  0.00     0.163 HD
BRANCH  36  38
ATOM     38  C   UNL     1       8.075  -2.367   6.679  1.00  0.00     0.116 C 
BRANCH  38  39
ATOM     39  C   UNL     1       9.466  -2.795   7.142  1.00  0.00     0.023 C 
BRANCH  39  40
ATOM     40  C   UNL     1       9.951  -1.997   8.347  1.00  0.00     0.026 C 
BRANCH  40  41
ATOM     41  C   UNL     1       8.789  -1.256   9.010  1.00  0.00     0.146 C 
BRANCH  41  42
ATOM     42  N   UNL     1       9.250   0.028   9.519  1.00  0.00    -0.254 NA
ATOM     43  C   UNL     1       8.977   1.100   8.874  1.00  0.00     0.185 C 
ATOM     44  N   UNL     1       8.290   1.270   7.730  1.00  0.00    -0.370 N 
ATOM     45  N   UNL     1       9.415   2.274   9.358  1.00  0.00    -0.370 N 
ATOM     46  H   UNL     1       8.361   2.129   7.212  1.00  0.00     0.159 HD
ATOM     47  H   UNL     1       7.876   0.486   7.235  1.00  0.00     0.159 HD
ATOM     48  H   UNL     1       9.935   2.236  10.224  1.00  0.00     0.159 HD
ATOM     49  H   UNL     1       9.050   3.159   9.053  1.00  0.00     0.159 HD
ENDBRANCH  41  42
ENDBRANCH  40  41
ENDBRANCH  39  40
ENDBRANCH  38  39
ENDBRANCH  36  38
ENDBRANCH   5  34
BRANCH   8  50
ATOM     50  O   UNL     1       2.877  -0.666   3.037  1.00  0.00    -0.245 OA
BRANCH  50  51
ATOM     51  S   UNL     1       2.291  -2.095   3.547  1.00  0.00     0.397 S 
ATOM     52  O   UNL     1       2.520  -3.069   2.503  1.00  0.00    -0.169 OA
ATOM     53  O   UNL     1       0.980  -1.902   4.132  1.00  0.00    -0.169 OA
BRANCH  51  54
ATOM     54  O   UNL     1       3.311  -2.474   4.730  1.00  0.00    -0.264 OA
ATOM     55  H   UNL     1       3.505  -3.431   4.662  1.00  0.00     0.236 HD
ENDBRANCH  51  54
ENDBRANCH  50  51
ENDBRANCH   8  50
TORSDOF 19
ENDMDL
MODEL 46
REMARK VINA RESULT:    -6.834      4.376      8.903
REMARK INTER + INTRA:         -17.061
REMARK INTER:                 -14.186
REMARK INTRA:                  -2.875
REMARK UNBOUND:                -3.236
REMARK SMILES CC[C@@H](C)[C@@H](NC(=O)[C@@H](O)Cc1ccc(O)c(Cl)c1)C(=O)N1[C@H](C(=O)NCCCCN=C(N)N)C[C@H]2CC[C@H](OS(=O)(=O)O)C[C@@H]21
REMARK SMILES IDX 22 1 36 2 46 3 35 4 23 5 45 6 37 7 39 8 38 9 20 10 21 11
REMARK SMILES IDX 5 12 6 13 7 14 8 15 9 17 11 18 12 19 17 20 19 21 15 22 14 23
REMARK SMILES IDX 13 24 18 25 16 26 10 28 3 30 4 31 2 32 1 33 24 34 25 35
REMARK SMILES IDX 26 36 27 38 28 39 29 40 30 41 31 42 32 43 33 44 34 45 40 50
REMARK SMILES IDX 41 51 42 52 43 53 44 54
REMARK H PARENT 6 16 16 27 10 29 26 37 33 46 33 47 34 48 34 49 44 55
ROOT
ATOM      1  N   UNL     1       4.877  -2.430   2.950  1.00  0.00    -0.326 N 
ATOM      2  C   UNL     1       6.813  -2.906   4.203  1.00  0.00     0.014 C 
ATOM      3  C   UNL     1       6.275  -2.008   3.085  1.00  0.00     0.091 C 
ATOM      4  C   UNL     1       6.064  -4.211   3.974  1.00  0.00     0.041 C 
ATOM      5  C   UNL     1       4.643  -3.670   3.731  1.00  0.00     0.175 C 
ATOM      6  C   UNL     1       6.560  -0.554   3.455  1.00  0.00     0.059 C 
ATOM      7  C   UNL     1       8.329  -2.911   4.212  1.00  0.00     0.008 C 
ATOM      8  C   UNL     1       7.852  -0.364   4.279  1.00  0.00     0.143 C 
ATOM      9  C   UNL     1       8.878  -1.483   4.012  1.00  0.00     0.034 C 
ENDROOT
BRANCH   1  10
ATOM     10  C   UNL     1       3.896  -1.984   2.081  1.00  0.00     0.246 C 
ATOM     11  O   UNL     1       2.831  -1.559   2.544  1.00  0.00    -0.272 OA
BRANCH  10  12
ATOM     12  C   UNL     1       4.168  -1.987   0.549  1.00  0.00     0.174 C 
BRANCH  12  13
ATOM     13  N   UNL     1       5.168  -3.003   0.222  1.00  0.00    -0.342 N 
ATOM     14  C   UNL     1       4.906  -4.345   0.060  1.00  0.00     0.249 C 
ATOM     15  O   UNL     1       3.788  -4.838   0.146  1.00  0.00    -0.272 OA
ATOM     16  H   UNL     1       6.157  -2.772   0.274  1.00  0.00     0.164 HD
BRANCH  14  17
ATOM     17  C   UNL     1       6.174  -5.164  -0.263  1.00  0.00     0.207 C 
BRANCH  17  18
ATOM     18  C   UNL     1       7.136  -5.155   0.929  1.00  0.00     0.077 C 
BRANCH  18  19
ATOM     19  C   UNL     1       8.442  -4.470   0.592  1.00  0.00    -0.043 A 
ATOM     20  C   UNL     1       9.720  -2.440   0.235  1.00  0.00     0.083 A 
ATOM     21  C   UNL     1       8.528  -3.070   0.594  1.00  0.00     0.028 A 
ATOM     22  C   UNL     1      10.830  -3.203  -0.129  1.00  0.00     0.134 A 
ATOM     23  C   UNL     1      10.759  -4.591  -0.135  1.00  0.00     0.048 A 
ATOM     24  C   UNL     1       9.566  -5.224   0.222  1.00  0.00     0.008 A 
ATOM     25  Cl  UNL     1       9.807  -0.718   0.243  1.00  0.00    -0.080 Cl
BRANCH  22  26
ATOM     26  O   UNL     1      12.018  -2.631  -0.499  1.00  0.00    -0.506 OA
ATOM     27  H   UNL     1      12.692  -3.334  -0.457  1.00  0.00     0.293 HD
ENDBRANCH  22  26
ENDBRANCH  18  19
ENDBRANCH  17  18
BRANCH  17  28
ATOM     28  O   UNL     1       6.845  -4.643  -1.421  1.00  0.00    -0.383 OA
ATOM     29  H   UNL     1       7.581  -5.267  -1.614  1.00  0.00     0.211 HD
ENDBRANCH  17  28
ENDBRANCH  14  17
ENDBRANCH  12  13
BRANCH  12  30
ATOM     30  C   UNL     1       4.550  -0.584   0.005  1.00  0.00     0.018 C 
ATOM     31  C   UNL     1       6.022  -0.551  -0.436  1.00  0.00     0.010 C 
BRANCH  30  32
ATOM     32  C   UNL     1       4.267   0.567   1.001  1.00  0.00     0.002 C 
ATOM     33  C   UNL     1       3.236   1.589   0.540  1.00  0.00     0.004 C 
ENDBRANCH  30  32
ENDBRANCH  12  30
ENDBRANCH  10  12
ENDBRANCH   1  10
BRANCH   5  34
ATOM     34  C   UNL     1       3.916  -3.351   5.064  1.00  0.00     0.242 C 
ATOM     35  O   UNL     1       3.175  -2.376   5.193  1.00  0.00    -0.273 OA
ATOM     36  N   UNL     1       4.202  -4.205   6.106  1.00  0.00    -0.354 N 
ATOM     37  H   UNL     1       4.915  -4.923   5.971  1.00  0.00     0.163 HD
BRANCH  36  38
ATOM     38  C   UNL     1       3.456  -4.187   7.347  1.00  0.00     0.116 C 
BRANCH  38  39
ATOM     39  C   UNL     1       4.402  -4.418   8.524  1.00  0.00     0.023 C 
BRANCH  39  40
ATOM     40  C   UNL     1       5.685  -3.601   8.408  1.00  0.00     0.026 C 
BRANCH  40  41
ATOM     41  C   UNL     1       5.876  -2.715   9.639  1.00  0.00     0.146 C 
BRANCH  41  42
ATOM     42  N   UNL     1       4.820  -1.713   9.694  1.00  0.00    -0.254 NA
ATOM     43  C   UNL     1       4.188  -1.519  10.789  1.00  0.00     0.185 C 
ATOM     44  N   UNL     1       4.330  -2.114  11.988  1.00  0.00    -0.370 N 
ATOM     45  N   UNL     1       3.214  -0.593  10.818  1.00  0.00    -0.370 N 
ATOM     46  H   UNL     1       3.610  -2.039  12.686  1.00  0.00     0.159 HD
ATOM     47  H   UNL     1       5.031  -2.830  12.147  1.00  0.00     0.159 HD
ATOM     48  H   UNL     1       3.048  -0.091   9.956  1.00  0.00     0.159 HD
ATOM     49  H   UNL     1       2.843  -0.220  11.673  1.00  0.00     0.159 HD
ENDBRANCH  41  42
ENDBRANCH  40  41
ENDBRANCH  39  40
ENDBRANCH  38  39
ENDBRANCH  36  38
ENDBRANCH   5  34
BRANCH   8  50
ATOM     50  O   UNL     1       7.546  -0.352   5.673  1.00  0.00    -0.245 OA
BRANCH  50  51
ATOM     51  S   UNL     1       8.396   0.609   6.673  1.00  0.00     0.397 S 
ATOM     52  O   UNL     1       8.244   1.973   6.218  1.00  0.00    -0.169 OA
ATOM     53  O   UNL     1       9.701   0.029   6.912  1.00  0.00    -0.169 OA
BRANCH  51  54
ATOM     54  O   UNL     1       7.550   0.506   8.037  1.00  0.00    -0.264 OA
ATOM     55  H   UNL     1       7.644  -0.406   8.378  1.00  0.00     0.236 HD
ENDBRANCH  51  54
ENDBRANCH  50  51
ENDBRANCH   8  50
TORSDOF 19
ENDMDL
MODEL 47
REMARK VINA RESULT:    -6.823      3.522      8.823
REMARK INTER + INTRA:         -17.040
REMARK INTER:                 -14.540
REMARK INTRA:                  -2.500
REMARK UNBOUND:                -3.236
REMARK SMILES CC[C@@H](C)[C@@H](NC(=O)[C@@H](O)Cc1ccc(O)c(Cl)c1)C(=O)N1[C@H](C(=O)NCCCCN=C(N)N)C[C@H]2CC[C@H](OS(=O)(=O)O)C[C@@H]21
REMARK SMILES IDX 22 1 36 2 46 3 35 4 23 5 45 6 37 7 39 8 38 9 20 10 21 11
REMARK SMILES IDX 5 12 6 13 7 14 8 15 9 17 11 18 12 19 17 20 19 21 15 22 14 23
REMARK SMILES IDX 13 24 18 25 16 26 10 28 3 30 4 31 2 32 1 33 24 34 25 35
REMARK SMILES IDX 26 36 27 38 28 39 29 40 30 41 31 42 32 43 33 44 34 45 40 50
REMARK SMILES IDX 41 51 42 52 43 53 44 54
REMARK H PARENT 6 16 16 27 10 29 26 37 33 46 33 47 34 48 34 49 44 55
ROOT
ATOM      1  N   UNL     1       7.204  -2.672  -0.366  1.00  0.00    -0.326 N 
ATOM      2  C   UNL     1       5.791  -0.791  -0.306  1.00  0.00     0.014 C 
ATOM      3  C   UNL     1       5.795  -2.305  -0.533  1.00  0.00     0.091 C 
ATOM      4  C   UNL     1       7.127  -0.360  -0.891  1.00  0.00     0.041 C 
ATOM      5  C   UNL     1       8.044  -1.450  -0.307  1.00  0.00     0.175 C 
ATOM      6  C   UNL     1       4.766  -2.937   0.402  1.00  0.00     0.059 C 
ATOM      7  C   UNL     1       4.513  -0.168  -0.832  1.00  0.00     0.008 C 
ATOM      8  C   UNL     1       3.551  -2.030   0.693  1.00  0.00     0.143 C 
ATOM      9  C   UNL     1       3.290  -1.028  -0.449  1.00  0.00     0.034 C 
ENDROOT
BRANCH   1  10
ATOM     10  C   UNL     1       7.819  -3.909  -0.474  1.00  0.00     0.246 C 
ATOM     11  O   UNL     1       8.685  -4.076  -1.339  1.00  0.00    -0.272 OA
BRANCH  10  12
ATOM     12  C   UNL     1       7.437  -5.044   0.519  1.00  0.00     0.174 C 
BRANCH  12  13
ATOM     13  N   UNL     1       8.603  -5.419   1.319  1.00  0.00    -0.342 N 
ATOM     14  C   UNL     1       8.662  -5.384   2.694  1.00  0.00     0.249 C 
ATOM     15  O   UNL     1       7.723  -5.057   3.409  1.00  0.00    -0.272 OA
ATOM     16  H   UNL     1       9.502  -5.560   0.864  1.00  0.00     0.164 HD
BRANCH  14  17
ATOM     17  C   UNL     1      10.037  -5.823   3.243  1.00  0.00     0.207 C 
BRANCH  17  18
ATOM     18  C   UNL     1       9.906  -7.130   4.032  1.00  0.00     0.077 C 
BRANCH  18  19
ATOM     19  C   UNL     1      10.035  -8.342   3.138  1.00  0.00    -0.043 A 
ATOM     20  C   UNL     1      10.760  -9.350   1.054  1.00  0.00     0.083 A 
ATOM     21  C   UNL     1      10.686  -8.242   1.898  1.00  0.00     0.028 A 
ATOM     22  C   UNL     1      10.185 -10.561   1.440  1.00  0.00     0.134 A 
ATOM     23  C   UNL     1       9.538 -10.675   2.665  1.00  0.00     0.048 A 
ATOM     24  C   UNL     1       9.461  -9.567   3.511  1.00  0.00     0.008 A 
ATOM     25  Cl  UNL     1      11.563  -9.207  -0.466  1.00  0.00    -0.080 Cl
BRANCH  22  26
ATOM     26  O   UNL     1      10.223 -11.672   0.641  1.00  0.00    -0.506 OA
ATOM     27  H   UNL     1      11.108 -11.693   0.232  1.00  0.00     0.293 HD
ENDBRANCH  22  26
ENDBRANCH  18  19
ENDBRANCH  17  18
BRANCH  17  28
ATOM     28  O   UNL     1      10.604  -4.810   4.088  1.00  0.00    -0.383 OA
ATOM     29  H   UNL     1      10.587  -3.977   3.564  1.00  0.00     0.211 HD
ENDBRANCH  17  28
ENDBRANCH  14  17
ENDBRANCH  12  13
BRANCH  12  30
ATOM     30  C   UNL     1       6.785  -6.264  -0.185  1.00  0.00     0.018 C 
ATOM     31  C   UNL     1       7.835  -7.345  -0.489  1.00  0.00     0.010 C 
BRANCH  30  32
ATOM     32  C   UNL     1       6.012  -5.896  -1.475  1.00  0.00     0.002 C 
ATOM     33  C   UNL     1       6.559  -6.507  -2.759  1.00  0.00     0.004 C 
ENDBRANCH  30  32
ENDBRANCH  12  30
ENDBRANCH  10  12
ENDBRANCH   1  10
BRANCH   5  34
ATOM     34  C   UNL     1       8.451  -1.132   1.157  1.00  0.00     0.242 C 
ATOM     35  O   UNL     1       8.040  -1.791   2.112  1.00  0.00    -0.273 OA
ATOM     36  N   UNL     1       9.259  -0.028   1.313  1.00  0.00    -0.354 N 
ATOM     37  H   UNL     1       9.467   0.548   0.497  1.00  0.00     0.163 HD
BRANCH  36  38
ATOM     38  C   UNL     1       9.904   0.285   2.571  1.00  0.00     0.116 C 
BRANCH  38  39
ATOM     39  C   UNL     1      10.846   1.473   2.388  1.00  0.00     0.023 C 
BRANCH  39  40
ATOM     40  C   UNL     1      11.688   1.745   3.630  1.00  0.00     0.026 C 
BRANCH  40  41
ATOM     41  C   UNL     1      11.253   3.046   4.306  1.00  0.00     0.146 C 
BRANCH  41  42
ATOM     42  N   UNL     1       9.822   3.005   4.576  1.00  0.00    -0.254 NA
ATOM     43  C   UNL     1       9.373   3.477   5.678  1.00  0.00     0.185 C 
ATOM     44  N   UNL     1      10.027   4.046   6.707  1.00  0.00    -0.370 N 
ATOM     45  N   UNL     1       8.050   3.426   5.910  1.00  0.00    -0.370 N 
ATOM     46  H   UNL     1       9.583   4.146   7.604  1.00  0.00     0.159 HD
ATOM     47  H   UNL     1      11.034   4.176   6.692  1.00  0.00     0.159 HD
ATOM     48  H   UNL     1       7.482   3.020   5.180  1.00  0.00     0.159 HD
ATOM     49  H   UNL     1       7.602   3.975   6.622  1.00  0.00     0.159 HD
ENDBRANCH  41  42
ENDBRANCH  40  41
ENDBRANCH  39  40
ENDBRANCH  38  39
ENDBRANCH  36  38
ENDBRANCH   5  34
BRANCH   8  50
ATOM     50  O   UNL     1       3.764  -1.297   1.900  1.00  0.00    -0.245 OA
BRANCH  50  51
ATOM     51  S   UNL     1       3.692  -2.068   3.330  1.00  0.00     0.397 S 
ATOM     52  O   UNL     1       4.899  -1.760   4.064  1.00  0.00    -0.169 OA
ATOM     53  O   UNL     1       3.256  -3.433   3.126  1.00  0.00    -0.169 OA
BRANCH  51  54
ATOM     54  O   UNL     1       2.510  -1.276   4.079  1.00  0.00    -0.264 OA
ATOM     55  H   UNL     1       1.894  -1.940   4.449  1.00  0.00     0.236 HD
ENDBRANCH  51  54
ENDBRANCH  50  51
ENDBRANCH   8  50
TORSDOF 19
ENDMDL
MODEL 48
REMARK VINA RESULT:    -6.799      3.338      8.178
REMARK INTER + INTRA:         -16.990
REMARK INTER:                 -12.878
REMARK INTRA:                  -4.112
REMARK UNBOUND:                -3.236
REMARK SMILES CC[C@@H](C)[C@@H](NC(=O)[C@@H](O)Cc1ccc(O)c(Cl)c1)C(=O)N1[C@H](C(=O)NCCCCN=C(N)N)C[C@H]2CC[C@H](OS(=O)(=O)O)C[C@@H]21
REMARK SMILES IDX 22 1 36 2 46 3 35 4 23 5 45 6 37 7 39 8 38 9 20 10 21 11
REMARK SMILES IDX 5 12 6 13 7 14 8 15 9 17 11 18 12 19 17 20 19 21 15 22 14 23
REMARK SMILES IDX 13 24 18 25 16 26 10 28 3 30 4 31 2 32 1 33 24 34 25 35
REMARK SMILES IDX 26 36 27 38 28 39 29 40 30 41 31 42 32 43 33 44 34 45 40 50
REMARK SMILES IDX 41 51 42 52 43 53 44 54
REMARK H PARENT 6 16 16 27 10 29 26 37 33 46 33 47 34 48 34 49 44 55
ROOT
ATOM      1  N   UNL     1       9.108  -2.570   1.804  1.00  0.00    -0.326 N 
ATOM      2  C   UNL     1       7.204  -1.694   2.876  1.00  0.00     0.014 C 
ATOM      3  C   UNL     1       7.888  -3.008   2.489  1.00  0.00     0.091 C 
ATOM      4  C   UNL     1       7.556  -0.778   1.714  1.00  0.00     0.041 C 
ATOM      5  C   UNL     1       9.051  -1.109   1.550  1.00  0.00     0.175 C 
ATOM      6  C   UNL     1       8.031  -3.866   3.745  1.00  0.00     0.059 C 
ATOM      7  C   UNL     1       5.747  -1.924   3.226  1.00  0.00     0.008 C 
ATOM      8  C   UNL     1       6.896  -3.659   4.771  1.00  0.00     0.143 C 
ATOM      9  C   UNL     1       5.590  -3.184   4.103  1.00  0.00     0.034 C 
ENDROOT
BRANCH   1  10
ATOM     10  C   UNL     1      10.113  -3.319   1.217  1.00  0.00     0.246 C 
ATOM     11  O   UNL     1      11.291  -3.061   1.487  1.00  0.00    -0.272 OA
BRANCH  10  12
ATOM     12  C   UNL     1       9.739  -4.492   0.265  1.00  0.00     0.174 C 
BRANCH  12  13
ATOM     13  N   UNL     1       8.643  -4.089  -0.617  1.00  0.00    -0.342 N 
ATOM     14  C   UNL     1       8.742  -3.155  -1.623  1.00  0.00     0.249 C 
ATOM     15  O   UNL     1       9.779  -2.571  -1.913  1.00  0.00    -0.272 OA
ATOM     16  H   UNL     1       7.691  -4.370  -0.397  1.00  0.00     0.164 HD
BRANCH  14  17
ATOM     17  C   UNL     1       7.406  -2.936  -2.365  1.00  0.00     0.207 C 
BRANCH  17  18
ATOM     18  C   UNL     1       6.313  -3.834  -1.777  1.00  0.00     0.077 C 
BRANCH  18  19
ATOM     19  C   UNL     1       5.354  -3.055  -0.906  1.00  0.00    -0.043 A 
ATOM     20  C   UNL     1       3.543  -3.007   0.707  1.00  0.00     0.083 A 
ATOM     21  C   UNL     1       4.460  -3.728  -0.059  1.00  0.00     0.028 A 
ATOM     22  C   UNL     1       3.511  -1.614   0.631  1.00  0.00     0.134 A 
ATOM     23  C   UNL     1       4.391  -0.935  -0.203  1.00  0.00     0.048 A 
ATOM     24  C   UNL     1       5.309  -1.653  -0.972  1.00  0.00     0.008 A 
ATOM     25  Cl  UNL     1       2.452  -3.852   1.742  1.00  0.00    -0.080 Cl
BRANCH  22  26
ATOM     26  O   UNL     1       2.623  -0.865   1.355  1.00  0.00    -0.506 OA
ATOM     27  H   UNL     1       2.220  -1.465   2.010  1.00  0.00     0.293 HD
ENDBRANCH  22  26
ENDBRANCH  18  19
ENDBRANCH  17  18
BRANCH  17  28
ATOM     28  O   UNL     1       7.543  -3.209  -3.769  1.00  0.00    -0.383 OA
ATOM     29  H   UNL     1       6.702  -3.640  -4.046  1.00  0.00     0.211 HD
ENDBRANCH  17  28
ENDBRANCH  14  17
ENDBRANCH  12  13
BRANCH  12  30
ATOM     30  C   UNL     1       9.432  -5.809   1.027  1.00  0.00     0.018 C 
ATOM     31  C   UNL     1      10.591  -6.807   0.883  1.00  0.00     0.010 C 
BRANCH  30  32
ATOM     32  C   UNL     1       8.100  -6.475   0.605  1.00  0.00     0.002 C 
ATOM     33  C   UNL     1       8.240  -7.704  -0.283  1.00  0.00     0.004 C 
ENDBRANCH  30  32
ENDBRANCH  12  30
ENDBRANCH  10  12
ENDBRANCH   1  10
BRANCH   5  34
ATOM     34  C   UNL     1       9.924  -0.338   2.575  1.00  0.00     0.242 C 
ATOM     35  O   UNL     1      10.266  -0.829   3.650  1.00  0.00    -0.273 OA
ATOM     36  N   UNL     1      10.243   0.954   2.218  1.00  0.00    -0.354 N 
ATOM     37  H   UNL     1       9.830   1.345   1.370  1.00  0.00     0.163 HD
BRANCH  36  38
ATOM     38  C   UNL     1      11.219   1.738   2.945  1.00  0.00     0.116 C 
BRANCH  38  39
ATOM     39  C   UNL     1      10.535   2.931   3.608  1.00  0.00     0.023 C 
BRANCH  39  40
ATOM     40  C   UNL     1      11.037   3.176   5.027  1.00  0.00     0.026 C 
BRANCH  40  41
ATOM     41  C   UNL     1      11.131   1.863   5.804  1.00  0.00     0.146 C 
BRANCH  41  42
ATOM     42  N   UNL     1       9.794   1.407   6.162  1.00  0.00    -0.254 NA
ATOM     43  C   UNL     1       9.329   1.664   7.327  1.00  0.00     0.185 C 
ATOM     44  N   UNL     1       9.888   2.327   8.355  1.00  0.00    -0.370 N 
ATOM     45  N   UNL     1       8.096   1.231   7.639  1.00  0.00    -0.370 N 
ATOM     46  H   UNL     1       9.513   2.243   9.285  1.00  0.00     0.159 HD
ATOM     47  H   UNL     1      10.815   2.734   8.285  1.00  0.00     0.159 HD
ATOM     48  H   UNL     1       7.601   0.728   6.916  1.00  0.00     0.159 HD
ATOM     49  H   UNL     1       7.577   1.586   8.422  1.00  0.00     0.159 HD
ENDBRANCH  41  42
ENDBRANCH  40  41
ENDBRANCH  39  40
ENDBRANCH  38  39
ENDBRANCH  36  38
ENDBRANCH   5  34
BRANCH   8  50
ATOM     50  O   UNL     1       7.286  -2.690   5.745  1.00  0.00    -0.245 OA
BRANCH  50  51
ATOM     51  S   UNL     1       7.270  -3.085   7.323  1.00  0.00     0.397 S 
ATOM     52  O   UNL     1       8.428  -3.909   7.588  1.00  0.00    -0.169 OA
ATOM     53  O   UNL     1       5.937  -3.502   7.706  1.00  0.00    -0.169 OA
BRANCH  51  54
ATOM     54  O   UNL     1       7.569  -1.671   8.026  1.00  0.00    -0.264 OA
ATOM     55  H   UNL     1       8.478  -1.703   8.387  1.00  0.00     0.236 HD
ENDBRANCH  51  54
ENDBRANCH  50  51
ENDBRANCH   8  50
TORSDOF 19
ENDMDL
MODEL 49
REMARK VINA RESULT:    -6.756      3.976      9.371
REMARK INTER + INTRA:         -16.903
REMARK INTER:                 -14.908
REMARK INTRA:                  -1.995
REMARK UNBOUND:                -3.236
REMARK SMILES CC[C@@H](C)[C@@H](NC(=O)[C@@H](O)Cc1ccc(O)c(Cl)c1)C(=O)N1[C@H](C(=O)NCCCCN=C(N)N)C[C@H]2CC[C@H](OS(=O)(=O)O)C[C@@H]21
REMARK SMILES IDX 22 1 36 2 46 3 35 4 23 5 45 6 37 7 39 8 38 9 20 10 21 11
REMARK SMILES IDX 5 12 6 13 7 14 8 15 9 17 11 18 12 19 17 20 19 21 15 22 14 23
REMARK SMILES IDX 13 24 18 25 16 26 10 28 3 30 4 31 2 32 1 33 24 34 25 35
REMARK SMILES IDX 26 36 27 38 28 39 29 40 30 41 31 42 32 43 33 44 34 45 40 50
REMARK SMILES IDX 41 51 42 52 43 53 44 54
REMARK H PARENT 6 16 16 27 10 29 26 37 33 46 33 47 34 48 34 49 44 55
ROOT
ATOM      1  N   UNL     1       7.199  -2.524   1.081  1.00  0.00    -0.326 N 
ATOM      2  C   UNL     1       5.832  -0.613   0.923  1.00  0.00     0.014 C 
ATOM      3  C   UNL     1       5.997  -2.041   0.395  1.00  0.00     0.091 C 
ATOM      4  C   UNL     1       7.271  -0.153   1.097  1.00  0.00     0.041 C 
ATOM      5  C   UNL     1       7.876  -1.398   1.771  1.00  0.00     0.175 C 
ATOM      6  C   UNL     1       4.685  -2.792   0.617  1.00  0.00     0.059 C 
ATOM      7  C   UNL     1       4.897   0.188   0.039  1.00  0.00     0.008 C 
ATOM      8  C   UNL     1       3.432  -1.893   0.534  1.00  0.00     0.143 C 
ATOM      9  C   UNL     1       3.666  -0.655  -0.356  1.00  0.00     0.034 C 
ENDROOT
BRANCH   1  10
ATOM     10  C   UNL     1       7.845  -3.745   0.986  1.00  0.00     0.246 C 
ATOM     11  O   UNL     1       8.304  -4.263   2.010  1.00  0.00    -0.272 OA
BRANCH  10  12
ATOM     12  C   UNL     1       7.942  -4.456  -0.395  1.00  0.00     0.174 C 
BRANCH  12  13
ATOM     13  N   UNL     1       8.477  -5.806  -0.224  1.00  0.00    -0.342 N 
ATOM     14  C   UNL     1       7.734  -6.964  -0.281  1.00  0.00     0.249 C 
ATOM     15  O   UNL     1       6.532  -6.992  -0.512  1.00  0.00    -0.272 OA
ATOM     16  H   UNL     1       9.423  -5.932   0.127  1.00  0.00     0.164 HD
BRANCH  14  17
ATOM     17  C   UNL     1       8.585  -8.230  -0.043  1.00  0.00     0.207 C 
BRANCH  17  18
ATOM     18  C   UNL     1       9.505  -8.037   1.167  1.00  0.00     0.077 C 
BRANCH  18  19
ATOM     19  C   UNL     1       9.950  -9.359   1.751  1.00  0.00    -0.043 A 
ATOM     20  C   UNL     1      11.683 -11.012   2.135  1.00  0.00     0.083 A 
ATOM     21  C   UNL     1      11.287  -9.769   1.639  1.00  0.00     0.028 A 
ATOM     22  C   UNL     1      10.749 -11.851   2.744  1.00  0.00     0.134 A 
ATOM     23  C   UNL     1       9.421 -11.457   2.862  1.00  0.00     0.048 A 
ATOM     24  C   UNL     1       9.021 -10.215   2.364  1.00  0.00     0.008 A 
ATOM     25  Cl  UNL     1      13.331 -11.498   1.988  1.00  0.00    -0.080 Cl
BRANCH  22  26
ATOM     26  O   UNL     1      11.088 -13.082   3.236  1.00  0.00    -0.506 OA
ATOM     27  H   UNL     1      10.291 -13.439   3.669  1.00  0.00     0.293 HD
ENDBRANCH  22  26
ENDBRANCH  18  19
ENDBRANCH  17  18
BRANCH  17  28
ATOM     28  O   UNL     1       9.377  -8.545  -1.199  1.00  0.00    -0.383 OA
ATOM     29  H   UNL     1       9.295  -7.773  -1.804  1.00  0.00     0.211 HD
ENDBRANCH  17  28
ENDBRANCH  14  17
ENDBRANCH  12  13
BRANCH  12  30
ATOM     30  C   UNL     1       8.739  -3.630  -1.440  1.00  0.00     0.018 C 
ATOM     31  C   UNL     1       9.778  -2.733  -0.750  1.00  0.00     0.010 C 
BRANCH  30  32
ATOM     32  C   UNL     1       7.844  -2.784  -2.377  1.00  0.00     0.002 C 
ATOM     33  C   UNL     1       8.102  -1.283  -2.344  1.00  0.00     0.004 C 
ENDBRANCH  30  32
ENDBRANCH  12  30
ENDBRANCH  10  12
ENDBRANCH   1  10
BRANCH   5  34
ATOM     34  C   UNL     1       7.579  -1.427   3.294  1.00  0.00     0.242 C 
ATOM     35  O   UNL     1       6.689  -2.126   3.777  1.00  0.00    -0.273 OA
ATOM     36  N   UNL     1       8.345  -0.573   4.056  1.00  0.00    -0.354 N 
ATOM     37  H   UNL     1       8.983   0.068   3.584  1.00  0.00     0.163 HD
BRANCH  36  38
ATOM     38  C   UNL     1       8.353  -0.626   5.503  1.00  0.00     0.116 C 
BRANCH  38  39
ATOM     39  C   UNL     1       8.325   0.791   6.073  1.00  0.00     0.023 C 
BRANCH  39  40
ATOM     40  C   UNL     1       8.264   1.856   4.984  1.00  0.00     0.026 C 
BRANCH  40  41
ATOM     41  C   UNL     1       8.843   3.179   5.486  1.00  0.00     0.146 C 
BRANCH  41  42
ATOM     42  N   UNL     1      10.272   3.030   5.729  1.00  0.00    -0.254 NA
ATOM     43  C   UNL     1      10.779   3.477   6.817  1.00  0.00     0.185 C 
ATOM     44  N   UNL     1      10.191   4.102   7.853  1.00  0.00    -0.370 N 
ATOM     45  N   UNL     1      12.099   3.334   7.020  1.00  0.00    -0.370 N 
ATOM     46  H   UNL     1      10.740   4.612   8.523  1.00  0.00     0.159 HD
ATOM     47  H   UNL     1       9.191   4.280   7.870  1.00  0.00     0.159 HD
ATOM     48  H   UNL     1      12.617   2.864   6.290  1.00  0.00     0.159 HD
ATOM     49  H   UNL     1      12.524   3.437   7.924  1.00  0.00     0.159 HD
ENDBRANCH  41  42
ENDBRANCH  40  41
ENDBRANCH  39  40
ENDBRANCH  38  39
ENDBRANCH  36  38
ENDBRANCH   5  34
BRANCH   8  50
ATOM     50  O   UNL     1       3.059  -1.450   1.839  1.00  0.00    -0.245 OA
BRANCH  50  51
ATOM     51  S   UNL     1       2.405  -2.506   2.889  1.00  0.00     0.397 S 
ATOM     52  O   UNL     1       1.316  -1.842   3.569  1.00  0.00    -0.169 OA
ATOM     53  O   UNL     1       3.457  -3.181   3.619  1.00  0.00    -0.169 OA
BRANCH  51  54
ATOM     54  O   UNL     1       1.719  -3.577   1.904  1.00  0.00    -0.264 OA
ATOM     55  H   UNL     1       2.430  -4.136   1.530  1.00  0.00     0.236 HD
ENDBRANCH  51  54
ENDBRANCH  50  51
ENDBRANCH   8  50
TORSDOF 19
ENDMDL
MODEL 50
REMARK VINA RESULT:    -6.734      3.519      6.094
REMARK INTER + INTRA:         -16.859
REMARK INTER:                 -12.835
REMARK INTRA:                  -4.023
REMARK UNBOUND:                -3.236
REMARK SMILES CC[C@@H](C)[C@@H](NC(=O)[C@@H](O)Cc1ccc(O)c(Cl)c1)C(=O)N1[C@H](C(=O)NCCCCN=C(N)N)C[C@H]2CC[C@H](OS(=O)(=O)O)C[C@@H]21
REMARK SMILES IDX 22 1 36 2 46 3 35 4 23 5 45 6 37 7 39 8 38 9 20 10 21 11
REMARK SMILES IDX 5 12 6 13 7 14 8 15 9 17 11 18 12 19 17 20 19 21 15 22 14 23
REMARK SMILES IDX 13 24 18 25 16 26 10 28 3 30 4 31 2 32 1 33 24 34 25 35
REMARK SMILES IDX 26 36 27 38 28 39 29 40 30 41 31 42 32 43 33 44 34 45 40 50
REMARK SMILES IDX 41 51 42 52 43 53 44 54
REMARK H PARENT 6 16 16 27 10 29 26 37 33 46 33 47 34 48 34 49 44 55
ROOT
ATOM      1  N   UNL     1      10.765  -5.637   1.895  1.00  0.00    -0.326 N 
ATOM      2  C   UNL     1       9.648  -6.290   3.862  1.00  0.00     0.014 C 
ATOM      3  C   UNL     1      10.294  -5.087   3.169  1.00  0.00     0.091 C 
ATOM      4  C   UNL     1      10.526  -7.447   3.409  1.00  0.00     0.041 C 
ATOM      5  C   UNL     1      10.661  -7.117   1.911  1.00  0.00     0.175 C 
ATOM      6  C   UNL     1       9.277  -3.947   3.134  1.00  0.00     0.059 C 
ATOM      7  C   UNL     1       9.467  -6.030   5.344  1.00  0.00     0.008 C 
ATOM      8  C   UNL     1       8.313  -3.937   4.340  1.00  0.00     0.143 C 
ATOM      9  C   UNL     1       8.936  -4.601   5.585  1.00  0.00     0.034 C 
ENDROOT
BRANCH   1  10
ATOM     10  C   UNL     1      11.446  -5.020   0.859  1.00  0.00     0.246 C 
ATOM     11  O   UNL     1      11.420  -5.532  -0.266  1.00  0.00    -0.272 OA
BRANCH  10  12
ATOM     12  C   UNL     1      12.189  -3.678   1.121  1.00  0.00     0.174 C 
BRANCH  12  13
ATOM     13  N   UNL     1      11.357  -2.555   0.690  1.00  0.00    -0.342 N 
ATOM     14  C   UNL     1      11.173  -1.390   1.401  1.00  0.00     0.249 C 
ATOM     15  O   UNL     1      11.715  -1.152   2.473  1.00  0.00    -0.272 OA
ATOM     16  H   UNL     1      10.726  -2.669  -0.098  1.00  0.00     0.164 HD
BRANCH  14  17
ATOM     17  C   UNL     1      10.224  -0.402   0.689  1.00  0.00     0.207 C 
BRANCH  17  18
ATOM     18  C   UNL     1       9.183  -1.162  -0.139  1.00  0.00     0.077 C 
BRANCH  18  19
ATOM     19  C   UNL     1       7.779  -0.670   0.134  1.00  0.00    -0.043 A 
ATOM     20  C   UNL     1       6.110   0.172   1.680  1.00  0.00     0.083 A 
ATOM     21  C   UNL     1       7.419  -0.235   1.420  1.00  0.00     0.028 A 
ATOM     22  C   UNL     1       5.155   0.147   0.663  1.00  0.00     0.134 A 
ATOM     23  C   UNL     1       5.499  -0.280  -0.615  1.00  0.00     0.048 A 
ATOM     24  C   UNL     1       6.808  -0.691  -0.878  1.00  0.00     0.008 A 
ATOM     25  Cl  UNL     1       5.686   0.702   3.265  1.00  0.00    -0.080 Cl
BRANCH  22  26
ATOM     26  O   UNL     1       3.857   0.527   0.873  1.00  0.00    -0.506 OA
ATOM     27  H   UNL     1       3.871   1.186   1.591  1.00  0.00     0.293 HD
ENDBRANCH  22  26
ENDBRANCH  18  19
ENDBRANCH  17  18
BRANCH  17  28
ATOM     28  O   UNL     1      10.954   0.491  -0.167  1.00  0.00    -0.383 OA
ATOM     29  H   UNL     1      11.698  -0.036  -0.539  1.00  0.00     0.211 HD
ENDBRANCH  17  28
ENDBRANCH  14  17
ENDBRANCH  12  13
BRANCH  12  30
ATOM     30  C   UNL     1      13.606  -3.644   0.488  1.00  0.00     0.018 C 
ATOM     31  C   UNL     1      14.644  -3.133   1.499  1.00  0.00     0.010 C 
BRANCH  30  32
ATOM     32  C   UNL     1      13.683  -2.815  -0.818  1.00  0.00     0.002 C 
ATOM     33  C   UNL     1      14.055  -3.603  -2.068  1.00  0.00     0.004 C 
ENDBRANCH  30  32
ENDBRANCH  12  30
ENDBRANCH  10  12
ENDBRANCH   1  10
BRANCH   5  34
ATOM     34  C   UNL     1       9.421  -7.591   1.107  1.00  0.00     0.242 C 
ATOM     35  O   UNL     1       9.049  -8.764   1.101  1.00  0.00    -0.273 OA
ATOM     36  N   UNL     1       8.801  -6.615   0.358  1.00  0.00    -0.354 N 
ATOM     37  H   UNL     1       9.227  -5.689   0.309  1.00  0.00     0.163 HD
BRANCH  36  38
ATOM     38  C   UNL     1       7.517  -6.827  -0.276  1.00  0.00     0.116 C 
BRANCH  38  39
ATOM     39  C   UNL     1       6.895  -5.483  -0.649  1.00  0.00     0.023 C 
BRANCH  39  40
ATOM     40  C   UNL     1       5.986  -4.937   0.447  1.00  0.00     0.026 C 
BRANCH  40  41
ATOM     41  C   UNL     1       4.533  -4.890  -0.027  1.00  0.00     0.146 C 
BRANCH  41  42
ATOM     42  N   UNL     1       3.653  -4.637   1.106  1.00  0.00    -0.254 NA
ATOM     43  C   UNL     1       2.992  -3.543   1.162  1.00  0.00     0.185 C 
ATOM     44  N   UNL     1       2.956  -2.508   0.302  1.00  0.00    -0.370 N 
ATOM     45  N   UNL     1       2.189  -3.327   2.217  1.00  0.00    -0.370 N 
ATOM     46  H   UNL     1       2.587  -1.617   0.588  1.00  0.00     0.159 HD
ATOM     47  H   UNL     1       3.494  -2.511  -0.559  1.00  0.00     0.159 HD
ATOM     48  H   UNL     1       2.151  -4.063   2.909  1.00  0.00     0.159 HD
ATOM     49  H   UNL     1       1.472  -2.623   2.220  1.00  0.00     0.159 HD
ENDBRANCH  41  42
ENDBRANCH  40  41
ENDBRANCH  39  40
ENDBRANCH  38  39
ENDBRANCH  36  38
ENDBRANCH   5  34
BRANCH   8  50
ATOM     50  O   UNL     1       7.109  -4.630   4.011  1.00  0.00    -0.245 OA
BRANCH  50  51
ATOM     51  S   UNL     1       5.674  -3.995   4.439  1.00  0.00     0.397 S 
ATOM     52  O   UNL     1       5.885  -3.157   5.598  1.00  0.00    -0.169 OA
ATOM     53  O   UNL     1       4.661  -5.029   4.424  1.00  0.00    -0.169 OA
BRANCH  51  54
ATOM     54  O   UNL     1       5.375  -2.989   3.220  1.00  0.00    -0.264 OA
ATOM     55  H   UNL     1       4.478  -3.187   2.883  1.00  0.00     0.236 HD
ENDBRANCH  51  54
ENDBRANCH  50  51
ENDBRANCH   8  50
TORSDOF 19
ENDMDL
