MODEL 1
REMARK VINA RESULT:    -5.318      0.000      0.000
REMARK INTER + INTRA:         -23.776
REMARK INTER:                 -15.888
REMARK INTRA:                  -7.888
REMARK UNBOUND:                -7.888
REMARK SMILES C=C1C(=O)N[C@H](C)C(=O)N[C@@H](CC(C)C)C(=O)N[C@@H](C(=O)O)[C@H](C)C(=O)N[C@@H](CCCN=C(N)N)C(=O)N[C@@H](/C=C/C(C)=C/[C@H](C)[C@H](Cc2ccccc2)OC)[C@H](C)C(=O)N[C@@H](C(=O)O)CCC(=O)N1C
REMARK SMILES IDX 39 1 38 2 37 3 36 4 28 6 27 7 25 8 26 9 23 11 24 12 19 13
REMARK SMILES IDX 18 14 16 15 17 16 11 18 10 19 8 20 9 21 12 24 13 25 14 26
REMARK SMILES IDX 15 27 20 28 21 29 22 30 29 32 30 33 31 34 32 35 33 36 34 37
REMARK SMILES IDX 35 38 57 43 58 44 59 45 60 46 61 47 62 49 66 50 67 51 68 52
REMARK SMILES IDX 69 53 70 54 71 55 2 56 1 57 3 58 4 59 5 60 6 62 7 63 63 65
REMARK SMILES IDX 64 66 65 67 40 69 41 70 42 71 44 72 43 73 45 74 46 75 47 76
REMARK SMILES IDX 55 77 56 78 48 79 49 80 50 81 54 82 51 83 53 84 52 85
REMARK H PARENT 38 5 27 10 18 17 10 22 22 31 34 39 34 40 35 41 35 42 61 48
REMARK H PARENT 5 61 65 68
REMARK Flexibility Score:  369.900
ROOT
ATOM      1  C   UNL     1      -4.973  16.556   1.173  1.00  0.00     0.117 C 
ENDROOT
BRANCH   1   2
ATOM      2  N   UNL     1      -4.779  15.720   2.358  1.00  0.00    -0.347 N 
ATOM      3  O   UNL     1      -5.352  13.706   1.417  1.00  0.00    -0.273 OA
ATOM      4  C   UNL     1      -4.896  14.344   2.361  1.00  0.00     0.243 C 
ATOM      5  H   UNL     1      -4.494  16.150   3.225  1.00  0.00     0.164 HD
BRANCH   4   6
ATOM      6  C   UNL     1      -4.555  13.692   3.725  1.00  0.00     0.171 C 
BRANCH   6   7
ATOM      7  N   UNL     1      -5.711  12.942   4.240  1.00  0.00    -0.344 N 
ATOM      8  C   UNL     1      -5.717  12.459   5.531  1.00  0.00     0.226 C 
ATOM      9  O   UNL     1      -4.771  12.605   6.295  1.00  0.00    -0.275 OA
ATOM     10  H   UNL     1      -6.484  12.742   3.617  1.00  0.00     0.164 HD
BRANCH   8  11
ATOM     11  C   UNL     1      -7.002  11.755   5.929  1.00  0.00     0.109 C 
ATOM     12  C   UNL     1      -7.127  10.426   5.185  1.00  0.00     0.021 C 
BRANCH  11  13
ATOM     13  C   UNL     1      -7.083  11.647   7.465  1.00  0.00     0.204 C 
BRANCH  13  14
ATOM     14  N   UNL     1      -6.709  12.901   8.126  1.00  0.00    -0.340 N 
ATOM     15  C   UNL     1      -7.479  14.042   8.059  1.00  0.00     0.243 C 
ATOM     16  O   UNL     1      -8.568  14.070   7.489  1.00  0.00    -0.273 OA
ATOM     17  H   UNL     1      -5.754  12.989   8.484  1.00  0.00     0.164 HD
BRANCH  15  18
ATOM     18  C   UNL     1      -6.786  15.292   8.654  1.00  0.00     0.171 C 
BRANCH  18  19
ATOM     19  N   UNL     1      -6.133  15.978   7.540  1.00  0.00    -0.343 N 
ATOM     20  C   UNL     1      -4.769  15.901   7.336  1.00  0.00     0.242 CG0
ATOM     21  O   UNL     1      -4.026  15.363   8.153  1.00  0.00    -0.273 OA
ATOM     22  H   UNL     1      -6.692  16.532   6.901  1.00  0.00     0.164 HD
ATOM     23  G   UNL     1      -4.274  16.624   6.066  1.00  0.00     0.000 G0
ENDBRANCH  18  19
BRANCH  18  24
ATOM     24  C   UNL     1      -7.809  16.199   9.350  1.00  0.00     0.038 C 
BRANCH  24  25
ATOM     25  C   UNL     1      -7.910  17.624   8.766  1.00  0.00    -0.015 C 
ATOM     26  C   UNL     1      -7.213  18.666   9.642  1.00  0.00     0.007 C 
ATOM     27  C   UNL     1      -9.382  18.004   8.587  1.00  0.00     0.007 C 
ENDBRANCH  24  25
ENDBRANCH  18  24
ENDBRANCH  15  18
ENDBRANCH  13  14
BRANCH  13  28
ATOM     28  C   UNL     1      -8.478  11.267   7.971  1.00  0.00     0.327 C 
ATOM     29  O   UNL     1      -8.756  10.864   9.090  1.00  0.00    -0.250 OA
BRANCH  28  30
ATOM     30  O   UNL     1      -9.418  11.301   7.005  1.00  0.00    -0.480 OA
ATOM     31  H   UNL     1     -10.200  11.698   7.444  1.00  0.00     0.296 HD
ENDBRANCH  28  30
ENDBRANCH  13  28
ENDBRANCH  11  13
ENDBRANCH   8  11
ENDBRANCH   6   7
BRANCH   6  32
ATOM     32  C   UNL     1      -3.339  12.774   3.554  1.00  0.00     0.037 C 
BRANCH  32  33
ATOM     33  C   UNL     1      -2.038  13.566   3.362  1.00  0.00     0.026 C 
BRANCH  33  34
ATOM     34  C   UNL     1      -1.126  12.945   2.303  1.00  0.00     0.146 C 
BRANCH  34  35
ATOM     35  N   UNL     1      -1.903  12.005   1.507  1.00  0.00    -0.254 NA
ATOM     36  C   UNL     1      -1.291  11.268   0.656  1.00  0.00     0.185 C 
ATOM     37  N   UNL     1      -1.996  10.395  -0.079  1.00  0.00    -0.370 N 
ATOM     38  N   UNL     1       0.021  11.226   0.365  1.00  0.00    -0.370 N 
ATOM     39  H   UNL     1      -2.993  10.360   0.090  1.00  0.00     0.159 HD
ATOM     40  H   UNL     1      -1.576   9.669  -0.635  1.00  0.00     0.159 HD
ATOM     41  H   UNL     1       0.363  10.702  -0.424  1.00  0.00     0.159 HD
ATOM     42  H   UNL     1       0.670  11.841   0.831  1.00  0.00     0.159 HD
ENDBRANCH  34  35
ENDBRANCH  33  34
ENDBRANCH  32  33
ENDBRANCH   6  32
ENDBRANCH   4   6
ENDBRANCH   1   2
BRANCH   1  43
ATOM     43  C   UNL     1      -3.692  17.411   0.954  1.00  0.00     0.102 C 
ATOM     44  C   UNL     1      -3.891  18.571  -0.036  1.00  0.00     0.020 C 
BRANCH  43  45
ATOM     45  C   UNL     1      -2.486  16.522   0.636  1.00  0.00     0.225 C 
ATOM     46  O   UNL     1      -2.590  15.393   0.165  1.00  0.00    -0.275 OA
ATOM     47  N   UNL     1      -1.261  17.033   1.001  1.00  0.00    -0.342 N 
ATOM     48  H   UNL     1      -1.178  18.010   1.242  1.00  0.00     0.164 HD
BRANCH  47  49
ATOM     49  C   UNL     1      -0.016  16.309   0.726  1.00  0.00     0.192 C 
BRANCH  49  50
ATOM     50  C   UNL     1       1.087  16.808   1.663  1.00  0.00     0.047 C 
BRANCH  50  51
ATOM     51  C   UNL     1       0.661  18.052   2.453  1.00  0.00     0.103 C 
BRANCH  51  52
ATOM     52  C   UNL     1       1.123  17.994   3.908  1.00  0.00     0.226 C 
ATOM     53  O   UNL     1       2.308  17.774   4.163  1.00  0.00    -0.275 OA
BRANCH  52  54
ATOM     54  N   UNL     1       0.151  18.277   4.886  1.00  0.00    -0.311 N 
ATOM     55  C   UNL     1      -0.141  19.661   5.283  1.00  0.00     0.153 C 
BRANCH  54  56
ATOM     56  C   UNL     1      -0.578  17.253   5.512  1.00  0.00     0.102 C 
ATOM     57  C   UNL     1      -0.111  16.471   6.499  1.00  0.00     0.043 C 
BRANCH  56  58
ATOM     58  C   UNL     1      -2.014  16.979   5.131  1.00  0.00     0.268 C 
ATOM     59  O   UNL     1      -2.372  16.763   3.981  1.00  0.00    -0.268 OA
ATOM     60  N   UNL     1      -2.860  16.931   6.213  1.00  0.00    -0.339 N 
ATOM     61  H   UNL     1      -2.486  17.132   7.133  1.00  0.00     0.164 HD
BRANCH  60  62
ATOM     62  C   UNL     1      -4.282  16.619   6.077  1.00  0.00     0.168 CG0
ATOM     63  C   UNL     1      -5.100  17.882   5.843  1.00  0.00     0.041 C 
ATOM     64  G   UNL     1      -4.771  15.877   7.338  1.00  0.00     0.000 G0
ENDBRANCH  60  62
ENDBRANCH  56  58
ENDBRANCH  54  56
ENDBRANCH  52  54
ENDBRANCH  51  52
ENDBRANCH  50  51
ENDBRANCH  49  50
BRANCH  49  65
ATOM     65  C   UNL     1       0.434  16.489  -0.732  1.00  0.00     0.326 C 
ATOM     66  O   UNL     1       0.188  17.457  -1.437  1.00  0.00    -0.250 OA
BRANCH  65  67
ATOM     67  O   UNL     1       1.109  15.439  -1.248  1.00  0.00    -0.480 OA
ATOM     68  H   UNL     1       1.346  15.737  -2.153  1.00  0.00     0.296 HD
ENDBRANCH  65  67
ENDBRANCH  49  65
ENDBRANCH  47  49
ENDBRANCH  43  45
ENDBRANCH   1  43
BRANCH   1  69
ATOM     69  C   UNL     1      -6.302  17.264   1.366  1.00  0.00    -0.001 C 
ATOM     70  C   UNL     1      -7.155  17.133   2.397  1.00  0.00     0.001 C 
BRANCH  70  71
ATOM     71  C   UNL     1      -8.426  17.837   2.583  1.00  0.00    -0.055 C 
ATOM     72  C   UNL     1      -9.383  17.223   3.310  1.00  0.00    -0.018 C 
ATOM     73  C   UNL     1      -8.572  19.199   1.956  1.00  0.00     0.044 C 
BRANCH  72  74
ATOM     74  C   UNL     1     -10.781  17.709   3.667  1.00  0.00     0.038 C 
ATOM     75  C   UNL     1     -10.892  17.684   5.197  1.00  0.00     0.015 C 
BRANCH  74  76
ATOM     76  C   UNL     1     -11.823  16.824   2.922  1.00  0.00     0.128 C 
BRANCH  76  77
ATOM     77  O   UNL     1     -12.801  17.657   2.276  1.00  0.00    -0.381 OA
ATOM     78  C   UNL     1     -12.238  18.757   1.573  1.00  0.00     0.195 C 
ENDBRANCH  76  77
BRANCH  76  79
ATOM     79  C   UNL     1     -11.194  15.783   1.963  1.00  0.00     0.068 C 
BRANCH  79  80
ATOM     80  C   UNL     1     -10.791  14.446   2.537  1.00  0.00    -0.045 A 
ATOM     81  C   UNL     1     -11.703  13.665   3.259  1.00  0.00     0.004 A 
ATOM     82  C   UNL     1      -9.479  13.975   2.378  1.00  0.00     0.004 A 
ATOM     83  C   UNL     1     -11.318  12.436   3.799  1.00  0.00     0.000 A 
ATOM     84  C   UNL     1      -9.095  12.746   2.919  1.00  0.00     0.000 A 
ATOM     85  C   UNL     1     -10.015  11.977   3.628  1.00  0.00     0.000 A 
ENDBRANCH  79  80
ENDBRANCH  76  79
ENDBRANCH  74  76
ENDBRANCH  72  74
ENDBRANCH  70  71
ENDBRANCH   1  69
TORSDOF 17
ENDMDL
MODEL 2
REMARK VINA RESULT:    -5.219      2.824      7.752
REMARK INTER + INTRA:         -23.480
REMARK INTER:                 -14.643
REMARK INTRA:                  -8.837
REMARK UNBOUND:                -7.888
REMARK SMILES C=C1C(=O)N[C@H](C)C(=O)N[C@@H](CC(C)C)C(=O)N[C@@H](C(=O)O)[C@H](C)C(=O)N[C@@H](CCCN=C(N)N)C(=O)N[C@@H](/C=C/C(C)=C/[C@H](C)[C@H](Cc2ccccc2)OC)[C@H](C)C(=O)N[C@@H](C(=O)O)CCC(=O)N1C
REMARK SMILES IDX 39 1 38 2 37 3 36 4 28 6 27 7 25 8 26 9 23 11 24 12 19 13
REMARK SMILES IDX 18 14 16 15 17 16 11 18 10 19 8 20 9 21 12 24 13 25 14 26
REMARK SMILES IDX 15 27 20 28 21 29 22 30 29 32 30 33 31 34 32 35 33 36 34 37
REMARK SMILES IDX 35 38 57 43 58 44 59 45 60 46 61 47 62 49 66 50 67 51 68 52
REMARK SMILES IDX 69 53 70 54 71 55 2 56 1 57 3 58 4 59 5 60 6 62 7 63 63 65
REMARK SMILES IDX 64 66 65 67 40 69 41 70 42 71 44 72 43 73 45 74 46 75 47 76
REMARK SMILES IDX 55 77 56 78 48 79 49 80 50 81 54 82 51 83 53 84 52 85
REMARK H PARENT 38 5 27 10 18 17 10 22 22 31 34 39 34 40 35 41 35 42 61 48
REMARK H PARENT 5 61 65 68
REMARK Flexibility Score:  369.900
ROOT
ATOM      1  C   UNL     1      -3.802  14.377   3.881  1.00  0.00     0.117 C 
ENDROOT
BRANCH   1   2
ATOM      2  N   UNL     1      -5.264  14.383   3.935  1.00  0.00    -0.347 N 
ATOM      3  O   UNL     1      -5.660  14.325   1.674  1.00  0.00    -0.273 OA
ATOM      4  C   UNL     1      -6.079  14.264   2.826  1.00  0.00     0.243 C 
ATOM      5  H   UNL     1      -5.726  14.426   4.831  1.00  0.00     0.164 HD
BRANCH   4   6
ATOM      6  C   UNL     1      -7.590  14.210   3.165  1.00  0.00     0.171 C 
BRANCH   6   7
ATOM      7  N   UNL     1      -8.270  15.422   2.679  1.00  0.00    -0.344 N 
ATOM      8  C   UNL     1      -9.050  16.178   3.526  1.00  0.00     0.226 C 
ATOM      9  O   UNL     1      -9.235  15.877   4.699  1.00  0.00    -0.275 OA
ATOM     10  H   UNL     1      -8.196  15.666   1.699  1.00  0.00     0.164 HD
BRANCH   8  11
ATOM     11  C   UNL     1      -9.638  17.425   2.889  1.00  0.00     0.109 C 
ATOM     12  C   UNL     1     -11.041  17.684   3.437  1.00  0.00     0.021 C 
BRANCH  11  13
ATOM     13  C   UNL     1      -8.654  18.602   3.041  1.00  0.00     0.204 C 
BRANCH  13  14
ATOM     14  N   UNL     1      -7.657  18.355   4.087  1.00  0.00    -0.340 N 
ATOM     15  C   UNL     1      -7.065  19.368   4.811  1.00  0.00     0.243 C 
ATOM     16  O   UNL     1      -7.377  20.549   4.671  1.00  0.00    -0.273 OA
ATOM     17  H   UNL     1      -7.245  17.420   4.148  1.00  0.00     0.164 HD
BRANCH  15  18
ATOM     18  C   UNL     1      -5.898  18.887   5.708  1.00  0.00     0.171 C 
BRANCH  18  19
ATOM     19  N   UNL     1      -4.664  19.175   4.980  1.00  0.00    -0.343 N 
ATOM     20  C   UNL     1      -4.305  18.471   3.846  1.00  0.00     0.242 CG0
ATOM     21  O   UNL     1      -4.937  17.484   3.475  1.00  0.00    -0.273 OA
ATOM     22  H   UNL     1      -4.048  19.907   5.315  1.00  0.00     0.164 HD
ATOM     23  G   UNL     1      -3.011  18.969   3.170  1.00  0.00     0.000 G0
ENDBRANCH  18  19
BRANCH  18  24
ATOM     24  C   UNL     1      -5.929  19.600   7.065  1.00  0.00     0.038 C 
BRANCH  24  25
ATOM     25  C   UNL     1      -6.612  18.802   8.197  1.00  0.00    -0.015 C 
ATOM     26  C   UNL     1      -5.758  18.736   9.463  1.00  0.00     0.007 C 
ATOM     27  C   UNL     1      -6.925  17.384   7.711  1.00  0.00     0.007 C 
ENDBRANCH  24  25
ENDBRANCH  18  24
ENDBRANCH  15  18
ENDBRANCH  13  14
BRANCH  13  28
ATOM     28  C   UNL     1      -7.891  18.921   1.752  1.00  0.00     0.327 C 
ATOM     29  O   UNL     1      -7.275  18.125   1.060  1.00  0.00    -0.250 OA
BRANCH  28  30
ATOM     30  O   UNL     1      -7.847  20.241   1.477  1.00  0.00    -0.480 OA
ATOM     31  H   UNL     1      -7.298  20.300   0.668  1.00  0.00     0.296 HD
ENDBRANCH  28  30
ENDBRANCH  13  28
ENDBRANCH  11  13
ENDBRANCH   8  11
ENDBRANCH   6   7
BRANCH   6  32
ATOM     32  C   UNL     1      -8.202  12.951   2.542  1.00  0.00     0.037 C 
BRANCH  32  33
ATOM     33  C   UNL     1      -8.891  12.063   3.587  1.00  0.00     0.026 C 
BRANCH  33  34
ATOM     34  C   UNL     1     -10.297  12.553   3.936  1.00  0.00     0.146 C 
BRANCH  34  35
ATOM     35  N   UNL     1     -10.962  12.984   2.714  1.00  0.00    -0.254 NA
ATOM     36  C   UNL     1     -11.812  12.198   2.168  1.00  0.00     0.185 C 
ATOM     37  N   UNL     1     -12.434  12.587   1.044  1.00  0.00    -0.370 N 
ATOM     38  N   UNL     1     -12.207  10.974   2.562  1.00  0.00    -0.370 N 
ATOM     39  H   UNL     1     -12.198  13.504   0.688  1.00  0.00     0.159 HD
ATOM     40  H   UNL     1     -13.231  12.111   0.656  1.00  0.00     0.159 HD
ATOM     41  H   UNL     1     -12.781  10.396   1.970  1.00  0.00     0.159 HD
ATOM     42  H   UNL     1     -11.809  10.547   3.384  1.00  0.00     0.159 HD
ENDBRANCH  34  35
ENDBRANCH  33  34
ENDBRANCH  32  33
ENDBRANCH   6  32
ENDBRANCH   4   6
ENDBRANCH   1   2
BRANCH   1  43
ATOM     43  C   UNL     1      -3.323  12.927   3.583  1.00  0.00     0.102 C 
ATOM     44  C   UNL     1      -2.759  12.203   4.818  1.00  0.00     0.020 C 
BRANCH  43  45
ATOM     45  C   UNL     1      -2.395  12.894   2.365  1.00  0.00     0.225 C 
ATOM     46  O   UNL     1      -2.803  12.954   1.209  1.00  0.00    -0.275 OA
ATOM     47  N   UNL     1      -1.062  12.695   2.641  1.00  0.00    -0.342 N 
ATOM     48  H   UNL     1      -0.726  12.799   3.589  1.00  0.00     0.164 HD
BRANCH  47  49
ATOM     49  C   UNL     1      -0.053  12.676   1.577  1.00  0.00     0.192 C 
BRANCH  49  50
ATOM     50  C   UNL     1      -0.330  13.810   0.587  1.00  0.00     0.047 C 
BRANCH  50  51
ATOM     51  C   UNL     1       0.731  14.917   0.659  1.00  0.00     0.103 C 
BRANCH  51  52
ATOM     52  C   UNL     1       0.105  16.300   0.829  1.00  0.00     0.226 C 
ATOM     53  O   UNL     1       0.422  16.998   1.794  1.00  0.00    -0.275 OA
BRANCH  52  54
ATOM     54  N   UNL     1      -0.759  16.727  -0.196  1.00  0.00    -0.311 N 
ATOM     55  C   UNL     1      -0.265  16.936  -1.564  1.00  0.00     0.153 C 
BRANCH  54  56
ATOM     56  C   UNL     1      -2.122  16.964   0.046  1.00  0.00     0.102 C 
ATOM     57  C   UNL     1      -3.124  16.163  -0.351  1.00  0.00     0.043 C 
BRANCH  56  58
ATOM     58  C   UNL     1      -2.570  18.167   0.844  1.00  0.00     0.268 C 
ATOM     59  O   UNL     1      -2.955  19.207   0.327  1.00  0.00    -0.268 OA
ATOM     60  N   UNL     1      -2.562  17.948   2.201  1.00  0.00    -0.339 N 
ATOM     61  H   UNL     1      -2.218  17.061   2.549  1.00  0.00     0.164 HD
BRANCH  60  62
ATOM     62  C   UNL     1      -3.018  18.958   3.155  1.00  0.00     0.168 CG0
ATOM     63  C   UNL     1      -1.932  19.275   4.176  1.00  0.00     0.041 C 
ATOM     64  G   UNL     1      -4.300  18.466   3.856  1.00  0.00     0.000 G0
ENDBRANCH  60  62
ENDBRANCH  56  58
ENDBRANCH  54  56
ENDBRANCH  52  54
ENDBRANCH  51  52
ENDBRANCH  50  51
ENDBRANCH  49  50
BRANCH  49  65
ATOM     65  C   UNL     1      -0.046  11.335   0.827  1.00  0.00     0.326 C 
ATOM     66  O   UNL     1       0.617  11.081  -0.168  1.00  0.00    -0.250 OA
BRANCH  65  67
ATOM     67  O   UNL     1      -0.903  10.411   1.315  1.00  0.00    -0.480 OA
ATOM     68  H   UNL     1      -1.383  10.892   2.023  1.00  0.00     0.296 HD
ENDBRANCH  65  67
ENDBRANCH  49  65
ENDBRANCH  47  49
ENDBRANCH  43  45
ENDBRANCH   1  43
BRANCH   1  69
ATOM     69  C   UNL     1      -3.329  15.059   5.152  1.00  0.00    -0.001 C 
ATOM     70  C   UNL     1      -4.056  15.341   6.247  1.00  0.00     0.001 C 
BRANCH  70  71
ATOM     71  C   UNL     1      -3.582  15.981   7.476  1.00  0.00    -0.055 C 
ATOM     72  C   UNL     1      -2.832  17.096   7.355  1.00  0.00    -0.018 C 
ATOM     73  C   UNL     1      -3.973  15.355   8.790  1.00  0.00     0.044 C 
BRANCH  72  74
ATOM     74  C   UNL     1      -2.213  17.964   8.441  1.00  0.00     0.038 C 
ATOM     75  C   UNL     1      -2.205  19.406   7.919  1.00  0.00     0.015 C 
BRANCH  74  76
ATOM     76  C   UNL     1      -0.810  17.392   8.801  1.00  0.00     0.128 C 
BRANCH  76  77
ATOM     77  O   UNL     1      -0.926  16.453   9.883  1.00  0.00    -0.381 OA
ATOM     78  C   UNL     1      -1.351  17.041  11.106  1.00  0.00     0.195 C 
ENDBRANCH  76  77
BRANCH  76  79
ATOM     79  C   UNL     1      -0.036  16.816   7.588  1.00  0.00     0.068 C 
BRANCH  79  80
ATOM     80  C   UNL     1       0.767  17.775   6.742  1.00  0.00    -0.045 A 
ATOM     81  C   UNL     1       1.090  17.468   5.413  1.00  0.00     0.004 A 
ATOM     82  C   UNL     1       1.227  18.983   7.286  1.00  0.00     0.004 A 
ATOM     83  C   UNL     1       1.845  18.354   4.641  1.00  0.00     0.000 A 
ATOM     84  C   UNL     1       1.982  19.868   6.513  1.00  0.00     0.000 A 
ATOM     85  C   UNL     1       2.289  19.554   5.191  1.00  0.00     0.000 A 
ENDBRANCH  79  80
ENDBRANCH  76  79
ENDBRANCH  74  76
ENDBRANCH  72  74
ENDBRANCH  70  71
ENDBRANCH   1  69
TORSDOF 17
ENDMDL
MODEL 3
REMARK VINA RESULT:    -5.015      2.670      5.648
REMARK INTER + INTRA:         -22.870
REMARK INTER:                 -15.544
REMARK INTRA:                  -7.326
REMARK UNBOUND:                -7.888
REMARK SMILES C=C1C(=O)N[C@H](C)C(=O)N[C@@H](CC(C)C)C(=O)N[C@@H](C(=O)O)[C@H](C)C(=O)N[C@@H](CCCN=C(N)N)C(=O)N[C@@H](/C=C/C(C)=C/[C@H](C)[C@H](Cc2ccccc2)OC)[C@H](C)C(=O)N[C@@H](C(=O)O)CCC(=O)N1C
REMARK SMILES IDX 39 1 38 2 37 3 36 4 28 6 27 7 25 8 26 9 23 11 24 12 19 13
REMARK SMILES IDX 18 14 16 15 17 16 11 18 10 19 8 20 9 21 12 24 13 25 14 26
REMARK SMILES IDX 15 27 20 28 21 29 22 30 29 32 30 33 31 34 32 35 33 36 34 37
REMARK SMILES IDX 35 38 57 43 58 44 59 45 60 46 61 47 62 49 66 50 67 51 68 52
REMARK SMILES IDX 69 53 70 54 71 55 2 56 1 57 3 58 4 59 5 60 6 62 7 63 63 65
REMARK SMILES IDX 64 66 65 67 40 69 41 70 42 71 44 72 43 73 45 74 46 75 47 76
REMARK SMILES IDX 55 77 56 78 48 79 49 80 50 81 54 82 51 83 53 84 52 85
REMARK H PARENT 38 5 27 10 18 17 10 22 22 31 34 39 34 40 35 41 35 42 61 48
REMARK H PARENT 5 61 65 68
REMARK Flexibility Score:  369.900
ROOT
ATOM      1  C   UNL     1      -8.656  16.193   1.449  1.00  0.00     0.117 C 
ENDROOT
BRANCH   1   2
ATOM      2  N   UNL     1      -8.548  14.933   2.186  1.00  0.00    -0.347 N 
ATOM      3  O   UNL     1      -7.245  13.797   0.676  1.00  0.00    -0.273 OA
ATOM      4  C   UNL     1      -7.773  13.864   1.781  1.00  0.00     0.243 C 
ATOM      5  H   UNL     1      -9.022  14.837   3.072  1.00  0.00     0.164 HD
BRANCH   4   6
ATOM      6  C   UNL     1      -7.765  12.684   2.786  1.00  0.00     0.171 C 
BRANCH   6   7
ATOM      7  N   UNL     1      -6.459  12.588   3.457  1.00  0.00    -0.344 N 
ATOM      8  C   UNL     1      -6.065  13.543   4.368  1.00  0.00     0.226 C 
ATOM      9  O   UNL     1      -6.757  14.515   4.646  1.00  0.00    -0.275 OA
ATOM     10  H   UNL     1      -5.831  11.835   3.203  1.00  0.00     0.164 HD
BRANCH   8  11
ATOM     11  C   UNL     1      -4.717  13.274   5.014  1.00  0.00     0.109 C 
ATOM     12  C   UNL     1      -4.491  11.768   5.151  1.00  0.00     0.021 C 
BRANCH  11  13
ATOM     13  C   UNL     1      -3.612  14.028   4.247  1.00  0.00     0.204 C 
BRANCH  13  14
ATOM     14  N   UNL     1      -2.888  14.969   5.107  1.00  0.00    -0.340 N 
ATOM     15  C   UNL     1      -3.283  16.277   5.285  1.00  0.00     0.243 C 
ATOM     16  O   UNL     1      -4.308  16.732   4.780  1.00  0.00    -0.273 OA
ATOM     17  H   UNL     1      -1.954  14.703   5.431  1.00  0.00     0.164 HD
BRANCH  15  18
ATOM     18  C   UNL     1      -2.255  17.134   6.064  1.00  0.00     0.171 C 
BRANCH  18  19
ATOM     19  N   UNL     1      -1.270  17.597   5.088  1.00  0.00    -0.343 N 
ATOM     20  C   UNL     1       0.072  17.287   5.204  1.00  0.00     0.242 CG0
ATOM     21  O   UNL     1       0.518  16.722   6.200  1.00  0.00    -0.273 OA
ATOM     22  H   UNL     1      -1.574  18.166   4.307  1.00  0.00     0.164 HD
ATOM     23  G   UNL     1       0.945  17.795   4.038  1.00  0.00     0.000 G0
ENDBRANCH  18  19
BRANCH  18  24
ATOM     24  C   UNL     1      -2.948  18.309   6.763  1.00  0.00     0.038 C 
BRANCH  24  25
ATOM     25  C   UNL     1      -2.002  19.447   7.203  1.00  0.00    -0.015 C 
ATOM     26  C   UNL     1      -2.012  19.664   8.716  1.00  0.00     0.007 C 
ATOM     27  C   UNL     1      -2.394  20.746   6.494  1.00  0.00     0.007 C 
ENDBRANCH  24  25
ENDBRANCH  18  24
ENDBRANCH  15  18
ENDBRANCH  13  14
BRANCH  13  28
ATOM     28  C   UNL     1      -2.572  13.097   3.616  1.00  0.00     0.327 C 
ATOM     29  O   UNL     1      -2.718  12.432   2.602  1.00  0.00    -0.250 OA
BRANCH  28  30
ATOM     30  O   UNL     1      -1.456  12.968   4.362  1.00  0.00    -0.480 OA
ATOM     31  H   UNL     1      -1.693  13.373   5.222  1.00  0.00     0.296 HD
ENDBRANCH  28  30
ENDBRANCH  13  28
ENDBRANCH  11  13
ENDBRANCH   8  11
ENDBRANCH   6   7
BRANCH   6  32
ATOM     32  C   UNL     1      -8.891  12.884   3.806  1.00  0.00     0.037 C 
BRANCH  32  33
ATOM     33  C   UNL     1      -9.222  11.591   4.565  1.00  0.00     0.026 C 
BRANCH  33  34
ATOM     34  C   UNL     1      -9.350  11.814   6.073  1.00  0.00     0.146 C 
BRANCH  34  35
ATOM     35  N   UNL     1      -8.016  11.875   6.653  1.00  0.00    -0.254 NA
ATOM     36  C   UNL     1      -7.893  12.250   7.872  1.00  0.00     0.185 C 
ATOM     37  N   UNL     1      -6.668  12.306   8.419  1.00  0.00    -0.370 N 
ATOM     38  N   UNL     1      -8.849  12.618   8.743  1.00  0.00    -0.370 N 
ATOM     39  H   UNL     1      -5.894  12.033   7.827  1.00  0.00     0.159 HD
ATOM     40  H   UNL     1      -6.504  12.419   9.404  1.00  0.00     0.159 HD
ATOM     41  H   UNL     1      -8.614  13.027   9.633  1.00  0.00     0.159 HD
ATOM     42  H   UNL     1      -9.817  12.639   8.463  1.00  0.00     0.159 HD
ENDBRANCH  34  35
ENDBRANCH  33  34
ENDBRANCH  32  33
ENDBRANCH   6  32
ENDBRANCH   4   6
ENDBRANCH   1   2
BRANCH   1  43
ATOM     43  C   UNL     1      -7.633  17.204   2.044  1.00  0.00     0.102 C 
ATOM     44  C   UNL     1      -8.234  18.593   2.318  1.00  0.00     0.020 C 
BRANCH  43  45
ATOM     45  C   UNL     1      -6.346  17.236   1.215  1.00  0.00     0.225 C 
ATOM     46  O   UNL     1      -6.328  17.080  -0.003  1.00  0.00    -0.275 OA
ATOM     47  N   UNL     1      -5.180  17.359   1.935  1.00  0.00    -0.342 N 
ATOM     48  H   UNL     1      -5.218  17.636   2.906  1.00  0.00     0.164 HD
BRANCH  47  49
ATOM     49  C   UNL     1      -3.874  17.439   1.272  1.00  0.00     0.192 C 
BRANCH  49  50
ATOM     50  C   UNL     1      -3.065  16.176   1.575  1.00  0.00     0.047 C 
BRANCH  50  51
ATOM     51  C   UNL     1      -2.607  15.458   0.298  1.00  0.00     0.103 C 
BRANCH  51  52
ATOM     52  C   UNL     1      -1.218  15.910  -0.147  1.00  0.00     0.226 C 
ATOM     53  O   UNL     1      -1.105  16.870  -0.911  1.00  0.00    -0.275 OA
BRANCH  52  54
ATOM     54  N   UNL     1      -0.125  15.227   0.419  1.00  0.00    -0.311 N 
ATOM     55  C   UNL     1      -0.189  13.783   0.678  1.00  0.00     0.153 C 
BRANCH  54  56
ATOM     56  C   UNL     1       1.064  15.897   0.751  1.00  0.00     0.102 C 
ATOM     57  C   UNL     1       2.283  15.573   0.288  1.00  0.00     0.043 C 
BRANCH  56  58
ATOM     58  C   UNL     1       1.046  17.107   1.655  1.00  0.00     0.268 C 
ATOM     59  O   UNL     1       1.006  18.256   1.235  1.00  0.00    -0.268 OA
ATOM     60  N   UNL     1       1.013  16.783   2.990  1.00  0.00    -0.339 N 
ATOM     61  H   UNL     1       1.060  15.807   3.256  1.00  0.00     0.164 HD
BRANCH  60  62
ATOM     62  C   UNL     1       0.929  17.801   4.037  1.00  0.00     0.168 CG0
ATOM     63  C   UNL     1       2.316  18.212   4.513  1.00  0.00     0.041 C 
ATOM     64  G   UNL     1       0.085  17.265   5.212  1.00  0.00     0.000 G0
ENDBRANCH  60  62
ENDBRANCH  56  58
ENDBRANCH  54  56
ENDBRANCH  52  54
ENDBRANCH  51  52
ENDBRANCH  50  51
ENDBRANCH  49  50
BRANCH  49  65
ATOM     65  C   UNL     1      -3.082  18.674   1.731  1.00  0.00     0.326 C 
ATOM     66  O   UNL     1      -2.343  19.345   1.026  1.00  0.00    -0.250 OA
BRANCH  65  67
ATOM     67  O   UNL     1      -3.203  18.966   3.044  1.00  0.00    -0.480 OA
ATOM     68  H   UNL     1      -3.094  19.941   3.075  1.00  0.00     0.296 HD
ENDBRANCH  65  67
ENDBRANCH  49  65
ENDBRANCH  47  49
ENDBRANCH  43  45
ENDBRANCH   1  43
BRANCH   1  69
ATOM     69  C   UNL     1     -10.129  16.557   1.445  1.00  0.00    -0.001 C 
ATOM     70  C   UNL     1     -10.974  16.555   2.491  1.00  0.00     0.001 C 
BRANCH  70  71
ATOM     71  C   UNL     1     -12.390  16.929   2.479  1.00  0.00    -0.055 C 
ATOM     72  C   UNL     1     -13.300  15.946   2.644  1.00  0.00    -0.018 C 
ATOM     73  C   UNL     1     -12.730  18.385   2.292  1.00  0.00     0.044 C 
BRANCH  72  74
ATOM     74  C   UNL     1     -14.819  16.037   2.678  1.00  0.00     0.038 C 
ATOM     75  C   UNL     1     -15.290  15.271   3.920  1.00  0.00     0.015 C 
BRANCH  74  76
ATOM     76  C   UNL     1     -15.383  15.502   1.329  1.00  0.00     0.128 C 
BRANCH  76  77
ATOM     77  O   UNL     1     -16.012  16.572   0.602  1.00  0.00    -0.381 OA
ATOM     78  C   UNL     1     -15.855  16.473  -0.807  1.00  0.00     0.195 C 
ENDBRANCH  76  77
BRANCH  76  79
ATOM     79  C   UNL     1     -14.347  14.726   0.477  1.00  0.00     0.068 C 
BRANCH  79  80
ATOM     80  C   UNL     1     -14.482  13.225   0.395  1.00  0.00    -0.045 A 
ATOM     81  C   UNL     1     -14.301  12.421   1.529  1.00  0.00     0.004 A 
ATOM     82  C   UNL     1     -14.765  12.606  -0.832  1.00  0.00     0.004 A 
ATOM     83  C   UNL     1     -14.413  11.032   1.442  1.00  0.00     0.000 A 
ATOM     84  C   UNL     1     -14.876  11.216  -0.918  1.00  0.00     0.000 A 
ATOM     85  C   UNL     1     -14.702  10.430   0.219  1.00  0.00     0.000 A 
ENDBRANCH  79  80
ENDBRANCH  76  79
ENDBRANCH  74  76
ENDBRANCH  72  74
ENDBRANCH  70  71
ENDBRANCH   1  69
TORSDOF 17
ENDMDL
MODEL 4
REMARK VINA RESULT:    -4.879      2.416      7.478
REMARK INTER + INTRA:         -22.463
REMARK INTER:                 -13.925
REMARK INTRA:                  -8.538
REMARK UNBOUND:                -7.888
REMARK SMILES C=C1C(=O)N[C@H](C)C(=O)N[C@@H](CC(C)C)C(=O)N[C@@H](C(=O)O)[C@H](C)C(=O)N[C@@H](CCCN=C(N)N)C(=O)N[C@@H](/C=C/C(C)=C/[C@H](C)[C@H](Cc2ccccc2)OC)[C@H](C)C(=O)N[C@@H](C(=O)O)CCC(=O)N1C
REMARK SMILES IDX 39 1 38 2 37 3 36 4 28 6 27 7 25 8 26 9 23 11 24 12 19 13
REMARK SMILES IDX 18 14 16 15 17 16 11 18 10 19 8 20 9 21 12 24 13 25 14 26
REMARK SMILES IDX 15 27 20 28 21 29 22 30 29 32 30 33 31 34 32 35 33 36 34 37
REMARK SMILES IDX 35 38 57 43 58 44 59 45 60 46 61 47 62 49 66 50 67 51 68 52
REMARK SMILES IDX 69 53 70 54 71 55 2 56 1 57 3 58 4 59 5 60 6 62 7 63 63 65
REMARK SMILES IDX 64 66 65 67 40 69 41 70 42 71 44 72 43 73 45 74 46 75 47 76
REMARK SMILES IDX 55 77 56 78 48 79 49 80 50 81 54 82 51 83 53 84 52 85
REMARK H PARENT 38 5 27 10 18 17 10 22 22 31 34 39 34 40 35 41 35 42 61 48
REMARK H PARENT 5 61 65 68
REMARK Flexibility Score:  369.900
ROOT
ATOM      1  C   UNL     1      -4.185  13.844   4.081  1.00  0.00     0.117 C 
ENDROOT
BRANCH   1   2
ATOM      2  N   UNL     1      -5.485  13.421   4.602  1.00  0.00    -0.347 N 
ATOM      3  O   UNL     1      -6.500  12.979   2.591  1.00  0.00    -0.273 OA
ATOM      4  C   UNL     1      -6.512  12.934   3.817  1.00  0.00     0.243 C 
ATOM      5  H   UNL     1      -5.646  13.432   5.598  1.00  0.00     0.164 HD
BRANCH   4   6
ATOM      6  C   UNL     1      -7.752  12.476   4.626  1.00  0.00     0.171 C 
BRANCH   6   7
ATOM      7  N   UNL     1      -8.944  13.234   4.215  1.00  0.00    -0.344 N 
ATOM      8  C   UNL     1      -9.520  14.154   5.065  1.00  0.00     0.226 C 
ATOM      9  O   UNL     1      -9.092  14.368   6.193  1.00  0.00    -0.275 OA
ATOM     10  H   UNL     1      -9.366  13.036   3.316  1.00  0.00     0.164 HD
BRANCH   8  11
ATOM     11  C   UNL     1     -10.708  14.893   4.474  1.00  0.00     0.109 C 
ATOM     12  C   UNL     1     -11.811  15.038   5.523  1.00  0.00     0.021 C 
BRANCH  11  13
ATOM     13  C   UNL     1     -10.236  16.218   3.842  1.00  0.00     0.204 C 
BRANCH  13  14
ATOM     14  N   UNL     1      -8.939  16.650   4.371  1.00  0.00    -0.340 N 
ATOM     15  C   UNL     1      -8.708  17.928   4.832  1.00  0.00     0.243 C 
ATOM     16  O   UNL     1      -9.593  18.780   4.889  1.00  0.00    -0.273 OA
ATOM     17  H   UNL     1      -8.129  16.045   4.212  1.00  0.00     0.164 HD
BRANCH  15  18
ATOM     18  C   UNL     1      -7.218  18.213   5.145  1.00  0.00     0.171 C 
BRANCH  18  19
ATOM     19  N   UNL     1      -6.623  18.727   3.913  1.00  0.00    -0.343 N 
ATOM     20  C   UNL     1      -6.173  17.885   2.914  1.00  0.00     0.242 CG0
ATOM     21  O   UNL     1      -6.130  16.667   3.070  1.00  0.00    -0.273 OA
ATOM     22  H   UNL     1      -6.530  19.728   3.785  1.00  0.00     0.164 HD
ATOM     23  G   UNL     1      -5.649  18.610   1.657  1.00  0.00     0.000 G0
ENDBRANCH  18  19
BRANCH  18  24
ATOM     24  C   UNL     1      -7.088  19.219   6.294  1.00  0.00     0.038 C 
BRANCH  24  25
ATOM     25  C   UNL     1      -7.064  18.589   7.703  1.00  0.00    -0.015 C 
ATOM     26  C   UNL     1      -5.846  19.026   8.518  1.00  0.00     0.007 C 
ATOM     27  C   UNL     1      -7.085  17.063   7.585  1.00  0.00     0.007 C 
ENDBRANCH  24  25
ENDBRANCH  18  24
ENDBRANCH  15  18
ENDBRANCH  13  14
BRANCH  13  28
ATOM     28  C   UNL     1     -10.104  16.145   2.318  1.00  0.00     0.327 C 
ATOM     29  O   UNL     1     -10.963  16.445   1.503  1.00  0.00    -0.250 OA
BRANCH  28  30
ATOM     30  O   UNL     1      -8.943  15.590   1.914  1.00  0.00    -0.480 OA
ATOM     31  H   UNL     1      -8.284  16.307   2.016  1.00  0.00     0.296 HD
ENDBRANCH  28  30
ENDBRANCH  13  28
ENDBRANCH  11  13
ENDBRANCH   8  11
ENDBRANCH   6   7
BRANCH   6  32
ATOM     32  C   UNL     1      -7.961  10.972   4.417  1.00  0.00     0.037 C 
BRANCH  32  33
ATOM     33  C   UNL     1      -7.825  10.181   5.726  1.00  0.00     0.026 C 
BRANCH  33  34
ATOM     34  C   UNL     1      -8.097  11.041   6.961  1.00  0.00     0.146 C 
BRANCH  34  35
ATOM     35  N   UNL     1      -6.903  11.056   7.795  1.00  0.00    -0.254 NA
ATOM     36  C   UNL     1      -6.453  12.184   8.204  1.00  0.00     0.185 C 
ATOM     37  N   UNL     1      -5.357  12.209   8.977  1.00  0.00    -0.370 N 
ATOM     38  N   UNL     1      -6.932  13.419   7.970  1.00  0.00    -0.370 N 
ATOM     39  H   UNL     1      -4.943  11.315   9.207  1.00  0.00     0.159 HD
ATOM     40  H   UNL     1      -5.047  13.025   9.476  1.00  0.00     0.159 HD
ATOM     41  H   UNL     1      -6.409  14.238   8.232  1.00  0.00     0.159 HD
ATOM     42  H   UNL     1      -7.745  13.552   7.389  1.00  0.00     0.159 HD
ENDBRANCH  34  35
ENDBRANCH  33  34
ENDBRANCH  32  33
ENDBRANCH   6  32
ENDBRANCH   4   6
ENDBRANCH   1   2
BRANCH   1  43
ATOM     43  C   UNL     1      -3.385  12.577   3.659  1.00  0.00     0.102 C 
ATOM     44  C   UNL     1      -2.702  11.864   4.838  1.00  0.00     0.020 C 
BRANCH  43  45
ATOM     45  C   UNL     1      -2.445  12.884   2.490  1.00  0.00     0.225 C 
ATOM     46  O   UNL     1      -2.838  13.043   1.337  1.00  0.00    -0.275 OA
ATOM     47  N   UNL     1      -1.103  12.880   2.792  1.00  0.00    -0.342 N 
ATOM     48  H   UNL     1      -0.808  12.900   3.758  1.00  0.00     0.164 HD
BRANCH  47  49
ATOM     49  C   UNL     1      -0.089  13.192   1.781  1.00  0.00     0.192 C 
BRANCH  49  50
ATOM     50  C   UNL     1      -0.483  14.469   1.034  1.00  0.00     0.047 C 
BRANCH  50  51
ATOM     51  C   UNL     1      -0.160  15.736   1.836  1.00  0.00     0.103 C 
BRANCH  51  52
ATOM     52  C   UNL     1      -1.365  16.668   1.948  1.00  0.00     0.226 C 
ATOM     53  O   UNL     1      -2.171  16.515   2.868  1.00  0.00    -0.275 OA
BRANCH  52  54
ATOM     54  N   UNL     1      -1.438  17.715   1.011  1.00  0.00    -0.311 N 
ATOM     55  C   UNL     1      -0.542  18.876   1.104  1.00  0.00     0.153 C 
BRANCH  54  56
ATOM     56  C   UNL     1      -2.360  17.687  -0.048  1.00  0.00     0.102 C 
ATOM     57  C   UNL     1      -2.159  17.077  -1.227  1.00  0.00     0.043 C 
BRANCH  56  58
ATOM     58  C   UNL     1      -3.719  18.332   0.091  1.00  0.00     0.268 C 
ATOM     59  O   UNL     1      -4.276  18.924  -0.823  1.00  0.00    -0.268 OA
ATOM     60  N   UNL     1      -4.290  18.129   1.325  1.00  0.00    -0.339 N 
ATOM     61  H   UNL     1      -3.758  17.636   2.033  1.00  0.00     0.164 HD
BRANCH  60  62
ATOM     62  C   UNL     1      -5.630  18.614   1.653  1.00  0.00     0.168 CG0
ATOM     63  C   UNL     1      -5.626  20.121   1.880  1.00  0.00     0.041 C 
ATOM     64  G   UNL     1      -6.155  17.876   2.902  1.00  0.00     0.000 G0
ENDBRANCH  60  62
ENDBRANCH  56  58
ENDBRANCH  54  56
ENDBRANCH  52  54
ENDBRANCH  51  52
ENDBRANCH  50  51
ENDBRANCH  49  50
BRANCH  49  65
ATOM     65  C   UNL     1       0.079  12.044   0.773  1.00  0.00     0.326 C 
ATOM     66  O   UNL     1      -0.188  10.870   0.983  1.00  0.00    -0.250 OA
BRANCH  65  67
ATOM     67  O   UNL     1       0.623  12.407  -0.410  1.00  0.00    -0.480 OA
ATOM     68  H   UNL     1       1.284  11.703  -0.586  1.00  0.00     0.296 HD
ENDBRANCH  65  67
ENDBRANCH  49  65
ENDBRANCH  47  49
ENDBRANCH  43  45
ENDBRANCH   1  43
BRANCH   1  69
ATOM     69  C   UNL     1      -3.591  14.772   5.124  1.00  0.00    -0.001 C 
ATOM     70  C   UNL     1      -4.126  15.120   6.308  1.00  0.00     0.001 C 
BRANCH  70  71
ATOM     71  C   UNL     1      -3.534  16.001   7.316  1.00  0.00    -0.055 C 
ATOM     72  C   UNL     1      -2.901  17.112   6.885  1.00  0.00    -0.018 C 
ATOM     73  C   UNL     1      -3.678  15.608   8.764  1.00  0.00     0.044 C 
BRANCH  72  74
ATOM     74  C   UNL     1      -2.204  18.198   7.693  1.00  0.00     0.038 C 
ATOM     75  C   UNL     1      -2.869  19.531   7.329  1.00  0.00     0.015 C 
BRANCH  74  76
ATOM     76  C   UNL     1      -0.675  18.131   7.406  1.00  0.00     0.128 C 
BRANCH  76  77
ATOM     77  O   UNL     1      -0.106  16.974   8.042  1.00  0.00    -0.381 OA
ATOM     78  C   UNL     1      -0.196  17.000   9.460  1.00  0.00     0.195 C 
ENDBRANCH  76  77
BRANCH  76  79
ATOM     79  C   UNL     1      -0.312  18.228   5.903  1.00  0.00     0.068 C 
BRANCH  79  80
ATOM     80  C   UNL     1       1.106  18.601   5.540  1.00  0.00    -0.045 A 
ATOM     81  C   UNL     1       1.669  18.199   4.322  1.00  0.00     0.004 A 
ATOM     82  C   UNL     1       1.894  19.338   6.437  1.00  0.00     0.004 A 
ATOM     83  C   UNL     1       2.985  18.536   4.000  1.00  0.00     0.000 A 
ATOM     84  C   UNL     1       3.211  19.674   6.115  1.00  0.00     0.000 A 
ATOM     85  C   UNL     1       3.755  19.275   4.896  1.00  0.00     0.000 A 
ENDBRANCH  79  80
ENDBRANCH  76  79
ENDBRANCH  74  76
ENDBRANCH  72  74
ENDBRANCH  70  71
ENDBRANCH   1  69
TORSDOF 17
ENDMDL
MODEL 5
REMARK VINA RESULT:    -4.834      3.218      6.257
REMARK INTER + INTRA:         -22.330
REMARK INTER:                 -18.385
REMARK INTRA:                  -3.945
REMARK UNBOUND:                -7.888
REMARK SMILES C=C1C(=O)N[C@H](C)C(=O)N[C@@H](CC(C)C)C(=O)N[C@@H](C(=O)O)[C@H](C)C(=O)N[C@@H](CCCN=C(N)N)C(=O)N[C@@H](/C=C/C(C)=C/[C@H](C)[C@H](Cc2ccccc2)OC)[C@H](C)C(=O)N[C@@H](C(=O)O)CCC(=O)N1C
REMARK SMILES IDX 39 1 38 2 37 3 36 4 28 6 27 7 25 8 26 9 23 11 24 12 19 13
REMARK SMILES IDX 18 14 16 15 17 16 11 18 10 19 8 20 9 21 12 24 13 25 14 26
REMARK SMILES IDX 15 27 20 28 21 29 22 30 29 32 30 33 31 34 32 35 33 36 34 37
REMARK SMILES IDX 35 38 57 43 58 44 59 45 60 46 61 47 62 49 66 50 67 51 68 52
REMARK SMILES IDX 69 53 70 54 71 55 2 56 1 57 3 58 4 59 5 60 6 62 7 63 63 65
REMARK SMILES IDX 64 66 65 67 40 69 41 70 42 71 44 72 43 73 45 74 46 75 47 76
REMARK SMILES IDX 55 77 56 78 48 79 49 80 50 81 54 82 51 83 53 84 52 85
REMARK H PARENT 38 5 27 10 18 17 10 22 22 31 34 39 34 40 35 41 35 42 61 48
REMARK H PARENT 5 61 65 68
REMARK Flexibility Score:  369.900
ROOT
ATOM      1  C   UNL     1      -8.407  15.577   2.322  1.00  0.00     0.117 C 
ENDROOT
BRANCH   1   2
ATOM      2  N   UNL     1      -8.059  14.541   3.295  1.00  0.00    -0.347 N 
ATOM      3  O   UNL     1      -7.268  12.974   1.816  1.00  0.00    -0.273 OA
ATOM      4  C   UNL     1      -7.431  13.355   2.971  1.00  0.00     0.243 C 
ATOM      5  H   UNL     1      -8.236  14.705   4.275  1.00  0.00     0.164 HD
BRANCH   4   6
ATOM      6  C   UNL     1      -7.096  12.470   4.199  1.00  0.00     0.171 C 
BRANCH   6   7
ATOM      7  N   UNL     1      -5.639  12.358   4.371  1.00  0.00    -0.344 N 
ATOM      8  C   UNL     1      -4.849  13.486   4.419  1.00  0.00     0.226 C 
ATOM      9  O   UNL     1      -5.304  14.617   4.301  1.00  0.00    -0.275 OA
ATOM     10  H   UNL     1      -5.218  11.438   4.404  1.00  0.00     0.164 HD
BRANCH   8  11
ATOM     11  C   UNL     1      -3.375  13.207   4.655  1.00  0.00     0.109 C 
ATOM     12  C   UNL     1      -3.093  11.711   4.515  1.00  0.00     0.021 C 
BRANCH  11  13
ATOM     13  C   UNL     1      -2.520  14.115   3.749  1.00  0.00     0.204 C 
BRANCH  13  14
ATOM     14  N   UNL     1      -1.447  14.783   4.491  1.00  0.00    -0.340 N 
ATOM     15  C   UNL     1      -1.588  15.203   5.796  1.00  0.00     0.243 C 
ATOM     16  O   UNL     1      -2.608  14.992   6.451  1.00  0.00    -0.273 OA
ATOM     17  H   UNL     1      -0.637  15.122   3.965  1.00  0.00     0.164 HD
BRANCH  15  18
ATOM     18  C   UNL     1      -0.404  16.064   6.301  1.00  0.00     0.171 C 
BRANCH  18  19
ATOM     19  N   UNL     1       0.256  16.605   5.115  1.00  0.00    -0.343 N 
ATOM     20  C   UNL     1      -0.310  17.618   4.365  1.00  0.00     0.242 CG0
ATOM     21  O   UNL     1      -1.451  18.019   4.581  1.00  0.00    -0.273 OA
ATOM     22  H   UNL     1       1.150  16.226   4.826  1.00  0.00     0.164 HD
ATOM     23  G   UNL     1       0.569  18.113   3.197  1.00  0.00     0.000 G0
ENDBRANCH  18  19
BRANCH  18  24
ATOM     24  C   UNL     1      -0.903  17.181   7.226  1.00  0.00     0.038 C 
BRANCH  24  25
ATOM     25  C   UNL     1      -1.491  16.693   8.567  1.00  0.00    -0.015 C 
ATOM     26  C   UNL     1      -2.761  17.449   8.958  1.00  0.00     0.007 C 
ATOM     27  C   UNL     1      -0.443  16.839   9.673  1.00  0.00     0.007 C 
ENDBRANCH  24  25
ENDBRANCH  18  24
ENDBRANCH  15  18
ENDBRANCH  13  14
BRANCH  13  28
ATOM     28  C   UNL     1      -1.867  13.364   2.585  1.00  0.00     0.327 C 
ATOM     29  O   UNL     1      -2.436  12.933   1.593  1.00  0.00    -0.250 OA
BRANCH  28  30
ATOM     30  O   UNL     1      -0.563  13.095   2.794  1.00  0.00    -0.480 OA
ATOM     31  H   UNL     1      -0.298  13.721   3.500  1.00  0.00     0.296 HD
ENDBRANCH  28  30
ENDBRANCH  13  28
ENDBRANCH  11  13
ENDBRANCH   8  11
ENDBRANCH   6   7
BRANCH   6  32
ATOM     32  C   UNL     1      -7.750  13.074   5.447  1.00  0.00     0.037 C 
BRANCH  32  33
ATOM     33  C   UNL     1      -9.131  12.466   5.729  1.00  0.00     0.026 C 
BRANCH  33  34
ATOM     34  C   UNL     1      -9.334  11.123   5.026  1.00  0.00     0.146 C 
BRANCH  34  35
ATOM     35  N   UNL     1     -10.733  11.001   4.641  1.00  0.00    -0.254 NA
ATOM     36  C   UNL     1     -11.052  11.193   3.415  1.00  0.00     0.185 C 
ATOM     37  N   UNL     1     -12.338  11.078   3.049  1.00  0.00    -0.370 N 
ATOM     38  N   UNL     1     -10.259  11.508   2.376  1.00  0.00    -0.370 N 
ATOM     39  H   UNL     1     -12.997  10.832   3.776  1.00  0.00     0.159 HD
ATOM     40  H   UNL     1     -12.641  11.041   2.091  1.00  0.00     0.159 HD
ATOM     41  H   UNL     1     -10.648  11.770   1.485  1.00  0.00     0.159 HD
ATOM     42  H   UNL     1      -9.269  11.642   2.508  1.00  0.00     0.159 HD
ENDBRANCH  34  35
ENDBRANCH  33  34
ENDBRANCH  32  33
ENDBRANCH   6  32
ENDBRANCH   4   6
ENDBRANCH   1   2
BRANCH   1  43
ATOM     43  C   UNL     1      -7.781  16.923   2.785  1.00  0.00     0.102 C 
ATOM     44  C   UNL     1      -8.826  17.993   3.146  1.00  0.00     0.020 C 
BRANCH  43  45
ATOM     45  C   UNL     1      -6.716  17.405   1.795  1.00  0.00     0.225 C 
ATOM     46  O   UNL     1      -6.984  17.816   0.670  1.00  0.00    -0.275 OA
ATOM     47  N   UNL     1      -5.412  17.261   2.211  1.00  0.00    -0.342 N 
ATOM     48  H   UNL     1      -5.216  17.067   3.183  1.00  0.00     0.164 HD
BRANCH  47  49
ATOM     49  C   UNL     1      -4.290  17.711   1.382  1.00  0.00     0.192 C 
BRANCH  49  50
ATOM     50  C   UNL     1      -3.236  16.604   1.299  1.00  0.00     0.047 C 
BRANCH  50  51
ATOM     51  C   UNL     1      -3.056  16.078  -0.132  1.00  0.00     0.103 C 
BRANCH  51  52
ATOM     52  C   UNL     1      -2.426  17.122  -1.052  1.00  0.00     0.226 C 
ATOM     53  O   UNL     1      -3.110  18.056  -1.474  1.00  0.00    -0.275 OA
BRANCH  52  54
ATOM     54  N   UNL     1      -1.048  16.987  -1.302  1.00  0.00    -0.311 N 
ATOM     55  C   UNL     1      -0.514  17.086  -2.667  1.00  0.00     0.153 C 
BRANCH  54  56
ATOM     56  C   UNL     1      -0.133  16.759  -0.260  1.00  0.00     0.102 C 
ATOM     57  C   UNL     1       0.618  15.654  -0.125  1.00  0.00     0.043 C 
BRANCH  56  58
ATOM     58  C   UNL     1       0.111  17.807   0.800  1.00  0.00     0.268 C 
ATOM     59  O   UNL     1       0.041  19.009   0.583  1.00  0.00    -0.268 OA
ATOM     60  N   UNL     1       0.352  17.272   2.043  1.00  0.00    -0.339 N 
ATOM     61  H   UNL     1       0.404  16.264   2.138  1.00  0.00     0.164 HD
BRANCH  60  62
ATOM     62  C   UNL     1       0.552  18.108   3.226  1.00  0.00     0.168 CG0
ATOM     63  C   UNL     1       2.019  18.127   3.640  1.00  0.00     0.041 C 
ATOM     64  G   UNL     1      -0.334  17.593   4.379  1.00  0.00     0.000 G0
ENDBRANCH  60  62
ENDBRANCH  56  58
ENDBRANCH  54  56
ENDBRANCH  52  54
ENDBRANCH  51  52
ENDBRANCH  50  51
ENDBRANCH  49  50
BRANCH  49  65
ATOM     65  C   UNL     1      -3.645  18.986   1.947  1.00  0.00     0.326 C 
ATOM     66  O   UNL     1      -3.087  19.852   1.288  1.00  0.00    -0.250 OA
BRANCH  65  67
ATOM     67  O   UNL     1      -3.675  19.084   3.294  1.00  0.00    -0.480 OA
ATOM     68  H   UNL     1      -3.274  18.241   3.597  1.00  0.00     0.296 HD
ENDBRANCH  65  67
ENDBRANCH  49  65
ENDBRANCH  47  49
ENDBRANCH  43  45
ENDBRANCH   1  43
BRANCH   1  69
ATOM     69  C   UNL     1      -9.911  15.494   2.134  1.00  0.00    -0.001 C 
ATOM     70  C   UNL     1     -10.801  14.875   2.930  1.00  0.00     0.001 C 
BRANCH  70  71
ATOM     71  C   UNL     1     -12.253  14.819   2.750  1.00  0.00    -0.055 C 
ATOM     72  C   UNL     1     -12.743  15.072   1.517  1.00  0.00    -0.018 C 
ATOM     73  C   UNL     1     -13.097  14.477   3.949  1.00  0.00     0.044 C 
BRANCH  72  74
ATOM     74  C   UNL     1     -14.188  15.083   1.039  1.00  0.00     0.038 C 
ATOM     75  C   UNL     1     -14.965  16.022   1.968  1.00  0.00     0.015 C 
BRANCH  74  76
ATOM     76  C   UNL     1     -14.714  13.618   1.001  1.00  0.00     0.128 C 
BRANCH  76  77
ATOM     77  O   UNL     1     -16.045  13.589   0.459  1.00  0.00    -0.381 OA
ATOM     78  C   UNL     1     -16.234  14.472  -0.639  1.00  0.00     0.195 C 
ENDBRANCH  76  77
BRANCH  76  79
ATOM     79  C   UNL     1     -13.758  12.623   0.298  1.00  0.00     0.068 C 
BRANCH  79  80
ATOM     80  C   UNL     1     -14.368  11.449  -0.429  1.00  0.00    -0.045 A 
ATOM     81  C   UNL     1     -14.814  10.320   0.270  1.00  0.00     0.004 A 
ATOM     82  C   UNL     1     -14.473  11.460  -1.828  1.00  0.00     0.004 A 
ATOM     83  C   UNL     1     -15.364   9.232  -0.411  1.00  0.00     0.000 A 
ATOM     84  C   UNL     1     -15.023  10.371  -2.508  1.00  0.00     0.000 A 
ATOM     85  C   UNL     1     -15.470   9.259  -1.799  1.00  0.00     0.000 A 
ENDBRANCH  79  80
ENDBRANCH  76  79
ENDBRANCH  74  76
ENDBRANCH  72  74
ENDBRANCH  70  71
ENDBRANCH   1  69
TORSDOF 17
ENDMDL
MODEL 6
REMARK VINA RESULT:    -4.748      3.002      6.258
REMARK INTER + INTRA:         -22.074
REMARK INTER:                 -15.979
REMARK INTRA:                  -6.095
REMARK UNBOUND:                -7.888
REMARK SMILES C=C1C(=O)N[C@H](C)C(=O)N[C@@H](CC(C)C)C(=O)N[C@@H](C(=O)O)[C@H](C)C(=O)N[C@@H](CCCN=C(N)N)C(=O)N[C@@H](/C=C/C(C)=C/[C@H](C)[C@H](Cc2ccccc2)OC)[C@H](C)C(=O)N[C@@H](C(=O)O)CCC(=O)N1C
REMARK SMILES IDX 39 1 38 2 37 3 36 4 28 6 27 7 25 8 26 9 23 11 24 12 19 13
REMARK SMILES IDX 18 14 16 15 17 16 11 18 10 19 8 20 9 21 12 24 13 25 14 26
REMARK SMILES IDX 15 27 20 28 21 29 22 30 29 32 30 33 31 34 32 35 33 36 34 37
REMARK SMILES IDX 35 38 57 43 58 44 59 45 60 46 61 47 62 49 66 50 67 51 68 52
REMARK SMILES IDX 69 53 70 54 71 55 2 56 1 57 3 58 4 59 5 60 6 62 7 63 63 65
REMARK SMILES IDX 64 66 65 67 40 69 41 70 42 71 44 72 43 73 45 74 46 75 47 76
REMARK SMILES IDX 55 77 56 78 48 79 49 80 50 81 54 82 51 83 53 84 52 85
REMARK H PARENT 38 5 27 10 18 17 10 22 22 31 34 39 34 40 35 41 35 42 61 48
REMARK H PARENT 5 61 65 68
REMARK Flexibility Score:  369.900
ROOT
ATOM      1  C   UNL     1      -8.747  15.189   2.499  1.00  0.00     0.117 C 
ENDROOT
BRANCH   1   2
ATOM      2  N   UNL     1      -8.343  14.052   3.326  1.00  0.00    -0.347 N 
ATOM      3  O   UNL     1      -7.075  12.959   1.756  1.00  0.00    -0.273 OA
ATOM      4  C   UNL     1      -7.462  13.071   2.914  1.00  0.00     0.243 C 
ATOM      5  H   UNL     1      -8.679  13.986   4.275  1.00  0.00     0.164 HD
BRANCH   4   6
ATOM      6  C   UNL     1      -7.134  12.026   4.011  1.00  0.00     0.171 C 
BRANCH   6   7
ATOM      7  N   UNL     1      -5.698  12.047   4.329  1.00  0.00    -0.344 N 
ATOM      8  C   UNL     1      -5.034  13.242   4.505  1.00  0.00     0.226 C 
ATOM      9  O   UNL     1      -5.588  14.328   4.386  1.00  0.00    -0.275 OA
ATOM     10  H   UNL     1      -5.191  11.171   4.369  1.00  0.00     0.164 HD
BRANCH   8  11
ATOM     11  C   UNL     1      -3.570  13.095   4.882  1.00  0.00     0.109 C 
ATOM     12  C   UNL     1      -3.147  11.629   4.784  1.00  0.00     0.021 C 
BRANCH  11  13
ATOM     13  C   UNL     1      -2.717  14.073   4.050  1.00  0.00     0.204 C 
BRANCH  13  14
ATOM     14  N   UNL     1      -1.594  14.618   4.820  1.00  0.00    -0.340 N 
ATOM     15  C   UNL     1      -1.761  15.513   5.854  1.00  0.00     0.243 C 
ATOM     16  O   UNL     1      -2.871  15.872   6.245  1.00  0.00    -0.273 OA
ATOM     17  H   UNL     1      -0.649  14.481   4.453  1.00  0.00     0.164 HD
BRANCH  15  18
ATOM     18  C   UNL     1      -0.431  16.107   6.378  1.00  0.00     0.171 C 
BRANCH  18  19
ATOM     19  N   UNL     1       0.284  16.627   5.214  1.00  0.00    -0.343 N 
ATOM     20  C   UNL     1      -0.321  17.477   4.308  1.00  0.00     0.242 CG0
ATOM     21  O   UNL     1      -1.522  17.729   4.364  1.00  0.00    -0.273 OA
ATOM     22  H   UNL     1       1.248  16.354   5.059  1.00  0.00     0.164 HD
ATOM     23  G   UNL     1       0.613  17.983   3.189  1.00  0.00     0.000 G0
ENDBRANCH  18  19
BRANCH  18  24
ATOM     24  C   UNL     1      -0.699  17.209   7.411  1.00  0.00     0.038 C 
BRANCH  24  25
ATOM     25  C   UNL     1      -0.851  16.709   8.863  1.00  0.00    -0.015 C 
ATOM     26  C   UNL     1      -2.205  17.077   9.470  1.00  0.00     0.007 C 
ATOM     27  C   UNL     1       0.274  17.285   9.726  1.00  0.00     0.007 C 
ENDBRANCH  24  25
ENDBRANCH  18  24
ENDBRANCH  15  18
ENDBRANCH  13  14
BRANCH  13  28
ATOM     28  C   UNL     1      -2.133  13.439   2.784  1.00  0.00     0.327 C 
ATOM     29  O   UNL     1      -2.767  13.009   1.832  1.00  0.00    -0.250 OA
BRANCH  28  30
ATOM     30  O   UNL     1      -0.796  13.275   2.842  1.00  0.00    -0.480 OA
ATOM     31  H   UNL     1      -0.492  13.988   3.441  1.00  0.00     0.296 HD
ENDBRANCH  28  30
ENDBRANCH  13  28
ENDBRANCH  11  13
ENDBRANCH   8  11
ENDBRANCH   6   7
BRANCH   6  32
ATOM     32  C   UNL     1      -7.975  12.326   5.258  1.00  0.00     0.037 C 
BRANCH  32  33
ATOM     33  C   UNL     1      -9.117  11.317   5.442  1.00  0.00     0.026 C 
BRANCH  33  34
ATOM     34  C   UNL     1     -10.354  11.944   6.087  1.00  0.00     0.146 C 
BRANCH  34  35
ATOM     35  N   UNL     1     -10.374  13.367   5.777  1.00  0.00    -0.254 NA
ATOM     36  C   UNL     1     -11.156  14.130   6.445  1.00  0.00     0.185 C 
ATOM     37  N   UNL     1     -11.179  15.444   6.171  1.00  0.00    -0.370 N 
ATOM     38  N   UNL     1     -12.006  13.809   7.437  1.00  0.00    -0.370 N 
ATOM     39  H   UNL     1     -10.557  15.767   5.441  1.00  0.00     0.159 HD
ATOM     40  H   UNL     1     -11.628  16.127   6.758  1.00  0.00     0.159 HD
ATOM     41  H   UNL     1     -12.671  14.478   7.790  1.00  0.00     0.159 HD
ATOM     42  H   UNL     1     -12.105  12.852   7.737  1.00  0.00     0.159 HD
ENDBRANCH  34  35
ENDBRANCH  33  34
ENDBRANCH  32  33
ENDBRANCH   6  32
ENDBRANCH   4   6
ENDBRANCH   1   2
BRANCH   1  43
ATOM     43  C   UNL     1      -7.855  16.410   2.866  1.00  0.00     0.102 C 
ATOM     44  C   UNL     1      -8.620  17.533   3.586  1.00  0.00     0.020 C 
BRANCH  43  45
ATOM     45  C   UNL     1      -7.048  16.886   1.654  1.00  0.00     0.225 C 
ATOM     46  O   UNL     1      -7.521  16.968   0.524  1.00  0.00    -0.275 OA
ATOM     47  N   UNL     1      -5.715  17.132   1.890  1.00  0.00    -0.342 N 
ATOM     48  H   UNL     1      -5.381  17.207   2.840  1.00  0.00     0.164 HD
BRANCH  47  49
ATOM     49  C   UNL     1      -4.829  17.627   0.832  1.00  0.00     0.192 C 
BRANCH  49  50
ATOM     50  C   UNL     1      -3.399  17.146   1.092  1.00  0.00     0.047 C 
BRANCH  50  51
ATOM     51  C   UNL     1      -2.897  16.195  -0.003  1.00  0.00     0.103 C 
BRANCH  51  52
ATOM     52  C   UNL     1      -2.326  16.951  -1.202  1.00  0.00     0.226 C 
ATOM     53  O   UNL     1      -3.075  17.629  -1.908  1.00  0.00    -0.275 OA
BRANCH  52  54
ATOM     54  N   UNL     1      -0.932  16.881  -1.381  1.00  0.00    -0.311 N 
ATOM     55  C   UNL     1      -0.329  17.082  -2.705  1.00  0.00     0.153 C 
BRANCH  54  56
ATOM     56  C   UNL     1      -0.067  16.623  -0.304  1.00  0.00     0.102 C 
ATOM     57  C   UNL     1       0.636  15.491  -0.138  1.00  0.00     0.043 C 
BRANCH  56  58
ATOM     58  C   UNL     1       0.174  17.665   0.763  1.00  0.00     0.268 C 
ATOM     59  O   UNL     1       0.101  18.868   0.552  1.00  0.00    -0.268 OA
ATOM     60  N   UNL     1       0.418  17.122   2.002  1.00  0.00    -0.339 N 
ATOM     61  H   UNL     1       0.473  16.115   2.090  1.00  0.00     0.164 HD
BRANCH  60  62
ATOM     62  C   UNL     1       0.617  17.952   3.189  1.00  0.00     0.168 CG0
ATOM     63  C   UNL     1       2.068  17.905   3.652  1.00  0.00     0.041 C 
ATOM     64  G   UNL     1      -0.329  17.481   4.313  1.00  0.00     0.000 G0
ENDBRANCH  60  62
ENDBRANCH  56  58
ENDBRANCH  54  56
ENDBRANCH  52  54
ENDBRANCH  51  52
ENDBRANCH  50  51
ENDBRANCH  49  50
BRANCH  49  65
ATOM     65  C   UNL     1      -4.843  19.162   0.753  1.00  0.00     0.326 C 
ATOM     66  O   UNL     1      -5.632  19.896   1.331  1.00  0.00    -0.250 OA
BRANCH  65  67
ATOM     67  O   UNL     1      -3.922  19.692  -0.081  1.00  0.00    -0.480 OA
ATOM     68  H   UNL     1      -4.396  20.440  -0.505  1.00  0.00     0.296 HD
ENDBRANCH  65  67
ENDBRANCH  49  65
ENDBRANCH  47  49
ENDBRANCH  43  45
ENDBRANCH   1  43
BRANCH   1  69
ATOM     69  C   UNL     1     -10.253  15.310   2.650  1.00  0.00    -0.001 C 
ATOM     70  C   UNL     1     -11.082  16.108   1.955  1.00  0.00     0.001 C 
BRANCH  70  71
ATOM     71  C   UNL     1     -12.537  16.200   2.095  1.00  0.00    -0.055 C 
ATOM     72  C   UNL     1     -13.036  16.418   3.330  1.00  0.00    -0.018 C 
ATOM     73  C   UNL     1     -13.373  16.053   0.851  1.00  0.00     0.044 C 
BRANCH  72  74
ATOM     74  C   UNL     1     -14.486  16.560   3.772  1.00  0.00     0.038 C 
ATOM     75  C   UNL     1     -14.704  18.032   4.144  1.00  0.00     0.015 C 
BRANCH  74  76
ATOM     76  C   UNL     1     -14.760  15.548   4.923  1.00  0.00     0.128 C 
BRANCH  76  77
ATOM     77  O   UNL     1     -15.512  16.186   5.969  1.00  0.00    -0.381 OA
ATOM     78  C   UNL     1     -16.158  15.274   6.847  1.00  0.00     0.195 C 
ENDBRANCH  76  77
BRANCH  76  79
ATOM     79  C   UNL     1     -15.399  14.217   4.453  1.00  0.00     0.068 C 
BRANCH  79  80
ATOM     80  C   UNL     1     -14.616  13.359   3.488  1.00  0.00    -0.045 A 
ATOM     81  C   UNL     1     -15.099  13.097   2.199  1.00  0.00     0.004 A 
ATOM     82  C   UNL     1     -13.397  12.785   3.881  1.00  0.00     0.004 A 
ATOM     83  C   UNL     1     -14.375  12.291   1.318  1.00  0.00     0.000 A 
ATOM     84  C   UNL     1     -12.674  11.979   2.999  1.00  0.00     0.000 A 
ATOM     85  C   UNL     1     -13.163  11.733   1.717  1.00  0.00     0.000 A 
ENDBRANCH  79  80
ENDBRANCH  76  79
ENDBRANCH  74  76
ENDBRANCH  72  74
ENDBRANCH  70  71
ENDBRANCH   1  69
TORSDOF 17
ENDMDL
MODEL 7
REMARK VINA RESULT:    -4.663      3.005      6.479
REMARK INTER + INTRA:         -21.820
REMARK INTER:                 -15.901
REMARK INTRA:                  -5.919
REMARK UNBOUND:                -7.888
REMARK SMILES C=C1C(=O)N[C@H](C)C(=O)N[C@@H](CC(C)C)C(=O)N[C@@H](C(=O)O)[C@H](C)C(=O)N[C@@H](CCCN=C(N)N)C(=O)N[C@@H](/C=C/C(C)=C/[C@H](C)[C@H](Cc2ccccc2)OC)[C@H](C)C(=O)N[C@@H](C(=O)O)CCC(=O)N1C
REMARK SMILES IDX 39 1 38 2 37 3 36 4 28 6 27 7 25 8 26 9 23 11 24 12 19 13
REMARK SMILES IDX 18 14 16 15 17 16 11 18 10 19 8 20 9 21 12 24 13 25 14 26
REMARK SMILES IDX 15 27 20 28 21 29 22 30 29 32 30 33 31 34 32 35 33 36 34 37
REMARK SMILES IDX 35 38 57 43 58 44 59 45 60 46 61 47 62 49 66 50 67 51 68 52
REMARK SMILES IDX 69 53 70 54 71 55 2 56 1 57 3 58 4 59 5 60 6 62 7 63 63 65
REMARK SMILES IDX 64 66 65 67 40 69 41 70 42 71 44 72 43 73 45 74 46 75 47 76
REMARK SMILES IDX 55 77 56 78 48 79 49 80 50 81 54 82 51 83 53 84 52 85
REMARK H PARENT 38 5 27 10 18 17 10 22 22 31 34 39 34 40 35 41 35 42 61 48
REMARK H PARENT 5 61 65 68
REMARK Flexibility Score:  369.900
ROOT
ATOM      1  C   UNL     1      -8.724  15.183   2.505  1.00  0.00     0.117 C 
ENDROOT
BRANCH   1   2
ATOM      2  N   UNL     1      -8.313  14.074   3.366  1.00  0.00    -0.347 N 
ATOM      3  O   UNL     1      -7.214  12.834   1.777  1.00  0.00    -0.273 OA
ATOM      4  C   UNL     1      -7.510  13.029   2.951  1.00  0.00     0.243 C 
ATOM      5  H   UNL     1      -8.581  14.077   4.339  1.00  0.00     0.164 HD
BRANCH   4   6
ATOM      6  C   UNL     1      -7.152  12.031   4.081  1.00  0.00     0.171 C 
BRANCH   6   7
ATOM      7  N   UNL     1      -5.696  12.000   4.298  1.00  0.00    -0.344 N 
ATOM      8  C   UNL     1      -4.982  13.170   4.438  1.00  0.00     0.226 C 
ATOM      9  O   UNL     1      -5.505  14.276   4.368  1.00  0.00    -0.275 OA
ATOM     10  H   UNL     1      -5.219  11.108   4.295  1.00  0.00     0.164 HD
BRANCH   8  11
ATOM     11  C   UNL     1      -3.501  12.970   4.710  1.00  0.00     0.109 C 
ATOM     12  C   UNL     1      -3.121  11.505   4.497  1.00  0.00     0.021 C 
BRANCH  11  13
ATOM     13  C   UNL     1      -2.678  13.980   3.885  1.00  0.00     0.204 C 
BRANCH  13  14
ATOM     14  N   UNL     1      -1.596  14.581   4.670  1.00  0.00    -0.340 N 
ATOM     15  C   UNL     1      -1.824  15.372   5.776  1.00  0.00     0.243 C 
ATOM     16  O   UNL     1      -2.952  15.579   6.219  1.00  0.00    -0.273 OA
ATOM     17  H   UNL     1      -0.653  14.575   4.272  1.00  0.00     0.164 HD
BRANCH  15  18
ATOM     18  C   UNL     1      -0.548  16.063   6.316  1.00  0.00     0.171 C 
BRANCH  18  19
ATOM     19  N   UNL     1       0.156  16.608   5.156  1.00  0.00    -0.343 N 
ATOM     20  C   UNL     1      -0.405  17.585   4.357  1.00  0.00     0.242 CG0
ATOM     21  O   UNL     1      -1.570  17.947   4.503  1.00  0.00    -0.273 OA
ATOM     22  H   UNL     1       1.078  16.257   4.924  1.00  0.00     0.164 HD
ATOM     23  G   UNL     1       0.518  18.091   3.228  1.00  0.00     0.000 G0
ENDBRANCH  18  19
BRANCH  18  24
ATOM     24  C   UNL     1      -0.912  17.164   7.320  1.00  0.00     0.038 C 
BRANCH  24  25
ATOM     25  C   UNL     1       0.240  17.589   8.255  1.00  0.00    -0.015 C 
ATOM     26  C   UNL     1      -0.262  18.263   9.532  1.00  0.00     0.007 C 
ATOM     27  C   UNL     1       1.185  18.536   7.510  1.00  0.00     0.007 C 
ENDBRANCH  24  25
ENDBRANCH  18  24
ENDBRANCH  15  18
ENDBRANCH  13  14
BRANCH  13  28
ATOM     28  C   UNL     1      -2.043  13.363   2.635  1.00  0.00     0.327 C 
ATOM     29  O   UNL     1      -2.601  13.154   1.569  1.00  0.00    -0.250 OA
BRANCH  28  30
ATOM     30  O   UNL     1      -0.780  12.937   2.839  1.00  0.00    -0.480 OA
ATOM     31  H   UNL     1      -0.254  13.410   2.160  1.00  0.00     0.296 HD
ENDBRANCH  28  30
ENDBRANCH  13  28
ENDBRANCH  11  13
ENDBRANCH   8  11
ENDBRANCH   6   7
BRANCH   6  32
ATOM     32  C   UNL     1      -7.887  12.437   5.363  1.00  0.00     0.037 C 
BRANCH  32  33
ATOM     33  C   UNL     1      -7.643  11.446   6.510  1.00  0.00     0.026 C 
BRANCH  33  34
ATOM     34  C   UNL     1      -8.798  11.415   7.512  1.00  0.00     0.146 C 
BRANCH  34  35
ATOM     35  N   UNL     1     -10.054  11.338   6.779  1.00  0.00    -0.254 NA
ATOM     36  C   UNL     1     -10.969  12.198   7.035  1.00  0.00     0.185 C 
ATOM     37  N   UNL     1     -12.128  12.138   6.362  1.00  0.00    -0.370 N 
ATOM     38  N   UNL     1     -10.953  13.210   7.919  1.00  0.00    -0.370 N 
ATOM     39  H   UNL     1     -12.214  11.407   5.668  1.00  0.00     0.159 HD
ATOM     40  H   UNL     1     -12.818  12.870   6.377  1.00  0.00     0.159 HD
ATOM     41  H   UNL     1     -11.787  13.733   8.127  1.00  0.00     0.159 HD
ATOM     42  H   UNL     1     -10.148  13.365   8.507  1.00  0.00     0.159 HD
ENDBRANCH  34  35
ENDBRANCH  33  34
ENDBRANCH  32  33
ENDBRANCH   6  32
ENDBRANCH   4   6
ENDBRANCH   1   2
BRANCH   1  43
ATOM     43  C   UNL     1      -7.951  16.461   2.941  1.00  0.00     0.102 C 
ATOM     44  C   UNL     1      -8.852  17.538   3.569  1.00  0.00     0.020 C 
BRANCH  43  45
ATOM     45  C   UNL     1      -7.061  16.979   1.807  1.00  0.00     0.225 C 
ATOM     46  O   UNL     1      -7.475  17.182   0.669  1.00  0.00    -0.275 OA
ATOM     47  N   UNL     1      -5.728  17.119   2.117  1.00  0.00    -0.342 N 
ATOM     48  H   UNL     1      -5.434  17.096   3.083  1.00  0.00     0.164 HD
BRANCH  47  49
ATOM     49  C   UNL     1      -4.765  17.639   1.141  1.00  0.00     0.192 C 
BRANCH  49  50
ATOM     50  C   UNL     1      -3.470  16.826   1.213  1.00  0.00     0.047 C 
BRANCH  50  51
ATOM     51  C   UNL     1      -3.149  16.124  -0.113  1.00  0.00     0.103 C 
BRANCH  51  52
ATOM     52  C   UNL     1      -2.512  17.074  -1.126  1.00  0.00     0.226 C 
ATOM     53  O   UNL     1      -3.204  17.933  -1.675  1.00  0.00    -0.275 OA
BRANCH  52  54
ATOM     54  N   UNL     1      -1.123  16.950  -1.314  1.00  0.00    -0.311 N 
ATOM     55  C   UNL     1      -0.526  17.084  -2.649  1.00  0.00     0.153 C 
BRANCH  54  56
ATOM     56  C   UNL     1      -0.257  16.701  -0.236  1.00  0.00     0.102 C 
ATOM     57  C   UNL     1       0.439  15.567  -0.056  1.00  0.00     0.043 C 
BRANCH  56  58
ATOM     58  C   UNL     1      -0.006  17.755   0.816  1.00  0.00     0.268 C 
ATOM     59  O   UNL     1      -0.115  18.955   0.601  1.00  0.00    -0.268 OA
ATOM     60  N   UNL     1       0.291  17.228   2.050  1.00  0.00    -0.339 N 
ATOM     61  H   UNL     1       0.372  16.222   2.143  1.00  0.00     0.164 HD
BRANCH  60  62
ATOM     62  C   UNL     1       0.508  18.070   3.226  1.00  0.00     0.168 CG0
ATOM     63  C   UNL     1       1.967  18.032   3.663  1.00  0.00     0.041 C 
ATOM     64  G   UNL     1      -0.417  17.608   4.371  1.00  0.00     0.000 G0
ENDBRANCH  60  62
ENDBRANCH  56  58
ENDBRANCH  54  56
ENDBRANCH  52  54
ENDBRANCH  51  52
ENDBRANCH  50  51
ENDBRANCH  49  50
BRANCH  49  65
ATOM     65  C   UNL     1      -4.450  19.122   1.391  1.00  0.00     0.326 C 
ATOM     66  O   UNL     1      -4.623  19.717   2.445  1.00  0.00    -0.250 OA
BRANCH  65  67
ATOM     67  O   UNL     1      -3.997  19.792   0.309  1.00  0.00    -0.480 OA
ATOM     68  H   UNL     1      -3.114  19.397   0.144  1.00  0.00     0.296 HD
ENDBRANCH  65  67
ENDBRANCH  49  65
ENDBRANCH  47  49
ENDBRANCH  43  45
ENDBRANCH   1  43
BRANCH   1  69
ATOM     69  C   UNL     1     -10.242  15.200   2.530  1.00  0.00    -0.001 C 
ATOM     70  C   UNL     1     -11.055  14.437   3.282  1.00  0.00     0.001 C 
BRANCH  70  71
ATOM     71  C   UNL     1     -12.518  14.477   3.313  1.00  0.00    -0.055 C 
ATOM     72  C   UNL     1     -13.183  13.956   2.261  1.00  0.00    -0.018 C 
ATOM     73  C   UNL     1     -13.178  15.090   4.521  1.00  0.00     0.044 C 
BRANCH  72  74
ATOM     74  C   UNL     1     -14.683  13.857   2.023  1.00  0.00     0.038 C 
ATOM     75  C   UNL     1     -14.989  12.397   1.665  1.00  0.00     0.015 C 
BRANCH  74  76
ATOM     76  C   UNL     1     -15.087  14.894   0.934  1.00  0.00     0.128 C 
BRANCH  76  77
ATOM     77  O   UNL     1     -16.295  14.472   0.278  1.00  0.00    -0.381 OA
ATOM     78  C   UNL     1     -16.151  14.296  -1.125  1.00  0.00     0.195 C 
ENDBRANCH  76  77
BRANCH  76  79
ATOM     79  C   UNL     1     -15.163  16.352   1.451  1.00  0.00     0.068 C 
BRANCH  79  80
ATOM     80  C   UNL     1     -13.899  17.177   1.429  1.00  0.00    -0.045 A 
ATOM     81  C   UNL     1     -12.992  17.081   0.366  1.00  0.00     0.004 A 
ATOM     82  C   UNL     1     -13.598  18.039   2.495  1.00  0.00     0.004 A 
ATOM     83  C   UNL     1     -11.818  17.837   0.360  1.00  0.00     0.000 A 
ATOM     84  C   UNL     1     -12.424  18.794   2.489  1.00  0.00     0.000 A 
ATOM     85  C   UNL     1     -11.535  18.694   1.421  1.00  0.00     0.000 A 
ENDBRANCH  79  80
ENDBRANCH  76  79
ENDBRANCH  74  76
ENDBRANCH  72  74
ENDBRANCH  70  71
ENDBRANCH   1  69
TORSDOF 17
ENDMDL
MODEL 8
REMARK VINA RESULT:    -4.405      2.525      7.445
REMARK INTER + INTRA:         -21.048
REMARK INTER:                 -14.474
REMARK INTRA:                  -6.573
REMARK UNBOUND:                -7.888
REMARK SMILES C=C1C(=O)N[C@H](C)C(=O)N[C@@H](CC(C)C)C(=O)N[C@@H](C(=O)O)[C@H](C)C(=O)N[C@@H](CCCN=C(N)N)C(=O)N[C@@H](/C=C/C(C)=C/[C@H](C)[C@H](Cc2ccccc2)OC)[C@H](C)C(=O)N[C@@H](C(=O)O)CCC(=O)N1C
REMARK SMILES IDX 39 1 38 2 37 3 36 4 28 6 27 7 25 8 26 9 23 11 24 12 19 13
REMARK SMILES IDX 18 14 16 15 17 16 11 18 10 19 8 20 9 21 12 24 13 25 14 26
REMARK SMILES IDX 15 27 20 28 21 29 22 30 29 32 30 33 31 34 32 35 33 36 34 37
REMARK SMILES IDX 35 38 57 43 58 44 59 45 60 46 61 47 62 49 66 50 67 51 68 52
REMARK SMILES IDX 69 53 70 54 71 55 2 56 1 57 3 58 4 59 5 60 6 62 7 63 63 65
REMARK SMILES IDX 64 66 65 67 40 69 41 70 42 71 44 72 43 73 45 74 46 75 47 76
REMARK SMILES IDX 55 77 56 78 48 79 49 80 50 81 54 82 51 83 53 84 52 85
REMARK H PARENT 38 5 27 10 18 17 10 22 22 31 34 39 34 40 35 41 35 42 61 48
REMARK H PARENT 5 61 65 68
REMARK Flexibility Score:  369.900
ROOT
ATOM      1  C   UNL     1      -4.301  13.479   3.798  1.00  0.00     0.117 C 
ENDROOT
BRANCH   1   2
ATOM      2  N   UNL     1      -5.382  12.725   4.435  1.00  0.00    -0.347 N 
ATOM      3  O   UNL     1      -6.917  12.884   2.735  1.00  0.00    -0.273 OA
ATOM      4  C   UNL     1      -6.575  12.409   3.813  1.00  0.00     0.243 C 
ATOM      5  H   UNL     1      -5.250  12.362   5.367  1.00  0.00     0.164 HD
BRANCH   4   6
ATOM      6  C   UNL     1      -7.514  11.529   4.677  1.00  0.00     0.171 C 
BRANCH   6   7
ATOM      7  N   UNL     1      -8.840  11.422   4.049  1.00  0.00    -0.344 N 
ATOM      8  C   UNL     1      -9.812  12.368   4.294  1.00  0.00     0.226 C 
ATOM      9  O   UNL     1      -9.634  13.317   5.050  1.00  0.00    -0.275 OA
ATOM     10  H   UNL     1      -9.047  10.617   3.472  1.00  0.00     0.164 HD
BRANCH   8  11
ATOM     11  C   UNL     1     -11.106  12.149   3.531  1.00  0.00     0.109 C 
ATOM     12  C   UNL     1     -11.306  10.659   3.252  1.00  0.00     0.021 C 
BRANCH  11  13
ATOM     13  C   UNL     1     -12.272  12.831   4.274  1.00  0.00     0.204 C 
BRANCH  13  14
ATOM     14  N   UNL     1     -12.321  14.274   4.016  1.00  0.00    -0.340 N 
ATOM     15  C   UNL     1     -11.979  14.829   2.802  1.00  0.00     0.243 C 
ATOM     16  O   UNL     1     -11.666  14.147   1.829  1.00  0.00    -0.273 OA
ATOM     17  H   UNL     1     -12.424  14.901   4.818  1.00  0.00     0.164 HD
BRANCH  15  18
ATOM     18  C   UNL     1     -11.907  16.376   2.828  1.00  0.00     0.171 C 
BRANCH  18  19
ATOM     19  N   UNL     1     -10.498  16.726   2.998  1.00  0.00    -0.343 N 
ATOM     20  C   UNL     1      -9.903  16.773   4.244  1.00  0.00     0.242 CG0
ATOM     21  O   UNL     1     -10.560  16.652   5.275  1.00  0.00    -0.273 OA
ATOM     22  H   UNL     1      -9.939  16.948   2.182  1.00  0.00     0.164 HD
ATOM     23  G   UNL     1      -8.393  17.083   4.217  1.00  0.00     0.000 G0
ENDBRANCH  18  19
BRANCH  18  24
ATOM     24  C   UNL     1     -12.482  16.967   1.535  1.00  0.00     0.038 C 
BRANCH  24  25
ATOM     25  C   UNL     1     -13.605  18.004   1.744  1.00  0.00    -0.015 C 
ATOM     26  C   UNL     1     -13.096  19.443   1.657  1.00  0.00     0.007 C 
ATOM     27  C   UNL     1     -14.271  17.775   3.103  1.00  0.00     0.007 C 
ENDBRANCH  24  25
ENDBRANCH  18  24
ENDBRANCH  15  18
ENDBRANCH  13  14
BRANCH  13  28
ATOM     28  C   UNL     1     -13.643  12.257   3.903  1.00  0.00     0.327 C 
ATOM     29  O   UNL     1     -14.295  12.529   2.906  1.00  0.00    -0.250 OA
BRANCH  28  30
ATOM     30  O   UNL     1     -14.163  11.467   4.864  1.00  0.00    -0.480 OA
ATOM     31  H   UNL     1     -15.132  11.558   4.753  1.00  0.00     0.296 HD
ENDBRANCH  28  30
ENDBRANCH  13  28
ENDBRANCH  11  13
ENDBRANCH   8  11
ENDBRANCH   6   7
BRANCH   6  32
ATOM     32  C   UNL     1      -6.881  10.144   4.857  1.00  0.00     0.037 C 
BRANCH  32  33
ATOM     33  C   UNL     1      -7.089   9.593   6.274  1.00  0.00     0.026 C 
BRANCH  33  34
ATOM     34  C   UNL     1      -7.652  10.642   7.234  1.00  0.00     0.146 C 
BRANCH  34  35
ATOM     35  N   UNL     1      -6.587  11.084   8.124  1.00  0.00    -0.254 NA
ATOM     36  C   UNL     1      -6.387  12.342   8.265  1.00  0.00     0.185 C 
ATOM     37  N   UNL     1      -5.411  12.760   9.086  1.00  0.00    -0.370 N 
ATOM     38  N   UNL     1      -7.035  13.370   7.689  1.00  0.00    -0.370 N 
ATOM     39  H   UNL     1      -4.882  12.043   9.566  1.00  0.00     0.159 HD
ATOM     40  H   UNL     1      -5.306  13.715   9.382  1.00  0.00     0.159 HD
ATOM     41  H   UNL     1      -6.693  14.313   7.773  1.00  0.00     0.159 HD
ATOM     42  H   UNL     1      -7.783  13.203   7.035  1.00  0.00     0.159 HD
ENDBRANCH  34  35
ENDBRANCH  33  34
ENDBRANCH  32  33
ENDBRANCH   6  32
ENDBRANCH   4   6
ENDBRANCH   1   2
BRANCH   1  43
ATOM     43  C   UNL     1      -3.135  12.499   3.480  1.00  0.00     0.102 C 
ATOM     44  C   UNL     1      -2.308  12.110   4.716  1.00  0.00     0.020 C 
BRANCH  43  45
ATOM     45  C   UNL     1      -2.295  13.008   2.305  1.00  0.00     0.225 C 
ATOM     46  O   UNL     1      -2.099  12.351   1.286  1.00  0.00    -0.275 OA
ATOM     47  N   UNL     1      -1.684  14.226   2.497  1.00  0.00    -0.342 N 
ATOM     48  H   UNL     1      -1.973  14.815   3.265  1.00  0.00     0.164 HD
BRANCH  47  49
ATOM     49  C   UNL     1      -0.878  14.853   1.446  1.00  0.00     0.192 C 
BRANCH  49  50
ATOM     50  C   UNL     1      -1.786  15.294   0.295  1.00  0.00     0.047 C 
BRANCH  50  51
ATOM     51  C   UNL     1      -2.729  16.435   0.703  1.00  0.00     0.103 C 
BRANCH  51  52
ATOM     52  C   UNL     1      -4.190  15.990   0.729  1.00  0.00     0.226 C 
ATOM     53  O   UNL     1      -4.469  14.831   1.040  1.00  0.00    -0.275 OA
BRANCH  52  54
ATOM     54  N   UNL     1      -5.152  16.981   0.460  1.00  0.00    -0.311 N 
ATOM     55  C   UNL     1      -4.817  18.161  -0.349  1.00  0.00     0.153 C 
BRANCH  54  56
ATOM     56  C   UNL     1      -6.465  16.879   0.949  1.00  0.00     0.102 C 
ATOM     57  C   UNL     1      -7.485  16.298   0.296  1.00  0.00     0.043 C 
BRANCH  56  58
ATOM     58  C   UNL     1      -6.824  17.399   2.321  1.00  0.00     0.268 C 
ATOM     59  O   UNL     1      -6.305  18.389   2.819  1.00  0.00    -0.268 OA
ATOM     60  N   UNL     1      -7.836  16.687   2.921  1.00  0.00    -0.339 N 
ATOM     61  H   UNL     1      -8.206  15.872   2.446  1.00  0.00     0.164 HD
BRANCH  60  62
ATOM     62  C   UNL     1      -8.381  17.057   4.226  1.00  0.00     0.168 CG0
ATOM     63  C   UNL     1      -7.683  16.297   5.346  1.00  0.00     0.041 C 
ATOM     64  G   UNL     1      -9.900  16.787   4.246  1.00  0.00     0.000 G0
ENDBRANCH  60  62
ENDBRANCH  56  58
ENDBRANCH  54  56
ENDBRANCH  52  54
ENDBRANCH  51  52
ENDBRANCH  50  51
ENDBRANCH  49  50
BRANCH  49  65
ATOM     65  C   UNL     1       0.196  13.895   0.907  1.00  0.00     0.326 C 
ATOM     66  O   UNL     1       0.620  13.875  -0.239  1.00  0.00    -0.250 OA
BRANCH  65  67
ATOM     67  O   UNL     1       0.637  12.983   1.801  1.00  0.00    -0.480 OA
ATOM     68  H   UNL     1       1.472  12.654   1.404  1.00  0.00     0.296 HD
ENDBRANCH  65  67
ENDBRANCH  49  65
ENDBRANCH  47  49
ENDBRANCH  43  45
ENDBRANCH   1  43
BRANCH   1  69
ATOM     69  C   UNL     1      -4.032  14.673   4.695  1.00  0.00    -0.001 C 
ATOM     70  C   UNL     1      -4.293  14.782   6.010  1.00  0.00     0.001 C 
BRANCH  70  71
ATOM     71  C   UNL     1      -4.008  15.932   6.870  1.00  0.00    -0.055 C 
ATOM     72  C   UNL     1      -2.979  16.734   6.526  1.00  0.00    -0.018 C 
ATOM     73  C   UNL     1      -4.890  16.144   8.074  1.00  0.00     0.044 C 
BRANCH  72  74
ATOM     74  C   UNL     1      -2.459  17.986   7.219  1.00  0.00     0.038 C 
ATOM     75  C   UNL     1      -3.331  19.157   6.751  1.00  0.00     0.015 C 
BRANCH  74  76
ATOM     76  C   UNL     1      -0.941  18.137   6.909  1.00  0.00     0.128 C 
BRANCH  76  77
ATOM     77  O   UNL     1      -0.185  18.114   8.132  1.00  0.00    -0.381 OA
ATOM     78  C   UNL     1      -0.972  18.341   9.293  1.00  0.00     0.195 C 
ENDBRANCH  76  77
BRANCH  76  79
ATOM     79  C   UNL     1      -0.410  17.129   5.858  1.00  0.00     0.068 C 
BRANCH  79  80
ATOM     80  C   UNL     1      -0.185  17.628   4.451  1.00  0.00    -0.045 A 
ATOM     81  C   UNL     1      -1.150  18.407   3.798  1.00  0.00     0.004 A 
ATOM     82  C   UNL     1       0.990  17.293   3.761  1.00  0.00     0.004 A 
ATOM     83  C   UNL     1      -0.940  18.852   2.491  1.00  0.00     0.000 A 
ATOM     84  C   UNL     1       1.198  17.739   2.454  1.00  0.00     0.000 A 
ATOM     85  C   UNL     1       0.234  18.519   1.820  1.00  0.00     0.000 A 
ENDBRANCH  79  80
ENDBRANCH  76  79
ENDBRANCH  74  76
ENDBRANCH  72  74
ENDBRANCH  70  71
ENDBRANCH   1  69
TORSDOF 17
ENDMDL
MODEL 9
REMARK VINA RESULT:    -4.401      2.474      7.191
REMARK INTER + INTRA:         -21.037
REMARK INTER:                 -12.201
REMARK INTRA:                  -8.835
REMARK UNBOUND:                -7.888
REMARK SMILES C=C1C(=O)N[C@H](C)C(=O)N[C@@H](CC(C)C)C(=O)N[C@@H](C(=O)O)[C@H](C)C(=O)N[C@@H](CCCN=C(N)N)C(=O)N[C@@H](/C=C/C(C)=C/[C@H](C)[C@H](Cc2ccccc2)OC)[C@H](C)C(=O)N[C@@H](C(=O)O)CCC(=O)N1C
REMARK SMILES IDX 39 1 38 2 37 3 36 4 28 6 27 7 25 8 26 9 23 11 24 12 19 13
REMARK SMILES IDX 18 14 16 15 17 16 11 18 10 19 8 20 9 21 12 24 13 25 14 26
REMARK SMILES IDX 15 27 20 28 21 29 22 30 29 32 30 33 31 34 32 35 33 36 34 37
REMARK SMILES IDX 35 38 57 43 58 44 59 45 60 46 61 47 62 49 66 50 67 51 68 52
REMARK SMILES IDX 69 53 70 54 71 55 2 56 1 57 3 58 4 59 5 60 6 62 7 63 63 65
REMARK SMILES IDX 64 66 65 67 40 69 41 70 42 71 44 72 43 73 45 74 46 75 47 76
REMARK SMILES IDX 55 77 56 78 48 79 49 80 50 81 54 82 51 83 53 84 52 85
REMARK H PARENT 38 5 27 10 18 17 10 22 22 31 34 39 34 40 35 41 35 42 61 48
REMARK H PARENT 5 61 65 68
REMARK Flexibility Score:  369.900
ROOT
ATOM      1  C   UNL     1      -3.893  13.212   4.637  1.00  0.00     0.117 C 
ENDROOT
BRANCH   1   2
ATOM      2  N   UNL     1      -4.679  12.367   5.536  1.00  0.00    -0.347 N 
ATOM      3  O   UNL     1      -6.738  12.734   4.590  1.00  0.00    -0.273 OA
ATOM      4  C   UNL     1      -6.031  12.123   5.384  1.00  0.00     0.243 C 
ATOM      5  H   UNL     1      -4.217  11.883   6.291  1.00  0.00     0.164 HD
BRANCH   4   6
ATOM      6  C   UNL     1      -6.604  11.123   6.420  1.00  0.00     0.171 C 
BRANCH   6   7
ATOM      7  N   UNL     1      -7.760  11.710   7.116  1.00  0.00    -0.344 N 
ATOM      8  C   UNL     1      -7.594  12.388   8.304  1.00  0.00     0.226 C 
ATOM      9  O   UNL     1      -6.502  12.516   8.845  1.00  0.00    -0.275 OA
ATOM     10  H   UNL     1      -8.687  11.568   6.735  1.00  0.00     0.164 HD
BRANCH   8  11
ATOM     11  C   UNL     1      -8.872  12.982   8.870  1.00  0.00     0.109 C 
ATOM     12  C   UNL     1      -8.857  12.907  10.397  1.00  0.00     0.021 C 
BRANCH  11  13
ATOM     13  C   UNL     1      -9.091  14.395   8.292  1.00  0.00     0.204 C 
BRANCH  13  14
ATOM     14  N   UNL     1      -7.838  15.148   8.186  1.00  0.00    -0.340 N 
ATOM     15  C   UNL     1      -7.722  16.466   8.569  1.00  0.00     0.243 C 
ATOM     16  O   UNL     1      -8.650  17.088   9.084  1.00  0.00    -0.273 OA
ATOM     17  H   UNL     1      -7.079  14.742   7.632  1.00  0.00     0.164 HD
BRANCH  15  18
ATOM     18  C   UNL     1      -6.370  17.110   8.173  1.00  0.00     0.171 C 
BRANCH  18  19
ATOM     19  N   UNL     1      -6.616  17.887   6.960  1.00  0.00    -0.343 N 
ATOM     20  C   UNL     1      -6.708  17.290   5.717  1.00  0.00     0.242 CG0
ATOM     21  O   UNL     1      -6.455  16.098   5.556  1.00  0.00    -0.273 OA
ATOM     22  H   UNL     1      -6.717  18.894   7.026  1.00  0.00     0.164 HD
ATOM     23  G   UNL     1      -7.049  18.261   4.568  1.00  0.00     0.000 G0
ENDBRANCH  18  19
BRANCH  18  24
ATOM     24  C   UNL     1      -5.837  17.992   9.308  1.00  0.00     0.038 C 
BRANCH  24  25
ATOM     25  C   UNL     1      -4.678  18.928   8.906  1.00  0.00    -0.015 C 
ATOM     26  C   UNL     1      -3.457  18.770   9.813  1.00  0.00     0.007 C 
ATOM     27  C   UNL     1      -5.156  20.382   8.935  1.00  0.00     0.007 C 
ENDBRANCH  24  25
ENDBRANCH  18  24
ENDBRANCH  15  18
ENDBRANCH  13  14
BRANCH  13  28
ATOM     28  C   UNL     1      -9.734  14.385   6.902  1.00  0.00     0.327 C 
ATOM     29  O   UNL     1     -10.929  14.308   6.658  1.00  0.00    -0.250 OA
BRANCH  28  30
ATOM     30  O   UNL     1      -8.830  14.353   5.902  1.00  0.00    -0.480 OA
ATOM     31  H   UNL     1      -8.991  15.182   5.405  1.00  0.00     0.296 HD
ENDBRANCH  28  30
ENDBRANCH  13  28
ENDBRANCH  11  13
ENDBRANCH   8  11
ENDBRANCH   6   7
BRANCH   6  32
ATOM     32  C   UNL     1      -6.998   9.826   5.703  1.00  0.00     0.037 C 
BRANCH  32  33
ATOM     33  C   UNL     1      -8.521   9.654   5.614  1.00  0.00     0.026 C 
BRANCH  33  34
ATOM     34  C   UNL     1      -9.141  10.497   4.499  1.00  0.00     0.146 C 
BRANCH  34  35
ATOM     35  N   UNL     1     -10.334  11.153   5.014  1.00  0.00    -0.254 NA
ATOM     36  C   UNL     1     -11.089  11.787   4.196  1.00  0.00     0.185 C 
ATOM     37  N   UNL     1     -12.194  12.391   4.659  1.00  0.00    -0.370 N 
ATOM     38  N   UNL     1     -10.945  11.953   2.869  1.00  0.00    -0.370 N 
ATOM     39  H   UNL     1     -12.379  12.302   5.651  1.00  0.00     0.159 HD
ATOM     40  H   UNL     1     -12.920  12.754   4.066  1.00  0.00     0.159 HD
ATOM     41  H   UNL     1     -11.532  12.591   2.357  1.00  0.00     0.159 HD
ATOM     42  H   UNL     1     -10.149  11.566   2.388  1.00  0.00     0.159 HD
ENDBRANCH  34  35
ENDBRANCH  33  34
ENDBRANCH  32  33
ENDBRANCH   6  32
ENDBRANCH   4   6
ENDBRANCH   1   2
BRANCH   1  43
ATOM     43  C   UNL     1      -3.045  12.295   3.710  1.00  0.00     0.102 C 
ATOM     44  C   UNL     1      -2.023  11.433   4.471  1.00  0.00     0.020 C 
BRANCH  43  45
ATOM     45  C   UNL     1      -2.443  13.092   2.549  1.00  0.00     0.225 C 
ATOM     46  O   UNL     1      -2.533  12.740   1.376  1.00  0.00    -0.275 OA
ATOM     47  N   UNL     1      -1.703  14.195   2.908  1.00  0.00    -0.342 N 
ATOM     48  H   UNL     1      -1.765  14.554   3.851  1.00  0.00     0.164 HD
BRANCH  47  49
ATOM     49  C   UNL     1      -1.098  15.073   1.902  1.00  0.00     0.192 C 
BRANCH  49  50
ATOM     50  C   UNL     1      -2.185  15.611   0.968  1.00  0.00     0.047 C 
BRANCH  50  51
ATOM     51  C   UNL     1      -3.297  16.343   1.730  1.00  0.00     0.103 C 
BRANCH  51  52
ATOM     52  C   UNL     1      -4.688  15.922   1.259  1.00  0.00     0.226 C 
ATOM     53  O   UNL     1      -5.058  14.757   1.414  1.00  0.00    -0.275 OA
BRANCH  52  54
ATOM     54  N   UNL     1      -5.506  16.940   0.733  1.00  0.00    -0.311 N 
ATOM     55  C   UNL     1      -4.944  17.997  -0.119  1.00  0.00     0.153 C 
BRANCH  54  56
ATOM     56  C   UNL     1      -6.885  16.980   0.996  1.00  0.00     0.102 C 
ATOM     57  C   UNL     1      -7.821  16.321   0.293  1.00  0.00     0.043 C 
BRANCH  56  58
ATOM     58  C   UNL     1      -7.428  17.766   2.166  1.00  0.00     0.268 C 
ATOM     59  O   UNL     1      -8.469  18.408   2.117  1.00  0.00    -0.268 OA
ATOM     60  N   UNL     1      -6.671  17.632   3.305  1.00  0.00    -0.339 N 
ATOM     61  H   UNL     1      -5.816  17.090   3.261  1.00  0.00     0.164 HD
BRANCH  60  62
ATOM     62  C   UNL     1      -7.050  18.258   4.571  1.00  0.00     0.168 CG0
ATOM     63  C   UNL     1      -6.359  19.604   4.744  1.00  0.00     0.041 C 
ATOM     64  G   UNL     1      -6.704  17.312   5.740  1.00  0.00     0.000 G0
ENDBRANCH  60  62
ENDBRANCH  56  58
ENDBRANCH  54  56
ENDBRANCH  52  54
ENDBRANCH  51  52
ENDBRANCH  50  51
ENDBRANCH  49  50
BRANCH  49  65
ATOM     65  C   UNL     1      -0.034  14.336   1.073  1.00  0.00     0.326 C 
ATOM     66  O   UNL     1       0.261  14.584  -0.087  1.00  0.00    -0.250 OA
BRANCH  65  67
ATOM     67  O   UNL     1       0.557  13.299   1.708  1.00  0.00    -0.480 OA
ATOM     68  H   UNL     1      -0.153  12.623   1.756  1.00  0.00     0.296 HD
ENDBRANCH  65  67
ENDBRANCH  49  65
ENDBRANCH  47  49
ENDBRANCH  43  45
ENDBRANCH   1  43
BRANCH   1  69
ATOM     69  C   UNL     1      -3.182  14.222   5.519  1.00  0.00    -0.001 C 
ATOM     70  C   UNL     1      -3.268  15.563   5.460  1.00  0.00     0.001 C 
BRANCH  70  71
ATOM     71  C   UNL     1      -2.593  16.528   6.331  1.00  0.00    -0.055 C 
ATOM     72  C   UNL     1      -2.188  17.692   5.782  1.00  0.00    -0.018 C 
ATOM     73  C   UNL     1      -2.406  16.156   7.778  1.00  0.00     0.044 C 
BRANCH  72  74
ATOM     74  C   UNL     1      -1.474  18.867   6.435  1.00  0.00     0.038 C 
ATOM     75  C   UNL     1      -2.372  20.098   6.256  1.00  0.00     0.015 C 
BRANCH  74  76
ATOM     76  C   UNL     1      -0.054  18.999   5.811  1.00  0.00     0.128 C 
BRANCH  76  77
ATOM     77  O   UNL     1       0.895  19.372   6.826  1.00  0.00    -0.381 OA
ATOM     78  C   UNL     1       2.244  19.099   6.473  1.00  0.00     0.195 C 
ENDBRANCH  76  77
BRANCH  76  79
ATOM     79  C   UNL     1       0.395  17.758   4.999  1.00  0.00     0.068 C 
BRANCH  79  80
ATOM     80  C   UNL     1       0.555  17.911   3.505  1.00  0.00    -0.045 A 
ATOM     81  C   UNL     1      -0.389  18.616   2.747  1.00  0.00     0.004 A 
ATOM     82  C   UNL     1       1.645  17.322   2.847  1.00  0.00     0.004 A 
ATOM     83  C   UNL     1      -0.242  18.740   1.364  1.00  0.00     0.000 A 
ATOM     84  C   UNL     1       1.791  17.447   1.464  1.00  0.00     0.000 A 
ATOM     85  C   UNL     1       0.849  18.157   0.723  1.00  0.00     0.000 A 
ENDBRANCH  79  80
ENDBRANCH  76  79
ENDBRANCH  74  76
ENDBRANCH  72  74
ENDBRANCH  70  71
ENDBRANCH   1  69
TORSDOF 17
ENDMDL
MODEL 10
REMARK VINA RESULT:    -4.271      3.904      9.021
REMARK INTER + INTRA:         -20.649
REMARK INTER:                 -13.108
REMARK INTRA:                  -7.541
REMARK UNBOUND:                -7.888
REMARK SMILES C=C1C(=O)N[C@H](C)C(=O)N[C@@H](CC(C)C)C(=O)N[C@@H](C(=O)O)[C@H](C)C(=O)N[C@@H](CCCN=C(N)N)C(=O)N[C@@H](/C=C/C(C)=C/[C@H](C)[C@H](Cc2ccccc2)OC)[C@H](C)C(=O)N[C@@H](C(=O)O)CCC(=O)N1C
REMARK SMILES IDX 39 1 38 2 37 3 36 4 28 6 27 7 25 8 26 9 23 11 24 12 19 13
REMARK SMILES IDX 18 14 16 15 17 16 11 18 10 19 8 20 9 21 12 24 13 25 14 26
REMARK SMILES IDX 15 27 20 28 21 29 22 30 29 32 30 33 31 34 32 35 33 36 34 37
REMARK SMILES IDX 35 38 57 43 58 44 59 45 60 46 61 47 62 49 66 50 67 51 68 52
REMARK SMILES IDX 69 53 70 54 71 55 2 56 1 57 3 58 4 59 5 60 6 62 7 63 63 65
REMARK SMILES IDX 64 66 65 67 40 69 41 70 42 71 44 72 43 73 45 74 46 75 47 76
REMARK SMILES IDX 55 77 56 78 48 79 49 80 50 81 54 82 51 83 53 84 52 85
REMARK H PARENT 38 5 27 10 18 17 10 22 22 31 34 39 34 40 35 41 35 42 61 48
REMARK H PARENT 5 61 65 68
REMARK Flexibility Score:  369.900
ROOT
ATOM      1  C   UNL     1      -4.400  13.803   5.502  1.00  0.00     0.117 C 
ENDROOT
BRANCH   1   2
ATOM      2  N   UNL     1      -5.636  13.472   4.793  1.00  0.00    -0.347 N 
ATOM      3  O   UNL     1      -5.615  11.207   5.170  1.00  0.00    -0.273 OA
ATOM      4  C   UNL     1      -6.194  12.208   4.761  1.00  0.00     0.243 C 
ATOM      5  H   UNL     1      -6.154  14.205   4.332  1.00  0.00     0.164 HD
BRANCH   4   6
ATOM      6  C   UNL     1      -7.550  12.145   4.013  1.00  0.00     0.171 C 
BRANCH   6   7
ATOM      7  N   UNL     1      -8.655  12.490   4.921  1.00  0.00    -0.344 N 
ATOM      8  C   UNL     1      -9.339  11.507   5.602  1.00  0.00     0.226 C 
ATOM      9  O   UNL     1      -9.084  10.315   5.473  1.00  0.00    -0.275 OA
ATOM     10  H   UNL     1      -8.940  13.459   5.002  1.00  0.00     0.164 HD
BRANCH   8  11
ATOM     11  C   UNL     1     -10.414  12.027   6.540  1.00  0.00     0.109 C 
ATOM     12  C   UNL     1     -10.173  13.505   6.848  1.00  0.00     0.021 C 
BRANCH  11  13
ATOM     13  C   UNL     1     -11.808  11.703   5.967  1.00  0.00     0.204 C 
BRANCH  13  14
ATOM     14  N   UNL     1     -12.887  12.197   6.828  1.00  0.00    -0.340 N 
ATOM     15  C   UNL     1     -13.627  11.373   7.648  1.00  0.00     0.243 C 
ATOM     16  O   UNL     1     -13.393  10.171   7.761  1.00  0.00    -0.273 OA
ATOM     17  H   UNL     1     -13.230  13.148   6.671  1.00  0.00     0.164 HD
BRANCH  15  18
ATOM     18  C   UNL     1     -14.841  12.078   8.302  1.00  0.00     0.171 C 
BRANCH  18  19
ATOM     19  N   UNL     1     -14.575  13.513   8.238  1.00  0.00    -0.343 N 
ATOM     20  C   UNL     1     -14.053  14.206   9.314  1.00  0.00     0.242 CG0
ATOM     21  O   UNL     1     -13.912  13.676  10.414  1.00  0.00    -0.273 OA
ATOM     22  H   UNL     1     -14.783  14.021   7.386  1.00  0.00     0.164 HD
ATOM     23  G   UNL     1     -13.766  15.696   9.033  1.00  0.00     0.000 G0
ENDBRANCH  18  19
BRANCH  18  24
ATOM     24  C   UNL     1     -16.138  11.713   7.569  1.00  0.00     0.038 C 
BRANCH  24  25
ATOM     25  C   UNL     1     -16.993  10.636   8.269  1.00  0.00    -0.015 C 
ATOM     26  C   UNL     1     -16.490  10.314   9.677  1.00  0.00     0.007 C 
ATOM     27  C   UNL     1     -17.007   9.360   7.422  1.00  0.00     0.007 C 
ENDBRANCH  24  25
ENDBRANCH  18  24
ENDBRANCH  15  18
ENDBRANCH  13  14
BRANCH  13  28
ATOM     28  C   UNL     1     -12.037  12.290   4.571  1.00  0.00     0.327 C 
ATOM     29  O   UNL     1     -12.680  13.294   4.305  1.00  0.00    -0.250 OA
BRANCH  28  30
ATOM     30  O   UNL     1     -11.545  11.513   3.584  1.00  0.00    -0.480 OA
ATOM     31  H   UNL     1     -12.340  11.118   3.169  1.00  0.00     0.296 HD
ENDBRANCH  28  30
ENDBRANCH  13  28
ENDBRANCH  11  13
ENDBRANCH   8  11
ENDBRANCH   6   7
BRANCH   6  32
ATOM     32  C   UNL     1      -7.509  13.098   2.814  1.00  0.00     0.037 C 
BRANCH  32  33
ATOM     33  C   UNL     1      -8.913  13.440   2.297  1.00  0.00     0.026 C 
BRANCH  33  34
ATOM     34  C   UNL     1      -9.170  14.947   2.254  1.00  0.00     0.146 C 
BRANCH  34  35
ATOM     35  N   UNL     1      -9.350  15.432   3.615  1.00  0.00    -0.254 NA
ATOM     36  C   UNL     1     -10.493  15.900   3.954  1.00  0.00     0.185 C 
ATOM     37  N   UNL     1     -10.671  16.345   5.208  1.00  0.00    -0.370 N 
ATOM     38  N   UNL     1     -11.609  16.024   3.214  1.00  0.00    -0.370 N 
ATOM     39  H   UNL     1      -9.877  16.276   5.832  1.00  0.00     0.159 HD
ATOM     40  H   UNL     1     -11.572  16.562   5.598  1.00  0.00     0.159 HD
ATOM     41  H   UNL     1     -12.405  16.537   3.554  1.00  0.00     0.159 HD
ATOM     42  H   UNL     1     -11.615  15.743   2.246  1.00  0.00     0.159 HD
ENDBRANCH  34  35
ENDBRANCH  33  34
ENDBRANCH  32  33
ENDBRANCH   6  32
ENDBRANCH   4   6
ENDBRANCH   1   2
BRANCH   1  43
ATOM     43  C   UNL     1      -4.771  14.405   6.888  1.00  0.00     0.102 C 
ATOM     44  C   UNL     1      -4.892  13.351   8.001  1.00  0.00     0.020 C 
BRANCH  43  45
ATOM     45  C   UNL     1      -5.984  15.334   6.777  1.00  0.00     0.225 C 
ATOM     46  O   UNL     1      -7.134  14.923   6.651  1.00  0.00    -0.275 OA
ATOM     47  N   UNL     1      -5.698  16.680   6.734  1.00  0.00    -0.342 N 
ATOM     48  H   UNL     1      -4.776  17.003   6.990  1.00  0.00     0.164 HD
BRANCH  47  49
ATOM     49  C   UNL     1      -6.761  17.687   6.665  1.00  0.00     0.192 C 
BRANCH  49  50
ATOM     50  C   UNL     1      -7.963  17.224   7.492  1.00  0.00     0.047 C 
BRANCH  50  51
ATOM     51  C   UNL     1      -7.968  17.831   8.902  1.00  0.00     0.103 C 
BRANCH  51  52
ATOM     52  C   UNL     1      -8.030  16.760   9.988  1.00  0.00     0.226 C 
ATOM     53  O   UNL     1      -6.999  16.428  10.576  1.00  0.00    -0.275 OA
BRANCH  52  54
ATOM     54  N   UNL     1      -9.307  16.262  10.307  1.00  0.00    -0.311 N 
ATOM     55  C   UNL     1      -9.494  14.863  10.712  1.00  0.00     0.153 C 
BRANCH  54  56
ATOM     56  C   UNL     1     -10.446  17.082  10.255  1.00  0.00     0.102 C 
ATOM     57  C   UNL     1     -10.641  18.175  11.011  1.00  0.00     0.043 C 
BRANCH  56  58
ATOM     58  C   UNL     1     -11.558  16.804   9.271  1.00  0.00     0.268 C 
ATOM     59  O   UNL     1     -11.497  17.109   8.087  1.00  0.00    -0.268 OA
ATOM     60  N   UNL     1     -12.611  16.116   9.825  1.00  0.00    -0.339 N 
ATOM     61  H   UNL     1     -12.590  15.910  10.817  1.00  0.00     0.164 HD
BRANCH  60  62
ATOM     62  C   UNL     1     -13.765  15.689   9.035  1.00  0.00     0.168 CG0
ATOM     63  C   UNL     1     -14.989  16.539   9.353  1.00  0.00     0.041 C 
ATOM     64  G   UNL     1     -14.052  14.198   9.304  1.00  0.00     0.000 G0
ENDBRANCH  60  62
ENDBRANCH  56  58
ENDBRANCH  54  56
ENDBRANCH  52  54
ENDBRANCH  51  52
ENDBRANCH  50  51
ENDBRANCH  49  50
BRANCH  49  65
ATOM     65  C   UNL     1      -7.207  17.942   5.217  1.00  0.00     0.326 C 
ATOM     66  O   UNL     1      -6.493  17.857   4.228  1.00  0.00    -0.250 OA
BRANCH  65  67
ATOM     67  O   UNL     1      -8.491  18.343   5.085  1.00  0.00    -0.480 OA
ATOM     68  H   UNL     1      -8.426  19.322   5.065  1.00  0.00     0.296 HD
ENDBRANCH  65  67
ENDBRANCH  49  65
ENDBRANCH  47  49
ENDBRANCH  43  45
ENDBRANCH   1  43
BRANCH   1  69
ATOM     69  C   UNL     1      -3.569  14.633   4.541  1.00  0.00    -0.001 C 
ATOM     70  C   UNL     1      -2.736  15.645   4.844  1.00  0.00     0.001 C 
BRANCH  70  71
ATOM     71  C   UNL     1      -1.922  16.424   3.909  1.00  0.00    -0.055 C 
ATOM     72  C   UNL     1      -2.263  16.392   2.603  1.00  0.00    -0.018 C 
ATOM     73  C   UNL     1      -0.769  17.214   4.471  1.00  0.00     0.044 C 
BRANCH  72  74
ATOM     74  C   UNL     1      -1.612  17.095   1.421  1.00  0.00     0.038 C 
ATOM     75  C   UNL     1      -2.736  17.747   0.606  1.00  0.00     0.015 C 
BRANCH  74  76
ATOM     76  C   UNL     1      -0.751  16.062   0.636  1.00  0.00     0.128 C 
BRANCH  76  77
ATOM     77  O   UNL     1       0.112  16.745  -0.291  1.00  0.00    -0.381 OA
ATOM     78  C   UNL     1       0.475  15.959  -1.418  1.00  0.00     0.195 C 
ENDBRANCH  76  77
BRANCH  76  79
ATOM     79  C   UNL     1       0.013  15.062   1.540  1.00  0.00     0.068 C 
BRANCH  79  80
ATOM     80  C   UNL     1      -0.266  13.590   1.359  1.00  0.00    -0.045 A 
ATOM     81  C   UNL     1      -1.255  12.944   2.114  1.00  0.00     0.004 A 
ATOM     82  C   UNL     1       0.485  12.835   0.445  1.00  0.00     0.004 A 
ATOM     83  C   UNL     1      -1.497  11.579   1.950  1.00  0.00     0.000 A 
ATOM     84  C   UNL     1       0.242  11.469   0.283  1.00  0.00     0.000 A 
ATOM     85  C   UNL     1      -0.750  10.842   1.034  1.00  0.00     0.000 A 
ENDBRANCH  79  80
ENDBRANCH  76  79
ENDBRANCH  74  76
ENDBRANCH  72  74
ENDBRANCH  70  71
ENDBRANCH   1  69
TORSDOF 17
ENDMDL
