MODEL 1
REMARK VINA RESULT:    -6.565      0.000      0.000
REMARK INTER + INTRA:         -25.014
REMARK INTER:                 -18.847
REMARK INTRA:                  -6.167
REMARK UNBOUND:                -6.167
REMARK SMILES CCCCCC(=O)N[C@H](CC(=O)O)C(=O)N[C@H]1C(=O)N[C@H](CCCN=C(N)N)C(=O)N[C@@H]2CC[C@H](O)N(C2=O)[C@@H](CC(C)C)C(=O)N(C)[C@@H](Cc2ccccc2)C(=O)N[C@H](C(C)C)C(=O)O[C@@H]1C
REMARK SMILES IDX 30 1 31 2 29 3 32 5 35 6 37 7 34 8 38 9 33 10 39 11 36 12
REMARK SMILES IDX 40 14 41 15 42 16 43 17 44 18 45 19 46 20 47 21 48 22 49 23
REMARK SMILES IDX 50 24 51 25 52 26 56 27 53 28 55 29 54 30 57 31 58 32 59 33
REMARK SMILES IDX 60 35 61 36 62 37 63 38 64 39 65 40 66 41 67 42 68 43 21 45
REMARK SMILES IDX 20 46 18 47 19 48 17 50 16 52 14 53 15 54 9 56 8 57 6 58
REMARK SMILES IDX 7 59 5 61 4 62 3 63 2 64 1 65 10 66 11 67 12 68 13 69 22 71
REMARK SMILES IDX 23 72 24 73 25 74 26 75 27 76 28 77
REMARK H PARENT 31 4 36 13 59 34 20 49 16 55 8 60 13 70 27 78 27 79 28 80
REMARK H PARENT 28 81
REMARK Flexibility Score:  259.900
ROOT
ATOM      1  O   UNL     1      -9.116  -4.072  -1.208  1.00  0.00    -0.273 OA
ATOM      2  N   UNL     1      -7.505  -2.686  -0.362  1.00  0.00    -0.343 N 
ATOM      3  C   UNL     1      -8.224  -3.861  -0.385  1.00  0.00     0.243 C 
ATOM      4  H   UNL     1      -6.769  -2.554   0.320  1.00  0.00     0.164 HD
ENDROOT
BRANCH   2   5
ATOM      5  C   UNL     1      -7.858  -1.582  -1.249  1.00  0.00     0.171 C 
ATOM      6  C   UNL     1      -7.162   1.232  -1.254  1.00  0.00     0.214 C 
ATOM      7  N   UNL     1      -8.352   0.796  -0.562  1.00  0.00    -0.303 N 
ATOM      8  C   UNL     1      -6.809   0.362  -2.450  1.00  0.00     0.057 C 
ATOM      9  C   UNL     1      -8.715  -0.539  -0.477  1.00  0.00     0.247 C 
ATOM     10  C   UNL     1      -6.631  -1.073  -2.005  1.00  0.00     0.040 C 
ATOM     11  O   UNL     1      -9.688  -0.913   0.191  1.00  0.00    -0.272 OA
BRANCH   6  12
ATOM     12  O   UNL     1      -6.103   1.245  -0.325  1.00  0.00    -0.373 OA
ATOM     13  H   UNL     1      -6.270   1.991   0.290  1.00  0.00     0.213 HD
ENDBRANCH   6  12
BRANCH   7  14
ATOM     14  C   UNL     1      -9.105   1.823   0.190  1.00  0.00     0.177 C 
BRANCH  14  15
ATOM     15  C   UNL     1      -8.571   2.123   1.604  1.00  0.00     0.038 C 
BRANCH  15  16
ATOM     16  C   UNL     1      -9.444   1.787   2.834  1.00  0.00    -0.015 C 
ATOM     17  C   UNL     1      -9.051   0.457   3.484  1.00  0.00     0.007 C 
ATOM     18  C   UNL     1     -10.918   1.700   2.416  1.00  0.00     0.007 C 
ENDBRANCH  15  16
ENDBRANCH  14  15
BRANCH  14  19
ATOM     19  C   UNL     1      -9.711   2.881  -0.795  1.00  0.00     0.245 C 
ATOM     20  O   UNL     1      -8.906   3.618  -1.389  1.00  0.00    -0.272 OA
BRANCH  19  21
ATOM     21  N   UNL     1     -11.068   3.106  -0.945  1.00  0.00    -0.332 N 
ATOM     22  C   UNL     1     -11.995   2.232  -1.643  1.00  0.00     0.147 C 
BRANCH  21  23
ATOM     23  C   UNL     1     -11.637   4.350  -0.357  1.00  0.00     0.178 C 
BRANCH  23  24
ATOM     24  C   UNL     1     -10.774   4.995   0.747  1.00  0.00     0.070 C 
BRANCH  24  25
ATOM     25  C   UNL     1     -11.480   5.419   2.014  1.00  0.00    -0.045 A 
ATOM     26  C   UNL     1     -10.815   5.404   3.246  1.00  0.00     0.004 A 
ATOM     27  C   UNL     1     -12.821   5.830   1.972  1.00  0.00     0.004 A 
ATOM     28  C   UNL     1     -11.480   5.781   4.415  1.00  0.00     0.000 A 
ATOM     29  C   UNL     1     -13.484   6.207   3.141  1.00  0.00     0.000 A 
ATOM     30  C   UNL     1     -12.814   6.180   4.362  1.00  0.00     0.000 A 
ENDBRANCH  24  25
ENDBRANCH  23  24
BRANCH  23  31
ATOM     31  C   UNL     1     -12.170   5.334  -1.425  1.00  0.00     0.243 C 
ATOM     32  O   UNL     1     -13.339   5.372  -1.801  1.00  0.00    -0.273 OA
ATOM     33  N   UNL     1     -11.173   6.052  -2.063  1.00  0.00    -0.341 N 
ATOM     34  H   UNL     1     -10.217   5.975  -1.708  1.00  0.00     0.164 HD
BRANCH  33  35
ATOM     35  C   UNL     1     -11.434   6.954  -3.188  1.00  0.00     0.194 C 
BRANCH  35  36
ATOM     36  C   UNL     1     -10.296   6.994  -4.247  1.00  0.00     0.017 C 
ATOM     37  C   UNL     1     -10.793   6.513  -5.621  1.00  0.00     0.010 C 
ATOM     38  C   UNL     1      -9.088   6.128  -3.868  1.00  0.00     0.010 C 
ENDBRANCH  35  36
BRANCH  35  39
ATOM     39  C   UNL     1     -11.847   8.380  -2.728  1.00  0.00     0.329 C 
ATOM     40  O   UNL     1     -11.429   8.922  -1.711  1.00  0.00    -0.250 OA
BRANCH  39  41
ATOM     41  O   UNL     1     -12.667   9.000  -3.630  1.00  0.00    -0.458 OA
BRANCH  41  42
ATOM     42  C   UNL     1     -13.880   9.584  -3.099  1.00  0.00     0.205 CG0
ATOM     43  C   UNL     1     -14.867   8.443  -2.861  1.00  0.00     0.056 C 
ATOM     44  G   UNL     1     -14.410  10.621  -4.109  1.00  0.00     0.000 G0
ENDBRANCH  41  42
ENDBRANCH  39  41
ENDBRANCH  35  39
ENDBRANCH  33  35
ENDBRANCH  23  31
ENDBRANCH  21  23
ENDBRANCH  19  21
ENDBRANCH  14  19
ENDBRANCH   7  14
ENDBRANCH   2   5
BRANCH   3  45
ATOM     45  C   UNL     1      -7.822  -4.898   0.672  1.00  0.00     0.171 C 
BRANCH  45  46
ATOM     46  N   UNL     1      -7.018  -5.888  -0.033  1.00  0.00    -0.342 N 
ATOM     47  C   UNL     1      -5.751  -6.229   0.369  1.00  0.00     0.247 C 
ATOM     48  O   UNL     1      -5.231  -5.780   1.391  1.00  0.00    -0.273 OA
ATOM     49  H   UNL     1      -7.433  -6.326  -0.853  1.00  0.00     0.164 HD
BRANCH  47  50
ATOM     50  C   UNL     1      -5.010  -7.194  -0.566  1.00  0.00     0.212 CG0
ATOM     51  G   UNL     1      -5.499  -8.621  -0.248  1.00  0.00     0.000 G0
BRANCH  50  52
ATOM     52  N   UNL     1      -5.344  -6.759  -1.920  1.00  0.00    -0.339 N 
ATOM     53  C   UNL     1      -4.723  -5.708  -2.550  1.00  0.00     0.243 C 
ATOM     54  O   UNL     1      -3.870  -5.016  -2.000  1.00  0.00    -0.273 OA
ATOM     55  H   UNL     1      -6.120  -7.222  -2.388  1.00  0.00     0.164 HD
BRANCH  53  56
ATOM     56  C   UNL     1      -5.302  -5.379  -3.941  1.00  0.00     0.182 C 
BRANCH  56  57
ATOM     57  N   UNL     1      -4.246  -4.952  -4.864  1.00  0.00    -0.344 N 
ATOM     58  C   UNL     1      -4.135  -5.455  -6.137  1.00  0.00     0.220 C 
ATOM     59  O   UNL     1      -4.861  -6.344  -6.566  1.00  0.00    -0.275 OA
ATOM     60  H   UNL     1      -3.689  -4.148  -4.586  1.00  0.00     0.164 HD
BRANCH  58  61
ATOM     61  C   UNL     1      -3.006  -4.827  -6.934  1.00  0.00     0.100 C 
BRANCH  61  62
ATOM     62  C   UNL     1      -1.618  -5.337  -6.544  1.00  0.00     0.010 C 
BRANCH  62  63
ATOM     63  C   UNL     1      -0.923  -6.162  -7.634  1.00  0.00     0.000 C 
BRANCH  63  64
ATOM     64  C   UNL     1      -1.171  -7.666  -7.537  1.00  0.00    -0.003 C 
ATOM     65  C   UNL     1      -1.584  -8.071  -6.129  1.00  0.00     0.004 C 
ENDBRANCH  63  64
ENDBRANCH  62  63
ENDBRANCH  61  62
ENDBRANCH  58  61
ENDBRANCH  56  57
BRANCH  56  66
ATOM     66  C   UNL     1      -6.435  -4.358  -3.848  1.00  0.00     0.157 C 
BRANCH  66  67
ATOM     67  C   UNL     1      -7.772  -5.007  -4.064  1.00  0.00     0.305 C 
ATOM     68  O   UNL     1      -8.601  -4.712  -4.911  1.00  0.00    -0.252 OA
BRANCH  67  69
ATOM     69  O   UNL     1      -7.979  -6.042  -3.227  1.00  0.00    -0.481 OA
ATOM     70  H   UNL     1      -7.300  -5.938  -2.527  1.00  0.00     0.296 HD
ENDBRANCH  67  69
ENDBRANCH  66  67
ENDBRANCH  56  66
ENDBRANCH  53  56
ENDBRANCH  50  52
ENDBRANCH  47  50
ENDBRANCH  45  46
BRANCH  45  71
ATOM     71  C   UNL     1      -9.069  -5.529   1.303  1.00  0.00     0.037 C 
BRANCH  71  72
ATOM     72  C   UNL     1      -9.212  -5.164   2.783  1.00  0.00     0.026 C 
BRANCH  72  73
ATOM     73  C   UNL     1     -10.301  -4.115   2.999  1.00  0.00     0.146 C 
BRANCH  73  74
ATOM     74  N   UNL     1     -11.207  -4.170   1.855  1.00  0.00    -0.254 NA
ATOM     75  C   UNL     1     -11.847  -3.103   1.547  1.00  0.00     0.185 C 
ATOM     76  N   UNL     1     -12.687  -3.121   0.499  1.00  0.00    -0.370 N 
ATOM     77  N   UNL     1     -11.811  -1.895   2.137  1.00  0.00    -0.370 N 
ATOM     78  H   UNL     1     -12.779  -3.996   0.002  1.00  0.00     0.159 HD
ATOM     79  H   UNL     1     -13.325  -2.375   0.288  1.00  0.00     0.159 HD
ATOM     80  H   UNL     1     -11.219  -1.732   2.937  1.00  0.00     0.159 HD
ATOM     81  H   UNL     1     -12.273  -1.097   1.734  1.00  0.00     0.159 HD
ENDBRANCH  73  74
ENDBRANCH  72  73
ENDBRANCH  71  72
ENDBRANCH  45  71
ENDBRANCH   3  45
TORSDOF 20
ENDMDL
MODEL 2
REMARK VINA RESULT:    -6.358      2.400      3.912
REMARK INTER + INTRA:         -24.419
REMARK INTER:                 -17.450
REMARK INTRA:                  -6.969
REMARK UNBOUND:                -6.167
REMARK SMILES CCCCCC(=O)N[C@H](CC(=O)O)C(=O)N[C@H]1C(=O)N[C@H](CCCN=C(N)N)C(=O)N[C@@H]2CC[C@H](O)N(C2=O)[C@@H](CC(C)C)C(=O)N(C)[C@@H](Cc2ccccc2)C(=O)N[C@H](C(C)C)C(=O)O[C@@H]1C
REMARK SMILES IDX 30 1 31 2 29 3 32 5 35 6 37 7 34 8 38 9 33 10 39 11 36 12
REMARK SMILES IDX 40 14 41 15 42 16 43 17 44 18 45 19 46 20 47 21 48 22 49 23
REMARK SMILES IDX 50 24 51 25 52 26 56 27 53 28 55 29 54 30 57 31 58 32 59 33
REMARK SMILES IDX 60 35 61 36 62 37 63 38 64 39 65 40 66 41 67 42 68 43 21 45
REMARK SMILES IDX 20 46 18 47 19 48 17 50 16 52 14 53 15 54 9 56 8 57 6 58
REMARK SMILES IDX 7 59 5 61 4 62 3 63 2 64 1 65 10 66 11 67 12 68 13 69 22 71
REMARK SMILES IDX 23 72 24 73 25 74 26 75 27 76 28 77
REMARK H PARENT 31 4 36 13 59 34 20 49 16 55 8 60 13 70 27 78 27 79 28 80
REMARK H PARENT 28 81
REMARK Flexibility Score:  259.900
ROOT
ATOM      1  O   UNL     1      -7.996  -6.134  -3.563  1.00  0.00    -0.273 OA
ATOM      2  N   UNL     1      -6.720  -4.349  -2.917  1.00  0.00    -0.343 N 
ATOM      3  C   UNL     1      -7.065  -5.683  -2.895  1.00  0.00     0.243 C 
ATOM      4  H   UNL     1      -5.939  -4.016  -2.365  1.00  0.00     0.164 HD
ENDROOT
BRANCH   2   5
ATOM      5  C   UNL     1      -7.531  -3.384  -3.652  1.00  0.00     0.171 C 
ATOM      6  C   UNL     1      -7.604  -0.486  -3.667  1.00  0.00     0.214 C 
ATOM      7  N   UNL     1      -8.459  -1.214  -2.759  1.00  0.00    -0.303 N 
ATOM      8  C   UNL     1      -7.309  -1.244  -4.952  1.00  0.00     0.057 C 
ATOM      9  C   UNL     1      -8.438  -2.596  -2.664  1.00  0.00     0.247 C 
ATOM     10  C   UNL     1      -6.674  -2.578  -4.627  1.00  0.00     0.040 C 
ATOM     11  O   UNL     1      -9.110  -3.206  -1.823  1.00  0.00    -0.272 OA
BRANCH   6  12
ATOM     12  O   UNL     1      -6.407  -0.188  -2.986  1.00  0.00    -0.373 OA
ATOM     13  H   UNL     1      -5.718  -0.037  -3.668  1.00  0.00     0.213 HD
ENDBRANCH   6  12
BRANCH   7  14
ATOM     14  C   UNL     1      -9.268  -0.414  -1.814  1.00  0.00     0.177 C 
BRANCH  14  15
ATOM     15  C   UNL     1      -8.736  -0.371  -0.368  1.00  0.00     0.038 C 
BRANCH  15  16
ATOM     16  C   UNL     1      -9.671  -0.759   0.798  1.00  0.00    -0.015 C 
ATOM     17  C   UNL     1      -9.120  -1.922   1.628  1.00  0.00     0.007 C 
ATOM     18  C   UNL     1     -11.043  -1.170   0.248  1.00  0.00     0.007 C 
ENDBRANCH  15  16
ENDBRANCH  14  15
BRANCH  14  19
ATOM     19  C   UNL     1      -9.957   0.779  -2.563  1.00  0.00     0.245 C 
ATOM     20  O   UNL     1     -10.713   0.486  -3.504  1.00  0.00    -0.272 OA
BRANCH  19  21
ATOM     21  N   UNL     1      -9.683   2.111  -2.307  1.00  0.00    -0.332 N 
ATOM     22  C   UNL     1      -8.583   2.869  -2.875  1.00  0.00     0.147 C 
BRANCH  21  23
ATOM     23  C   UNL     1     -10.578   2.836  -1.364  1.00  0.00     0.178 C 
BRANCH  23  24
ATOM     24  C   UNL     1      -9.869   3.435  -0.132  1.00  0.00     0.070 C 
BRANCH  24  25
ATOM     25  C   UNL     1     -10.123   2.768   1.200  1.00  0.00    -0.045 A 
ATOM     26  C   UNL     1     -11.422   2.421   1.593  1.00  0.00     0.004 A 
ATOM     27  C   UNL     1      -9.056   2.490   2.068  1.00  0.00     0.004 A 
ATOM     28  C   UNL     1     -11.651   1.821   2.833  1.00  0.00     0.000 A 
ATOM     29  C   UNL     1      -9.286   1.889   3.306  1.00  0.00     0.000 A 
ATOM     30  C   UNL     1     -10.584   1.558   3.689  1.00  0.00     0.000 A 
ENDBRANCH  24  25
ENDBRANCH  23  24
BRANCH  23  31
ATOM     31  C   UNL     1     -11.560   3.794  -2.079  1.00  0.00     0.243 C 
ATOM     32  O   UNL     1     -12.390   3.433  -2.910  1.00  0.00    -0.273 OA
ATOM     33  N   UNL     1     -11.300   5.133  -1.840  1.00  0.00    -0.341 N 
ATOM     34  H   UNL     1     -10.592   5.372  -1.141  1.00  0.00     0.164 HD
BRANCH  33  35
ATOM     35  C   UNL     1     -12.025   6.219  -2.505  1.00  0.00     0.194 C 
BRANCH  35  36
ATOM     36  C   UNL     1     -11.539   6.515  -3.951  1.00  0.00     0.017 C 
ATOM     37  C   UNL     1     -10.006   6.630  -4.014  1.00  0.00     0.010 C 
ATOM     38  C   UNL     1     -12.121   7.811  -4.531  1.00  0.00     0.010 C 
ENDBRANCH  35  36
BRANCH  35  39
ATOM     39  C   UNL     1     -12.093   7.509  -1.640  1.00  0.00     0.329 C 
ATOM     40  O   UNL     1     -11.110   8.129  -1.253  1.00  0.00    -0.250 OA
BRANCH  39  41
ATOM     41  O   UNL     1     -13.378   7.927  -1.430  1.00  0.00    -0.458 OA
BRANCH  41  42
ATOM     42  C   UNL     1     -13.553   9.023  -0.501  1.00  0.00     0.205 CG0
ATOM     43  C   UNL     1     -14.359   8.491   0.683  1.00  0.00     0.056 C 
ATOM     44  G   UNL     1     -14.268  10.178  -1.230  1.00  0.00     0.000 G0
ENDBRANCH  41  42
ENDBRANCH  39  41
ENDBRANCH  35  39
ENDBRANCH  33  35
ENDBRANCH  23  31
ENDBRANCH  21  23
ENDBRANCH  19  21
ENDBRANCH  14  19
ENDBRANCH   7  14
ENDBRANCH   2   5
BRANCH   3  45
ATOM     45  C   UNL     1      -6.195  -6.572  -1.996  1.00  0.00     0.171 C 
BRANCH  45  46
ATOM     46  N   UNL     1      -4.994  -6.859  -2.770  1.00  0.00    -0.342 N 
ATOM     47  C   UNL     1      -3.907  -6.021  -2.779  1.00  0.00     0.247 C 
ATOM     48  O   UNL     1      -3.837  -5.009  -2.082  1.00  0.00    -0.273 OA
ATOM     49  H   UNL     1      -4.987  -7.717  -3.318  1.00  0.00     0.164 HD
BRANCH  47  50
ATOM     50  C   UNL     1      -2.786  -6.422  -3.748  1.00  0.00     0.212 CG0
ATOM     51  G   UNL     1      -2.459  -7.908  -3.495  1.00  0.00     0.000 G0
BRANCH  50  52
ATOM     52  N   UNL     1      -3.316  -6.168  -5.085  1.00  0.00    -0.339 N 
ATOM     53  C   UNL     1      -3.635  -7.165  -5.974  1.00  0.00     0.243 C 
ATOM     54  O   UNL     1      -3.448  -8.354  -5.730  1.00  0.00    -0.273 OA
ATOM     55  H   UNL     1      -3.390  -5.199  -5.388  1.00  0.00     0.164 HD
BRANCH  53  56
ATOM     56  C   UNL     1      -4.096  -6.653  -7.353  1.00  0.00     0.182 C 
BRANCH  56  57
ATOM     57  N   UNL     1      -4.489  -5.242  -7.287  1.00  0.00    -0.344 N 
ATOM     58  C   UNL     1      -3.856  -4.266  -8.018  1.00  0.00     0.220 C 
ATOM     59  O   UNL     1      -2.876  -4.493  -8.720  1.00  0.00    -0.275 OA
ATOM     60  H   UNL     1      -5.355  -5.027  -6.799  1.00  0.00     0.164 HD
BRANCH  58  61
ATOM     61  C   UNL     1      -4.467  -2.888  -7.838  1.00  0.00     0.100 C 
BRANCH  61  62
ATOM     62  C   UNL     1      -5.928  -2.800  -8.277  1.00  0.00     0.010 C 
BRANCH  62  63
ATOM     63  C   UNL     1      -6.123  -2.706  -9.795  1.00  0.00     0.000 C 
BRANCH  63  64
ATOM     64  C   UNL     1      -5.045  -1.899 -10.517  1.00  0.00    -0.003 C 
ATOM     65  C   UNL     1      -5.655  -0.915 -11.504  1.00  0.00     0.004 C 
ENDBRANCH  63  64
ENDBRANCH  62  63
ENDBRANCH  61  62
ENDBRANCH  58  61
ENDBRANCH  56  57
BRANCH  56  66
ATOM     66  C   UNL     1      -5.200  -7.532  -7.938  1.00  0.00     0.157 C 
BRANCH  66  67
ATOM     67  C   UNL     1      -6.391  -6.712  -8.343  1.00  0.00     0.305 C 
ATOM     68  O   UNL     1      -6.643  -6.288  -9.460  1.00  0.00    -0.252 OA
BRANCH  67  69
ATOM     69  O   UNL     1      -7.242  -6.506  -7.320  1.00  0.00    -0.481 OA
ATOM     70  H   UNL     1      -8.133  -6.513  -7.730  1.00  0.00     0.296 HD
ENDBRANCH  67  69
ENDBRANCH  66  67
ENDBRANCH  56  66
ENDBRANCH  53  56
ENDBRANCH  50  52
ENDBRANCH  47  50
ENDBRANCH  45  46
BRANCH  45  71
ATOM     71  C   UNL     1      -6.947  -7.854  -1.624  1.00  0.00     0.037 C 
BRANCH  71  72
ATOM     72  C   UNL     1      -6.712  -8.258  -0.167  1.00  0.00     0.026 C 
BRANCH  72  73
ATOM     73  C   UNL     1      -6.444  -7.041   0.716  1.00  0.00     0.146 C 
BRANCH  73  74
ATOM     74  N   UNL     1      -7.569  -6.898   1.635  1.00  0.00    -0.254 NA
ATOM     75  C   UNL     1      -8.450  -6.005   1.369  1.00  0.00     0.185 C 
ATOM     76  N   UNL     1      -9.497  -5.851   2.195  1.00  0.00    -0.370 N 
ATOM     77  N   UNL     1      -8.498  -5.147   0.335  1.00  0.00    -0.370 N 
ATOM     78  H   UNL     1      -9.534  -6.454   3.004  1.00  0.00     0.159 HD
ATOM     79  H   UNL     1     -10.143  -5.084   2.133  1.00  0.00     0.159 HD
ATOM     80  H   UNL     1      -7.776  -5.151  -0.370  1.00  0.00     0.159 HD
ATOM     81  H   UNL     1      -9.303  -4.566   0.168  1.00  0.00     0.159 HD
ENDBRANCH  73  74
ENDBRANCH  72  73
ENDBRANCH  71  72
ENDBRANCH  45  71
ENDBRANCH   3  45
TORSDOF 20
ENDMDL
MODEL 3
REMARK VINA RESULT:    -6.227      2.416      3.819
REMARK INTER + INTRA:         -24.043
REMARK INTER:                 -18.260
REMARK INTRA:                  -5.783
REMARK UNBOUND:                -6.167
REMARK SMILES CCCCCC(=O)N[C@H](CC(=O)O)C(=O)N[C@H]1C(=O)N[C@H](CCCN=C(N)N)C(=O)N[C@@H]2CC[C@H](O)N(C2=O)[C@@H](CC(C)C)C(=O)N(C)[C@@H](Cc2ccccc2)C(=O)N[C@H](C(C)C)C(=O)O[C@@H]1C
REMARK SMILES IDX 30 1 31 2 29 3 32 5 35 6 37 7 34 8 38 9 33 10 39 11 36 12
REMARK SMILES IDX 40 14 41 15 42 16 43 17 44 18 45 19 46 20 47 21 48 22 49 23
REMARK SMILES IDX 50 24 51 25 52 26 56 27 53 28 55 29 54 30 57 31 58 32 59 33
REMARK SMILES IDX 60 35 61 36 62 37 63 38 64 39 65 40 66 41 67 42 68 43 21 45
REMARK SMILES IDX 20 46 18 47 19 48 17 50 16 52 14 53 15 54 9 56 8 57 6 58
REMARK SMILES IDX 7 59 5 61 4 62 3 63 2 64 1 65 10 66 11 67 12 68 13 69 22 71
REMARK SMILES IDX 23 72 24 73 25 74 26 75 27 76 28 77
REMARK H PARENT 31 4 36 13 59 34 20 49 16 55 8 60 13 70 27 78 27 79 28 80
REMARK H PARENT 28 81
REMARK Flexibility Score:  259.900
ROOT
ATOM      1  O   UNL     1      -7.999  -5.774  -3.694  1.00  0.00    -0.273 OA
ATOM      2  N   UNL     1      -7.091  -3.964  -2.630  1.00  0.00    -0.343 N 
ATOM      3  C   UNL     1      -7.236  -5.318  -2.842  1.00  0.00     0.243 C 
ATOM      4  H   UNL     1      -6.443  -3.625  -1.931  1.00  0.00     0.164 HD
ENDROOT
BRANCH   2   5
ATOM      5  C   UNL     1      -7.938  -3.008  -3.336  1.00  0.00     0.171 C 
ATOM      6  C   UNL     1      -7.827  -0.126  -3.626  1.00  0.00     0.214 C 
ATOM      7  N   UNL     1      -8.585  -0.702  -2.540  1.00  0.00    -0.303 N 
ATOM      8  C   UNL     1      -7.772  -1.013  -4.859  1.00  0.00     0.057 C 
ATOM      9  C   UNL     1      -8.638  -2.068  -2.314  1.00  0.00     0.247 C 
ATOM     10  C   UNL     1      -7.183  -2.359  -4.496  1.00  0.00     0.040 C 
ATOM     11  O   UNL     1      -9.218  -2.548  -1.331  1.00  0.00    -0.272 OA
BRANCH   6  12
ATOM     12  O   UNL     1      -6.527   0.138  -3.151  1.00  0.00    -0.373 OA
ATOM     13  H   UNL     1      -6.553   0.045  -2.175  1.00  0.00     0.213 HD
ENDBRANCH   6  12
BRANCH   7  14
ATOM     14  C   UNL     1      -9.194   0.238  -1.574  1.00  0.00     0.177 C 
BRANCH  14  15
ATOM     15  C   UNL     1      -8.389   0.461  -0.279  1.00  0.00     0.038 C 
BRANCH  15  16
ATOM     16  C   UNL     1      -9.137   0.736   1.044  1.00  0.00    -0.015 C 
ATOM     17  C   UNL     1      -8.367   1.689   1.963  1.00  0.00     0.007 C 
ATOM     18  C   UNL     1      -9.361  -0.581   1.797  1.00  0.00     0.007 C 
ENDBRANCH  15  16
ENDBRANCH  14  15
BRANCH  14  19
ATOM     19  C   UNL     1     -10.017   1.336  -2.331  1.00  0.00     0.245 C 
ATOM     20  O   UNL     1     -10.893   0.937  -3.116  1.00  0.00    -0.272 OA
BRANCH  19  21
ATOM     21  N   UNL     1      -9.748   2.691  -2.255  1.00  0.00    -0.332 N 
ATOM     22  C   UNL     1      -8.641   3.368  -2.906  1.00  0.00     0.147 C 
BRANCH  21  23
ATOM     23  C   UNL     1     -10.655   3.536  -1.430  1.00  0.00     0.178 C 
BRANCH  23  24
ATOM     24  C   UNL     1      -9.981   4.221  -0.223  1.00  0.00     0.070 C 
BRANCH  24  25
ATOM     25  C   UNL     1     -10.758   4.255   1.072  1.00  0.00    -0.045 A 
ATOM     26  C   UNL     1     -10.530   5.261   2.019  1.00  0.00     0.004 A 
ATOM     27  C   UNL     1     -11.721   3.272   1.345  1.00  0.00     0.004 A 
ATOM     28  C   UNL     1     -11.240   5.276   3.221  1.00  0.00     0.000 A 
ATOM     29  C   UNL     1     -12.431   3.289   2.547  1.00  0.00     0.000 A 
ATOM     30  C   UNL     1     -12.188   4.290   3.485  1.00  0.00     0.000 A 
ENDBRANCH  24  25
ENDBRANCH  23  24
BRANCH  23  31
ATOM     31  C   UNL     1     -11.560   4.459  -2.280  1.00  0.00     0.243 C 
ATOM     32  O   UNL     1     -12.391   4.051  -3.089  1.00  0.00    -0.273 OA
ATOM     33  N   UNL     1     -11.224   5.799  -2.189  1.00  0.00    -0.341 N 
ATOM     34  H   UNL     1     -10.520   6.077  -1.502  1.00  0.00     0.164 HD
BRANCH  33  35
ATOM     35  C   UNL     1     -11.867   6.840  -2.997  1.00  0.00     0.194 C 
BRANCH  35  36
ATOM     36  C   UNL     1     -11.027   7.304  -4.220  1.00  0.00     0.017 C 
ATOM     37  C   UNL     1     -11.729   6.959  -5.544  1.00  0.00     0.010 C 
ATOM     38  C   UNL     1      -9.628   6.677  -4.265  1.00  0.00     0.010 C 
ENDBRANCH  35  36
BRANCH  35  39
ATOM     39  C   UNL     1     -12.359   8.041  -2.141  1.00  0.00     0.329 C 
ATOM     40  O   UNL     1     -11.623   8.745  -1.460  1.00  0.00    -0.250 OA
BRANCH  39  41
ATOM     41  O   UNL     1     -13.696   8.281  -2.302  1.00  0.00    -0.458 OA
BRANCH  41  42
ATOM     42  C   UNL     1     -14.139   9.635  -2.049  1.00  0.00     0.205 CG0
ATOM     43  C   UNL     1     -15.250   9.561  -1.004  1.00  0.00     0.056 C 
ATOM     44  G   UNL     1     -14.620  10.252  -3.378  1.00  0.00     0.000 G0
ENDBRANCH  41  42
ENDBRANCH  39  41
ENDBRANCH  35  39
ENDBRANCH  33  35
ENDBRANCH  23  31
ENDBRANCH  21  23
ENDBRANCH  19  21
ENDBRANCH  14  19
ENDBRANCH   7  14
ENDBRANCH   2   5
BRANCH   3  45
ATOM     45  C   UNL     1      -6.363  -6.218  -1.957  1.00  0.00     0.171 C 
BRANCH  45  46
ATOM     46  N   UNL     1      -5.204  -6.564  -2.769  1.00  0.00    -0.342 N 
ATOM     47  C   UNL     1      -4.049  -5.823  -2.757  1.00  0.00     0.247 C 
ATOM     48  O   UNL     1      -3.880  -4.860  -2.009  1.00  0.00    -0.273 OA
ATOM     49  H   UNL     1      -5.280  -7.389  -3.362  1.00  0.00     0.164 HD
BRANCH  47  50
ATOM     50  C   UNL     1      -2.982  -6.266  -3.769  1.00  0.00     0.212 CG0
ATOM     51  G   UNL     1      -3.179  -7.773  -4.026  1.00  0.00     0.000 G0
BRANCH  50  52
ATOM     52  N   UNL     1      -3.205  -5.444  -4.955  1.00  0.00    -0.339 N 
ATOM     53  C   UNL     1      -2.430  -5.524  -6.087  1.00  0.00     0.243 C 
ATOM     54  O   UNL     1      -1.451  -6.260  -6.168  1.00  0.00    -0.273 OA
ATOM     55  H   UNL     1      -3.934  -4.735  -4.909  1.00  0.00     0.164 HD
BRANCH  53  56
ATOM     56  C   UNL     1      -2.802  -4.497  -7.176  1.00  0.00     0.182 C 
BRANCH  56  57
ATOM     57  N   UNL     1      -3.554  -5.133  -8.263  1.00  0.00    -0.344 N 
ATOM     58  C   UNL     1      -4.878  -5.477  -8.140  1.00  0.00     0.220 C 
ATOM     59  O   UNL     1      -5.502  -5.346  -7.093  1.00  0.00    -0.275 OA
ATOM     60  H   UNL     1      -3.105  -5.166  -9.175  1.00  0.00     0.164 HD
BRANCH  58  61
ATOM     61  C   UNL     1      -5.466  -6.066  -9.409  1.00  0.00     0.100 C 
BRANCH  61  62
ATOM     62  C   UNL     1      -5.645  -5.049 -10.536  1.00  0.00     0.010 C 
BRANCH  62  63
ATOM     63  C   UNL     1      -6.404  -3.782 -10.122  1.00  0.00     0.000 C 
BRANCH  63  64
ATOM     64  C   UNL     1      -6.050  -2.543 -10.943  1.00  0.00    -0.003 C 
ATOM     65  C   UNL     1      -4.545  -2.326 -11.001  1.00  0.00     0.004 C 
ENDBRANCH  63  64
ENDBRANCH  62  63
ENDBRANCH  61  62
ENDBRANCH  58  61
ENDBRANCH  56  57
BRANCH  56  66
ATOM     66  C   UNL     1      -1.571  -3.750  -7.685  1.00  0.00     0.157 C 
BRANCH  66  67
ATOM     67  C   UNL     1      -1.749  -2.264  -7.566  1.00  0.00     0.305 C 
ATOM     68  O   UNL     1      -2.656  -1.594  -8.036  1.00  0.00    -0.252 OA
BRANCH  67  69
ATOM     69  O   UNL     1      -0.793  -1.694  -6.807  1.00  0.00    -0.481 OA
ATOM     70  H   UNL     1      -0.114  -2.391  -6.695  1.00  0.00     0.296 HD
ENDBRANCH  67  69
ENDBRANCH  66  67
ENDBRANCH  56  66
ENDBRANCH  53  56
ENDBRANCH  50  52
ENDBRANCH  47  50
ENDBRANCH  45  46
BRANCH  45  71
ATOM     71  C   UNL     1      -7.144  -7.464  -1.527  1.00  0.00     0.037 C 
BRANCH  71  72
ATOM     72  C   UNL     1      -7.219  -7.600  -0.004  1.00  0.00     0.026 C 
BRANCH  72  73
ATOM     73  C   UNL     1      -7.641  -6.288   0.655  1.00  0.00     0.146 C 
BRANCH  73  74
ATOM     74  N   UNL     1      -6.466  -5.719   1.309  1.00  0.00    -0.254 NA
ATOM     75  C   UNL     1      -6.348  -4.443   1.322  1.00  0.00     0.185 C 
ATOM     76  N   UNL     1      -5.279  -3.889   1.917  1.00  0.00    -0.370 N 
ATOM     77  N   UNL     1      -7.170  -3.512   0.807  1.00  0.00    -0.370 N 
ATOM     78  H   UNL     1      -4.604  -4.521   2.325  1.00  0.00     0.159 HD
ATOM     79  H   UNL     1      -5.046  -2.915   1.842  1.00  0.00     0.159 HD
ATOM     80  H   UNL     1      -8.019  -3.783   0.333  1.00  0.00     0.159 HD
ATOM     81  H   UNL     1      -7.032  -2.530   0.981  1.00  0.00     0.159 HD
ENDBRANCH  73  74
ENDBRANCH  72  73
ENDBRANCH  71  72
ENDBRANCH  45  71
ENDBRANCH   3  45
TORSDOF 20
ENDMDL
MODEL 4
REMARK VINA RESULT:    -6.165      2.834      4.824
REMARK INTER + INTRA:         -23.866
REMARK INTER:                 -17.477
REMARK INTRA:                  -6.389
REMARK UNBOUND:                -6.167
REMARK SMILES CCCCCC(=O)N[C@H](CC(=O)O)C(=O)N[C@H]1C(=O)N[C@H](CCCN=C(N)N)C(=O)N[C@@H]2CC[C@H](O)N(C2=O)[C@@H](CC(C)C)C(=O)N(C)[C@@H](Cc2ccccc2)C(=O)N[C@H](C(C)C)C(=O)O[C@@H]1C
REMARK SMILES IDX 30 1 31 2 29 3 32 5 35 6 37 7 34 8 38 9 33 10 39 11 36 12
REMARK SMILES IDX 40 14 41 15 42 16 43 17 44 18 45 19 46 20 47 21 48 22 49 23
REMARK SMILES IDX 50 24 51 25 52 26 56 27 53 28 55 29 54 30 57 31 58 32 59 33
REMARK SMILES IDX 60 35 61 36 62 37 63 38 64 39 65 40 66 41 67 42 68 43 21 45
REMARK SMILES IDX 20 46 18 47 19 48 17 50 16 52 14 53 15 54 9 56 8 57 6 58
REMARK SMILES IDX 7 59 5 61 4 62 3 63 2 64 1 65 10 66 11 67 12 68 13 69 22 71
REMARK SMILES IDX 23 72 24 73 25 74 26 75 27 76 28 77
REMARK H PARENT 31 4 36 13 59 34 20 49 16 55 8 60 13 70 27 78 27 79 28 80
REMARK H PARENT 28 81
REMARK Flexibility Score:  259.900
ROOT
ATOM      1  O   UNL     1      -6.804  -5.673  -4.861  1.00  0.00    -0.273 OA
ATOM      2  N   UNL     1      -6.108  -3.779  -3.785  1.00  0.00    -0.343 N 
ATOM      3  C   UNL     1      -6.062  -5.133  -4.040  1.00  0.00     0.243 C 
ATOM      4  H   UNL     1      -5.473  -3.366  -3.114  1.00  0.00     0.164 HD
ENDROOT
BRANCH   2   5
ATOM      5  C   UNL     1      -7.133  -2.942  -4.400  1.00  0.00     0.171 C 
ATOM      6  C   UNL     1      -7.975  -0.207  -3.934  1.00  0.00     0.214 C 
ATOM      7  N   UNL     1      -8.623  -1.282  -3.219  1.00  0.00    -0.303 N 
ATOM      8  C   UNL     1      -7.464  -0.620  -5.306  1.00  0.00     0.057 C 
ATOM      9  C   UNL     1      -8.236  -2.605  -3.356  1.00  0.00     0.247 C 
ATOM     10  C   UNL     1      -6.503  -1.780  -5.167  1.00  0.00     0.040 C 
ATOM     11  O   UNL     1      -8.737  -3.510  -2.676  1.00  0.00    -0.272 OA
BRANCH   6  12
ATOM     12  O   UNL     1      -6.915   0.264  -3.135  1.00  0.00    -0.373 OA
ATOM     13  H   UNL     1      -7.271   0.390  -2.230  1.00  0.00     0.213 HD
ENDBRANCH   6  12
BRANCH   7  14
ATOM     14  C   UNL     1      -9.633  -0.902  -2.209  1.00  0.00     0.177 C 
BRANCH  14  15
ATOM     15  C   UNL     1      -9.144  -0.933  -0.748  1.00  0.00     0.038 C 
BRANCH  15  16
ATOM     16  C   UNL     1     -10.111  -1.386   0.369  1.00  0.00    -0.015 C 
ATOM     17  C   UNL     1      -9.375  -1.810   1.643  1.00  0.00     0.007 C 
ATOM     18  C   UNL     1     -10.948  -2.575  -0.121  1.00  0.00     0.007 C 
ENDBRANCH  15  16
ENDBRANCH  14  15
BRANCH  14  19
ATOM     19  C   UNL     1     -10.633   0.146  -2.808  1.00  0.00     0.245 C 
ATOM     20  O   UNL     1     -11.250  -0.192  -3.832  1.00  0.00    -0.272 OA
BRANCH  19  21
ATOM     21  N   UNL     1     -10.775   1.437  -2.331  1.00  0.00    -0.332 N 
ATOM     22  C   UNL     1      -9.706   2.411  -2.206  1.00  0.00     0.147 C 
BRANCH  21  23
ATOM     23  C   UNL     1     -12.131   1.873  -1.897  1.00  0.00     0.178 C 
BRANCH  23  24
ATOM     24  C   UNL     1     -12.512   1.463  -0.460  1.00  0.00     0.070 C 
BRANCH  24  25
ATOM     25  C   UNL     1     -13.382   0.237  -0.302  1.00  0.00    -0.045 A 
ATOM     26  C   UNL     1     -13.930  -0.403  -1.421  1.00  0.00     0.004 A 
ATOM     27  C   UNL     1     -13.658  -0.274   0.975  1.00  0.00     0.004 A 
ATOM     28  C   UNL     1     -14.747  -1.525  -1.265  1.00  0.00     0.000 A 
ATOM     29  C   UNL     1     -14.474  -1.396   1.129  1.00  0.00     0.000 A 
ATOM     30  C   UNL     1     -15.020  -2.019   0.008  1.00  0.00     0.000 A 
ENDBRANCH  24  25
ENDBRANCH  23  24
BRANCH  23  31
ATOM     31  C   UNL     1     -12.435   3.348  -2.255  1.00  0.00     0.243 C 
ATOM     32  O   UNL     1     -12.730   3.734  -3.383  1.00  0.00    -0.273 OA
ATOM     33  N   UNL     1     -12.163   4.234  -1.226  1.00  0.00    -0.341 N 
ATOM     34  H   UNL     1     -11.916   3.852  -0.310  1.00  0.00     0.164 HD
BRANCH  33  35
ATOM     35  C   UNL     1     -12.263   5.688  -1.377  1.00  0.00     0.194 C 
BRANCH  35  36
ATOM     36  C   UNL     1     -10.891   6.417  -1.423  1.00  0.00     0.017 C 
ATOM     37  C   UNL     1     -10.248   6.314  -2.817  1.00  0.00     0.010 C 
ATOM     38  C   UNL     1      -9.880   5.866  -0.410  1.00  0.00     0.010 C 
ENDBRANCH  35  36
BRANCH  35  39
ATOM     39  C   UNL     1     -13.228   6.332  -0.343  1.00  0.00     0.329 C 
ATOM     40  O   UNL     1     -13.899   5.693   0.460  1.00  0.00    -0.250 OA
BRANCH  39  41
ATOM     41  O   UNL     1     -13.181   7.698  -0.368  1.00  0.00    -0.458 OA
BRANCH  41  42
ATOM     42  C   UNL     1     -13.999   8.386   0.608  1.00  0.00     0.205 CG0
ATOM     43  C   UNL     1     -15.233   8.911  -0.123  1.00  0.00     0.056 C 
ATOM     44  G   UNL     1     -13.164   9.516   1.241  1.00  0.00     0.000 G0
ENDBRANCH  41  42
ENDBRANCH  39  41
ENDBRANCH  35  39
ENDBRANCH  33  35
ENDBRANCH  23  31
ENDBRANCH  21  23
ENDBRANCH  19  21
ENDBRANCH  14  19
ENDBRANCH   7  14
ENDBRANCH   2   5
BRANCH   3  45
ATOM     45  C   UNL     1      -5.008  -5.916  -3.246  1.00  0.00     0.171 C 
BRANCH  45  46
ATOM     46  N   UNL     1      -4.259  -6.681  -4.234  1.00  0.00    -0.342 N 
ATOM     47  C   UNL     1      -2.917  -6.493  -4.448  1.00  0.00     0.247 C 
ATOM     48  O   UNL     1      -2.235  -5.720  -3.775  1.00  0.00    -0.273 OA
ATOM     49  H   UNL     1      -4.775  -7.373  -4.775  1.00  0.00     0.164 HD
BRANCH  47  50
ATOM     50  C   UNL     1      -2.325  -7.299  -5.613  1.00  0.00     0.212 CG0
ATOM     51  G   UNL     1      -2.726  -8.774  -5.411  1.00  0.00     0.000 G0
BRANCH  50  52
ATOM     52  N   UNL     1      -2.890  -6.708  -6.823  1.00  0.00    -0.339 N 
ATOM     53  C   UNL     1      -4.069  -7.129  -7.390  1.00  0.00     0.243 C 
ATOM     54  O   UNL     1      -4.714  -8.076  -6.950  1.00  0.00    -0.273 OA
ATOM     55  H   UNL     1      -2.345  -5.992  -7.298  1.00  0.00     0.164 HD
BRANCH  53  56
ATOM     56  C   UNL     1      -4.419  -6.414  -8.711  1.00  0.00     0.182 C 
BRANCH  56  57
ATOM     57  N   UNL     1      -4.462  -4.960  -8.527  1.00  0.00    -0.344 N 
ATOM     58  C   UNL     1      -4.332  -4.081  -9.575  1.00  0.00     0.220 C 
ATOM     59  O   UNL     1      -4.099  -4.447 -10.722  1.00  0.00    -0.275 OA
ATOM     60  H   UNL     1      -4.753  -4.619  -7.615  1.00  0.00     0.164 HD
BRANCH  58  61
ATOM     61  C   UNL     1      -4.466  -2.627  -9.162  1.00  0.00     0.100 C 
BRANCH  61  62
ATOM     62  C   UNL     1      -3.161  -1.837  -9.258  1.00  0.00     0.010 C 
BRANCH  62  63
ATOM     63  C   UNL     1      -2.100  -2.248  -8.230  1.00  0.00     0.000 C 
BRANCH  63  64
ATOM     64  C   UNL     1      -1.563  -1.093  -7.387  1.00  0.00    -0.003 C 
ATOM     65  C   UNL     1      -2.649  -0.501  -6.500  1.00  0.00     0.004 C 
ENDBRANCH  63  64
ENDBRANCH  62  63
ENDBRANCH  61  62
ENDBRANCH  58  61
ENDBRANCH  56  57
BRANCH  56  66
ATOM     66  C   UNL     1      -5.713  -6.957  -9.315  1.00  0.00     0.157 C 
BRANCH  66  67
ATOM     67  C   UNL     1      -6.895  -6.126  -8.905  1.00  0.00     0.305 C 
ATOM     68  O   UNL     1      -7.539  -5.367  -9.613  1.00  0.00    -0.252 OA
BRANCH  67  69
ATOM     69  O   UNL     1      -7.246  -6.334  -7.621  1.00  0.00    -0.481 OA
ATOM     70  H   UNL     1      -8.208  -6.147  -7.591  1.00  0.00     0.296 HD
ENDBRANCH  67  69
ENDBRANCH  66  67
ENDBRANCH  56  66
ENDBRANCH  53  56
ENDBRANCH  50  52
ENDBRANCH  47  50
ENDBRANCH  45  46
BRANCH  45  71
ATOM     71  C   UNL     1      -5.684  -6.829  -2.217  1.00  0.00     0.037 C 
BRANCH  71  72
ATOM     72  C   UNL     1      -5.456  -6.347  -0.782  1.00  0.00     0.026 C 
BRANCH  72  73
ATOM     73  C   UNL     1      -6.772  -5.982  -0.098  1.00  0.00     0.146 C 
BRANCH  73  74
ATOM     74  N   UNL     1      -7.782  -6.944  -0.529  1.00  0.00    -0.254 NA
ATOM     75  C   UNL     1      -8.987  -6.767  -0.128  1.00  0.00     0.185 C 
ATOM     76  N   UNL     1      -9.938  -7.634  -0.509  1.00  0.00    -0.370 N 
ATOM     77  N   UNL     1      -9.482  -5.795   0.657  1.00  0.00    -0.370 N 
ATOM     78  H   UNL     1      -9.649  -8.402  -1.098  1.00  0.00     0.159 HD
ATOM     79  H   UNL     1     -10.866  -7.644  -0.122  1.00  0.00     0.159 HD
ATOM     80  H   UNL     1      -8.881  -5.069   1.016  1.00  0.00     0.159 HD
ATOM     81  H   UNL     1     -10.471  -5.693   0.811  1.00  0.00     0.159 HD
ENDBRANCH  73  74
ENDBRANCH  72  73
ENDBRANCH  71  72
ENDBRANCH  45  71
ENDBRANCH   3  45
TORSDOF 20
ENDMDL
MODEL 5
REMARK VINA RESULT:    -6.021      3.467      4.998
REMARK INTER + INTRA:         -23.452
REMARK INTER:                 -17.591
REMARK INTRA:                  -5.861
REMARK UNBOUND:                -6.167
REMARK SMILES CCCCCC(=O)N[C@H](CC(=O)O)C(=O)N[C@H]1C(=O)N[C@H](CCCN=C(N)N)C(=O)N[C@@H]2CC[C@H](O)N(C2=O)[C@@H](CC(C)C)C(=O)N(C)[C@@H](Cc2ccccc2)C(=O)N[C@H](C(C)C)C(=O)O[C@@H]1C
REMARK SMILES IDX 30 1 31 2 29 3 32 5 35 6 37 7 34 8 38 9 33 10 39 11 36 12
REMARK SMILES IDX 40 14 41 15 42 16 43 17 44 18 45 19 46 20 47 21 48 22 49 23
REMARK SMILES IDX 50 24 51 25 52 26 56 27 53 28 55 29 54 30 57 31 58 32 59 33
REMARK SMILES IDX 60 35 61 36 62 37 63 38 64 39 65 40 66 41 67 42 68 43 21 45
REMARK SMILES IDX 20 46 18 47 19 48 17 50 16 52 14 53 15 54 9 56 8 57 6 58
REMARK SMILES IDX 7 59 5 61 4 62 3 63 2 64 1 65 10 66 11 67 12 68 13 69 22 71
REMARK SMILES IDX 23 72 24 73 25 74 26 75 27 76 28 77
REMARK H PARENT 31 4 36 13 59 34 20 49 16 55 8 60 13 70 27 78 27 79 28 80
REMARK H PARENT 28 81
REMARK Flexibility Score:  259.900
ROOT
ATOM      1  O   UNL     1      -8.101  -6.131  -3.503  1.00  0.00    -0.273 OA
ATOM      2  N   UNL     1      -7.176  -4.155  -2.817  1.00  0.00    -0.343 N 
ATOM      3  C   UNL     1      -7.314  -5.526  -2.774  1.00  0.00     0.243 C 
ATOM      4  H   UNL     1      -6.507  -3.693  -2.213  1.00  0.00     0.164 HD
ENDROOT
BRANCH   2   5
ATOM      5  C   UNL     1      -8.055  -3.346  -3.654  1.00  0.00     0.171 C 
ATOM      6  C   UNL     1      -8.125  -0.513  -4.265  1.00  0.00     0.214 C 
ATOM      7  N   UNL     1      -8.886  -1.017  -3.146  1.00  0.00    -0.303 N 
ATOM      8  C   UNL     1      -7.961  -1.526  -5.387  1.00  0.00     0.057 C 
ATOM      9  C   UNL     1      -8.857  -2.350  -2.769  1.00  0.00     0.247 C 
ATOM     10  C   UNL     1      -7.298  -2.778  -4.854  1.00  0.00     0.040 C 
ATOM     11  O   UNL     1      -9.443  -2.758  -1.757  1.00  0.00    -0.272 OA
BRANCH   6  12
ATOM     12  O   UNL     1      -6.866  -0.107  -3.781  1.00  0.00    -0.373 OA
ATOM     13  H   UNL     1      -6.312  -0.913  -3.707  1.00  0.00     0.213 HD
ENDBRANCH   6  12
BRANCH   7  14
ATOM     14  C   UNL     1      -9.595  -0.022  -2.315  1.00  0.00     0.177 C 
BRANCH  14  15
ATOM     15  C   UNL     1      -8.786   1.246  -1.977  1.00  0.00     0.038 C 
BRANCH  15  16
ATOM     16  C   UNL     1      -8.211   1.426  -0.555  1.00  0.00    -0.015 C 
ATOM     17  C   UNL     1      -6.681   1.370  -0.532  1.00  0.00     0.007 C 
ATOM     18  C   UNL     1      -8.746   0.321   0.365  1.00  0.00     0.007 C 
ENDBRANCH  15  16
ENDBRANCH  14  15
BRANCH  14  19
ATOM     19  C   UNL     1     -11.134  -0.065  -2.609  1.00  0.00     0.245 C 
ATOM     20  O   UNL     1     -11.797  -0.918  -1.995  1.00  0.00    -0.272 OA
BRANCH  19  21
ATOM     21  N   UNL     1     -11.756   0.704  -3.576  1.00  0.00    -0.332 N 
ATOM     22  C   UNL     1     -11.516   0.616  -5.005  1.00  0.00     0.147 C 
BRANCH  21  23
ATOM     23  C   UNL     1     -12.748   1.719  -3.126  1.00  0.00     0.178 C 
BRANCH  23  24
ATOM     24  C   UNL     1     -12.277   3.183  -3.250  1.00  0.00     0.070 C 
BRANCH  24  25
ATOM     25  C   UNL     1     -11.429   3.729  -2.125  1.00  0.00    -0.045 A 
ATOM     26  C   UNL     1     -11.620   3.296  -0.806  1.00  0.00     0.004 A 
ATOM     27  C   UNL     1     -10.438   4.687  -2.387  1.00  0.00     0.004 A 
ATOM     28  C   UNL     1     -10.843   3.819   0.230  1.00  0.00     0.000 A 
ATOM     29  C   UNL     1      -9.662   5.208  -1.350  1.00  0.00     0.000 A 
ATOM     30  C   UNL     1      -9.868   4.776  -0.042  1.00  0.00     0.000 A 
ENDBRANCH  24  25
ENDBRANCH  23  24
BRANCH  23  31
ATOM     31  C   UNL     1     -14.174   1.447  -3.662  1.00  0.00     0.243 C 
ATOM     32  O   UNL     1     -14.798   0.409  -3.458  1.00  0.00    -0.273 OA
ATOM     33  N   UNL     1     -14.623   2.407  -4.553  1.00  0.00    -0.341 N 
ATOM     34  H   UNL     1     -14.056   3.248  -4.686  1.00  0.00     0.164 HD
BRANCH  33  35
ATOM     35  C   UNL     1     -15.893   2.295  -5.275  1.00  0.00     0.194 C 
BRANCH  35  36
ATOM     36  C   UNL     1     -15.741   2.212  -6.820  1.00  0.00     0.017 C 
ATOM     37  C   UNL     1     -14.276   2.407  -7.249  1.00  0.00     0.010 C 
ATOM     38  C   UNL     1     -16.580   3.257  -7.567  1.00  0.00     0.010 C 
ENDBRANCH  35  36
BRANCH  35  39
ATOM     39  C   UNL     1     -16.920   3.382  -4.851  1.00  0.00     0.329 C 
ATOM     40  O   UNL     1     -16.665   4.579  -4.787  1.00  0.00    -0.250 OA
BRANCH  39  41
ATOM     41  O   UNL     1     -18.168   2.864  -4.639  1.00  0.00    -0.458 OA
BRANCH  41  42
ATOM     42  C   UNL     1     -19.053   3.646  -3.801  1.00  0.00     0.205 CG0
ATOM     43  C   UNL     1     -18.786   3.238  -2.354  1.00  0.00     0.056 C 
ATOM     44  G   UNL     1     -20.507   3.372  -4.233  1.00  0.00     0.000 G0
ENDBRANCH  41  42
ENDBRANCH  39  41
ENDBRANCH  35  39
ENDBRANCH  33  35
ENDBRANCH  23  31
ENDBRANCH  21  23
ENDBRANCH  19  21
ENDBRANCH  14  19
ENDBRANCH   7  14
ENDBRANCH   2   5
BRANCH   3  45
ATOM     45  C   UNL     1      -6.403  -6.247  -1.772  1.00  0.00     0.171 C 
BRANCH  45  46
ATOM     46  N   UNL     1      -5.199  -6.598  -2.515  1.00  0.00    -0.342 N 
ATOM     47  C   UNL     1      -4.111  -5.766  -2.589  1.00  0.00     0.247 C 
ATOM     48  O   UNL     1      -4.042  -4.700  -1.976  1.00  0.00    -0.273 OA
ATOM     49  H   UNL     1      -5.192  -7.498  -2.992  1.00  0.00     0.164 HD
BRANCH  47  50
ATOM     50  C   UNL     1      -2.987  -6.246  -3.517  1.00  0.00     0.212 CG0
ATOM     51  G   UNL     1      -2.465  -7.588  -2.965  1.00  0.00     0.000 G0
BRANCH  50  52
ATOM     52  N   UNL     1      -3.597  -6.365  -4.839  1.00  0.00    -0.339 N 
ATOM     53  C   UNL     1      -2.888  -6.263  -6.011  1.00  0.00     0.243 C 
ATOM     54  O   UNL     1      -1.686  -6.011  -6.038  1.00  0.00    -0.273 OA
ATOM     55  H   UNL     1      -4.609  -6.464  -4.885  1.00  0.00     0.164 HD
BRANCH  53  56
ATOM     56  C   UNL     1      -3.760  -6.335  -7.281  1.00  0.00     0.182 C 
BRANCH  56  57
ATOM     57  N   UNL     1      -4.680  -5.195  -7.352  1.00  0.00    -0.344 N 
ATOM     58  C   UNL     1      -4.558  -4.210  -8.301  1.00  0.00     0.220 C 
ATOM     59  O   UNL     1      -3.633  -4.174  -9.105  1.00  0.00    -0.275 OA
ATOM     60  H   UNL     1      -5.514  -5.240  -6.773  1.00  0.00     0.164 HD
BRANCH  58  61
ATOM     61  C   UNL     1      -5.653  -3.162  -8.224  1.00  0.00     0.100 C 
BRANCH  61  62
ATOM     62  C   UNL     1      -5.240  -1.798  -8.777  1.00  0.00     0.010 C 
BRANCH  62  63
ATOM     63  C   UNL     1      -5.294  -0.661  -7.748  1.00  0.00     0.000 C 
BRANCH  63  64
ATOM     64  C   UNL     1      -4.423  -0.891  -6.514  1.00  0.00    -0.003 C 
ATOM     65  C   UNL     1      -2.947  -0.951  -6.879  1.00  0.00     0.004 C 
ENDBRANCH  63  64
ENDBRANCH  62  63
ENDBRANCH  61  62
ENDBRANCH  58  61
ENDBRANCH  56  57
BRANCH  56  66
ATOM     66  C   UNL     1      -4.490  -7.673  -7.384  1.00  0.00     0.157 C 
BRANCH  66  67
ATOM     67  C   UNL     1      -3.525  -8.823  -7.355  1.00  0.00     0.305 C 
ATOM     68  O   UNL     1      -3.448  -9.695  -6.503  1.00  0.00    -0.252 OA
BRANCH  67  69
ATOM     69  O   UNL     1      -2.728  -8.849  -8.441  1.00  0.00    -0.481 OA
ATOM     70  H   UNL     1      -1.840  -8.605  -8.105  1.00  0.00     0.296 HD
ENDBRANCH  67  69
ENDBRANCH  66  67
ENDBRANCH  56  66
ENDBRANCH  53  56
ENDBRANCH  50  52
ENDBRANCH  47  50
ENDBRANCH  45  46
BRANCH  45  71
ATOM     71  C   UNL     1      -7.103  -7.490  -1.212  1.00  0.00     0.037 C 
BRANCH  71  72
ATOM     72  C   UNL     1      -7.671  -7.249   0.189  1.00  0.00     0.026 C 
BRANCH  72  73
ATOM     73  C   UNL     1      -8.192  -5.822   0.344  1.00  0.00     0.146 C 
BRANCH  73  74
ATOM     74  N   UNL     1      -9.635  -5.847   0.128  1.00  0.00    -0.254 NA
ATOM     75  C   UNL     1     -10.356  -5.027   0.800  1.00  0.00     0.185 C 
ATOM     76  N   UNL     1     -11.687  -5.025   0.622  1.00  0.00    -0.370 N 
ATOM     77  N   UNL     1      -9.972  -4.112   1.707  1.00  0.00    -0.370 N 
ATOM     78  H   UNL     1     -12.061  -5.690  -0.041  1.00  0.00     0.159 HD
ATOM     79  H   UNL     1     -12.324  -4.519   1.211  1.00  0.00     0.159 HD
ATOM     80  H   UNL     1      -8.997  -3.998   1.941  1.00  0.00     0.159 HD
ATOM     81  H   UNL     1     -10.620  -3.442   2.088  1.00  0.00     0.159 HD
ENDBRANCH  73  74
ENDBRANCH  72  73
ENDBRANCH  71  72
ENDBRANCH  45  71
ENDBRANCH   3  45
TORSDOF 20
ENDMDL
MODEL 6
REMARK VINA RESULT:    -5.996      2.453      3.854
REMARK INTER + INTRA:         -23.379
REMARK INTER:                 -18.234
REMARK INTRA:                  -5.145
REMARK UNBOUND:                -6.167
REMARK SMILES CCCCCC(=O)N[C@H](CC(=O)O)C(=O)N[C@H]1C(=O)N[C@H](CCCN=C(N)N)C(=O)N[C@@H]2CC[C@H](O)N(C2=O)[C@@H](CC(C)C)C(=O)N(C)[C@@H](Cc2ccccc2)C(=O)N[C@H](C(C)C)C(=O)O[C@@H]1C
REMARK SMILES IDX 30 1 31 2 29 3 32 5 35 6 37 7 34 8 38 9 33 10 39 11 36 12
REMARK SMILES IDX 40 14 41 15 42 16 43 17 44 18 45 19 46 20 47 21 48 22 49 23
REMARK SMILES IDX 50 24 51 25 52 26 56 27 53 28 55 29 54 30 57 31 58 32 59 33
REMARK SMILES IDX 60 35 61 36 62 37 63 38 64 39 65 40 66 41 67 42 68 43 21 45
REMARK SMILES IDX 20 46 18 47 19 48 17 50 16 52 14 53 15 54 9 56 8 57 6 58
REMARK SMILES IDX 7 59 5 61 4 62 3 63 2 64 1 65 10 66 11 67 12 68 13 69 22 71
REMARK SMILES IDX 23 72 24 73 25 74 26 75 27 76 28 77
REMARK H PARENT 31 4 36 13 59 34 20 49 16 55 8 60 13 70 27 78 27 79 28 80
REMARK H PARENT 28 81
REMARK Flexibility Score:  259.900
ROOT
ATOM      1  O   UNL     1      -7.894  -5.278  -3.770  1.00  0.00    -0.273 OA
ATOM      2  N   UNL     1      -7.377  -3.863  -2.049  1.00  0.00    -0.343 N 
ATOM      3  C   UNL     1      -7.448  -5.109  -2.635  1.00  0.00     0.243 C 
ATOM      4  H   UNL     1      -6.991  -3.760  -1.119  1.00  0.00     0.164 HD
ENDROOT
BRANCH   2   5
ATOM      5  C   UNL     1      -7.945  -2.696  -2.715  1.00  0.00     0.171 C 
ATOM      6  C   UNL     1      -7.661   0.154  -2.267  1.00  0.00     0.214 C 
ATOM      7  N   UNL     1      -8.724  -0.566  -1.606  1.00  0.00    -0.303 N 
ATOM      8  C   UNL     1      -7.272  -0.444  -3.610  1.00  0.00     0.057 C 
ATOM      9  C   UNL     1      -8.886  -1.936  -1.736  1.00  0.00     0.247 C 
ATOM     10  C   UNL     1      -6.861  -1.889  -3.427  1.00  0.00     0.040 C 
ATOM     11  O   UNL     1      -9.746  -2.559  -1.100  1.00  0.00    -0.272 OA
BRANCH   6  12
ATOM     12  O   UNL     1      -6.552   0.176  -1.398  1.00  0.00    -0.373 OA
ATOM     13  H   UNL     1      -5.871  -0.415  -1.786  1.00  0.00     0.213 HD
ENDBRANCH   6  12
BRANCH   7  14
ATOM     14  C   UNL     1      -9.561   0.197  -0.655  1.00  0.00     0.177 C 
BRANCH  14  15
ATOM     15  C   UNL     1      -8.981   0.331   0.766  1.00  0.00     0.038 C 
BRANCH  15  16
ATOM     16  C   UNL     1      -9.692  -0.367   1.947  1.00  0.00    -0.015 C 
ATOM     17  C   UNL     1      -9.119  -1.759   2.232  1.00  0.00     0.007 C 
ATOM     18  C   UNL     1     -11.187  -0.517   1.637  1.00  0.00     0.007 C 
ENDBRANCH  15  16
ENDBRANCH  14  15
BRANCH  14  19
ATOM     19  C   UNL     1     -10.373   1.303  -1.412  1.00  0.00     0.245 C 
ATOM     20  O   UNL     1     -11.165   0.916  -2.288  1.00  0.00    -0.272 OA
BRANCH  19  21
ATOM     21  N   UNL     1     -10.174   2.661  -1.238  1.00  0.00    -0.332 N 
ATOM     22  C   UNL     1      -9.288   3.492  -2.034  1.00  0.00     0.147 C 
BRANCH  21  23
ATOM     23  C   UNL     1     -10.915   3.338  -0.138  1.00  0.00     0.178 C 
BRANCH  23  24
ATOM     24  C   UNL     1     -10.030   4.138   0.840  1.00  0.00     0.070 C 
BRANCH  24  25
ATOM     25  C   UNL     1     -10.438   4.137   2.295  1.00  0.00    -0.045 A 
ATOM     26  C   UNL     1     -10.995   5.279   2.885  1.00  0.00     0.004 A 
ATOM     27  C   UNL     1     -10.259   2.988   3.080  1.00  0.00     0.004 A 
ATOM     28  C   UNL     1     -11.353   5.276   4.235  1.00  0.00     0.000 A 
ATOM     29  C   UNL     1     -10.619   2.986   4.428  1.00  0.00     0.000 A 
ATOM     30  C   UNL     1     -11.163   4.131   5.005  1.00  0.00     0.000 A 
ENDBRANCH  24  25
ENDBRANCH  23  24
BRANCH  23  31
ATOM     31  C   UNL     1     -12.179   4.081  -0.630  1.00  0.00     0.243 C 
ATOM     32  O   UNL     1     -13.149   3.525  -1.140  1.00  0.00    -0.273 OA
ATOM     33  N   UNL     1     -12.050   5.460  -0.617  1.00  0.00    -0.341 N 
ATOM     34  H   UNL     1     -11.217   5.865  -0.184  1.00  0.00     0.164 HD
BRANCH  33  35
ATOM     35  C   UNL     1     -13.075   6.363  -1.149  1.00  0.00     0.194 C 
BRANCH  35  36
ATOM     36  C   UNL     1     -12.518   7.478  -2.078  1.00  0.00     0.017 C 
ATOM     37  C   UNL     1     -11.278   6.995  -2.850  1.00  0.00     0.010 C 
ATOM     38  C   UNL     1     -12.120   8.752  -1.322  1.00  0.00     0.010 C 
ENDBRANCH  35  36
BRANCH  35  39
ATOM     39  C   UNL     1     -13.998   6.939  -0.039  1.00  0.00     0.329 C 
ATOM     40  O   UNL     1     -13.686   7.012   1.143  1.00  0.00    -0.250 OA
BRANCH  39  41
ATOM     41  O   UNL     1     -15.167   7.438  -0.543  1.00  0.00    -0.458 OA
BRANCH  41  42
ATOM     42  C   UNL     1     -15.590   8.724  -0.030  1.00  0.00     0.205 CG0
ATOM     43  C   UNL     1     -16.913   8.509   0.701  1.00  0.00     0.056 C 
ATOM     44  G   UNL     1     -15.721   9.706  -1.211  1.00  0.00     0.000 G0
ENDBRANCH  41  42
ENDBRANCH  39  41
ENDBRANCH  35  39
ENDBRANCH  33  35
ENDBRANCH  23  31
ENDBRANCH  21  23
ENDBRANCH  19  21
ENDBRANCH  14  19
ENDBRANCH   7  14
ENDBRANCH   2   5
BRANCH   3  45
ATOM     45  C   UNL     1      -6.912  -6.267  -1.782  1.00  0.00     0.171 C 
BRANCH  45  46
ATOM     46  N   UNL     1      -5.738  -6.764  -2.486  1.00  0.00    -0.342 N 
ATOM     47  C   UNL     1      -4.557  -6.066  -2.533  1.00  0.00     0.247 C 
ATOM     48  O   UNL     1      -4.381  -5.009  -1.926  1.00  0.00    -0.273 OA
ATOM     49  H   UNL     1      -5.823  -7.663  -2.956  1.00  0.00     0.164 HD
BRANCH  47  50
ATOM     50  C   UNL     1      -3.471  -6.685  -3.425  1.00  0.00     0.212 CG0
ATOM     51  G   UNL     1      -4.005  -8.036  -3.941  1.00  0.00     0.000 G0
BRANCH  50  52
ATOM     52  N   UNL     1      -3.239  -5.712  -4.488  1.00  0.00    -0.339 N 
ATOM     53  C   UNL     1      -4.134  -5.471  -5.502  1.00  0.00     0.243 C 
ATOM     54  O   UNL     1      -5.183  -6.099  -5.621  1.00  0.00    -0.273 OA
ATOM     55  H   UNL     1      -2.337  -5.239  -4.507  1.00  0.00     0.164 HD
BRANCH  53  56
ATOM     56  C   UNL     1      -3.633  -4.464  -6.556  1.00  0.00     0.182 C 
BRANCH  56  57
ATOM     57  N   UNL     1      -4.335  -4.644  -7.831  1.00  0.00    -0.344 N 
ATOM     58  C   UNL     1      -4.155  -5.753  -8.620  1.00  0.00     0.220 C 
ATOM     59  O   UNL     1      -3.344  -6.633  -8.353  1.00  0.00    -0.275 OA
ATOM     60  H   UNL     1      -5.086  -3.991  -8.039  1.00  0.00     0.164 HD
BRANCH  58  61
ATOM     61  C   UNL     1      -5.025  -5.755  -9.863  1.00  0.00     0.100 C 
BRANCH  61  62
ATOM     62  C   UNL     1      -6.365  -6.468  -9.676  1.00  0.00     0.010 C 
BRANCH  62  63
ATOM     63  C   UNL     1      -7.590  -5.575  -9.910  1.00  0.00     0.000 C 
BRANCH  63  64
ATOM     64  C   UNL     1      -7.616  -4.311  -9.052  1.00  0.00    -0.003 C 
ATOM     65  C   UNL     1      -7.935  -4.633  -7.599  1.00  0.00     0.004 C 
ENDBRANCH  63  64
ENDBRANCH  62  63
ENDBRANCH  61  62
ENDBRANCH  58  61
ENDBRANCH  56  57
BRANCH  56  66
ATOM     66  C   UNL     1      -2.115  -4.532  -6.719  1.00  0.00     0.157 C 
BRANCH  66  67
ATOM     67  C   UNL     1      -1.611  -3.420  -7.593  1.00  0.00     0.305 C 
ATOM     68  O   UNL     1      -1.651  -3.371  -8.813  1.00  0.00    -0.252 OA
BRANCH  67  69
ATOM     69  O   UNL     1      -1.123  -2.388  -6.878  1.00  0.00    -0.481 OA
ATOM     70  H   UNL     1      -0.673  -2.805  -6.113  1.00  0.00     0.296 HD
ENDBRANCH  67  69
ENDBRANCH  66  67
ENDBRANCH  56  66
ENDBRANCH  53  56
ENDBRANCH  50  52
ENDBRANCH  47  50
ENDBRANCH  45  46
BRANCH  45  71
ATOM     71  C   UNL     1      -7.981  -7.354  -1.627  1.00  0.00     0.037 C 
BRANCH  71  72
ATOM     72  C   UNL     1      -8.927  -7.069  -0.458  1.00  0.00     0.026 C 
BRANCH  72  73
ATOM     73  C   UNL     1      -8.193  -6.413   0.710  1.00  0.00     0.146 C 
BRANCH  73  74
ATOM     74  N   UNL     1      -7.832  -7.462   1.658  1.00  0.00    -0.254 NA
ATOM     75  C   UNL     1      -8.370  -7.429   2.821  1.00  0.00     0.185 C 
ATOM     76  N   UNL     1      -8.059  -8.381   3.715  1.00  0.00    -0.370 N 
ATOM     77  N   UNL     1      -9.249  -6.542   3.321  1.00  0.00    -0.370 N 
ATOM     78  H   UNL     1      -7.397  -9.086   3.422  1.00  0.00     0.159 HD
ATOM     79  H   UNL     1      -8.325  -8.340   4.683  1.00  0.00     0.159 HD
ATOM     80  H   UNL     1      -9.577  -5.772   2.758  1.00  0.00     0.159 HD
ATOM     81  H   UNL     1      -9.692  -6.684   4.213  1.00  0.00     0.159 HD
ENDBRANCH  73  74
ENDBRANCH  72  73
ENDBRANCH  71  72
ENDBRANCH  45  71
ENDBRANCH   3  45
TORSDOF 20
ENDMDL
MODEL 7
REMARK VINA RESULT:    -5.770      4.422     13.129
REMARK INTER + INTRA:         -22.732
REMARK INTER:                 -16.548
REMARK INTRA:                  -6.185
REMARK UNBOUND:                -6.167
REMARK SMILES CCCCCC(=O)N[C@H](CC(=O)O)C(=O)N[C@H]1C(=O)N[C@H](CCCN=C(N)N)C(=O)N[C@@H]2CC[C@H](O)N(C2=O)[C@@H](CC(C)C)C(=O)N(C)[C@@H](Cc2ccccc2)C(=O)N[C@H](C(C)C)C(=O)O[C@@H]1C
REMARK SMILES IDX 30 1 31 2 29 3 32 5 35 6 37 7 34 8 38 9 33 10 39 11 36 12
REMARK SMILES IDX 40 14 41 15 42 16 43 17 44 18 45 19 46 20 47 21 48 22 49 23
REMARK SMILES IDX 50 24 51 25 52 26 56 27 53 28 55 29 54 30 57 31 58 32 59 33
REMARK SMILES IDX 60 35 61 36 62 37 63 38 64 39 65 40 66 41 67 42 68 43 21 45
REMARK SMILES IDX 20 46 18 47 19 48 17 50 16 52 14 53 15 54 9 56 8 57 6 58
REMARK SMILES IDX 7 59 5 61 4 62 3 63 2 64 1 65 10 66 11 67 12 68 13 69 22 71
REMARK SMILES IDX 23 72 24 73 25 74 26 75 27 76 28 77
REMARK H PARENT 31 4 36 13 59 34 20 49 16 55 8 60 13 70 27 78 27 79 28 80
REMARK H PARENT 28 81
REMARK Flexibility Score:  259.900
ROOT
ATOM      1  O   UNL     1     -12.653   0.642   2.357  1.00  0.00    -0.273 OA
ATOM      2  N   UNL     1     -13.087  -1.600   2.486  1.00  0.00    -0.343 N 
ATOM      3  C   UNL     1     -13.381  -0.277   2.735  1.00  0.00     0.243 C 
ATOM      4  H   UNL     1     -13.716  -2.328   2.798  1.00  0.00     0.164 HD
ENDROOT
BRANCH   2   5
ATOM      5  C   UNL     1     -11.823  -1.974   1.860  1.00  0.00     0.171 C 
ATOM      6  C   UNL     1     -10.647  -4.537   1.190  1.00  0.00     0.214 C 
ATOM      7  N   UNL     1     -10.368  -3.942   2.476  1.00  0.00    -0.303 N 
ATOM      8  C   UNL     1     -10.904  -3.513   0.096  1.00  0.00     0.057 C 
ATOM      9  C   UNL     1     -10.938  -2.746   2.879  1.00  0.00     0.247 C 
ATOM     10  C   UNL     1     -12.058  -2.618   0.494  1.00  0.00     0.040 C 
ATOM     11  O   UNL     1     -10.763  -2.286   4.015  1.00  0.00    -0.272 OA
BRANCH   6  12
ATOM     12  O   UNL     1     -11.760  -5.387   1.341  1.00  0.00    -0.373 OA
ATOM     13  H   UNL     1     -11.455  -6.175   1.839  1.00  0.00     0.213 HD
ENDBRANCH   6  12
BRANCH   7  14
ATOM     14  C   UNL     1      -9.556  -4.738   3.421  1.00  0.00     0.177 C 
BRANCH  14  15
ATOM     15  C   UNL     1     -10.355  -5.690   4.332  1.00  0.00     0.038 C 
BRANCH  15  16
ATOM     16  C   UNL     1     -11.427  -5.113   5.283  1.00  0.00    -0.015 C 
ATOM     17  C   UNL     1     -11.325  -5.691   6.698  1.00  0.00     0.007 C 
ATOM     18  C   UNL     1     -12.827  -5.424   4.737  1.00  0.00     0.007 C 
ENDBRANCH  15  16
ENDBRANCH  14  15
BRANCH  14  19
ATOM     19  C   UNL     1      -8.147  -5.042   2.805  1.00  0.00     0.245 C 
ATOM     20  O   UNL     1      -7.370  -4.080   2.686  1.00  0.00    -0.272 OA
BRANCH  19  21
ATOM     21  N   UNL     1      -7.777  -6.274   2.296  1.00  0.00    -0.332 N 
ATOM     22  C   UNL     1      -8.479  -7.000   1.252  1.00  0.00     0.147 C 
BRANCH  21  23
ATOM     23  C   UNL     1      -6.566  -6.927   2.866  1.00  0.00     0.178 C 
BRANCH  23  24
ATOM     24  C   UNL     1      -6.817  -8.309   3.503  1.00  0.00     0.070 C 
BRANCH  24  25
ATOM     25  C   UNL     1      -7.728  -8.357   4.708  1.00  0.00    -0.045 A 
ATOM     26  C   UNL     1      -7.296  -7.882   5.953  1.00  0.00     0.004 A 
ATOM     27  C   UNL     1      -9.023  -8.884   4.596  1.00  0.00     0.004 A 
ATOM     28  C   UNL     1      -8.137  -7.945   7.065  1.00  0.00     0.000 A 
ATOM     29  C   UNL     1      -9.863  -8.946   5.708  1.00  0.00     0.000 A 
ATOM     30  C   UNL     1      -9.418  -8.478   6.943  1.00  0.00     0.000 A 
ENDBRANCH  24  25
ENDBRANCH  23  24
BRANCH  23  31
ATOM     31  C   UNL     1      -5.342  -6.857   1.922  1.00  0.00     0.243 C 
ATOM     32  O   UNL     1      -4.902  -5.815   1.444  1.00  0.00    -0.273 OA
ATOM     33  N   UNL     1      -4.892  -8.100   1.508  1.00  0.00    -0.341 N 
ATOM     34  H   UNL     1      -5.302  -8.932   1.937  1.00  0.00     0.164 HD
BRANCH  33  35
ATOM     35  C   UNL     1      -3.822  -8.273   0.521  1.00  0.00     0.194 C 
BRANCH  35  36
ATOM     36  C   UNL     1      -4.316  -8.305  -0.952  1.00  0.00     0.017 C 
ATOM     37  C   UNL     1      -5.736  -8.888  -1.053  1.00  0.00     0.010 C 
ATOM     38  C   UNL     1      -3.413  -9.134  -1.874  1.00  0.00     0.010 C 
ENDBRANCH  35  36
BRANCH  35  39
ATOM     39  C   UNL     1      -2.896  -9.478   0.849  1.00  0.00     0.329 C 
ATOM     40  O   UNL     1      -3.297 -10.620   1.038  1.00  0.00    -0.250 OA
BRANCH  39  41
ATOM     41  O   UNL     1      -1.572  -9.139   0.819  1.00  0.00    -0.458 OA
BRANCH  41  42
ATOM     42  C   UNL     1      -0.873  -9.166   2.086  1.00  0.00     0.205 CG0
ATOM     43  C   UNL     1       0.555  -8.690   1.829  1.00  0.00     0.056 C 
ATOM     44  G   UNL     1      -0.925 -10.601   2.646  1.00  0.00     0.000 G0
ENDBRANCH  41  42
ENDBRANCH  39  41
ENDBRANCH  35  39
ENDBRANCH  33  35
ENDBRANCH  23  31
ENDBRANCH  21  23
ENDBRANCH  19  21
ENDBRANCH  14  19
ENDBRANCH   7  14
ENDBRANCH   2   5
BRANCH   3  45
ATOM     45  C   UNL     1     -14.690  -0.027   3.496  1.00  0.00     0.171 C 
BRANCH  45  46
ATOM     46  N   UNL     1     -14.577   1.318   4.044  1.00  0.00    -0.342 N 
ATOM     47  C   UNL     1     -15.458   2.321   3.723  1.00  0.00     0.247 C 
ATOM     48  O   UNL     1     -16.446   2.139   3.011  1.00  0.00    -0.273 OA
ATOM     49  H   UNL     1     -13.804   1.497   4.683  1.00  0.00     0.164 HD
BRANCH  47  50
ATOM     50  C   UNL     1     -15.108   3.701   4.296  1.00  0.00     0.212 CG0
ATOM     51  G   UNL     1     -15.715   3.788   5.711  1.00  0.00     0.000 G0
BRANCH  50  52
ATOM     52  N   UNL     1     -13.649   3.768   4.290  1.00  0.00    -0.339 N 
ATOM     53  C   UNL     1     -12.936   4.632   3.495  1.00  0.00     0.243 C 
ATOM     54  O   UNL     1     -13.472   5.383   2.685  1.00  0.00    -0.273 OA
ATOM     55  H   UNL     1     -13.142   3.093   4.859  1.00  0.00     0.164 HD
BRANCH  53  56
ATOM     56  C   UNL     1     -11.406   4.460   3.596  1.00  0.00     0.182 C 
BRANCH  56  57
ATOM     57  N   UNL     1     -10.890   3.668   2.476  1.00  0.00    -0.344 N 
ATOM     58  C   UNL     1     -10.323   4.245   1.366  1.00  0.00     0.220 C 
ATOM     59  O   UNL     1     -10.274   5.459   1.201  1.00  0.00    -0.275 OA
ATOM     60  H   UNL     1     -10.819   2.663   2.616  1.00  0.00     0.164 HD
BRANCH  58  61
ATOM     61  C   UNL     1      -9.805   3.233   0.360  1.00  0.00     0.100 C 
BRANCH  61  62
ATOM     62  C   UNL     1      -9.480   1.869   0.970  1.00  0.00     0.010 C 
BRANCH  62  63
ATOM     63  C   UNL     1      -8.346   1.118   0.259  1.00  0.00     0.000 C 
BRANCH  63  64
ATOM     64  C   UNL     1      -8.758  -0.232  -0.324  1.00  0.00    -0.003 C 
ATOM     65  C   UNL     1     -10.016  -0.111  -1.172  1.00  0.00     0.004 C 
ENDBRANCH  63  64
ENDBRANCH  62  63
ENDBRANCH  61  62
ENDBRANCH  58  61
ENDBRANCH  56  57
BRANCH  56  66
ATOM     66  C   UNL     1     -10.996   3.881   4.949  1.00  0.00     0.157 C 
BRANCH  66  67
ATOM     67  C   UNL     1     -10.452   2.489   4.803  1.00  0.00     0.305 C 
ATOM     68  O   UNL     1     -11.054   1.443   4.991  1.00  0.00    -0.252 OA
BRANCH  67  69
ATOM     69  O   UNL     1      -9.176   2.481   4.371  1.00  0.00    -0.481 OA
ATOM     70  H   UNL     1      -8.793   3.318   4.709  1.00  0.00     0.296 HD
ENDBRANCH  67  69
ENDBRANCH  66  67
ENDBRANCH  56  66
ENDBRANCH  53  56
ENDBRANCH  50  52
ENDBRANCH  47  50
ENDBRANCH  45  46
BRANCH  45  71
ATOM     71  C   UNL     1     -14.873  -1.073   4.601  1.00  0.00     0.037 C 
BRANCH  71  72
ATOM     72  C   UNL     1     -16.168  -0.858   5.389  1.00  0.00     0.026 C 
BRANCH  72  73
ATOM     73  C   UNL     1     -16.161  -1.639   6.701  1.00  0.00     0.146 C 
BRANCH  73  74
ATOM     74  N   UNL     1     -16.438  -3.038   6.391  1.00  0.00    -0.254 NA
ATOM     75  C   UNL     1     -15.666  -3.928   6.896  1.00  0.00     0.185 C 
ATOM     76  N   UNL     1     -15.896  -5.224   6.630  1.00  0.00    -0.370 N 
ATOM     77  N   UNL     1     -14.600  -3.765   7.699  1.00  0.00    -0.370 N 
ATOM     78  H   UNL     1     -16.677  -5.435   6.025  1.00  0.00     0.159 HD
ATOM     79  H   UNL     1     -15.255  -5.961   6.868  1.00  0.00     0.159 HD
ATOM     80  H   UNL     1     -14.310  -2.842   7.987  1.00  0.00     0.159 HD
ATOM     81  H   UNL     1     -14.137  -4.549   8.129  1.00  0.00     0.159 HD
ENDBRANCH  73  74
ENDBRANCH  72  73
ENDBRANCH  71  72
ENDBRANCH  45  71
ENDBRANCH   3  45
TORSDOF 20
ENDMDL
MODEL 8
REMARK VINA RESULT:    -5.705      3.847     12.710
REMARK INTER + INTRA:         -22.544
REMARK INTER:                 -14.974
REMARK INTRA:                  -7.569
REMARK UNBOUND:                -6.167
REMARK SMILES CCCCCC(=O)N[C@H](CC(=O)O)C(=O)N[C@H]1C(=O)N[C@H](CCCN=C(N)N)C(=O)N[C@@H]2CC[C@H](O)N(C2=O)[C@@H](CC(C)C)C(=O)N(C)[C@@H](Cc2ccccc2)C(=O)N[C@H](C(C)C)C(=O)O[C@@H]1C
REMARK SMILES IDX 30 1 31 2 29 3 32 5 35 6 37 7 34 8 38 9 33 10 39 11 36 12
REMARK SMILES IDX 40 14 41 15 42 16 43 17 44 18 45 19 46 20 47 21 48 22 49 23
REMARK SMILES IDX 50 24 51 25 52 26 56 27 53 28 55 29 54 30 57 31 58 32 59 33
REMARK SMILES IDX 60 35 61 36 62 37 63 38 64 39 65 40 66 41 67 42 68 43 21 45
REMARK SMILES IDX 20 46 18 47 19 48 17 50 16 52 14 53 15 54 9 56 8 57 6 58
REMARK SMILES IDX 7 59 5 61 4 62 3 63 2 64 1 65 10 66 11 67 12 68 13 69 22 71
REMARK SMILES IDX 23 72 24 73 25 74 26 75 27 76 28 77
REMARK H PARENT 31 4 36 13 59 34 20 49 16 55 8 60 13 70 27 78 27 79 28 80
REMARK H PARENT 28 81
REMARK Flexibility Score:  259.900
ROOT
ATOM      1  O   UNL     1     -11.629   0.973   2.083  1.00  0.00    -0.273 OA
ATOM      2  N   UNL     1     -12.445  -1.158   2.237  1.00  0.00    -0.343 N 
ATOM      3  C   UNL     1     -12.500   0.198   2.480  1.00  0.00     0.243 C 
ATOM      4  H   UNL     1     -13.187  -1.763   2.566  1.00  0.00     0.164 HD
ENDROOT
BRANCH   2   5
ATOM      5  C   UNL     1     -11.278  -1.751   1.594  1.00  0.00     0.171 C 
ATOM      6  C   UNL     1     -10.519  -4.494   1.046  1.00  0.00     0.214 C 
ATOM      7  N   UNL     1     -10.102  -3.875   2.283  1.00  0.00    -0.303 N 
ATOM      8  C   UNL     1     -10.670  -3.507  -0.100  1.00  0.00     0.057 C 
ATOM      9  C   UNL     1     -10.473  -2.586   2.629  1.00  0.00     0.247 C 
ATOM     10  C   UNL     1     -11.662  -2.429   0.280  1.00  0.00     0.040 C 
ATOM     11  O   UNL     1     -10.184  -2.094   3.728  1.00  0.00    -0.272 OA
BRANCH   6  12
ATOM     12  O   UNL     1     -11.737  -5.159   1.287  1.00  0.00    -0.373 OA
ATOM     13  H   UNL     1     -11.723  -5.455   2.223  1.00  0.00     0.213 HD
ENDBRANCH   6  12
BRANCH   7  14
ATOM     14  C   UNL     1      -9.376  -4.728   3.248  1.00  0.00     0.177 C 
BRANCH  14  15
ATOM     15  C   UNL     1     -10.267  -5.609   4.144  1.00  0.00     0.038 C 
BRANCH  15  16
ATOM     16  C   UNL     1     -10.427  -5.257   5.640  1.00  0.00    -0.015 C 
ATOM     17  C   UNL     1     -11.656  -4.382   5.906  1.00  0.00     0.007 C 
ATOM     18  C   UNL     1      -9.185  -4.504   6.131  1.00  0.00     0.007 C 
ENDBRANCH  15  16
ENDBRANCH  14  15
BRANCH  14  19
ATOM     19  C   UNL     1      -7.982  -5.145   2.664  1.00  0.00     0.245 C 
ATOM     20  O   UNL     1      -7.174  -4.229   2.438  1.00  0.00    -0.272 OA
BRANCH  19  21
ATOM     21  N   UNL     1      -7.658  -6.437   2.291  1.00  0.00    -0.332 N 
ATOM     22  C   UNL     1      -8.373  -7.237   1.313  1.00  0.00     0.147 C 
BRANCH  21  23
ATOM     23  C   UNL     1      -6.486  -7.078   2.950  1.00  0.00     0.178 C 
BRANCH  23  24
ATOM     24  C   UNL     1      -6.790  -8.421   3.644  1.00  0.00     0.070 C 
BRANCH  24  25
ATOM     25  C   UNL     1      -7.694  -8.382   4.854  1.00  0.00    -0.045 A 
ATOM     26  C   UNL     1      -7.214  -7.945   6.095  1.00  0.00     0.004 A 
ATOM     27  C   UNL     1      -9.033  -8.788   4.750  1.00  0.00     0.004 A 
ATOM     28  C   UNL     1      -8.052  -7.928   7.212  1.00  0.00     0.000 A 
ATOM     29  C   UNL     1      -9.869  -8.769   5.867  1.00  0.00     0.000 A 
ATOM     30  C   UNL     1      -9.377  -8.342   7.098  1.00  0.00     0.000 A 
ENDBRANCH  24  25
ENDBRANCH  23  24
BRANCH  23  31
ATOM     31  C   UNL     1      -5.219  -7.075   2.062  1.00  0.00     0.243 C 
ATOM     32  O   UNL     1      -4.640  -6.056   1.694  1.00  0.00    -0.273 OA
ATOM     33  N   UNL     1      -4.894  -8.323   1.558  1.00  0.00    -0.341 N 
ATOM     34  H   UNL     1      -5.416  -9.135   1.898  1.00  0.00     0.164 HD
BRANCH  33  35
ATOM     35  C   UNL     1      -3.805  -8.540   0.601  1.00  0.00     0.194 C 
BRANCH  35  36
ATOM     36  C   UNL     1      -4.284  -8.888  -0.837  1.00  0.00     0.017 C 
ATOM     37  C   UNL     1      -4.240  -7.654  -1.755  1.00  0.00     0.010 C 
ATOM     38  C   UNL     1      -5.713  -9.442  -0.880  1.00  0.00     0.010 C 
ENDBRANCH  35  36
BRANCH  35  39
ATOM     39  C   UNL     1      -2.745  -9.551   1.121  1.00  0.00     0.329 C 
ATOM     40  O   UNL     1      -3.018 -10.636   1.620  1.00  0.00    -0.250 OA
BRANCH  39  41
ATOM     41  O   UNL     1      -1.466  -9.133   0.878  1.00  0.00    -0.458 OA
BRANCH  41  42
ATOM     42  C   UNL     1      -0.590  -9.049   2.028  1.00  0.00     0.205 CG0
ATOM     43  C   UNL     1       0.721  -8.425   1.556  1.00  0.00     0.056 C 
ATOM     44  G   UNL     1      -0.396 -10.466   2.603  1.00  0.00     0.000 G0
ENDBRANCH  41  42
ENDBRANCH  39  41
ENDBRANCH  35  39
ENDBRANCH  33  35
ENDBRANCH  23  31
ENDBRANCH  21  23
ENDBRANCH  19  21
ENDBRANCH  14  19
ENDBRANCH   7  14
ENDBRANCH   2   5
BRANCH   3  45
ATOM     45  C   UNL     1     -13.731   0.677   3.261  1.00  0.00     0.171 C 
BRANCH  45  46
ATOM     46  N   UNL     1     -14.115   1.944   2.652  1.00  0.00    -0.342 N 
ATOM     47  C   UNL     1     -14.916   2.013   1.540  1.00  0.00     0.247 C 
ATOM     48  O   UNL     1     -15.427   1.020   1.022  1.00  0.00    -0.273 OA
ATOM     49  H   UNL     1     -13.759   2.795   3.084  1.00  0.00     0.164 HD
BRANCH  47  50
ATOM     50  C   UNL     1     -15.111   3.424   0.967  1.00  0.00     0.212 CG0
ATOM     51  G   UNL     1     -15.606   4.330   2.112  1.00  0.00     0.000 G0
BRANCH  50  52
ATOM     52  N   UNL     1     -13.805   3.816   0.444  1.00  0.00    -0.339 N 
ATOM     53  C   UNL     1     -13.336   3.427  -0.786  1.00  0.00     0.243 C 
ATOM     54  O   UNL     1     -13.961   2.670  -1.524  1.00  0.00    -0.273 OA
ATOM     55  H   UNL     1     -13.193   4.353   1.056  1.00  0.00     0.164 HD
BRANCH  53  56
ATOM     56  C   UNL     1     -11.896   3.892  -1.085  1.00  0.00     0.182 C 
BRANCH  56  57
ATOM     57  N   UNL     1     -10.914   2.999  -0.461  1.00  0.00    -0.344 N 
ATOM     58  C   UNL     1      -9.759   2.616  -1.098  1.00  0.00     0.220 C 
ATOM     59  O   UNL     1      -9.502   2.933  -2.254  1.00  0.00    -0.275 OA
ATOM     60  H   UNL     1     -11.038   2.797   0.528  1.00  0.00     0.164 HD
BRANCH  58  61
ATOM     61  C   UNL     1      -8.864   1.738  -0.243  1.00  0.00     0.100 C 
BRANCH  61  62
ATOM     62  C   UNL     1      -9.227   0.254  -0.293  1.00  0.00     0.010 C 
BRANCH  62  63
ATOM     63  C   UNL     1      -8.177  -0.626  -0.983  1.00  0.00     0.000 C 
BRANCH  63  64
ATOM     64  C   UNL     1      -7.377   0.088  -2.071  1.00  0.00    -0.003 C 
ATOM     65  C   UNL     1      -5.901  -0.274  -2.004  1.00  0.00     0.004 C 
ENDBRANCH  63  64
ENDBRANCH  62  63
ENDBRANCH  61  62
ENDBRANCH  58  61
ENDBRANCH  56  57
BRANCH  56  66
ATOM     66  C   UNL     1     -11.685   5.351  -0.684  1.00  0.00     0.157 C 
BRANCH  66  67
ATOM     67  C   UNL     1     -10.638   5.475   0.385  1.00  0.00     0.305 C 
ATOM     68  O   UNL     1      -9.494   5.881   0.248  1.00  0.00    -0.252 OA
BRANCH  67  69
ATOM     69  O   UNL     1     -11.104   5.127   1.600  1.00  0.00    -0.481 OA
ATOM     70  H   UNL     1     -10.362   4.646   2.024  1.00  0.00     0.296 HD
ENDBRANCH  67  69
ENDBRANCH  66  67
ENDBRANCH  56  66
ENDBRANCH  53  56
ENDBRANCH  50  52
ENDBRANCH  47  50
ENDBRANCH  45  46
BRANCH  45  71
ATOM     71  C   UNL     1     -13.390   0.844   4.746  1.00  0.00     0.037 C 
BRANCH  71  72
ATOM     72  C   UNL     1     -13.553   2.292   5.215  1.00  0.00     0.026 C 
BRANCH  72  73
ATOM     73  C   UNL     1     -12.320   2.776   5.976  1.00  0.00     0.146 C 
BRANCH  73  74
ATOM     74  N   UNL     1     -11.148   2.152   5.370  1.00  0.00    -0.254 NA
ATOM     75  C   UNL     1     -10.440   2.859   4.568  1.00  0.00     0.185 C 
ATOM     76  N   UNL     1      -9.355   2.314   3.997  1.00  0.00    -0.370 N 
ATOM     77  N   UNL     1     -10.619   4.135   4.184  1.00  0.00    -0.370 N 
ATOM     78  H   UNL     1      -9.151   1.352   4.227  1.00  0.00     0.159 HD
ATOM     79  H   UNL     1      -8.840   2.753   3.254  1.00  0.00     0.159 HD
ATOM     80  H   UNL     1     -11.395   4.674   4.538  1.00  0.00     0.159 HD
ATOM     81  H   UNL     1      -9.930   4.624   3.636  1.00  0.00     0.159 HD
ENDBRANCH  73  74
ENDBRANCH  72  73
ENDBRANCH  71  72
ENDBRANCH  45  71
ENDBRANCH   3  45
TORSDOF 20
ENDMDL
MODEL 9
REMARK VINA RESULT:    -5.703      4.887      8.164
REMARK INTER + INTRA:         -22.539
REMARK INTER:                 -14.297
REMARK INTRA:                  -8.241
REMARK UNBOUND:                -6.167
REMARK SMILES CCCCCC(=O)N[C@H](CC(=O)O)C(=O)N[C@H]1C(=O)N[C@H](CCCN=C(N)N)C(=O)N[C@@H]2CC[C@H](O)N(C2=O)[C@@H](CC(C)C)C(=O)N(C)[C@@H](Cc2ccccc2)C(=O)N[C@H](C(C)C)C(=O)O[C@@H]1C
REMARK SMILES IDX 30 1 31 2 29 3 32 5 35 6 37 7 34 8 38 9 33 10 39 11 36 12
REMARK SMILES IDX 40 14 41 15 42 16 43 17 44 18 45 19 46 20 47 21 48 22 49 23
REMARK SMILES IDX 50 24 51 25 52 26 56 27 53 28 55 29 54 30 57 31 58 32 59 33
REMARK SMILES IDX 60 35 61 36 62 37 63 38 64 39 65 40 66 41 67 42 68 43 21 45
REMARK SMILES IDX 20 46 18 47 19 48 17 50 16 52 14 53 15 54 9 56 8 57 6 58
REMARK SMILES IDX 7 59 5 61 4 62 3 63 2 64 1 65 10 66 11 67 12 68 13 69 22 71
REMARK SMILES IDX 23 72 24 73 25 74 26 75 27 76 28 77
REMARK H PARENT 31 4 36 13 59 34 20 49 16 55 8 60 13 70 27 78 27 79 28 80
REMARK H PARENT 28 81
REMARK Flexibility Score:  259.900
ROOT
ATOM      1  O   UNL     1      -8.320  -4.699   5.039  1.00  0.00    -0.273 OA
ATOM      2  N   UNL     1      -7.665  -4.192   2.907  1.00  0.00    -0.343 N 
ATOM      3  C   UNL     1      -7.418  -4.565   4.211  1.00  0.00     0.243 C 
ATOM      4  H   UNL     1      -6.900  -4.105   2.250  1.00  0.00     0.164 HD
ENDROOT
BRANCH   2   5
ATOM      5  C   UNL     1      -9.011  -3.823   2.483  1.00  0.00     0.171 C 
ATOM      6  C   UNL     1     -10.230  -3.508  -0.129  1.00  0.00     0.214 C 
ATOM      7  N   UNL     1      -9.616  -2.367   0.511  1.00  0.00    -0.303 N 
ATOM      8  C   UNL     1     -10.799  -4.516   0.856  1.00  0.00     0.057 C 
ATOM      9  C   UNL     1      -8.972  -2.459   1.734  1.00  0.00     0.247 C 
ATOM     10  C   UNL     1      -9.708  -4.993   1.790  1.00  0.00     0.040 C 
ATOM     11  O   UNL     1      -8.374  -1.498   2.235  1.00  0.00    -0.272 OA
BRANCH   6  12
ATOM     12  O   UNL     1      -9.259  -4.115  -0.949  1.00  0.00    -0.373 OA
ATOM     13  H   UNL     1      -8.974  -4.938  -0.497  1.00  0.00     0.213 HD
ENDBRANCH   6  12
BRANCH   7  14
ATOM     14  C   UNL     1      -9.570  -1.109  -0.264  1.00  0.00     0.177 C 
BRANCH  14  15
ATOM     15  C   UNL     1      -8.220  -0.805  -0.942  1.00  0.00     0.038 C 
BRANCH  15  16
ATOM     16  C   UNL     1      -7.646   0.628  -0.885  1.00  0.00    -0.015 C 
ATOM     17  C   UNL     1      -8.044   1.367   0.396  1.00  0.00     0.007 C 
ATOM     18  C   UNL     1      -8.154   1.438  -2.085  1.00  0.00     0.007 C 
ENDBRANCH  15  16
ENDBRANCH  14  15
BRANCH  14  19
ATOM     19  C   UNL     1     -10.981  -0.791  -0.868  1.00  0.00     0.245 C 
ATOM     20  O   UNL     1     -11.116  -0.958  -2.092  1.00  0.00    -0.272 OA
BRANCH  19  21
ATOM     21  N   UNL     1     -12.023  -0.239  -0.145  1.00  0.00    -0.332 N 
ATOM     22  C   UNL     1     -12.694  -0.867   0.979  1.00  0.00     0.147 C 
BRANCH  21  23
ATOM     23  C   UNL     1     -12.515   1.107  -0.550  1.00  0.00     0.178 C 
BRANCH  23  24
ATOM     24  C   UNL     1     -11.414   2.175  -0.713  1.00  0.00     0.070 C 
BRANCH  24  25
ATOM     25  C   UNL     1     -11.271   3.191   0.397  1.00  0.00    -0.045 A 
ATOM     26  C   UNL     1     -10.383   4.267   0.274  1.00  0.00     0.004 A 
ATOM     27  C   UNL     1     -12.027   3.066   1.572  1.00  0.00     0.004 A 
ATOM     28  C   UNL     1     -10.244   5.192   1.311  1.00  0.00     0.000 A 
ATOM     29  C   UNL     1     -11.888   3.991   2.607  1.00  0.00     0.000 A 
ATOM     30  C   UNL     1     -10.994   5.052   2.477  1.00  0.00     0.000 A 
ENDBRANCH  24  25
ENDBRANCH  23  24
BRANCH  23  31
ATOM     31  C   UNL     1     -13.545   1.051  -1.704  1.00  0.00     0.243 C 
ATOM     32  O   UNL     1     -14.612   0.446  -1.644  1.00  0.00    -0.273 OA
ATOM     33  N   UNL     1     -13.077   1.593  -2.889  1.00  0.00    -0.341 N 
ATOM     34  H   UNL     1     -12.177   2.080  -2.878  1.00  0.00     0.164 HD
BRANCH  33  35
ATOM     35  C   UNL     1     -13.833   1.544  -4.143  1.00  0.00     0.194 C 
BRANCH  35  36
ATOM     36  C   UNL     1     -12.945   1.460  -5.417  1.00  0.00     0.017 C 
ATOM     37  C   UNL     1     -13.619   0.617  -6.514  1.00  0.00     0.010 C 
ATOM     38  C   UNL     1     -11.564   0.849  -5.152  1.00  0.00     0.010 C 
ENDBRANCH  35  36
BRANCH  35  39
ATOM     39  C   UNL     1     -14.892   2.677  -4.248  1.00  0.00     0.329 C 
ATOM     40  O   UNL     1     -14.667   3.853  -3.985  1.00  0.00    -0.250 OA
BRANCH  39  41
ATOM     41  O   UNL     1     -16.083   2.230  -4.750  1.00  0.00    -0.458 OA
BRANCH  41  42
ATOM     42  C   UNL     1     -16.851   3.184  -5.523  1.00  0.00     0.205 CG0
ATOM     43  C   UNL     1     -16.387   3.069  -6.974  1.00  0.00     0.056 C 
ATOM     44  G   UNL     1     -16.619   4.591  -4.939  1.00  0.00     0.000 G0
ENDBRANCH  41  42
ENDBRANCH  39  41
ENDBRANCH  35  39
ENDBRANCH  33  35
ENDBRANCH  23  31
ENDBRANCH  21  23
ENDBRANCH  19  21
ENDBRANCH  14  19
ENDBRANCH   7  14
ENDBRANCH   2   5
BRANCH   3  45
ATOM     45  C   UNL     1      -5.945  -4.821   4.553  1.00  0.00     0.171 C 
BRANCH  45  46
ATOM     46  N   UNL     1      -5.957  -5.759   5.668  1.00  0.00    -0.342 N 
ATOM     47  C   UNL     1      -5.697  -7.097   5.508  1.00  0.00     0.247 C 
ATOM     48  O   UNL     1      -5.365  -7.588   4.429  1.00  0.00    -0.273 OA
ATOM     49  H   UNL     1      -6.172  -5.384   6.590  1.00  0.00     0.164 HD
BRANCH  47  50
ATOM     50  C   UNL     1      -5.878  -7.950   6.771  1.00  0.00     0.212 CG0
ATOM     51  G   UNL     1      -4.931  -7.392   7.852  1.00  0.00     0.000 G0
BRANCH  50  52
ATOM     52  N   UNL     1      -7.290  -7.830   7.124  1.00  0.00    -0.339 N 
ATOM     53  C   UNL     1      -7.777  -6.871   7.979  1.00  0.00     0.243 C 
ATOM     54  O   UNL     1      -7.049  -6.070   8.558  1.00  0.00    -0.273 OA
ATOM     55  H   UNL     1      -7.929  -8.536   6.763  1.00  0.00     0.164 HD
BRANCH  53  56
ATOM     56  C   UNL     1      -9.286  -6.996   8.267  1.00  0.00     0.182 C 
BRANCH  56  57
ATOM     57  N   UNL     1     -10.080  -6.442   7.166  1.00  0.00    -0.344 N 
ATOM     58  C   UNL     1     -10.515  -7.211   6.113  1.00  0.00     0.220 C 
ATOM     59  O   UNL     1     -10.210  -8.391   5.983  1.00  0.00    -0.275 OA
ATOM     60  H   UNL     1     -10.439  -5.499   7.285  1.00  0.00     0.164 HD
BRANCH  58  61
ATOM     61  C   UNL     1     -11.369  -6.443   5.121  1.00  0.00     0.100 C 
BRANCH  61  62
ATOM     62  C   UNL     1     -12.133  -5.273   5.741  1.00  0.00     0.010 C 
BRANCH  62  63
ATOM     63  C   UNL     1     -11.705  -3.896   5.217  1.00  0.00     0.000 C 
BRANCH  63  64
ATOM     64  C   UNL     1     -12.494  -3.415   4.001  1.00  0.00    -0.003 C 
ATOM     65  C   UNL     1     -13.426  -2.267   4.362  1.00  0.00     0.004 C 
ENDBRANCH  63  64
ENDBRANCH  62  63
ENDBRANCH  61  62
ENDBRANCH  58  61
ENDBRANCH  56  57
BRANCH  56  66
ATOM     66  C   UNL     1      -9.653  -6.372   9.613  1.00  0.00     0.157 C 
BRANCH  66  67
ATOM     67  C   UNL     1     -10.388  -5.076   9.429  1.00  0.00     0.305 C 
ATOM     68  O   UNL     1      -9.895  -3.973   9.246  1.00  0.00    -0.252 OA
BRANCH  67  69
ATOM     69  O   UNL     1     -11.725  -5.241   9.432  1.00  0.00    -0.481 OA
ATOM     70  H   UNL     1     -11.943  -5.531   8.522  1.00  0.00     0.296 HD
ENDBRANCH  67  69
ENDBRANCH  66  67
ENDBRANCH  56  66
ENDBRANCH  53  56
ENDBRANCH  50  52
ENDBRANCH  47  50
ENDBRANCH  45  46
BRANCH  45  71
ATOM     71  C   UNL     1      -5.247  -3.508   4.927  1.00  0.00     0.037 C 
BRANCH  71  72
ATOM     72  C   UNL     1      -4.982  -3.404   6.431  1.00  0.00     0.026 C 
BRANCH  72  73
ATOM     73  C   UNL     1      -5.849  -2.327   7.079  1.00  0.00     0.146 C 
BRANCH  73  74
ATOM     74  N   UNL     1      -6.552  -1.618   6.015  1.00  0.00    -0.254 NA
ATOM     75  C   UNL     1      -7.830  -1.547   6.085  1.00  0.00     0.185 C 
ATOM     76  N   UNL     1      -8.505  -0.900   5.121  1.00  0.00    -0.370 N 
ATOM     77  N   UNL     1      -8.654  -2.045   7.024  1.00  0.00    -0.370 N 
ATOM     78  H   UNL     1      -7.961  -0.501   4.370  1.00  0.00     0.159 HD
ATOM     79  H   UNL     1      -9.506  -0.928   5.032  1.00  0.00     0.159 HD
ATOM     80  H   UNL     1      -8.285  -2.553   7.813  1.00  0.00     0.159 HD
ATOM     81  H   UNL     1      -9.636  -1.826   7.034  1.00  0.00     0.159 HD
ENDBRANCH  73  74
ENDBRANCH  72  73
ENDBRANCH  71  72
ENDBRANCH  45  71
ENDBRANCH   3  45
TORSDOF 20
ENDMDL
MODEL 10
REMARK VINA RESULT:    -5.695      2.486      3.794
REMARK INTER + INTRA:         -22.515
REMARK INTER:                 -17.559
REMARK INTRA:                  -4.956
REMARK UNBOUND:                -6.167
REMARK SMILES CCCCCC(=O)N[C@H](CC(=O)O)C(=O)N[C@H]1C(=O)N[C@H](CCCN=C(N)N)C(=O)N[C@@H]2CC[C@H](O)N(C2=O)[C@@H](CC(C)C)C(=O)N(C)[C@@H](Cc2ccccc2)C(=O)N[C@H](C(C)C)C(=O)O[C@@H]1C
REMARK SMILES IDX 30 1 31 2 29 3 32 5 35 6 37 7 34 8 38 9 33 10 39 11 36 12
REMARK SMILES IDX 40 14 41 15 42 16 43 17 44 18 45 19 46 20 47 21 48 22 49 23
REMARK SMILES IDX 50 24 51 25 52 26 56 27 53 28 55 29 54 30 57 31 58 32 59 33
REMARK SMILES IDX 60 35 61 36 62 37 63 38 64 39 65 40 66 41 67 42 68 43 21 45
REMARK SMILES IDX 20 46 18 47 19 48 17 50 16 52 14 53 15 54 9 56 8 57 6 58
REMARK SMILES IDX 7 59 5 61 4 62 3 63 2 64 1 65 10 66 11 67 12 68 13 69 22 71
REMARK SMILES IDX 23 72 24 73 25 74 26 75 27 76 28 77
REMARK H PARENT 31 4 36 13 59 34 20 49 16 55 8 60 13 70 27 78 27 79 28 80
REMARK H PARENT 28 81
REMARK Flexibility Score:  259.900
ROOT
ATOM      1  O   UNL     1      -8.367  -4.325  -3.222  1.00  0.00    -0.273 OA
ATOM      2  N   UNL     1      -7.252  -2.665  -2.111  1.00  0.00    -0.343 N 
ATOM      3  C   UNL     1      -7.561  -3.986  -2.355  1.00  0.00     0.243 C 
ATOM      4  H   UNL     1      -6.573  -2.425  -1.400  1.00  0.00     0.164 HD
ENDROOT
BRANCH   2   5
ATOM      5  C   UNL     1      -7.967  -1.597  -2.801  1.00  0.00     0.171 C 
ATOM      6  C   UNL     1      -7.841   1.293  -2.608  1.00  0.00     0.214 C 
ATOM      7  N   UNL     1      -8.777   0.567  -1.783  1.00  0.00    -0.303 N 
ATOM      8  C   UNL     1      -7.551   0.609  -3.935  1.00  0.00     0.057 C 
ATOM      9  C   UNL     1      -8.854  -0.817  -1.788  1.00  0.00     0.247 C 
ATOM     10  C   UNL     1      -7.022  -0.787  -3.686  1.00  0.00     0.040 C 
ATOM     11  O   UNL     1      -9.598  -1.436  -1.016  1.00  0.00    -0.272 OA
BRANCH   6  12
ATOM     12  O   UNL     1      -6.653   1.458  -1.869  1.00  0.00    -0.373 OA
ATOM     13  H   UNL     1      -6.827   1.118  -0.965  1.00  0.00     0.213 HD
ENDBRANCH   6  12
BRANCH   7  14
ATOM     14  C   UNL     1      -9.564   1.353  -0.809  1.00  0.00     0.177 C 
BRANCH  14  15
ATOM     15  C   UNL     1      -8.976   1.412   0.614  1.00  0.00     0.038 C 
BRANCH  15  16
ATOM     16  C   UNL     1      -9.751   0.766   1.785  1.00  0.00    -0.015 C 
ATOM     17  C   UNL     1      -9.117  -0.548   2.251  1.00  0.00     0.007 C 
ATOM     18  C   UNL     1     -11.195   0.477   1.354  1.00  0.00     0.007 C 
ENDBRANCH  15  16
ENDBRANCH  14  15
BRANCH  14  19
ATOM     19  C   UNL     1     -10.305   2.530  -1.533  1.00  0.00     0.245 C 
ATOM     20  O   UNL     1     -10.955   2.239  -2.551  1.00  0.00    -0.272 OA
BRANCH  19  21
ATOM     21  N   UNL     1     -10.183   3.859  -1.169  1.00  0.00    -0.332 N 
ATOM     22  C   UNL     1      -9.254   4.810  -1.752  1.00  0.00     0.147 C 
BRANCH  21  23
ATOM     23  C   UNL     1     -11.064   4.366  -0.081  1.00  0.00     0.178 C 
BRANCH  23  24
ATOM     24  C   UNL     1     -10.340   5.184   1.008  1.00  0.00     0.070 C 
BRANCH  24  25
ATOM     25  C   UNL     1     -10.711   4.900   2.444  1.00  0.00    -0.045 A 
ATOM     26  C   UNL     1     -11.419   5.842   3.203  1.00  0.00     0.004 A 
ATOM     27  C   UNL     1     -10.347   3.684   3.042  1.00  0.00     0.004 A 
ATOM     28  C   UNL     1     -11.743   5.578   4.535  1.00  0.00     0.000 A 
ATOM     29  C   UNL     1     -10.673   3.421   4.373  1.00  0.00     0.000 A 
ATOM     30  C   UNL     1     -11.369   4.370   5.120  1.00  0.00     0.000 A 
ENDBRANCH  24  25
ENDBRANCH  23  24
BRANCH  23  31
ATOM     31  C   UNL     1     -12.373   5.000  -0.610  1.00  0.00     0.243 C 
ATOM     32  O   UNL     1     -13.124   4.455  -1.414  1.00  0.00    -0.273 OA
ATOM     33  N   UNL     1     -12.535   6.324  -0.239  1.00  0.00    -0.341 N 
ATOM     34  H   UNL     1     -11.872   6.726   0.429  1.00  0.00     0.164 HD
BRANCH  33  35
ATOM     35  C   UNL     1     -13.638   7.159  -0.722  1.00  0.00     0.194 C 
BRANCH  35  36
ATOM     36  C   UNL     1     -13.215   8.226  -1.771  1.00  0.00     0.017 C 
ATOM     37  C   UNL     1     -11.867   8.869  -1.403  1.00  0.00     0.010 C 
ATOM     38  C   UNL     1     -14.237   9.359  -1.926  1.00  0.00     0.010 C 
ENDBRANCH  35  36
BRANCH  35  39
ATOM     39  C   UNL     1     -14.468   7.782   0.436  1.00  0.00     0.329 C 
ATOM     40  O   UNL     1     -13.995   8.498   1.311  1.00  0.00    -0.250 OA
BRANCH  39  41
ATOM     41  O   UNL     1     -15.803   7.512   0.322  1.00  0.00    -0.458 OA
BRANCH  41  42
ATOM     42  C   UNL     1     -16.702   8.430   0.989  1.00  0.00     0.205 CG0
ATOM     43  C   UNL     1     -17.449   9.202  -0.097  1.00  0.00     0.056 C 
ATOM     44  G   UNL     1     -15.873   9.353   1.904  1.00  0.00     0.000 G0
ENDBRANCH  41  42
ENDBRANCH  39  41
ENDBRANCH  35  39
ENDBRANCH  33  35
ENDBRANCH  23  31
ENDBRANCH  21  23
ENDBRANCH  19  21
ENDBRANCH  14  19
ENDBRANCH   7  14
ENDBRANCH   2   5
BRANCH   3  45
ATOM     45  C   UNL     1      -6.814  -5.007  -1.485  1.00  0.00     0.171 C 
BRANCH  45  46
ATOM     46  N   UNL     1      -6.109  -5.877  -2.417  1.00  0.00    -0.342 N 
ATOM     47  C   UNL     1      -4.757  -5.783  -2.633  1.00  0.00     0.247 C 
ATOM     48  O   UNL     1      -4.032  -5.010  -2.006  1.00  0.00    -0.273 OA
ATOM     49  H   UNL     1      -6.663  -6.570  -2.917  1.00  0.00     0.164 HD
BRANCH  47  50
ATOM     50  C   UNL     1      -4.211  -6.696  -3.740  1.00  0.00     0.212 CG0
ATOM     51  G   UNL     1      -4.869  -8.080  -3.571  1.00  0.00     0.000 G0
BRANCH  50  52
ATOM     52  N   UNL     1      -4.563  -6.039  -4.996  1.00  0.00    -0.339 N 
ATOM     53  C   UNL     1      -4.511  -6.666  -6.217  1.00  0.00     0.243 C 
ATOM     54  O   UNL     1      -4.112  -7.820  -6.353  1.00  0.00    -0.273 OA
ATOM     55  H   UNL     1      -4.795  -5.049  -4.963  1.00  0.00     0.164 HD
BRANCH  53  56
ATOM     56  C   UNL     1      -4.844  -5.747  -7.409  1.00  0.00     0.182 C 
BRANCH  56  57
ATOM     57  N   UNL     1      -3.624  -5.317  -8.100  1.00  0.00    -0.344 N 
ATOM     58  C   UNL     1      -2.676  -4.528  -7.496  1.00  0.00     0.220 C 
ATOM     59  O   UNL     1      -2.816  -4.067  -6.369  1.00  0.00    -0.275 OA
ATOM     60  H   UNL     1      -3.422  -5.758  -8.994  1.00  0.00     0.164 HD
BRANCH  58  61
ATOM     61  C   UNL     1      -1.470  -4.256  -8.377  1.00  0.00     0.100 C 
BRANCH  61  62
ATOM     62  C   UNL     1      -1.368  -2.807  -8.852  1.00  0.00     0.010 C 
BRANCH  62  63
ATOM     63  C   UNL     1      -2.022  -2.545 -10.214  1.00  0.00     0.000 C 
BRANCH  63  64
ATOM     64  C   UNL     1      -3.452  -2.013 -10.131  1.00  0.00    -0.003 C 
ATOM     65  C   UNL     1      -4.448  -3.006 -10.713  1.00  0.00     0.004 C 
ENDBRANCH  63  64
ENDBRANCH  62  63
ENDBRANCH  61  62
ENDBRANCH  58  61
ENDBRANCH  56  57
BRANCH  56  66
ATOM     66  C   UNL     1      -5.710  -4.564  -6.980  1.00  0.00     0.157 C 
BRANCH  66  67
ATOM     67  C   UNL     1      -7.170  -4.914  -7.024  1.00  0.00     0.305 C 
ATOM     68  O   UNL     1      -7.910  -4.849  -7.994  1.00  0.00    -0.252 OA
BRANCH  67  69
ATOM     69  O   UNL     1      -7.620  -5.383  -5.845  1.00  0.00    -0.481 OA
ATOM     70  H   UNL     1      -6.810  -5.601  -5.337  1.00  0.00     0.296 HD
ENDBRANCH  67  69
ENDBRANCH  66  67
ENDBRANCH  56  66
ENDBRANCH  53  56
ENDBRANCH  50  52
ENDBRANCH  47  50
ENDBRANCH  45  46
BRANCH  45  71
ATOM     71  C   UNL     1      -7.802  -5.791  -0.616  1.00  0.00     0.037 C 
BRANCH  71  72
ATOM     72  C   UNL     1      -7.328  -5.905   0.835  1.00  0.00     0.026 C 
BRANCH  72  73
ATOM     73  C   UNL     1      -7.183  -7.364   1.264  1.00  0.00     0.146 C 
BRANCH  73  74
ATOM     74  N   UNL     1      -6.859  -8.149   0.077  1.00  0.00    -0.254 NA
ATOM     75  C   UNL     1      -6.013  -9.104   0.203  1.00  0.00     0.185 C 
ATOM     76  N   UNL     1      -5.695  -9.845  -0.871  1.00  0.00    -0.370 N 
ATOM     77  N   UNL     1      -5.353  -9.508   1.302  1.00  0.00    -0.370 N 
ATOM     78  H   UNL     1      -6.143  -9.602  -1.743  1.00  0.00     0.159 HD
ATOM     79  H   UNL     1      -4.941 -10.508  -0.882  1.00  0.00     0.159 HD
ATOM     80  H   UNL     1      -5.495  -9.045   2.187  1.00  0.00     0.159 HD
ATOM     81  H   UNL     1      -4.797 -10.348   1.306  1.00  0.00     0.159 HD
ENDBRANCH  73  74
ENDBRANCH  72  73
ENDBRANCH  71  72
ENDBRANCH  45  71
ENDBRANCH   3  45
TORSDOF 20
ENDMDL
