MODEL 1
REMARK VINA RESULT:    -6.278      0.000      0.000
REMARK INTER + INTRA:         -20.038
REMARK INTER:                 -15.637
REMARK INTRA:                  -4.402
REMARK UNBOUND:                -4.402
REMARK SMILES CCCCCCC[C@H](N)[C@H](O)C(=O)N[C@H](C)C(=O)N(C)[C@H](CC(C)C)C(=O)N[C@@H](Cc1ccc(O)cc1)C(=O)N[C@@H](Cc1ccc(O)cc1)C(=O)O
REMARK SMILES IDX 18 1 17 2 15 3 16 4 14 5 12 6 13 7 10 9 11 10 8 12 9 13 7 16
REMARK SMILES IDX 6 17 5 18 4 19 3 20 2 21 1 22 19 23 20 24 21 25 22 26 23 27
REMARK SMILES IDX 24 28 25 29 26 30 27 31 28 32 29 34 30 35 31 36 32 37 37 38
REMARK SMILES IDX 33 39 36 40 34 41 35 42 38 44 39 45 40 46 41 48 42 49 43 50
REMARK SMILES IDX 44 51 49 52 45 53 48 54 46 55 47 56 50 58 51 59 52 60
REMARK H PARENT 14 8 11 11 9 14 9 15 28 33 35 43 40 47 47 57 52 61
ROOT
ATOM      1  O   UNL     1      10.796  10.046   1.145  1.00  0.00    -0.272 OA
ATOM      2  C   UNL     1      10.903   9.844   2.363  1.00  0.00     0.245 C 
ENDROOT
BRANCH   2   3
ATOM      3  C   UNL     1      10.211   8.598   2.971  1.00  0.00     0.168 C 
ATOM      4  C   UNL     1      11.055   8.004   4.093  1.00  0.00     0.041 C 
BRANCH   3   5
ATOM      5  N   UNL     1       8.831   8.804   3.381  1.00  0.00    -0.342 N 
ATOM      6  C   UNL     1       7.794   8.811   2.472  1.00  0.00     0.251 C 
ATOM      7  O   UNL     1       7.955   8.688   1.262  1.00  0.00    -0.272 OA
ATOM      8  H   UNL     1       8.577   8.952   4.355  1.00  0.00     0.164 HD
BRANCH   6   9
ATOM      9  C   UNL     1       6.415   8.903   3.143  1.00  0.00     0.219 C 
BRANCH   9  10
ATOM     10  O   UNL     1       5.902  10.240   3.173  1.00  0.00    -0.382 OA
ATOM     11  H   UNL     1       5.022  10.141   3.598  1.00  0.00     0.211 HD
ENDBRANCH   9  10
BRANCH   9  12
ATOM     12  C   UNL     1       5.375   7.928   2.533  1.00  0.00     0.089 C 
BRANCH  12  13
ATOM     13  N   UNL     1       6.058   6.653   2.217  1.00  0.00    -0.325 NA
ATOM     14  H   UNL     1       6.648   6.783   1.392  1.00  0.00     0.119 HD
ATOM     15  H   UNL     1       5.358   5.962   1.937  1.00  0.00     0.119 HD
ENDBRANCH  12  13
BRANCH  12  16
ATOM     16  C   UNL     1       4.115   7.657   3.390  1.00  0.00     0.022 C 
BRANCH  16  17
ATOM     17  C   UNL     1       4.001   6.329   4.152  1.00  0.00     0.002 C 
BRANCH  17  18
ATOM     18  C   UNL     1       4.361   6.404   5.634  1.00  0.00     0.000 C 
BRANCH  18  19
ATOM     19  C   UNL     1       3.155   6.610   6.560  1.00  0.00    -0.000 C 
BRANCH  19  20
ATOM     20  C   UNL     1       3.243   7.830   7.481  1.00  0.00    -0.000 C 
BRANCH  20  21
ATOM     21  C   UNL     1       2.278   7.758   8.667  1.00  0.00    -0.003 C 
ATOM     22  C   UNL     1       1.056   6.915   8.336  1.00  0.00     0.004 C 
ENDBRANCH  20  21
ENDBRANCH  19  20
ENDBRANCH  18  19
ENDBRANCH  17  18
ENDBRANCH  16  17
ENDBRANCH  12  16
ENDBRANCH   9  12
ENDBRANCH   6   9
ENDBRANCH   3   5
ENDBRANCH   2   3
BRANCH   2  23
ATOM     23  N   UNL     1      11.729  10.655   3.134  1.00  0.00    -0.332 N 
ATOM     24  C   UNL     1      13.150  10.423   3.345  1.00  0.00     0.147 C 
BRANCH  23  25
ATOM     25  C   UNL     1      11.210  11.928   3.705  1.00  0.00     0.174 C 
BRANCH  25  26
ATOM     26  C   UNL     1       9.692  11.882   3.998  1.00  0.00     0.038 C 
BRANCH  26  27
ATOM     27  C   UNL     1       9.259  12.011   5.476  1.00  0.00    -0.015 C 
ATOM     28  C   UNL     1       8.879  13.442   5.851  1.00  0.00     0.007 C 
ATOM     29  C   UNL     1       8.150  11.039   5.871  1.00  0.00     0.007 C 
ENDBRANCH  26  27
ENDBRANCH  25  26
BRANCH  25  30
ATOM     30  C   UNL     1      11.636  13.122   2.820  1.00  0.00     0.243 C 
ATOM     31  O   UNL     1      12.112  14.150   3.301  1.00  0.00    -0.273 OA
ATOM     32  N   UNL     1      11.443  12.960   1.473  1.00  0.00    -0.342 N 
ATOM     33  H   UNL     1      11.177  12.029   1.141  1.00  0.00     0.164 HD
BRANCH  32  34
ATOM     34  C   UNL     1      11.763  13.996   0.487  1.00  0.00     0.175 C 
BRANCH  34  35
ATOM     35  C   UNL     1      13.265  14.015   0.164  1.00  0.00     0.070 C 
BRANCH  35  36
ATOM     36  C   UNL     1      13.621  13.144  -1.020  1.00  0.00    -0.045 A 
ATOM     37  C   UNL     1      13.730  11.755  -0.861  1.00  0.00     0.007 A 
ATOM     38  C   UNL     1      13.867  13.708  -2.279  1.00  0.00     0.007 A 
ATOM     39  C   UNL     1      14.071  10.944  -1.945  1.00  0.00     0.046 A 
ATOM     40  C   UNL     1      14.209  12.898  -3.364  1.00  0.00     0.046 A 
ATOM     41  C   UNL     1      14.307  11.522  -3.187  1.00  0.00     0.115 A 
BRANCH  41  42
ATOM     42  O   UNL     1      14.640  10.695  -4.219  1.00  0.00    -0.508 OA
ATOM     43  H   UNL     1      14.054  10.892  -4.968  1.00  0.00     0.293 HD
ENDBRANCH  41  42
ENDBRANCH  35  36
ENDBRANCH  34  35
BRANCH  34  44
ATOM     44  C   UNL     1      10.906  13.739  -0.773  1.00  0.00     0.243 C 
ATOM     45  O   UNL     1      10.478  14.621  -1.512  1.00  0.00    -0.273 OA
ATOM     46  N   UNL     1      10.544  12.418  -0.931  1.00  0.00    -0.341 N 
ATOM     47  H   UNL     1      10.826  11.741  -0.226  1.00  0.00     0.164 HD
BRANCH  46  48
ATOM     48  C   UNL     1       9.677  11.943  -2.012  1.00  0.00     0.196 C 
BRANCH  48  49
ATOM     49  C   UNL     1      10.484  11.209  -3.095  1.00  0.00     0.072 C 
BRANCH  49  50
ATOM     50  C   UNL     1      10.727  12.062  -4.319  1.00  0.00    -0.045 A 
ATOM     51  C   UNL     1      11.325  11.500  -5.456  1.00  0.00     0.007 A 
ATOM     52  C   UNL     1      10.382  13.420  -4.331  1.00  0.00     0.007 A 
ATOM     53  C   UNL     1      11.566  12.280  -6.587  1.00  0.00     0.046 A 
ATOM     54  C   UNL     1      10.624  14.202  -5.463  1.00  0.00     0.046 A 
ATOM     55  C   UNL     1      11.214  13.624  -6.582  1.00  0.00     0.115 A 
BRANCH  55  56
ATOM     56  O   UNL     1      11.468  14.353  -7.706  1.00  0.00    -0.508 OA
ATOM     57  H   UNL     1      11.110  15.246  -7.579  1.00  0.00     0.293 HD
ENDBRANCH  55  56
ENDBRANCH  49  50
ENDBRANCH  48  49
BRANCH  48  58
ATOM     58  C   UNL     1       8.621  10.996  -1.426  1.00  0.00     0.326 C 
ATOM     59  O   UNL     1       7.489  11.282  -1.069  1.00  0.00    -0.250 OA
BRANCH  58  60
ATOM     60  O   UNL     1       9.041   9.710  -1.329  1.00  0.00    -0.480 OA
ATOM     61  H   UNL     1       9.754   9.654  -2.002  1.00  0.00     0.296 HD
ENDBRANCH  58  60
ENDBRANCH  48  58
ENDBRANCH  46  48
ENDBRANCH  34  44
ENDBRANCH  32  34
ENDBRANCH  25  30
ENDBRANCH  23  25
ENDBRANCH   2  23
TORSDOF 28
ENDMDL
MODEL 2
REMARK VINA RESULT:    -6.256      2.222      5.196
REMARK INTER + INTRA:         -19.983
REMARK INTER:                 -15.795
REMARK INTRA:                  -4.187
REMARK UNBOUND:                -4.402
REMARK SMILES CCCCCCC[C@H](N)[C@H](O)C(=O)N[C@H](C)C(=O)N(C)[C@H](CC(C)C)C(=O)N[C@@H](Cc1ccc(O)cc1)C(=O)N[C@@H](Cc1ccc(O)cc1)C(=O)O
REMARK SMILES IDX 18 1 17 2 15 3 16 4 14 5 12 6 13 7 10 9 11 10 8 12 9 13 7 16
REMARK SMILES IDX 6 17 5 18 4 19 3 20 2 21 1 22 19 23 20 24 21 25 22 26 23 27
REMARK SMILES IDX 24 28 25 29 26 30 27 31 28 32 29 34 30 35 31 36 32 37 37 38
REMARK SMILES IDX 33 39 36 40 34 41 35 42 38 44 39 45 40 46 41 48 42 49 43 50
REMARK SMILES IDX 44 51 49 52 45 53 48 54 46 55 47 56 50 58 51 59 52 60
REMARK H PARENT 14 8 11 11 9 14 9 15 28 33 35 43 40 47 47 57 52 61
ROOT
ATOM      1  O   UNL     1       6.593  12.704   1.873  1.00  0.00    -0.272 OA
ATOM      2  C   UNL     1       7.231  11.779   2.398  1.00  0.00     0.245 C 
ENDROOT
BRANCH   2   3
ATOM      3  C   UNL     1       7.041  11.515   3.913  1.00  0.00     0.168 C 
ATOM      4  C   UNL     1       7.033  12.824   4.694  1.00  0.00     0.041 C 
BRANCH   3   5
ATOM      5  N   UNL     1       5.901  10.676   4.248  1.00  0.00    -0.342 N 
ATOM      6  C   UNL     1       6.036   9.534   5.009  1.00  0.00     0.251 C 
ATOM      7  O   UNL     1       7.115   9.119   5.420  1.00  0.00    -0.272 OA
ATOM      8  H   UNL     1       4.960  10.900   3.934  1.00  0.00     0.164 HD
BRANCH   6   9
ATOM      9  C   UNL     1       4.686   8.888   5.357  1.00  0.00     0.219 C 
BRANCH   9  10
ATOM     10  O   UNL     1       3.612   9.836   5.390  1.00  0.00    -0.382 OA
ATOM     11  H   UNL     1       3.857  10.487   4.696  1.00  0.00     0.211 HD
ENDBRANCH   9  10
BRANCH   9  12
ATOM     12  C   UNL     1       4.332   7.686   4.443  1.00  0.00     0.089 C 
BRANCH  12  13
ATOM     13  N   UNL     1       5.571   7.226   3.775  1.00  0.00    -0.325 NA
ATOM     14  H   UNL     1       6.009   8.016   3.299  1.00  0.00     0.119 HD
ATOM     15  H   UNL     1       5.322   6.570   3.031  1.00  0.00     0.119 HD
ENDBRANCH  12  13
BRANCH  12  16
ATOM     16  C   UNL     1       3.625   6.495   5.132  1.00  0.00     0.022 C 
BRANCH  16  17
ATOM     17  C   UNL     1       3.502   6.483   6.662  1.00  0.00     0.002 C 
BRANCH  17  18
ATOM     18  C   UNL     1       2.174   7.005   7.206  1.00  0.00     0.000 C 
BRANCH  18  19
ATOM     19  C   UNL     1       1.854   6.531   8.630  1.00  0.00    -0.000 C 
BRANCH  19  20
ATOM     20  C   UNL     1       3.021   6.604   9.618  1.00  0.00    -0.000 C 
BRANCH  20  21
ATOM     21  C   UNL     1       2.880   5.626  10.787  1.00  0.00    -0.003 C 
ATOM     22  C   UNL     1       1.462   5.619  11.336  1.00  0.00     0.004 C 
ENDBRANCH  20  21
ENDBRANCH  19  20
ENDBRANCH  18  19
ENDBRANCH  17  18
ENDBRANCH  16  17
ENDBRANCH  12  16
ENDBRANCH   9  12
ENDBRANCH   6   9
ENDBRANCH   3   5
ENDBRANCH   2   3
BRANCH   2  23
ATOM     23  N   UNL     1       8.000  10.930   1.610  1.00  0.00    -0.332 N 
ATOM     24  C   UNL     1       8.155   9.502   1.844  1.00  0.00     0.147 C 
BRANCH  23  25
ATOM     25  C   UNL     1       8.632  11.432   0.359  1.00  0.00     0.174 C 
BRANCH  25  26
ATOM     26  C   UNL     1       9.029  10.297  -0.613  1.00  0.00     0.038 C 
BRANCH  26  27
ATOM     27  C   UNL     1       9.075  10.647  -2.117  1.00  0.00    -0.015 C 
ATOM     28  C   UNL     1       8.112  11.776  -2.484  1.00  0.00     0.007 C 
ATOM     29  C   UNL     1      10.481  10.953  -2.627  1.00  0.00     0.007 C 
ENDBRANCH  26  27
ENDBRANCH  25  26
BRANCH  25  30
ATOM     30  C   UNL     1       9.793  12.395   0.699  1.00  0.00     0.243 C 
ATOM     31  O   UNL     1       9.702  13.609   0.528  1.00  0.00    -0.273 OA
ATOM     32  N   UNL     1      10.927  11.804   1.195  1.00  0.00    -0.342 N 
ATOM     33  H   UNL     1      10.876  10.812   1.441  1.00  0.00     0.164 HD
BRANCH  32  34
ATOM     34  C   UNL     1      12.135  12.556   1.546  1.00  0.00     0.175 C 
BRANCH  34  35
ATOM     35  C   UNL     1      12.829  11.955   2.778  1.00  0.00     0.070 C 
BRANCH  35  36
ATOM     36  C   UNL     1      12.025  10.847   3.420  1.00  0.00    -0.045 A 
ATOM     37  C   UNL     1      12.261   9.511   3.061  1.00  0.00     0.007 A 
ATOM     38  C   UNL     1      11.025  11.134   4.357  1.00  0.00     0.007 A 
ATOM     39  C   UNL     1      11.515   8.482   3.637  1.00  0.00     0.046 A 
ATOM     40  C   UNL     1      10.276  10.105   4.934  1.00  0.00     0.046 A 
ATOM     41  C   UNL     1      10.530   8.787   4.569  1.00  0.00     0.115 A 
BRANCH  41  42
ATOM     42  O   UNL     1       9.822   7.753   5.106  1.00  0.00    -0.508 OA
ATOM     43  H   UNL     1       9.199   8.116   5.757  1.00  0.00     0.293 HD
ENDBRANCH  41  42
ENDBRANCH  35  36
ENDBRANCH  34  35
BRANCH  34  44
ATOM     44  C   UNL     1      13.063  12.574   0.311  1.00  0.00     0.243 C 
ATOM     45  O   UNL     1      13.716  11.610  -0.080  1.00  0.00    -0.273 OA
ATOM     46  N   UNL     1      13.202  13.824  -0.253  1.00  0.00    -0.341 N 
ATOM     47  H   UNL     1      12.732  14.616   0.179  1.00  0.00     0.164 HD
BRANCH  46  48
ATOM     48  C   UNL     1      14.082  14.102  -1.390  1.00  0.00     0.196 C 
BRANCH  48  49
ATOM     49  C   UNL     1      13.283  14.242  -2.696  1.00  0.00     0.072 C 
BRANCH  49  50
ATOM     50  C   UNL     1      13.450  13.050  -3.611  1.00  0.00    -0.045 A 
ATOM     51  C   UNL     1      12.516  12.815  -4.631  1.00  0.00     0.007 A 
ATOM     52  C   UNL     1      14.516  12.157  -3.445  1.00  0.00     0.007 A 
ATOM     53  C   UNL     1      12.652  11.711  -5.473  1.00  0.00     0.046 A 
ATOM     54  C   UNL     1      14.652  11.051  -4.287  1.00  0.00     0.046 A 
ATOM     55  C   UNL     1      13.719  10.838  -5.295  1.00  0.00     0.115 A 
BRANCH  55  56
ATOM     56  O   UNL     1      13.815   9.770  -6.138  1.00  0.00    -0.508 OA
ATOM     57  H   UNL     1      14.362   9.092  -5.711  1.00  0.00     0.293 HD
ENDBRANCH  55  56
ENDBRANCH  49  50
ENDBRANCH  48  49
BRANCH  48  58
ATOM     58  C   UNL     1      14.855  15.400  -1.118  1.00  0.00     0.326 C 
ATOM     59  O   UNL     1      14.878  16.405  -1.810  1.00  0.00    -0.250 OA
BRANCH  58  60
ATOM     60  O   UNL     1      15.563  15.376   0.039  1.00  0.00    -0.480 OA
ATOM     61  H   UNL     1      14.867  15.403   0.730  1.00  0.00     0.296 HD
ENDBRANCH  58  60
ENDBRANCH  48  58
ENDBRANCH  46  48
ENDBRANCH  34  44
ENDBRANCH  32  34
ENDBRANCH  25  30
ENDBRANCH  23  25
ENDBRANCH   2  23
TORSDOF 28
ENDMDL
MODEL 3
REMARK VINA RESULT:    -6.008      4.613     13.056
REMARK INTER + INTRA:         -19.367
REMARK INTER:                 -16.462
REMARK INTRA:                  -2.905
REMARK UNBOUND:                -4.402
REMARK SMILES CCCCCCC[C@H](N)[C@H](O)C(=O)N[C@H](C)C(=O)N(C)[C@H](CC(C)C)C(=O)N[C@@H](Cc1ccc(O)cc1)C(=O)N[C@@H](Cc1ccc(O)cc1)C(=O)O
REMARK SMILES IDX 18 1 17 2 15 3 16 4 14 5 12 6 13 7 10 9 11 10 8 12 9 13 7 16
REMARK SMILES IDX 6 17 5 18 4 19 3 20 2 21 1 22 19 23 20 24 21 25 22 26 23 27
REMARK SMILES IDX 24 28 25 29 26 30 27 31 28 32 29 34 30 35 31 36 32 37 37 38
REMARK SMILES IDX 33 39 36 40 34 41 35 42 38 44 39 45 40 46 41 48 42 49 43 50
REMARK SMILES IDX 44 51 49 52 45 53 48 54 46 55 47 56 50 58 51 59 52 60
REMARK H PARENT 14 8 11 11 9 14 9 15 28 33 35 43 40 47 47 57 52 61
ROOT
ATOM      1  O   UNL     1       7.204  11.503   3.020  1.00  0.00    -0.272 OA
ATOM      2  C   UNL     1       7.932  10.797   3.734  1.00  0.00     0.245 C 
ENDROOT
BRANCH   2   3
ATOM      3  C   UNL     1       9.268  10.280   3.147  1.00  0.00     0.168 C 
ATOM      4  C   UNL     1       9.112   9.927   1.671  1.00  0.00     0.041 C 
BRANCH   3   5
ATOM      5  N   UNL     1      10.414  11.146   3.378  1.00  0.00    -0.342 N 
ATOM      6  C   UNL     1      11.695  10.647   3.480  1.00  0.00     0.251 C 
ATOM      7  O   UNL     1      11.962   9.451   3.427  1.00  0.00    -0.272 OA
ATOM      8  H   UNL     1      10.313  12.154   3.475  1.00  0.00     0.164 HD
BRANCH   6   9
ATOM      9  C   UNL     1      12.758  11.753   3.581  1.00  0.00     0.219 C 
BRANCH   9  10
ATOM     10  O   UNL     1      13.786  11.447   4.530  1.00  0.00    -0.382 OA
ATOM     11  H   UNL     1      13.375  11.665   5.395  1.00  0.00     0.211 HD
ENDBRANCH   9  10
BRANCH   9  12
ATOM     12  C   UNL     1      13.370  12.136   2.208  1.00  0.00     0.089 C 
BRANCH  12  13
ATOM     13  N   UNL     1      14.721  11.536   2.116  1.00  0.00    -0.325 NA
ATOM     14  H   UNL     1      14.654  10.530   2.277  1.00  0.00     0.119 HD
ATOM     15  H   UNL     1      15.294  11.891   2.885  1.00  0.00     0.119 HD
ENDBRANCH  12  13
BRANCH  12  16
ATOM     16  C   UNL     1      12.534  11.756   0.963  1.00  0.00     0.022 C 
BRANCH  16  17
ATOM     17  C   UNL     1      13.204  11.768  -0.418  1.00  0.00     0.002 C 
BRANCH  17  18
ATOM     18  C   UNL     1      13.188  13.119  -1.130  1.00  0.00     0.000 C 
BRANCH  18  19
ATOM     19  C   UNL     1      14.052  13.167  -2.397  1.00  0.00    -0.000 C 
BRANCH  19  20
ATOM     20  C   UNL     1      14.015  11.901  -3.258  1.00  0.00    -0.000 C 
BRANCH  20  21
ATOM     21  C   UNL     1      12.820  11.861  -4.215  1.00  0.00    -0.003 C 
ATOM     22  C   UNL     1      11.914  10.675  -3.921  1.00  0.00     0.004 C 
ENDBRANCH  20  21
ENDBRANCH  19  20
ENDBRANCH  18  19
ENDBRANCH  17  18
ENDBRANCH  16  17
ENDBRANCH  12  16
ENDBRANCH   9  12
ENDBRANCH   6   9
ENDBRANCH   3   5
ENDBRANCH   2   3
BRANCH   2  23
ATOM     23  N   UNL     1       7.603  10.586   5.068  1.00  0.00    -0.332 N 
ATOM     24  C   UNL     1       8.138  11.354   6.183  1.00  0.00     0.147 C 
BRANCH  23  25
ATOM     25  C   UNL     1       6.545   9.605   5.435  1.00  0.00     0.174 C 
BRANCH  25  26
ATOM     26  C   UNL     1       6.185   8.646   4.276  1.00  0.00     0.038 C 
BRANCH  26  27
ATOM     27  C   UNL     1       4.764   8.040   4.284  1.00  0.00    -0.015 C 
ATOM     28  C   UNL     1       3.898   8.564   3.139  1.00  0.00     0.007 C 
ATOM     29  C   UNL     1       4.755   6.514   4.309  1.00  0.00     0.007 C 
ENDBRANCH  26  27
ENDBRANCH  25  26
BRANCH  25  30
ATOM     30  C   UNL     1       5.324  10.338   6.037  1.00  0.00     0.243 C 
ATOM     31  O   UNL     1       4.686  11.173   5.396  1.00  0.00    -0.273 OA
ATOM     32  N   UNL     1       5.007  10.002   7.328  1.00  0.00    -0.342 N 
ATOM     33  H   UNL     1       5.493   9.202   7.742  1.00  0.00     0.164 HD
BRANCH  32  34
ATOM     34  C   UNL     1       3.900  10.614   8.067  1.00  0.00     0.175 C 
BRANCH  34  35
ATOM     35  C   UNL     1       2.612   9.787   7.932  1.00  0.00     0.070 C 
BRANCH  35  36
ATOM     36  C   UNL     1       2.802   8.341   8.332  1.00  0.00    -0.045 A 
ATOM     37  C   UNL     1       3.088   7.375   7.356  1.00  0.00     0.007 A 
ATOM     38  C   UNL     1       2.672   7.942   9.669  1.00  0.00     0.007 A 
ATOM     39  C   UNL     1       3.250   6.036   7.714  1.00  0.00     0.046 A 
ATOM     40  C   UNL     1       2.834   6.602  10.028  1.00  0.00     0.046 A 
ATOM     41  C   UNL     1       3.123   5.660   9.046  1.00  0.00     0.115 A 
BRANCH  41  42
ATOM     42  O   UNL     1       3.286   4.342   9.352  1.00  0.00    -0.508 OA
ATOM     43  H   UNL     1       4.053   4.007   8.859  1.00  0.00     0.293 HD
ENDBRANCH  41  42
ENDBRANCH  35  36
ENDBRANCH  34  35
BRANCH  34  44
ATOM     44  C   UNL     1       4.336  10.767   9.542  1.00  0.00     0.243 C 
ATOM     45  O   UNL     1       5.366  10.294  10.013  1.00  0.00    -0.273 OA
ATOM     46  N   UNL     1       3.389  11.382  10.333  1.00  0.00    -0.341 N 
ATOM     47  H   UNL     1       2.500  11.653   9.920  1.00  0.00     0.164 HD
BRANCH  46  48
ATOM     48  C   UNL     1       3.548  11.578  11.776  1.00  0.00     0.196 C 
BRANCH  48  49
ATOM     49  C   UNL     1       4.092  12.981  12.094  1.00  0.00     0.072 C 
BRANCH  49  50
ATOM     50  C   UNL     1       5.574  12.977  12.390  1.00  0.00    -0.045 A 
ATOM     51  C   UNL     1       6.124  11.971  13.198  1.00  0.00     0.007 A 
ATOM     52  C   UNL     1       6.413  13.980  11.886  1.00  0.00     0.007 A 
ATOM     53  C   UNL     1       7.488  11.965  13.488  1.00  0.00     0.046 A 
ATOM     54  C   UNL     1       7.778  13.975  12.178  1.00  0.00     0.046 A 
ATOM     55  C   UNL     1       8.305  12.965  12.977  1.00  0.00     0.115 A 
BRANCH  55  56
ATOM     56  O   UNL     1       9.632  12.924  13.286  1.00  0.00    -0.508 OA
ATOM     57  H   UNL     1      10.026  13.781  13.056  1.00  0.00     0.293 HD
ENDBRANCH  55  56
ENDBRANCH  49  50
ENDBRANCH  48  49
BRANCH  48  58
ATOM     58  C   UNL     1       2.187  11.386  12.459  1.00  0.00     0.326 C 
ATOM     59  O   UNL     1       1.764  11.973  13.442  1.00  0.00    -0.250 OA
BRANCH  58  60
ATOM     60  O   UNL     1       1.404  10.458  11.853  1.00  0.00    -0.480 OA
ATOM     61  H   UNL     1       0.884  10.987  11.209  1.00  0.00     0.296 HD
ENDBRANCH  58  60
ENDBRANCH  48  58
ENDBRANCH  46  48
ENDBRANCH  34  44
ENDBRANCH  32  34
ENDBRANCH  25  30
ENDBRANCH  23  25
ENDBRANCH   2  23
TORSDOF 28
ENDMDL
MODEL 4
REMARK VINA RESULT:    -5.920      3.683     11.918
REMARK INTER + INTRA:         -19.146
REMARK INTER:                 -15.765
REMARK INTRA:                  -3.381
REMARK UNBOUND:                -4.402
REMARK SMILES CCCCCCC[C@H](N)[C@H](O)C(=O)N[C@H](C)C(=O)N(C)[C@H](CC(C)C)C(=O)N[C@@H](Cc1ccc(O)cc1)C(=O)N[C@@H](Cc1ccc(O)cc1)C(=O)O
REMARK SMILES IDX 18 1 17 2 15 3 16 4 14 5 12 6 13 7 10 9 11 10 8 12 9 13 7 16
REMARK SMILES IDX 6 17 5 18 4 19 3 20 2 21 1 22 19 23 20 24 21 25 22 26 23 27
REMARK SMILES IDX 24 28 25 29 26 30 27 31 28 32 29 34 30 35 31 36 32 37 37 38
REMARK SMILES IDX 33 39 36 40 34 41 35 42 38 44 39 45 40 46 41 48 42 49 43 50
REMARK SMILES IDX 44 51 49 52 45 53 48 54 46 55 47 56 50 58 51 59 52 60
REMARK H PARENT 14 8 11 11 9 14 9 15 28 33 35 43 40 47 47 57 52 61
ROOT
ATOM      1  O   UNL     1       9.371   8.358   2.529  1.00  0.00    -0.272 OA
ATOM      2  C   UNL     1       9.286   9.080   3.533  1.00  0.00     0.245 C 
ENDROOT
BRANCH   2   3
ATOM      3  C   UNL     1      10.462   9.089   4.541  1.00  0.00     0.168 C 
ATOM      4  C   UNL     1      10.723   7.687   5.081  1.00  0.00     0.041 C 
BRANCH   3   5
ATOM      5  N   UNL     1      11.681   9.717   4.054  1.00  0.00    -0.342 N 
ATOM      6  C   UNL     1      11.940  11.056   4.257  1.00  0.00     0.251 C 
ATOM      7  O   UNL     1      11.161  11.819   4.816  1.00  0.00    -0.272 OA
ATOM      8  H   UNL     1      12.388   9.192   3.544  1.00  0.00     0.164 HD
BRANCH   6   9
ATOM      9  C   UNL     1      13.344  11.467   3.784  1.00  0.00     0.219 C 
BRANCH   9  10
ATOM     10  O   UNL     1      14.249  10.359   3.710  1.00  0.00    -0.382 OA
ATOM     11  H   UNL     1      13.671   9.605   3.460  1.00  0.00     0.211 HD
ENDBRANCH   9  10
BRANCH   9  12
ATOM     12  C   UNL     1      13.330  12.257   2.449  1.00  0.00     0.089 C 
BRANCH  12  13
ATOM     13  N   UNL     1      14.679  12.174   1.843  1.00  0.00    -0.325 NA
ATOM     14  H   UNL     1      14.884  11.201   1.610  1.00  0.00     0.119 HD
ATOM     15  H   UNL     1      15.374  12.432   2.547  1.00  0.00     0.119 HD
ENDBRANCH  12  13
BRANCH  12  16
ATOM     16  C   UNL     1      12.258  11.828   1.419  1.00  0.00     0.022 C 
BRANCH  16  17
ATOM     17  C   UNL     1      12.703  11.381   0.020  1.00  0.00     0.002 C 
BRANCH  17  18
ATOM     18  C   UNL     1      11.567  10.994  -0.925  1.00  0.00     0.000 C 
BRANCH  18  19
ATOM     19  C   UNL     1      12.029  10.631  -2.342  1.00  0.00    -0.000 C 
BRANCH  19  20
ATOM     20  C   UNL     1      13.394  11.197  -2.745  1.00  0.00    -0.000 C 
BRANCH  20  21
ATOM     21  C   UNL     1      13.339  12.047  -4.017  1.00  0.00    -0.003 C 
ATOM     22  C   UNL     1      14.603  12.876  -4.185  1.00  0.00     0.004 C 
ENDBRANCH  20  21
ENDBRANCH  19  20
ENDBRANCH  18  19
ENDBRANCH  17  18
ENDBRANCH  16  17
ENDBRANCH  12  16
ENDBRANCH   9  12
ENDBRANCH   6   9
ENDBRANCH   3   5
ENDBRANCH   2   3
BRANCH   2  23
ATOM     23  N   UNL     1       8.211   9.951   3.675  1.00  0.00    -0.332 N 
ATOM     24  C   UNL     1       8.074  11.217   2.970  1.00  0.00     0.147 C 
BRANCH  23  25
ATOM     25  C   UNL     1       7.031   9.560   4.494  1.00  0.00     0.174 C 
BRANCH  25  26
ATOM     26  C   UNL     1       5.696   9.681   3.724  1.00  0.00     0.038 C 
BRANCH  26  27
ATOM     27  C   UNL     1       5.030   8.364   3.265  1.00  0.00    -0.015 C 
ATOM     28  C   UNL     1       3.655   8.592   2.638  1.00  0.00     0.007 C 
ATOM     29  C   UNL     1       5.911   7.530   2.338  1.00  0.00     0.007 C 
ENDBRANCH  26  27
ENDBRANCH  25  26
BRANCH  25  30
ATOM     30  C   UNL     1       7.043  10.319   5.841  1.00  0.00     0.243 C 
ATOM     31  O   UNL     1       8.060  10.861   6.272  1.00  0.00    -0.273 OA
ATOM     32  N   UNL     1       5.852  10.343   6.519  1.00  0.00    -0.342 N 
ATOM     33  H   UNL     1       5.023   9.995   6.032  1.00  0.00     0.164 HD
BRANCH  32  34
ATOM     34  C   UNL     1       5.685  10.992   7.822  1.00  0.00     0.175 C 
BRANCH  34  35
ATOM     35  C   UNL     1       5.152  12.425   7.668  1.00  0.00     0.070 C 
BRANCH  35  36
ATOM     36  C   UNL     1       4.674  12.723   6.265  1.00  0.00    -0.045 A 
ATOM     37  C   UNL     1       3.423  12.255   5.835  1.00  0.00     0.007 A 
ATOM     38  C   UNL     1       5.475  13.447   5.372  1.00  0.00     0.007 A 
ATOM     39  C   UNL     1       2.980  12.513   4.538  1.00  0.00     0.046 A 
ATOM     40  C   UNL     1       5.032  13.705   4.072  1.00  0.00     0.046 A 
ATOM     41  C   UNL     1       3.787  13.236   3.667  1.00  0.00     0.115 A 
BRANCH  41  42
ATOM     42  O   UNL     1       3.317  13.465   2.408  1.00  0.00    -0.508 OA
ATOM     43  H   UNL     1       2.548  12.890   2.260  1.00  0.00     0.293 HD
ENDBRANCH  41  42
ENDBRANCH  35  36
ENDBRANCH  34  35
BRANCH  34  44
ATOM     44  C   UNL     1       4.742  10.114   8.677  1.00  0.00     0.243 C 
ATOM     45  O   UNL     1       4.882   9.914   9.880  1.00  0.00    -0.273 OA
ATOM     46  N   UNL     1       3.783   9.457   7.936  1.00  0.00    -0.341 N 
ATOM     47  H   UNL     1       3.781   9.564   6.924  1.00  0.00     0.164 HD
BRANCH  46  48
ATOM     48  C   UNL     1       2.821   8.517   8.516  1.00  0.00     0.196 C 
BRANCH  48  49
ATOM     49  C   UNL     1       1.373   8.953   8.233  1.00  0.00     0.072 C 
BRANCH  49  50
ATOM     50  C   UNL     1       0.845   9.921   9.268  1.00  0.00    -0.045 A 
ATOM     51  C   UNL     1      -0.046  10.935   8.886  1.00  0.00     0.007 A 
ATOM     52  C   UNL     1       1.247   9.836  10.607  1.00  0.00     0.007 A 
ATOM     53  C   UNL     1      -0.529  11.842   9.829  1.00  0.00     0.046 A 
ATOM     54  C   UNL     1       0.764  10.745  11.551  1.00  0.00     0.046 A 
ATOM     55  C   UNL     1      -0.122  11.740  11.154  1.00  0.00     0.115 A 
BRANCH  55  56
ATOM     56  O   UNL     1      -0.616  12.647  12.044  1.00  0.00    -0.508 OA
ATOM     57  H   UNL     1      -0.705  12.212  12.906  1.00  0.00     0.293 HD
ENDBRANCH  55  56
ENDBRANCH  49  50
ENDBRANCH  48  49
BRANCH  48  58
ATOM     58  C   UNL     1       3.064   7.123   7.922  1.00  0.00     0.326 C 
ATOM     59  O   UNL     1       3.666   6.195   8.436  1.00  0.00    -0.250 OA
BRANCH  58  60
ATOM     60  O   UNL     1       2.515   6.955   6.692  1.00  0.00    -0.480 OA
ATOM     61  H   UNL     1       1.751   6.363   6.865  1.00  0.00     0.296 HD
ENDBRANCH  58  60
ENDBRANCH  48  58
ENDBRANCH  46  48
ENDBRANCH  34  44
ENDBRANCH  32  34
ENDBRANCH  25  30
ENDBRANCH  23  25
ENDBRANCH   2  23
TORSDOF 28
ENDMDL
MODEL 5
REMARK VINA RESULT:    -5.909      2.647      7.323
REMARK INTER + INTRA:         -19.119
REMARK INTER:                 -12.917
REMARK INTRA:                  -6.202
REMARK UNBOUND:                -4.402
REMARK SMILES CCCCCCC[C@H](N)[C@H](O)C(=O)N[C@H](C)C(=O)N(C)[C@H](CC(C)C)C(=O)N[C@@H](Cc1ccc(O)cc1)C(=O)N[C@@H](Cc1ccc(O)cc1)C(=O)O
REMARK SMILES IDX 18 1 17 2 15 3 16 4 14 5 12 6 13 7 10 9 11 10 8 12 9 13 7 16
REMARK SMILES IDX 6 17 5 18 4 19 3 20 2 21 1 22 19 23 20 24 21 25 22 26 23 27
REMARK SMILES IDX 24 28 25 29 26 30 27 31 28 32 29 34 30 35 31 36 32 37 37 38
REMARK SMILES IDX 33 39 36 40 34 41 35 42 38 44 39 45 40 46 41 48 42 49 43 50
REMARK SMILES IDX 44 51 49 52 45 53 48 54 46 55 47 56 50 58 51 59 52 60
REMARK H PARENT 14 8 11 11 9 14 9 15 28 33 35 43 40 47 47 57 52 61
ROOT
ATOM      1  O   UNL     1      10.955  10.894   5.145  1.00  0.00    -0.272 OA
ATOM      2  C   UNL     1      11.082  10.272   4.080  1.00  0.00     0.245 C 
ENDROOT
BRANCH   2   3
ATOM      3  C   UNL     1      10.153   9.061   3.814  1.00  0.00     0.168 C 
ATOM      4  C   UNL     1      10.386   7.962   4.845  1.00  0.00     0.041 C 
BRANCH   3   5
ATOM      5  N   UNL     1       8.742   9.390   3.683  1.00  0.00    -0.342 N 
ATOM      6  C   UNL     1       7.977   8.913   2.639  1.00  0.00     0.251 C 
ATOM      7  O   UNL     1       8.427   8.221   1.732  1.00  0.00    -0.272 OA
ATOM      8  H   UNL     1       8.266   9.986   4.356  1.00  0.00     0.164 HD
BRANCH   6   9
ATOM      9  C   UNL     1       6.489   9.270   2.782  1.00  0.00     0.219 C 
BRANCH   9  10
ATOM     10  O   UNL     1       5.996  10.036   1.675  1.00  0.00    -0.382 OA
ATOM     11  H   UNL     1       5.118  10.349   1.984  1.00  0.00     0.211 HD
ENDBRANCH   9  10
BRANCH   9  12
ATOM     12  C   UNL     1       5.588   8.035   3.041  1.00  0.00     0.089 C 
BRANCH  12  13
ATOM     13  N   UNL     1       6.266   6.839   2.491  1.00  0.00    -0.325 NA
ATOM     14  H   UNL     1       7.030   6.569   3.114  1.00  0.00     0.119 HD
ATOM     15  H   UNL     1       6.718   7.091   1.609  1.00  0.00     0.119 HD
ENDBRANCH  12  13
BRANCH  12  16
ATOM     16  C   UNL     1       5.185   7.787   4.514  1.00  0.00     0.022 C 
BRANCH  16  17
ATOM     17  C   UNL     1       4.122   8.686   5.159  1.00  0.00     0.002 C 
BRANCH  17  18
ATOM     18  C   UNL     1       3.785   8.348   6.610  1.00  0.00     0.000 C 
BRANCH  18  19
ATOM     19  C   UNL     1       3.080   6.997   6.789  1.00  0.00    -0.000 C 
BRANCH  19  20
ATOM     20  C   UNL     1       3.147   6.412   8.203  1.00  0.00    -0.000 C 
BRANCH  20  21
ATOM     21  C   UNL     1       1.841   6.581   8.984  1.00  0.00    -0.003 C 
ATOM     22  C   UNL     1       1.834   7.879   9.777  1.00  0.00     0.004 C 
ENDBRANCH  20  21
ENDBRANCH  19  20
ENDBRANCH  18  19
ENDBRANCH  17  18
ENDBRANCH  16  17
ENDBRANCH  12  16
ENDBRANCH   9  12
ENDBRANCH   6   9
ENDBRANCH   3   5
ENDBRANCH   2   3
BRANCH   2  23
ATOM     23  N   UNL     1      11.957  10.736   3.103  1.00  0.00    -0.332 N 
ATOM     24  C   UNL     1      13.396  10.519   3.113  1.00  0.00     0.147 C 
BRANCH  23  25
ATOM     25  C   UNL     1      11.431  11.399   1.879  1.00  0.00     0.174 C 
BRANCH  25  26
ATOM     26  C   UNL     1      12.551  11.857   0.914  1.00  0.00     0.038 C 
BRANCH  26  27
ATOM     27  C   UNL     1      12.359  11.534  -0.584  1.00  0.00    -0.015 C 
ATOM     28  C   UNL     1      13.682  11.247  -1.294  1.00  0.00     0.007 C 
ATOM     29  C   UNL     1      11.357  10.412  -0.841  1.00  0.00     0.007 C 
ENDBRANCH  26  27
ENDBRANCH  25  26
BRANCH  25  30
ATOM     30  C   UNL     1      10.445  12.525   2.265  1.00  0.00     0.243 C 
ATOM     31  O   UNL     1      10.824  13.564   2.803  1.00  0.00    -0.273 OA
ATOM     32  N   UNL     1       9.127  12.285   1.973  1.00  0.00    -0.342 N 
ATOM     33  H   UNL     1       8.910  11.465   1.400  1.00  0.00     0.164 HD
BRANCH  32  34
ATOM     34  C   UNL     1       8.051  13.227   2.292  1.00  0.00     0.175 C 
BRANCH  34  35
ATOM     35  C   UNL     1       7.123  13.445   1.087  1.00  0.00     0.070 C 
BRANCH  35  36
ATOM     36  C   UNL     1       7.770  13.063  -0.225  1.00  0.00    -0.045 A 
ATOM     37  C   UNL     1       8.754  13.889  -0.790  1.00  0.00     0.007 A 
ATOM     38  C   UNL     1       7.386  11.900  -0.905  1.00  0.00     0.007 A 
ATOM     39  C   UNL     1       9.347  13.552  -2.007  1.00  0.00     0.046 A 
ATOM     40  C   UNL     1       7.978  11.562  -2.124  1.00  0.00     0.046 A 
ATOM     41  C   UNL     1       8.955  12.392  -2.664  1.00  0.00     0.115 A 
BRANCH  41  42
ATOM     42  O   UNL     1       9.557  12.100  -3.852  1.00  0.00    -0.508 OA
ATOM     43  H   UNL     1       9.498  11.141  -3.996  1.00  0.00     0.293 HD
ENDBRANCH  41  42
ENDBRANCH  35  36
ENDBRANCH  34  35
BRANCH  34  44
ATOM     44  C   UNL     1       7.285  12.682   3.519  1.00  0.00     0.243 C 
ATOM     45  O   UNL     1       7.819  12.171   4.499  1.00  0.00    -0.273 OA
ATOM     46  N   UNL     1       5.915  12.700   3.363  1.00  0.00    -0.341 N 
ATOM     47  H   UNL     1       5.522  13.026   2.483  1.00  0.00     0.164 HD
BRANCH  46  48
ATOM     48  C   UNL     1       4.983  12.173   4.362  1.00  0.00     0.196 C 
BRANCH  48  49
ATOM     49  C   UNL     1       4.961  13.050   5.625  1.00  0.00     0.072 C 
BRANCH  49  50
ATOM     50  C   UNL     1       4.864  12.238   6.896  1.00  0.00    -0.045 A 
ATOM     51  C   UNL     1       3.644  12.159   7.584  1.00  0.00     0.007 A 
ATOM     52  C   UNL     1       5.983  11.575   7.415  1.00  0.00     0.007 A 
ATOM     53  C   UNL     1       3.545  11.423   8.765  1.00  0.00     0.046 A 
ATOM     54  C   UNL     1       5.885  10.839   8.599  1.00  0.00     0.046 A 
ATOM     55  C   UNL     1       4.665  10.769   9.263  1.00  0.00     0.115 A 
BRANCH  55  56
ATOM     56  O   UNL     1       4.527  10.063  10.421  1.00  0.00    -0.508 OA
ATOM     57  H   UNL     1       4.444  10.692  11.155  1.00  0.00     0.293 HD
ENDBRANCH  55  56
ENDBRANCH  49  50
ENDBRANCH  48  49
BRANCH  48  58
ATOM     58  C   UNL     1       3.577  12.113   3.751  1.00  0.00     0.326 C 
ATOM     59  O   UNL     1       2.568  12.664   4.163  1.00  0.00    -0.250 OA
BRANCH  58  60
ATOM     60  O   UNL     1       3.508  11.363   2.622  1.00  0.00    -0.480 OA
ATOM     61  H   UNL     1       2.809  11.809   2.097  1.00  0.00     0.296 HD
ENDBRANCH  58  60
ENDBRANCH  48  58
ENDBRANCH  46  48
ENDBRANCH  34  44
ENDBRANCH  32  34
ENDBRANCH  25  30
ENDBRANCH  23  25
ENDBRANCH   2  23
TORSDOF 28
ENDMDL
MODEL 6
REMARK VINA RESULT:    -5.855      2.203      4.587
REMARK INTER + INTRA:         -18.985
REMARK INTER:                 -14.797
REMARK INTRA:                  -4.188
REMARK UNBOUND:                -4.402
REMARK SMILES CCCCCCC[C@H](N)[C@H](O)C(=O)N[C@H](C)C(=O)N(C)[C@H](CC(C)C)C(=O)N[C@@H](Cc1ccc(O)cc1)C(=O)N[C@@H](Cc1ccc(O)cc1)C(=O)O
REMARK SMILES IDX 18 1 17 2 15 3 16 4 14 5 12 6 13 7 10 9 11 10 8 12 9 13 7 16
REMARK SMILES IDX 6 17 5 18 4 19 3 20 2 21 1 22 19 23 20 24 21 25 22 26 23 27
REMARK SMILES IDX 24 28 25 29 26 30 27 31 28 32 29 34 30 35 31 36 32 37 37 38
REMARK SMILES IDX 33 39 36 40 34 41 35 42 38 44 39 45 40 46 41 48 42 49 43 50
REMARK SMILES IDX 44 51 49 52 45 53 48 54 46 55 47 56 50 58 51 59 52 60
REMARK H PARENT 14 8 11 11 9 14 9 15 28 33 35 43 40 47 47 57 52 61
ROOT
ATOM      1  O   UNL     1       9.118  12.486   5.365  1.00  0.00    -0.272 OA
ATOM      2  C   UNL     1       9.481  11.932   4.316  1.00  0.00     0.245 C 
ENDROOT
BRANCH   2   3
ATOM      3  C   UNL     1       9.379  10.389   4.220  1.00  0.00     0.168 C 
ATOM      4  C   UNL     1       9.510   9.750   5.598  1.00  0.00     0.041 C 
BRANCH   3   5
ATOM      5  N   UNL     1       8.213   9.897   3.503  1.00  0.00    -0.342 N 
ATOM      6  C   UNL     1       8.276   8.791   2.683  1.00  0.00     0.251 C 
ATOM      7  O   UNL     1       9.310   8.169   2.463  1.00  0.00    -0.272 OA
ATOM      8  H   UNL     1       7.306  10.352   3.578  1.00  0.00     0.164 HD
BRANCH   6   9
ATOM      9  C   UNL     1       6.899   8.371   2.144  1.00  0.00     0.219 C 
BRANCH   9  10
ATOM     10  O   UNL     1       6.597   6.996   2.411  1.00  0.00    -0.382 OA
ATOM     11  H   UNL     1       6.427   6.980   3.378  1.00  0.00     0.211 HD
ENDBRANCH   9  10
BRANCH   9  12
ATOM     12  C   UNL     1       5.749   9.292   2.630  1.00  0.00     0.089 C 
BRANCH  12  13
ATOM     13  N   UNL     1       5.575  10.383   1.644  1.00  0.00    -0.325 NA
ATOM     14  H   UNL     1       6.420  10.458   1.074  1.00  0.00     0.119 HD
ATOM     15  H   UNL     1       5.509  11.273   2.143  1.00  0.00     0.119 HD
ENDBRANCH  12  13
BRANCH  12  16
ATOM     16  C   UNL     1       4.392   8.597   2.898  1.00  0.00     0.022 C 
BRANCH  16  17
ATOM     17  C   UNL     1       4.007   8.242   4.341  1.00  0.00     0.002 C 
BRANCH  17  18
ATOM     18  C   UNL     1       3.912   6.747   4.634  1.00  0.00     0.000 C 
BRANCH  18  19
ATOM     19  C   UNL     1       3.475   6.417   6.067  1.00  0.00    -0.000 C 
BRANCH  19  20
ATOM     20  C   UNL     1       2.791   7.563   6.818  1.00  0.00    -0.000 C 
BRANCH  20  21
ATOM     21  C   UNL     1       1.460   7.152   7.454  1.00  0.00    -0.003 C 
ATOM     22  C   UNL     1       1.430   7.484   8.938  1.00  0.00     0.004 C 
ENDBRANCH  20  21
ENDBRANCH  19  20
ENDBRANCH  18  19
ENDBRANCH  17  18
ENDBRANCH  16  17
ENDBRANCH  12  16
ENDBRANCH   9  12
ENDBRANCH   6   9
ENDBRANCH   3   5
ENDBRANCH   2   3
BRANCH   2  23
ATOM     23  N   UNL     1       9.853  12.699   3.217  1.00  0.00    -0.332 N 
ATOM     24  C   UNL     1       9.676  14.140   3.118  1.00  0.00     0.147 C 
BRANCH  23  25
ATOM     25  C   UNL     1      10.598  12.079   2.087  1.00  0.00     0.174 C 
BRANCH  25  26
ATOM     26  C   UNL     1      11.926  12.807   1.771  1.00  0.00     0.038 C 
BRANCH  26  27
ATOM     27  C   UNL     1      13.230  12.002   1.970  1.00  0.00    -0.015 C 
ATOM     28  C   UNL     1      14.480  12.864   1.803  1.00  0.00     0.007 C 
ATOM     29  C   UNL     1      13.276  11.238   3.291  1.00  0.00     0.007 C 
ENDBRANCH  26  27
ENDBRANCH  25  26
BRANCH  25  30
ATOM     30  C   UNL     1       9.669  11.920   0.861  1.00  0.00     0.243 C 
ATOM     31  O   UNL     1       8.519  11.497   0.968  1.00  0.00    -0.273 OA
ATOM     32  N   UNL     1      10.214  12.275  -0.346  1.00  0.00    -0.342 N 
ATOM     33  H   UNL     1      11.121  12.748  -0.336  1.00  0.00     0.164 HD
BRANCH  32  34
ATOM     34  C   UNL     1       9.491  12.164  -1.616  1.00  0.00     0.175 C 
BRANCH  34  35
ATOM     35  C   UNL     1       8.889  13.514  -2.035  1.00  0.00     0.070 C 
BRANCH  35  36
ATOM     36  C   UNL     1       7.396  13.443  -2.263  1.00  0.00    -0.045 A 
ATOM     37  C   UNL     1       6.886  13.425  -3.570  1.00  0.00     0.007 A 
ATOM     38  C   UNL     1       6.504  13.418  -1.183  1.00  0.00     0.007 A 
ATOM     39  C   UNL     1       5.509  13.374  -3.790  1.00  0.00     0.046 A 
ATOM     40  C   UNL     1       5.125  13.368  -1.403  1.00  0.00     0.046 A 
ATOM     41  C   UNL     1       4.640  13.345  -2.706  1.00  0.00     0.115 A 
BRANCH  41  42
ATOM     42  O   UNL     1       3.303  13.298  -2.965  1.00  0.00    -0.508 OA
ATOM     43  H   UNL     1       2.853  13.909  -2.357  1.00  0.00     0.293 HD
ENDBRANCH  41  42
ENDBRANCH  35  36
ENDBRANCH  34  35
BRANCH  34  44
ATOM     44  C   UNL     1      10.469  11.614  -2.678  1.00  0.00     0.243 C 
ATOM     45  O   UNL     1      10.170  10.784  -3.532  1.00  0.00    -0.273 OA
ATOM     46  N   UNL     1      11.768  12.043  -2.503  1.00  0.00    -0.341 N 
ATOM     47  H   UNL     1      11.988  12.639  -1.708  1.00  0.00     0.164 HD
BRANCH  46  48
ATOM     48  C   UNL     1      12.883  11.602  -3.344  1.00  0.00     0.196 C 
BRANCH  48  49
ATOM     49  C   UNL     1      13.388  12.740  -4.247  1.00  0.00     0.072 C 
BRANCH  49  50
ATOM     50  C   UNL     1      12.449  13.031  -5.396  1.00  0.00    -0.045 A 
ATOM     51  C   UNL     1      12.016  14.345  -5.628  1.00  0.00     0.007 A 
ATOM     52  C   UNL     1      11.984  12.003  -6.225  1.00  0.00     0.007 A 
ATOM     53  C   UNL     1      11.139  14.624  -6.677  1.00  0.00     0.046 A 
ATOM     54  C   UNL     1      11.106  12.282  -7.275  1.00  0.00     0.046 A 
ATOM     55  C   UNL     1      10.691  13.591  -7.492  1.00  0.00     0.115 A 
BRANCH  55  56
ATOM     56  O   UNL     1       9.834  13.906  -8.505  1.00  0.00    -0.508 OA
ATOM     57  H   UNL     1       9.767  13.140  -9.097  1.00  0.00     0.293 HD
ENDBRANCH  55  56
ENDBRANCH  49  50
ENDBRANCH  48  49
BRANCH  48  58
ATOM     58  C   UNL     1      14.025  11.114  -2.443  1.00  0.00     0.326 C 
ATOM     59  O   UNL     1      14.043  11.083  -1.223  1.00  0.00    -0.250 OA
BRANCH  58  60
ATOM     60  O   UNL     1      15.105  10.666  -3.132  1.00  0.00    -0.480 OA
ATOM     61  H   UNL     1      15.768  11.379  -3.001  1.00  0.00     0.296 HD
ENDBRANCH  58  60
ENDBRANCH  48  58
ENDBRANCH  46  48
ENDBRANCH  34  44
ENDBRANCH  32  34
ENDBRANCH  25  30
ENDBRANCH  23  25
ENDBRANCH   2  23
TORSDOF 28
ENDMDL
MODEL 7
REMARK VINA RESULT:    -5.835      2.137      5.006
REMARK INTER + INTRA:         -18.934
REMARK INTER:                 -13.994
REMARK INTRA:                  -4.940
REMARK UNBOUND:                -4.402
REMARK SMILES CCCCCCC[C@H](N)[C@H](O)C(=O)N[C@H](C)C(=O)N(C)[C@H](CC(C)C)C(=O)N[C@@H](Cc1ccc(O)cc1)C(=O)N[C@@H](Cc1ccc(O)cc1)C(=O)O
REMARK SMILES IDX 18 1 17 2 15 3 16 4 14 5 12 6 13 7 10 9 11 10 8 12 9 13 7 16
REMARK SMILES IDX 6 17 5 18 4 19 3 20 2 21 1 22 19 23 20 24 21 25 22 26 23 27
REMARK SMILES IDX 24 28 25 29 26 30 27 31 28 32 29 34 30 35 31 36 32 37 37 38
REMARK SMILES IDX 33 39 36 40 34 41 35 42 38 44 39 45 40 46 41 48 42 49 43 50
REMARK SMILES IDX 44 51 49 52 45 53 48 54 46 55 47 56 50 58 51 59 52 60
REMARK H PARENT 14 8 11 11 9 14 9 15 28 33 35 43 40 47 47 57 52 61
ROOT
ATOM      1  O   UNL     1       9.548  11.242   0.994  1.00  0.00    -0.272 OA
ATOM      2  C   UNL     1       8.491  11.748   1.400  1.00  0.00     0.245 C 
ENDROOT
BRANCH   2   3
ATOM      3  C   UNL     1       7.157  11.024   1.091  1.00  0.00     0.168 C 
ATOM      4  C   UNL     1       6.997  10.801  -0.409  1.00  0.00     0.041 C 
BRANCH   3   5
ATOM      5  N   UNL     1       6.936   9.802   1.848  1.00  0.00    -0.342 N 
ATOM      6  C   UNL     1       5.704   9.491   2.385  1.00  0.00     0.251 C 
ATOM      7  O   UNL     1       4.726  10.227   2.304  1.00  0.00    -0.272 OA
ATOM      8  H   UNL     1       7.682   9.130   2.011  1.00  0.00     0.164 HD
BRANCH   6   9
ATOM      9  C   UNL     1       5.668   8.091   3.017  1.00  0.00     0.219 C 
BRANCH   9  10
ATOM     10  O   UNL     1       6.669   7.217   2.481  1.00  0.00    -0.382 OA
ATOM     11  H   UNL     1       6.922   7.646   1.635  1.00  0.00     0.211 HD
ENDBRANCH   9  10
BRANCH   9  12
ATOM     12  C   UNL     1       5.733   8.120   4.566  1.00  0.00     0.089 C 
BRANCH  12  13
ATOM     13  N   UNL     1       6.496   9.320   4.979  1.00  0.00    -0.325 NA
ATOM     14  H   UNL     1       6.073  10.148   4.557  1.00  0.00     0.119 HD
ATOM     15  H   UNL     1       7.437   9.268   4.580  1.00  0.00     0.119 HD
ENDBRANCH  12  13
BRANCH  12  16
ATOM     16  C   UNL     1       4.374   8.075   5.303  1.00  0.00     0.022 C 
BRANCH  16  17
ATOM     17  C   UNL     1       3.616   9.386   5.553  1.00  0.00     0.002 C 
BRANCH  17  18
ATOM     18  C   UNL     1       3.504   9.796   7.020  1.00  0.00     0.000 C 
BRANCH  18  19
ATOM     19  C   UNL     1       3.545   8.619   8.003  1.00  0.00    -0.000 C 
BRANCH  19  20
ATOM     20  C   UNL     1       2.176   8.075   8.423  1.00  0.00    -0.000 C 
BRANCH  20  21
ATOM     21  C   UNL     1       2.025   6.572   8.171  1.00  0.00    -0.003 C 
ATOM     22  C   UNL     1       3.259   5.807   8.622  1.00  0.00     0.004 C 
ENDBRANCH  20  21
ENDBRANCH  19  20
ENDBRANCH  18  19
ENDBRANCH  17  18
ENDBRANCH  16  17
ENDBRANCH  12  16
ENDBRANCH   9  12
ENDBRANCH   6   9
ENDBRANCH   3   5
ENDBRANCH   2   3
BRANCH   2  23
ATOM     23  N   UNL     1       8.527  12.873   2.217  1.00  0.00    -0.332 N 
ATOM     24  C   UNL     1       8.267  12.862   3.649  1.00  0.00     0.147 C 
BRANCH  23  25
ATOM     25  C   UNL     1       8.975  14.184   1.671  1.00  0.00     0.174 C 
BRANCH  25  26
ATOM     26  C   UNL     1       8.558  14.397   0.197  1.00  0.00     0.038 C 
BRANCH  26  27
ATOM     27  C   UNL     1       9.682  14.346  -0.863  1.00  0.00    -0.015 C 
ATOM     28  C   UNL     1       9.459  13.244  -1.899  1.00  0.00     0.007 C 
ATOM     29  C   UNL     1       9.930  15.687  -1.549  1.00  0.00     0.007 C 
ENDBRANCH  26  27
ENDBRANCH  25  26
BRANCH  25  30
ATOM     30  C   UNL     1      10.488  14.376   1.923  1.00  0.00     0.243 C 
ATOM     31  O   UNL     1      11.004  15.492   1.960  1.00  0.00    -0.273 OA
ATOM     32  N   UNL     1      11.212  13.224   2.095  1.00  0.00    -0.342 N 
ATOM     33  H   UNL     1      10.692  12.348   2.192  1.00  0.00     0.164 HD
BRANCH  32  34
ATOM     34  C   UNL     1      12.660  13.213   2.317  1.00  0.00     0.175 C 
BRANCH  34  35
ATOM     35  C   UNL     1      13.055  12.175   3.379  1.00  0.00     0.070 C 
BRANCH  35  36
ATOM     36  C   UNL     1      12.008  11.100   3.563  1.00  0.00    -0.045 A 
ATOM     37  C   UNL     1      11.090  11.189   4.620  1.00  0.00     0.007 A 
ATOM     38  C   UNL     1      11.953   9.995   2.704  1.00  0.00     0.007 A 
ATOM     39  C   UNL     1      10.129  10.195   4.807  1.00  0.00     0.046 A 
ATOM     40  C   UNL     1      10.992   8.999   2.891  1.00  0.00     0.046 A 
ATOM     41  C   UNL     1      10.087   9.109   3.941  1.00  0.00     0.115 A 
BRANCH  41  42
ATOM     42  O   UNL     1       9.135   8.158   4.160  1.00  0.00    -0.508 OA
ATOM     43  H   UNL     1       9.177   7.893   5.094  1.00  0.00     0.293 HD
ENDBRANCH  41  42
ENDBRANCH  35  36
ENDBRANCH  34  35
BRANCH  34  44
ATOM     44  C   UNL     1      13.350  12.942   0.961  1.00  0.00     0.243 C 
ATOM     45  O   UNL     1      13.848  11.867   0.638  1.00  0.00    -0.273 OA
ATOM     46  N   UNL     1      13.478  14.069   0.176  1.00  0.00    -0.341 N 
ATOM     47  H   UNL     1      13.154  14.962   0.537  1.00  0.00     0.164 HD
BRANCH  46  48
ATOM     48  C   UNL     1      14.158  14.074  -1.122  1.00  0.00     0.196 C 
BRANCH  48  49
ATOM     49  C   UNL     1      13.149  14.144  -2.281  1.00  0.00     0.072 C 
BRANCH  49  50
ATOM     50  C   UNL     1      13.299  12.994  -3.252  1.00  0.00    -0.045 A 
ATOM     51  C   UNL     1      14.514  12.298  -3.330  1.00  0.00     0.007 A 
ATOM     52  C   UNL     1      12.244  12.621  -4.096  1.00  0.00     0.007 A 
ATOM     53  C   UNL     1      14.668  11.245  -4.231  1.00  0.00     0.046 A 
ATOM     54  C   UNL     1      12.399  11.567  -4.999  1.00  0.00     0.046 A 
ATOM     55  C   UNL     1      13.610  10.886  -5.058  1.00  0.00     0.115 A 
BRANCH  55  56
ATOM     56  O   UNL     1      13.801   9.852  -5.926  1.00  0.00    -0.508 OA
ATOM     57  H   UNL     1      13.710  10.191  -6.830  1.00  0.00     0.293 HD
ENDBRANCH  55  56
ENDBRANCH  49  50
ENDBRANCH  48  49
BRANCH  48  58
ATOM     58  C   UNL     1      15.101  15.283  -1.187  1.00  0.00     0.326 C 
ATOM     59  O   UNL     1      15.918  15.629  -0.348  1.00  0.00    -0.250 OA
BRANCH  58  60
ATOM     60  O   UNL     1      14.981  16.002  -2.331  1.00  0.00    -0.480 OA
ATOM     61  H   UNL     1      15.722  15.673  -2.884  1.00  0.00     0.296 HD
ENDBRANCH  58  60
ENDBRANCH  48  58
ENDBRANCH  46  48
ENDBRANCH  34  44
ENDBRANCH  32  34
ENDBRANCH  25  30
ENDBRANCH  23  25
ENDBRANCH   2  23
TORSDOF 28
ENDMDL
MODEL 8
REMARK VINA RESULT:    -5.823      3.696     11.800
REMARK INTER + INTRA:         -18.905
REMARK INTER:                 -15.737
REMARK INTRA:                  -3.168
REMARK UNBOUND:                -4.402
REMARK SMILES CCCCCCC[C@H](N)[C@H](O)C(=O)N[C@H](C)C(=O)N(C)[C@H](CC(C)C)C(=O)N[C@@H](Cc1ccc(O)cc1)C(=O)N[C@@H](Cc1ccc(O)cc1)C(=O)O
REMARK SMILES IDX 18 1 17 2 15 3 16 4 14 5 12 6 13 7 10 9 11 10 8 12 9 13 7 16
REMARK SMILES IDX 6 17 5 18 4 19 3 20 2 21 1 22 19 23 20 24 21 25 22 26 23 27
REMARK SMILES IDX 24 28 25 29 26 30 27 31 28 32 29 34 30 35 31 36 32 37 37 38
REMARK SMILES IDX 33 39 36 40 34 41 35 42 38 44 39 45 40 46 41 48 42 49 43 50
REMARK SMILES IDX 44 51 49 52 45 53 48 54 46 55 47 56 50 58 51 59 52 60
REMARK H PARENT 14 8 11 11 9 14 9 15 28 33 35 43 40 47 47 57 52 61
ROOT
ATOM      1  O   UNL     1       9.417   8.272   2.522  1.00  0.00    -0.272 OA
ATOM      2  C   UNL     1       9.319   9.008   3.515  1.00  0.00     0.245 C 
ENDROOT
BRANCH   2   3
ATOM      3  C   UNL     1      10.479   9.025   4.542  1.00  0.00     0.168 C 
ATOM      4  C   UNL     1      10.756   7.622   5.069  1.00  0.00     0.041 C 
BRANCH   3   5
ATOM      5  N   UNL     1      11.693   9.680   4.081  1.00  0.00    -0.342 N 
ATOM      6  C   UNL     1      11.955  11.005   4.358  1.00  0.00     0.251 C 
ATOM      7  O   UNL     1      11.180  11.735   4.967  1.00  0.00    -0.272 OA
ATOM      8  H   UNL     1      12.396   9.186   3.537  1.00  0.00     0.164 HD
BRANCH   6   9
ATOM      9  C   UNL     1      13.355  11.443   3.898  1.00  0.00     0.219 C 
BRANCH   9  10
ATOM     10  O   UNL     1      14.214  10.333   3.608  1.00  0.00    -0.382 OA
ATOM     11  H   UNL     1      14.220  10.296   2.627  1.00  0.00     0.211 HD
ENDBRANCH   9  10
BRANCH   9  12
ATOM     12  C   UNL     1      13.322  12.439   2.709  1.00  0.00     0.089 C 
BRANCH  12  13
ATOM     13  N   UNL     1      14.520  12.205   1.870  1.00  0.00    -0.325 NA
ATOM     14  H   UNL     1      14.473  11.265   1.472  1.00  0.00     0.119 HD
ATOM     15  H   UNL     1      15.348  12.199   2.470  1.00  0.00     0.119 HD
ENDBRANCH  12  13
BRANCH  12  16
ATOM     16  C   UNL     1      12.046  12.408   1.835  1.00  0.00     0.022 C 
BRANCH  16  17
ATOM     17  C   UNL     1      12.130  11.843   0.410  1.00  0.00     0.002 C 
BRANCH  17  18
ATOM     18  C   UNL     1      10.963  10.947   0.002  1.00  0.00     0.000 C 
BRANCH  18  19
ATOM     19  C   UNL     1      11.092  10.357  -1.409  1.00  0.00    -0.000 C 
BRANCH  19  20
ATOM     20  C   UNL     1      12.387  10.711  -2.145  1.00  0.00    -0.000 C 
BRANCH  20  21
ATOM     21  C   UNL     1      12.144  11.439  -3.470  1.00  0.00    -0.003 C 
ATOM     22  C   UNL     1      10.675  11.405  -3.859  1.00  0.00     0.004 C 
ENDBRANCH  20  21
ENDBRANCH  19  20
ENDBRANCH  18  19
ENDBRANCH  17  18
ENDBRANCH  16  17
ENDBRANCH  12  16
ENDBRANCH   9  12
ENDBRANCH   6   9
ENDBRANCH   3   5
ENDBRANCH   2   3
BRANCH   2  23
ATOM     23  N   UNL     1       8.246   9.885   3.628  1.00  0.00    -0.332 N 
ATOM     24  C   UNL     1       8.061  11.074   2.809  1.00  0.00     0.147 C 
BRANCH  23  25
ATOM     25  C   UNL     1       7.115   9.574   4.545  1.00  0.00     0.174 C 
BRANCH  25  26
ATOM     26  C   UNL     1       5.733   9.705   3.864  1.00  0.00     0.038 C 
BRANCH  26  27
ATOM     27  C   UNL     1       5.069   8.400   3.370  1.00  0.00    -0.015 C 
ATOM     28  C   UNL     1       3.687   8.640   2.763  1.00  0.00     0.007 C 
ATOM     29  C   UNL     1       5.945   7.598   2.411  1.00  0.00     0.007 C 
ENDBRANCH  26  27
ENDBRANCH  25  26
BRANCH  25  30
ATOM     30  C   UNL     1       7.246  10.396   5.848  1.00  0.00     0.243 C 
ATOM     31  O   UNL     1       8.319  10.877   6.208  1.00  0.00    -0.273 OA
ATOM     32  N   UNL     1       6.092  10.545   6.574  1.00  0.00    -0.342 N 
ATOM     33  H   UNL     1       5.217  10.239   6.140  1.00  0.00     0.164 HD
BRANCH  32  34
ATOM     34  C   UNL     1       6.033  11.269   7.846  1.00  0.00     0.175 C 
BRANCH  34  35
ATOM     35  C   UNL     1       5.503  12.698   7.653  1.00  0.00     0.070 C 
BRANCH  35  36
ATOM     36  C   UNL     1       6.584  13.746   7.794  1.00  0.00    -0.045 A 
ATOM     37  C   UNL     1       7.375  14.091   6.688  1.00  0.00     0.007 A 
ATOM     38  C   UNL     1       6.826  14.368   9.026  1.00  0.00     0.007 A 
ATOM     39  C   UNL     1       8.384  15.047   6.811  1.00  0.00     0.046 A 
ATOM     40  C   UNL     1       7.837  15.324   9.151  1.00  0.00     0.046 A 
ATOM     41  C   UNL     1       8.606  15.656   8.040  1.00  0.00     0.115 A 
BRANCH  41  42
ATOM     42  O   UNL     1       9.603  16.583   8.120  1.00  0.00    -0.508 OA
ATOM     43  H   UNL     1      10.043  16.632   7.254  1.00  0.00     0.293 HD
ENDBRANCH  41  42
ENDBRANCH  35  36
ENDBRANCH  34  35
BRANCH  34  44
ATOM     44  C   UNL     1       5.152  10.454   8.820  1.00  0.00     0.243 C 
ATOM     45  O   UNL     1       5.508  10.088   9.937  1.00  0.00    -0.273 OA
ATOM     46  N   UNL     1       3.954  10.051   8.270  1.00  0.00    -0.341 N 
ATOM     47  H   UNL     1       3.754  10.281   7.300  1.00  0.00     0.164 HD
BRANCH  46  48
ATOM     48  C   UNL     1       2.984   9.212   8.977  1.00  0.00     0.196 C 
BRANCH  48  49
ATOM     49  C   UNL     1       1.561   9.418   8.430  1.00  0.00     0.072 C 
BRANCH  49  50
ATOM     50  C   UNL     1       0.712  10.288   9.328  1.00  0.00    -0.045 A 
ATOM     51  C   UNL     1      -0.323  11.060   8.780  1.00  0.00     0.007 A 
ATOM     52  C   UNL     1       0.955  10.355  10.706  1.00  0.00     0.007 A 
ATOM     53  C   UNL     1      -1.104  11.876   9.597  1.00  0.00     0.046 A 
ATOM     54  C   UNL     1       0.173  11.173  11.524  1.00  0.00     0.046 A 
ATOM     55  C   UNL     1      -0.851  11.927  10.962  1.00  0.00     0.115 A 
BRANCH  55  56
ATOM     56  O   UNL     1      -1.637  12.739  11.725  1.00  0.00    -0.508 OA
ATOM     57  H   UNL     1      -1.735  12.334  12.602  1.00  0.00     0.293 HD
ENDBRANCH  55  56
ENDBRANCH  49  50
ENDBRANCH  48  49
BRANCH  48  58
ATOM     58  C   UNL     1       3.388   7.740   8.820  1.00  0.00     0.326 C 
ATOM     59  O   UNL     1       3.696   6.959   9.706  1.00  0.00    -0.250 OA
BRANCH  58  60
ATOM     60  O   UNL     1       3.372   7.309   7.533  1.00  0.00    -0.480 OA
ATOM     61  H   UNL     1       2.808   7.973   7.080  1.00  0.00     0.296 HD
ENDBRANCH  58  60
ENDBRANCH  48  58
ENDBRANCH  46  48
ENDBRANCH  34  44
ENDBRANCH  32  34
ENDBRANCH  25  30
ENDBRANCH  23  25
ENDBRANCH   2  23
TORSDOF 28
ENDMDL
MODEL 9
REMARK VINA RESULT:    -5.812      4.087     12.419
REMARK INTER + INTRA:         -18.878
REMARK INTER:                 -14.277
REMARK INTRA:                  -4.601
REMARK UNBOUND:                -4.402
REMARK SMILES CCCCCCC[C@H](N)[C@H](O)C(=O)N[C@H](C)C(=O)N(C)[C@H](CC(C)C)C(=O)N[C@@H](Cc1ccc(O)cc1)C(=O)N[C@@H](Cc1ccc(O)cc1)C(=O)O
REMARK SMILES IDX 18 1 17 2 15 3 16 4 14 5 12 6 13 7 10 9 11 10 8 12 9 13 7 16
REMARK SMILES IDX 6 17 5 18 4 19 3 20 2 21 1 22 19 23 20 24 21 25 22 26 23 27
REMARK SMILES IDX 24 28 25 29 26 30 27 31 28 32 29 34 30 35 31 36 32 37 37 38
REMARK SMILES IDX 33 39 36 40 34 41 35 42 38 44 39 45 40 46 41 48 42 49 43 50
REMARK SMILES IDX 44 51 49 52 45 53 48 54 46 55 47 56 50 58 51 59 52 60
REMARK H PARENT 14 8 11 11 9 14 9 15 28 33 35 43 40 47 47 57 52 61
ROOT
ATOM      1  O   UNL     1       8.902   8.438   2.766  1.00  0.00    -0.272 OA
ATOM      2  C   UNL     1       8.913   9.177   3.762  1.00  0.00     0.245 C 
ENDROOT
BRANCH   2   3
ATOM      3  C   UNL     1      10.173   9.185   4.663  1.00  0.00     0.168 C 
ATOM      4  C   UNL     1      10.535   7.770   5.101  1.00  0.00     0.041 C 
BRANCH   3   5
ATOM      5  N   UNL     1      11.317   9.890   4.107  1.00  0.00    -0.342 N 
ATOM      6  C   UNL     1      11.539  11.228   4.356  1.00  0.00     0.251 C 
ATOM      7  O   UNL     1      10.781  11.928   5.019  1.00  0.00    -0.272 OA
ATOM      8  H   UNL     1      11.998   9.423   3.513  1.00  0.00     0.164 HD
BRANCH   6   9
ATOM      9  C   UNL     1      12.879  11.724   3.788  1.00  0.00     0.219 C 
BRANCH   9  10
ATOM     10  O   UNL     1      13.968  10.843   4.091  1.00  0.00    -0.382 OA
ATOM     11  H   UNL     1      14.747  11.441   4.120  1.00  0.00     0.211 HD
ENDBRANCH   9  10
BRANCH   9  12
ATOM     12  C   UNL     1      12.821  12.025   2.267  1.00  0.00     0.089 C 
BRANCH  12  13
ATOM     13  N   UNL     1      12.243  10.848   1.579  1.00  0.00    -0.325 NA
ATOM     14  H   UNL     1      11.296  10.686   1.928  1.00  0.00     0.119 HD
ATOM     15  H   UNL     1      12.772  10.015   1.848  1.00  0.00     0.119 HD
ENDBRANCH  12  13
BRANCH  12  16
ATOM     16  C   UNL     1      12.057  13.308   1.859  1.00  0.00     0.022 C 
BRANCH  16  17
ATOM     17  C   UNL     1      12.736  14.315   0.921  1.00  0.00     0.002 C 
BRANCH  17  18
ATOM     18  C   UNL     1      13.827  13.729   0.027  1.00  0.00     0.000 C 
BRANCH  18  19
ATOM     19  C   UNL     1      13.305  13.142  -1.292  1.00  0.00    -0.000 C 
BRANCH  19  20
ATOM     20  C   UNL     1      13.666  11.674  -1.538  1.00  0.00    -0.000 C 
BRANCH  20  21
ATOM     21  C   UNL     1      12.491  10.849  -2.068  1.00  0.00    -0.003 C 
ATOM     22  C   UNL     1      11.163  11.540  -1.803  1.00  0.00     0.004 C 
ENDBRANCH  20  21
ENDBRANCH  19  20
ENDBRANCH  18  19
ENDBRANCH  17  18
ENDBRANCH  16  17
ENDBRANCH  12  16
ENDBRANCH   9  12
ENDBRANCH   6   9
ENDBRANCH   3   5
ENDBRANCH   2   3
BRANCH   2  23
ATOM     23  N   UNL     1       7.864  10.063   3.982  1.00  0.00    -0.332 N 
ATOM     24  C   UNL     1       7.674  11.313   3.262  1.00  0.00     0.147 C 
BRANCH  23  25
ATOM     25  C   UNL     1       6.764   9.705   4.919  1.00  0.00     0.174 C 
BRANCH  25  26
ATOM     26  C   UNL     1       5.361   9.850   4.284  1.00  0.00     0.038 C 
BRANCH  26  27
ATOM     27  C   UNL     1       4.624   8.545   3.910  1.00  0.00    -0.015 C 
ATOM     28  C   UNL     1       3.869   7.940   5.094  1.00  0.00     0.007 C 
ATOM     29  C   UNL     1       3.700   8.694   2.704  1.00  0.00     0.007 C 
ENDBRANCH  26  27
ENDBRANCH  25  26
BRANCH  25  30
ATOM     30  C   UNL     1       6.926  10.476   6.249  1.00  0.00     0.243 C 
ATOM     31  O   UNL     1       7.956  11.092   6.523  1.00  0.00    -0.273 OA
ATOM     32  N   UNL     1       5.853  10.422   7.101  1.00  0.00    -0.342 N 
ATOM     33  H   UNL     1       4.986  10.012   6.745  1.00  0.00     0.164 HD
BRANCH  32  34
ATOM     34  C   UNL     1       5.839  11.069   8.416  1.00  0.00     0.175 C 
BRANCH  34  35
ATOM     35  C   UNL     1       5.584  12.579   8.292  1.00  0.00     0.070 C 
BRANCH  35  36
ATOM     36  C   UNL     1       4.147  12.904   7.953  1.00  0.00    -0.045 A 
ATOM     37  C   UNL     1       3.695  12.786   6.630  1.00  0.00     0.007 A 
ATOM     38  C   UNL     1       3.257  13.345   8.941  1.00  0.00     0.007 A 
ATOM     39  C   UNL     1       2.374  13.097   6.305  1.00  0.00     0.046 A 
ATOM     40  C   UNL     1       1.935  13.658   8.616  1.00  0.00     0.046 A 
ATOM     41  C   UNL     1       1.505  13.529   7.299  1.00  0.00     0.115 A 
BRANCH  41  42
ATOM     42  O   UNL     1       0.224  13.825   6.939  1.00  0.00    -0.508 OA
ATOM     43  H   UNL     1      -0.360  13.611   7.685  1.00  0.00     0.293 HD
ENDBRANCH  41  42
ENDBRANCH  35  36
ENDBRANCH  34  35
BRANCH  34  44
ATOM     44  C   UNL     1       4.767  10.371   9.282  1.00  0.00     0.243 C 
ATOM     45  O   UNL     1       4.754  10.378  10.510  1.00  0.00    -0.273 OA
ATOM     46  N   UNL     1       3.876   9.616   8.549  1.00  0.00    -0.341 N 
ATOM     47  H   UNL     1       3.998   9.548   7.542  1.00  0.00     0.164 HD
BRANCH  46  48
ATOM     48  C   UNL     1       2.813   8.810   9.155  1.00  0.00     0.196 C 
BRANCH  48  49
ATOM     49  C   UNL     1       1.444   9.131   8.533  1.00  0.00     0.072 C 
BRANCH  49  50
ATOM     50  C   UNL     1       0.656  10.134   9.345  1.00  0.00    -0.045 A 
ATOM     51  C   UNL     1       0.996  10.369  10.686  1.00  0.00     0.007 A 
ATOM     52  C   UNL     1      -0.428  10.822   8.786  1.00  0.00     0.007 A 
ATOM     53  C   UNL     1       0.269  11.282  11.449  1.00  0.00     0.046 A 
ATOM     54  C   UNL     1      -1.157  11.736   9.550  1.00  0.00     0.046 A 
ATOM     55  C   UNL     1      -0.801  11.959  10.876  1.00  0.00     0.115 A 
BRANCH  55  56
ATOM     56  O   UNL     1      -1.488  12.842  11.656  1.00  0.00    -0.508 OA
ATOM     57  H   UNL     1      -2.187  12.357  12.124  1.00  0.00     0.293 HD
ENDBRANCH  55  56
ENDBRANCH  49  50
ENDBRANCH  48  49
BRANCH  48  58
ATOM     58  C   UNL     1       3.136   7.323   8.951  1.00  0.00     0.326 C 
ATOM     59  O   UNL     1       3.982   6.664   9.533  1.00  0.00    -0.250 OA
BRANCH  58  60
ATOM     60  O   UNL     1       2.354   6.723   8.019  1.00  0.00    -0.480 OA
ATOM     61  H   UNL     1       1.870   7.474   7.613  1.00  0.00     0.296 HD
ENDBRANCH  58  60
ENDBRANCH  48  58
ENDBRANCH  46  48
ENDBRANCH  34  44
ENDBRANCH  32  34
ENDBRANCH  25  30
ENDBRANCH  23  25
ENDBRANCH   2  23
TORSDOF 28
ENDMDL
MODEL 10
REMARK VINA RESULT:    -5.682      1.461      2.175
REMARK INTER + INTRA:         -18.554
REMARK INTER:                 -13.216
REMARK INTRA:                  -5.337
REMARK UNBOUND:                -4.402
REMARK SMILES CCCCCCC[C@H](N)[C@H](O)C(=O)N[C@H](C)C(=O)N(C)[C@H](CC(C)C)C(=O)N[C@@H](Cc1ccc(O)cc1)C(=O)N[C@@H](Cc1ccc(O)cc1)C(=O)O
REMARK SMILES IDX 18 1 17 2 15 3 16 4 14 5 12 6 13 7 10 9 11 10 8 12 9 13 7 16
REMARK SMILES IDX 6 17 5 18 4 19 3 20 2 21 1 22 19 23 20 24 21 25 22 26 23 27
REMARK SMILES IDX 24 28 25 29 26 30 27 31 28 32 29 34 30 35 31 36 32 37 37 38
REMARK SMILES IDX 33 39 36 40 34 41 35 42 38 44 39 45 40 46 41 48 42 49 43 50
REMARK SMILES IDX 44 51 49 52 45 53 48 54 46 55 47 56 50 58 51 59 52 60
REMARK H PARENT 14 8 11 11 9 14 9 15 28 33 35 43 40 47 47 57 52 61
ROOT
ATOM      1  O   UNL     1      10.202   9.801   1.811  1.00  0.00    -0.272 OA
ATOM      2  C   UNL     1      10.419   9.540   3.004  1.00  0.00     0.245 C 
ENDROOT
BRANCH   2   3
ATOM      3  C   UNL     1       9.488   8.533   3.724  1.00  0.00     0.168 C 
ATOM      4  C   UNL     1      10.060   8.143   5.082  1.00  0.00     0.041 C 
BRANCH   3   5
ATOM      5  N   UNL     1       8.097   8.948   3.820  1.00  0.00    -0.342 N 
ATOM      6  C   UNL     1       7.156   8.560   2.890  1.00  0.00     0.251 C 
ATOM      7  O   UNL     1       7.420   7.881   1.903  1.00  0.00    -0.272 OA
ATOM      8  H   UNL     1       7.766   9.541   4.577  1.00  0.00     0.164 HD
BRANCH   6   9
ATOM      9  C   UNL     1       5.731   8.995   3.269  1.00  0.00     0.219 C 
BRANCH   9  10
ATOM     10  O   UNL     1       5.171   9.926   2.335  1.00  0.00    -0.382 OA
ATOM     11  H   UNL     1       4.268  10.089   2.686  1.00  0.00     0.211 HD
ENDBRANCH   9  10
BRANCH   9  12
ATOM     12  C   UNL     1       4.770   7.799   3.499  1.00  0.00     0.089 C 
BRANCH  12  13
ATOM     13  N   UNL     1       5.580   6.608   3.841  1.00  0.00    -0.325 NA
ATOM     14  H   UNL     1       6.572   6.850   3.793  1.00  0.00     0.119 HD
ATOM     15  H   UNL     1       5.444   5.896   3.119  1.00  0.00     0.119 HD
ENDBRANCH  12  13
BRANCH  12  16
ATOM     16  C   UNL     1       3.664   8.013   4.560  1.00  0.00     0.022 C 
BRANCH  16  17
ATOM     17  C   UNL     1       3.948   7.638   6.021  1.00  0.00     0.002 C 
BRANCH  17  18
ATOM     18  C   UNL     1       3.475   8.661   7.052  1.00  0.00     0.000 C 
BRANCH  18  19
ATOM     19  C   UNL     1       2.200   8.249   7.800  1.00  0.00    -0.000 C 
BRANCH  19  20
ATOM     20  C   UNL     1       1.992   6.739   7.949  1.00  0.00    -0.000 C 
BRANCH  20  21
ATOM     21  C   UNL     1       2.706   6.153   9.169  1.00  0.00    -0.003 C 
ATOM     22  C   UNL     1       3.678   5.054   8.769  1.00  0.00     0.004 C 
ENDBRANCH  20  21
ENDBRANCH  19  20
ENDBRANCH  18  19
ENDBRANCH  17  18
ENDBRANCH  16  17
ENDBRANCH  12  16
ENDBRANCH   9  12
ENDBRANCH   6   9
ENDBRANCH   3   5
ENDBRANCH   2   3
BRANCH   2  23
ATOM     23  N   UNL     1      11.549  10.052   3.633  1.00  0.00    -0.332 N 
ATOM     24  C   UNL     1      12.871   9.446   3.577  1.00  0.00     0.147 C 
BRANCH  23  25
ATOM     25  C   UNL     1      11.493  11.371   4.322  1.00  0.00     0.174 C 
BRANCH  25  26
ATOM     26  C   UNL     1      10.166  11.595   5.084  1.00  0.00     0.038 C 
BRANCH  26  27
ATOM     27  C   UNL     1       9.327  12.828   4.681  1.00  0.00    -0.015 C 
ATOM     28  C   UNL     1       8.124  12.458   3.813  1.00  0.00     0.007 C 
ATOM     29  C   UNL     1       8.890  13.681   5.870  1.00  0.00     0.007 C 
ENDBRANCH  26  27
ENDBRANCH  25  26
BRANCH  25  30
ATOM     30  C   UNL     1      11.840  12.505   3.330  1.00  0.00     0.243 C 
ATOM     31  O   UNL     1      12.450  13.513   3.683  1.00  0.00    -0.273 OA
ATOM     32  N   UNL     1      11.417  12.314   2.040  1.00  0.00    -0.342 N 
ATOM     33  H   UNL     1      11.044  11.394   1.795  1.00  0.00     0.164 HD
BRANCH  32  34
ATOM     34  C   UNL     1      11.633  13.295   0.973  1.00  0.00     0.175 C 
BRANCH  34  35
ATOM     35  C   UNL     1      12.986  13.076   0.278  1.00  0.00     0.070 C 
BRANCH  35  36
ATOM     36  C   UNL     1      13.377  14.230  -0.617  1.00  0.00    -0.045 A 
ATOM     37  C   UNL     1      13.195  14.136  -2.005  1.00  0.00     0.007 A 
ATOM     38  C   UNL     1      13.945  15.394  -0.082  1.00  0.00     0.007 A 
ATOM     39  C   UNL     1      13.565  15.190  -2.840  1.00  0.00     0.046 A 
ATOM     40  C   UNL     1      14.318  16.450  -0.918  1.00  0.00     0.046 A 
ATOM     41  C   UNL     1      14.123  16.338  -2.290  1.00  0.00     0.115 A 
BRANCH  41  42
ATOM     42  O   UNL     1      14.474  17.344  -3.141  1.00  0.00    -0.508 OA
ATOM     43  H   UNL     1      15.143  17.001  -3.758  1.00  0.00     0.293 HD
ENDBRANCH  41  42
ENDBRANCH  35  36
ENDBRANCH  34  35
BRANCH  34  44
ATOM     44  C   UNL     1      10.452  13.191  -0.019  1.00  0.00     0.243 C 
ATOM     45  O   UNL     1       9.835  14.154  -0.466  1.00  0.00    -0.273 OA
ATOM     46  N   UNL     1      10.055  11.894  -0.266  1.00  0.00    -0.341 N 
ATOM     47  H   UNL     1      10.523  11.133   0.220  1.00  0.00     0.164 HD
BRANCH  46  48
ATOM     48  C   UNL     1       8.915  11.549  -1.119  1.00  0.00     0.196 C 
BRANCH  48  49
ATOM     49  C   UNL     1       9.358  10.722  -2.337  1.00  0.00     0.072 C 
BRANCH  49  50
ATOM     50  C   UNL     1      10.171  11.529  -3.324  1.00  0.00    -0.045 A 
ATOM     51  C   UNL     1       9.708  12.782  -3.752  1.00  0.00     0.007 A 
ATOM     52  C   UNL     1      11.377  11.035  -3.839  1.00  0.00     0.007 A 
ATOM     53  C   UNL     1      10.443  13.529  -4.672  1.00  0.00     0.046 A 
ATOM     54  C   UNL     1      12.112  11.783  -4.761  1.00  0.00     0.046 A 
ATOM     55  C   UNL     1      11.639  13.026  -5.169  1.00  0.00     0.115 A 
BRANCH  55  56
ATOM     56  O   UNL     1      12.325  13.787  -6.068  1.00  0.00    -0.508 OA
ATOM     57  H   UNL     1      12.093  14.717  -5.922  1.00  0.00     0.293 HD
ENDBRANCH  55  56
ENDBRANCH  49  50
ENDBRANCH  48  49
BRANCH  48  58
ATOM     58  C   UNL     1       7.900  10.747  -0.293  1.00  0.00     0.326 C 
ATOM     59  O   UNL     1       6.934  11.180   0.314  1.00  0.00    -0.250 OA
BRANCH  58  60
ATOM     60  O   UNL     1       8.143   9.412  -0.284  1.00  0.00    -0.480 OA
ATOM     61  H   UNL     1       8.586   9.257  -1.146  1.00  0.00     0.296 HD
ENDBRANCH  58  60
ENDBRANCH  48  58
ENDBRANCH  46  48
ENDBRANCH  34  44
ENDBRANCH  32  34
ENDBRANCH  25  30
ENDBRANCH  23  25
ENDBRANCH   2  23
TORSDOF 28
ENDMDL
