MODEL 1
REMARK VINA RESULT:    -6.520      0.000      0.000
REMARK INTER + INTRA:         -13.905
REMARK INTER:                 -11.666
REMARK INTRA:                  -2.239
REMARK UNBOUND:                -2.239
REMARK SMILES CC[C@H](C)[C@H]1NC(=O)c2coc(n2)[C@H](C(C)C)NC(=O)[C@H]([C@@H](C)O)NC(=O)[C@H](C)NC(=O)c2csc1n2
REMARK SMILES IDX 11 1 13 2 12 3 9 4 10 5 7 6 6 7 8 8 5 10 36 11 35 12 34 13
REMARK SMILES IDX 37 14 33 15 31 16 32 17 30 18 28 20 29 21 3 23 4 24 2 25
REMARK SMILES IDX 1 26 14 27 18 28 19 29 20 30 21 32 25 33 26 34 27 35 22 38
REMARK SMILES IDX 23 39 24 40 15 42 16 43 17 44
REMARK H PARENT 6 9 30 19 18 31 25 36 24 41
REMARK Flexibility Score:   94.900
ROOT
ATOM      1  O   UNL     1       0.513  -2.134  -0.569  1.00  0.00    -0.446 OA
ATOM      2  N   UNL     1       1.679  -3.757  -1.613  1.00  0.00    -0.207 NA
ATOM      3  C   UNL     1       0.522  -3.404  -1.082  1.00  0.00     0.217 A 
ATOM      4  C   UNL     1       2.477  -2.635  -1.463  1.00  0.00     0.167 A 
ATOM      5  C   UNL     1       1.760  -1.651  -0.828  1.00  0.00     0.231 A 
ENDROOT
BRANCH   4   6
ATOM      6  C   UNL     1       3.860  -2.581  -1.902  1.00  0.00     0.273 C 
ATOM      7  N   UNL     1       3.982  -1.991  -3.135  1.00  0.00    -0.341 N 
ATOM      8  O   UNL     1       4.795  -3.034  -1.253  1.00  0.00    -0.267 OA
ATOM      9  H   UNL     1       3.109  -1.748  -3.595  1.00  0.00     0.164 HD
BRANCH   7  10
ATOM     10  C   UNL     1       5.204  -2.029  -3.914  1.00  0.00     0.145 C 
BRANCH  10  11
ATOM     11  C   UNL     1       5.226  -3.348  -4.673  1.00  0.00     0.116 A 
ATOM     12  S   UNL     1       6.734  -4.045  -5.131  1.00  0.00    -0.124 S 
ATOM     13  C   UNL     1       5.904  -5.372  -5.816  1.00  0.00     0.101 A 
ATOM     14  N   UNL     1       4.154  -4.044  -5.014  1.00  0.00    -0.234 NA
ATOM     15  C   UNL     1       4.539  -5.222  -5.660  1.00  0.00     0.139 A 
BRANCH  15  16
ATOM     16  C   UNL     1       3.555  -6.206  -6.116  1.00  0.00     0.271 C 
ATOM     17  O   UNL     1       3.754  -6.951  -7.070  1.00  0.00    -0.267 OA
ATOM     18  N   UNL     1       2.395  -6.211  -5.372  1.00  0.00    -0.339 N 
ATOM     19  H   UNL     1       2.307  -5.471  -4.680  1.00  0.00     0.164 HD
BRANCH  18  20
ATOM     20  C   UNL     1       1.277  -7.077  -5.722  1.00  0.00     0.168 CG0
ATOM     21  C   UNL     1       1.207  -8.295  -4.799  1.00  0.00     0.041 C 
ATOM     22  G   UNL     1      -0.078  -6.355  -5.653  1.00  0.00     0.000 G0
ENDBRANCH  18  20
ENDBRANCH  15  16
ENDBRANCH  10  11
BRANCH  10  23
ATOM     23  C   UNL     1       5.336  -0.802  -4.855  1.00  0.00     0.015 C 
ATOM     24  C   UNL     1       4.413   0.365  -4.468  1.00  0.00     0.010 C 
BRANCH  23  25
ATOM     25  C   UNL     1       6.786  -0.276  -4.950  1.00  0.00     0.002 C 
ATOM     26  C   UNL     1       7.038   0.991  -4.144  1.00  0.00     0.004 C 
ENDBRANCH  23  25
ENDBRANCH  10  23
ENDBRANCH   7  10
ENDBRANCH   4   6
BRANCH   3  27
ATOM     27  C   UNL     1      -0.711  -4.255  -0.949  1.00  0.00     0.171 C 
BRANCH  27  28
ATOM     28  N   UNL     1      -0.879  -4.995  -2.195  1.00  0.00    -0.342 N 
ATOM     29  C   UNL     1      -2.075  -5.049  -2.877  1.00  0.00     0.245 C 
ATOM     30  O   UNL     1      -3.086  -4.464  -2.494  1.00  0.00    -0.273 OA
ATOM     31  H   UNL     1      -0.058  -5.410  -2.634  1.00  0.00     0.164 HD
BRANCH  29  32
ATOM     32  C   UNL     1      -2.025  -5.772  -4.239  1.00  0.00     0.200 C 
BRANCH  32  33
ATOM     33  N   UNL     1      -0.678  -6.330  -4.416  1.00  0.00    -0.340 N 
ATOM     34  C   UNL     1      -0.065  -6.342  -5.652  1.00  0.00     0.243 CG0
ATOM     35  O   UNL     1      -0.638  -5.947  -6.665  1.00  0.00    -0.273 OA
ATOM     36  H   UNL     1      -0.193  -6.691  -3.604  1.00  0.00     0.164 HD
ATOM     37  G   UNL     1       1.283  -7.078  -5.719  1.00  0.00     0.000 G0
ENDBRANCH  32  33
BRANCH  32  38
ATOM     38  C   UNL     1      -3.139  -6.838  -4.355  1.00  0.00     0.143 C 
ATOM     39  C   UNL     1      -2.913  -8.072  -3.488  1.00  0.00     0.041 C 
BRANCH  38  40
ATOM     40  O   UNL     1      -4.414  -6.258  -4.017  1.00  0.00    -0.391 OA
ATOM     41  H   UNL     1      -4.291  -5.788  -3.170  1.00  0.00     0.211 HD
ENDBRANCH  38  40
ENDBRANCH  32  38
ENDBRANCH  29  32
ENDBRANCH  27  28
BRANCH  27  42
ATOM     42  C   UNL     1      -0.806  -5.187   0.284  1.00  0.00     0.015 C 
ATOM     43  C   UNL     1       0.365  -6.160   0.468  1.00  0.00     0.010 C 
ATOM     44  C   UNL     1      -1.053  -4.402   1.577  1.00  0.00     0.010 C 
ENDBRANCH  27  42
ENDBRANCH   3  27
TORSDOF 5
ENDMDL
MODEL 2
REMARK VINA RESULT:    -6.250      0.943      1.119
REMARK INTER + INTRA:         -13.421
REMARK INTER:                 -11.333
REMARK INTRA:                  -2.088
REMARK UNBOUND:                -2.239
REMARK SMILES CC[C@H](C)[C@H]1NC(=O)c2coc(n2)[C@H](C(C)C)NC(=O)[C@H]([C@@H](C)O)NC(=O)[C@H](C)NC(=O)c2csc1n2
REMARK SMILES IDX 11 1 13 2 12 3 9 4 10 5 7 6 6 7 8 8 5 10 36 11 35 12 34 13
REMARK SMILES IDX 37 14 33 15 31 16 32 17 30 18 28 20 29 21 3 23 4 24 2 25
REMARK SMILES IDX 1 26 14 27 18 28 19 29 20 30 21 32 25 33 26 34 27 35 22 38
REMARK SMILES IDX 23 39 24 40 15 42 16 43 17 44
REMARK H PARENT 6 9 30 19 18 31 25 36 24 41
REMARK Flexibility Score:   94.900
ROOT
ATOM      1  O   UNL     1       0.236  -2.912  -0.607  1.00  0.00    -0.446 OA
ATOM      2  N   UNL     1       1.747  -4.320  -1.509  1.00  0.00    -0.207 NA
ATOM      3  C   UNL     1       0.503  -4.164  -1.091  1.00  0.00     0.217 A 
ATOM      4  C   UNL     1       2.330  -3.081  -1.310  1.00  0.00     0.167 A 
ATOM      5  C   UNL     1       1.404  -2.227  -0.761  1.00  0.00     0.231 A 
ENDROOT
BRANCH   4   6
ATOM      6  C   UNL     1       3.720  -2.798  -1.622  1.00  0.00     0.273 C 
ATOM      7  N   UNL     1       3.849  -2.139  -2.819  1.00  0.00    -0.341 N 
ATOM      8  O   UNL     1       4.657  -3.134  -0.909  1.00  0.00    -0.267 OA
ATOM      9  H   UNL     1       2.990  -2.009  -3.345  1.00  0.00     0.164 HD
BRANCH   7  10
ATOM     10  C   UNL     1       5.122  -1.955  -3.488  1.00  0.00     0.145 C 
BRANCH  10  11
ATOM     11  C   UNL     1       5.181  -2.942  -4.645  1.00  0.00     0.116 A 
ATOM     12  S   UNL     1       6.539  -2.935  -5.706  1.00  0.00    -0.124 S 
ATOM     13  C   UNL     1       5.860  -4.242  -6.572  1.00  0.00     0.101 A 
ATOM     14  N   UNL     1       4.258  -3.850  -4.915  1.00  0.00    -0.234 NA
ATOM     15  C   UNL     1       4.652  -4.615  -6.016  1.00  0.00     0.139 A 
BRANCH  15  16
ATOM     16  C   UNL     1       3.835  -5.723  -6.515  1.00  0.00     0.271 C 
ATOM     17  O   UNL     1       4.199  -6.461  -7.424  1.00  0.00    -0.267 OA
ATOM     18  N   UNL     1       2.626  -5.852  -5.864  1.00  0.00    -0.339 N 
ATOM     19  H   UNL     1       2.393  -5.113  -5.207  1.00  0.00     0.164 HD
BRANCH  18  20
ATOM     20  C   UNL     1       1.653  -6.858  -6.272  1.00  0.00     0.168 CG0
ATOM     21  C   UNL     1       1.799  -8.139  -5.448  1.00  0.00     0.041 C 
ATOM     22  G   UNL     1       0.202  -6.372  -6.132  1.00  0.00     0.000 G0
ENDBRANCH  18  20
ENDBRANCH  15  16
ENDBRANCH  10  11
BRANCH  10  23
ATOM     23  C   UNL     1       5.334  -0.489  -3.950  1.00  0.00     0.015 C 
ATOM     24  C   UNL     1       4.129   0.421  -3.660  1.00  0.00     0.010 C 
BRANCH  23  25
ATOM     25  C   UNL     1       6.599   0.154  -3.336  1.00  0.00     0.002 C 
ATOM     26  C   UNL     1       7.253   1.202  -4.226  1.00  0.00     0.004 C 
ENDBRANCH  23  25
ENDBRANCH  10  23
ENDBRANCH   7  10
ENDBRANCH   4   6
BRANCH   3  27
ATOM     27  C   UNL     1      -0.578  -5.209  -1.054  1.00  0.00     0.171 C 
BRANCH  27  28
ATOM     28  N   UNL     1      -0.702  -5.772  -2.394  1.00  0.00    -0.342 N 
ATOM     29  C   UNL     1      -1.843  -5.647  -3.154  1.00  0.00     0.245 C 
ATOM     30  O   UNL     1      -2.838  -5.038  -2.766  1.00  0.00    -0.273 OA
ATOM     31  H   UNL     1       0.120  -6.191  -2.827  1.00  0.00     0.164 HD
BRANCH  29  32
ATOM     32  C   UNL     1      -1.740  -6.195  -4.593  1.00  0.00     0.200 C 
BRANCH  32  33
ATOM     33  N   UNL     1      -0.336  -6.530  -4.859  1.00  0.00    -0.340 N 
ATOM     34  C   UNL     1       0.218  -6.352  -6.110  1.00  0.00     0.243 CG0
ATOM     35  O   UNL     1      -0.450  -5.968  -7.068  1.00  0.00    -0.273 OA
ATOM     36  H   UNL     1       0.233  -6.878  -4.096  1.00  0.00     0.164 HD
ATOM     37  G   UNL     1       1.655  -6.871  -6.283  1.00  0.00     0.000 G0
ENDBRANCH  32  33
BRANCH  32  38
ATOM     38  C   UNL     1      -2.697  -7.390  -4.813  1.00  0.00     0.143 C 
ATOM     39  C   UNL     1      -4.098  -6.992  -5.261  1.00  0.00     0.041 C 
BRANCH  38  40
ATOM     40  O   UNL     1      -2.137  -8.298  -5.782  1.00  0.00    -0.391 OA
ATOM     41  H   UNL     1      -2.890  -8.694  -6.261  1.00  0.00     0.211 HD
ENDBRANCH  38  40
ENDBRANCH  32  38
ENDBRANCH  29  32
ENDBRANCH  27  28
BRANCH  27  42
ATOM     42  C   UNL     1      -0.462  -6.317   0.021  1.00  0.00     0.015 C 
ATOM     43  C   UNL     1       0.241  -5.907   1.320  1.00  0.00     0.010 C 
ATOM     44  C   UNL     1      -1.819  -6.958   0.331  1.00  0.00     0.010 C 
ENDBRANCH  27  42
ENDBRANCH   3  27
TORSDOF 5
ENDMDL
MODEL 3
REMARK VINA RESULT:    -6.131      2.489      7.361
REMARK INTER + INTRA:         -13.208
REMARK INTER:                 -10.667
REMARK INTRA:                  -2.541
REMARK UNBOUND:                -2.239
REMARK SMILES CC[C@H](C)[C@H]1NC(=O)c2coc(n2)[C@H](C(C)C)NC(=O)[C@H]([C@@H](C)O)NC(=O)[C@H](C)NC(=O)c2csc1n2
REMARK SMILES IDX 11 1 13 2 12 3 9 4 10 5 7 6 6 7 8 8 5 10 36 11 35 12 34 13
REMARK SMILES IDX 37 14 33 15 31 16 32 17 30 18 28 20 29 21 3 23 4 24 2 25
REMARK SMILES IDX 1 26 14 27 18 28 19 29 20 30 21 32 25 33 26 34 27 35 22 38
REMARK SMILES IDX 23 39 24 40 15 42 16 43 17 44
REMARK H PARENT 6 9 30 19 18 31 25 36 24 41
REMARK Flexibility Score:   94.900
ROOT
ATOM      1  O   UNL     1       1.187  -3.141   0.460  1.00  0.00    -0.446 OA
ATOM      2  N   UNL     1       0.734  -3.517  -1.717  1.00  0.00    -0.207 NA
ATOM      3  C   UNL     1       1.540  -2.933  -0.847  1.00  0.00     0.217 A 
ATOM      4  C   UNL     1      -0.195  -4.175  -0.930  1.00  0.00     0.167 A 
ATOM      5  C   UNL     1       0.087  -3.943   0.395  1.00  0.00     0.231 A 
ENDROOT
BRANCH   4   6
ATOM      6  C   UNL     1      -1.295  -4.948  -1.479  1.00  0.00     0.273 C 
ATOM      7  N   UNL     1      -1.073  -6.298  -1.371  1.00  0.00    -0.341 N 
ATOM      8  O   UNL     1      -2.284  -4.446  -1.998  1.00  0.00    -0.267 OA
ATOM      9  H   UNL     1      -0.165  -6.567  -1.002  1.00  0.00     0.164 HD
BRANCH   7  10
ATOM     10  C   UNL     1      -1.881  -7.290  -2.052  1.00  0.00     0.145 C 
BRANCH  10  11
ATOM     11  C   UNL     1      -1.171  -7.651  -3.349  1.00  0.00     0.116 A 
ATOM     12  S   UNL     1      -2.001  -8.565  -4.551  1.00  0.00    -0.124 S 
ATOM     13  C   UNL     1      -0.624  -8.475  -5.560  1.00  0.00     0.101 A 
ATOM     14  N   UNL     1       0.067  -7.302  -3.658  1.00  0.00    -0.234 NA
ATOM     15  C   UNL     1       0.383  -7.760  -4.940  1.00  0.00     0.139 A 
BRANCH  15  16
ATOM     16  C   UNL     1       1.682  -7.483  -5.557  1.00  0.00     0.271 C 
ATOM     17  O   UNL     1       2.058  -8.030  -6.588  1.00  0.00    -0.267 OA
ATOM     18  N   UNL     1       2.433  -6.554  -4.868  1.00  0.00    -0.339 N 
ATOM     19  H   UNL     1       2.059  -6.259  -3.970  1.00  0.00     0.164 HD
BRANCH  18  20
ATOM     20  C   UNL     1       3.780  -6.205  -5.297  1.00  0.00     0.168 CG0
ATOM     21  C   UNL     1       3.774  -4.967  -6.197  1.00  0.00     0.041 C 
ATOM     22  G   UNL     1       4.725  -5.923  -4.118  1.00  0.00     0.000 G0
ENDBRANCH  18  20
ENDBRANCH  15  16
ENDBRANCH  10  11
BRANCH  10  23
ATOM     23  C   UNL     1      -2.155  -8.532  -1.163  1.00  0.00     0.015 C 
ATOM     24  C   UNL     1      -1.286  -8.578   0.104  1.00  0.00     0.010 C 
BRANCH  23  25
ATOM     25  C   UNL     1      -3.639  -8.656  -0.750  1.00  0.00     0.002 C 
ATOM     26  C   UNL     1      -4.618  -8.147  -1.800  1.00  0.00     0.004 C 
ENDBRANCH  23  25
ENDBRANCH  10  23
ENDBRANCH   7  10
ENDBRANCH   4   6
BRANCH   3  27
ATOM     27  C   UNL     1       2.723  -2.056  -1.154  1.00  0.00     0.171 C 
BRANCH  27  28
ATOM     28  N   UNL     1       3.636  -2.818  -2.000  1.00  0.00    -0.342 N 
ATOM     29  C   UNL     1       4.823  -3.339  -1.538  1.00  0.00     0.245 C 
ATOM     30  O   UNL     1       5.196  -3.214  -0.372  1.00  0.00    -0.273 OA
ATOM     31  H   UNL     1       3.341  -3.059  -2.945  1.00  0.00     0.164 HD
BRANCH  29  32
ATOM     32  C   UNL     1       5.591  -4.222  -2.543  1.00  0.00     0.200 C 
BRANCH  32  33
ATOM     33  N   UNL     1       4.653  -4.657  -3.585  1.00  0.00    -0.340 N 
ATOM     34  C   UNL     1       4.718  -5.926  -4.122  1.00  0.00     0.243 CG0
ATOM     35  O   UNL     1       5.597  -6.724  -3.802  1.00  0.00    -0.273 OA
ATOM     36  H   UNL     1       3.936  -4.011  -3.892  1.00  0.00     0.164 HD
ATOM     37  G   UNL     1       3.767  -6.201  -5.298  1.00  0.00     0.000 G0
ENDBRANCH  32  33
BRANCH  32  38
ATOM     38  C   UNL     1       6.827  -3.488  -3.113  1.00  0.00     0.143 C 
ATOM     39  C   UNL     1       6.558  -2.728  -4.406  1.00  0.00     0.041 C 
BRANCH  38  40
ATOM     40  O   UNL     1       7.350  -2.570  -2.133  1.00  0.00    -0.391 OA
ATOM     41  H   UNL     1       7.645  -1.778  -2.621  1.00  0.00     0.211 HD
ENDBRANCH  38  40
ENDBRANCH  32  38
ENDBRANCH  29  32
ENDBRANCH  27  28
BRANCH  27  42
ATOM     42  C   UNL     1       2.437  -0.653  -1.743  1.00  0.00     0.015 C 
ATOM     43  C   UNL     1       1.320   0.139  -1.052  1.00  0.00     0.010 C 
ATOM     44  C   UNL     1       3.708   0.197  -1.842  1.00  0.00     0.010 C 
ENDBRANCH  27  42
ENDBRANCH   3  27
TORSDOF 5
ENDMDL
MODEL 4
REMARK VINA RESULT:    -5.949      2.379      6.607
REMARK INTER + INTRA:         -12.883
REMARK INTER:                 -10.589
REMARK INTRA:                  -2.294
REMARK UNBOUND:                -2.239
REMARK SMILES CC[C@H](C)[C@H]1NC(=O)c2coc(n2)[C@H](C(C)C)NC(=O)[C@H]([C@@H](C)O)NC(=O)[C@H](C)NC(=O)c2csc1n2
REMARK SMILES IDX 11 1 13 2 12 3 9 4 10 5 7 6 6 7 8 8 5 10 36 11 35 12 34 13
REMARK SMILES IDX 37 14 33 15 31 16 32 17 30 18 28 20 29 21 3 23 4 24 2 25
REMARK SMILES IDX 1 26 14 27 18 28 19 29 20 30 21 32 25 33 26 34 27 35 22 38
REMARK SMILES IDX 23 39 24 40 15 42 16 43 17 44
REMARK H PARENT 6 9 30 19 18 31 25 36 24 41
REMARK Flexibility Score:   94.900
ROOT
ATOM      1  O   UNL     1      -2.257  -3.786  -1.285  1.00  0.00    -0.446 OA
ATOM      2  N   UNL     1      -0.447  -4.956  -1.945  1.00  0.00    -0.207 NA
ATOM      3  C   UNL     1      -0.958  -4.143  -1.038  1.00  0.00     0.217 A 
ATOM      4  C   UNL     1      -1.486  -5.169  -2.834  1.00  0.00     0.167 A 
ATOM      5  C   UNL     1      -2.586  -4.454  -2.425  1.00  0.00     0.231 A 
ENDROOT
BRANCH   4   6
ATOM      6  C   UNL     1      -1.361  -6.004  -4.015  1.00  0.00     0.273 C 
ATOM      7  N   UNL     1      -0.120  -6.585  -4.100  1.00  0.00    -0.341 N 
ATOM      8  O   UNL     1      -2.253  -6.145  -4.843  1.00  0.00    -0.267 OA
ATOM      9  H   UNL     1       0.548  -6.302  -3.389  1.00  0.00     0.164 HD
BRANCH   7  10
ATOM     10  C   UNL     1       0.358  -7.260  -5.290  1.00  0.00     0.145 C 
BRANCH  10  11
ATOM     11  C   UNL     1       1.731  -6.693  -5.621  1.00  0.00     0.116 A 
ATOM     12  S   UNL     1       2.368  -6.871  -7.212  1.00  0.00    -0.124 S 
ATOM     13  C   UNL     1       3.763  -6.001  -6.743  1.00  0.00     0.101 A 
ATOM     14  N   UNL     1       2.505  -6.038  -4.772  1.00  0.00    -0.234 NA
ATOM     15  C   UNL     1       3.672  -5.621  -5.418  1.00  0.00     0.139 A 
BRANCH  15  16
ATOM     16  C   UNL     1       4.698  -4.838  -4.725  1.00  0.00     0.271 C 
ATOM     17  O   UNL     1       5.663  -5.350  -4.169  1.00  0.00    -0.267 OA
ATOM     18  N   UNL     1       4.470  -3.478  -4.762  1.00  0.00    -0.339 N 
ATOM     19  H   UNL     1       3.579  -3.187  -5.155  1.00  0.00     0.164 HD
BRANCH  18  20
ATOM     20  C   UNL     1       5.350  -2.547  -4.068  1.00  0.00     0.168 CG0
ATOM     21  C   UNL     1       5.579  -1.279  -4.892  1.00  0.00     0.041 C 
ATOM     22  G   UNL     1       4.803  -2.124  -2.695  1.00  0.00     0.000 G0
ENDBRANCH  18  20
ENDBRANCH  15  16
ENDBRANCH  10  11
BRANCH  10  23
ATOM     23  C   UNL     1       0.381  -8.802  -5.119  1.00  0.00     0.015 C 
ATOM     24  C   UNL     1       0.429  -9.251  -3.649  1.00  0.00     0.010 C 
BRANCH  23  25
ATOM     25  C   UNL     1      -0.813  -9.498  -5.811  1.00  0.00     0.002 C 
ATOM     26  C   UNL     1      -1.216 -10.818  -5.168  1.00  0.00     0.004 C 
ENDBRANCH  23  25
ENDBRANCH  10  23
ENDBRANCH   7  10
ENDBRANCH   4   6
BRANCH   3  27
ATOM     27  C   UNL     1      -0.255  -3.559   0.157  1.00  0.00     0.171 C 
BRANCH  27  28
ATOM     28  N   UNL     1       0.702  -2.570  -0.328  1.00  0.00    -0.342 N 
ATOM     29  C   UNL     1       1.996  -2.889  -0.673  1.00  0.00     0.245 C 
ATOM     30  O   UNL     1       2.438  -4.035  -0.612  1.00  0.00    -0.273 OA
ATOM     31  H   UNL     1       0.376  -1.622  -0.512  1.00  0.00     0.164 HD
BRANCH  29  32
ATOM     32  C   UNL     1       2.819  -1.735  -1.285  1.00  0.00     0.200 C 
BRANCH  32  33
ATOM     33  N   UNL     1       3.462  -2.228  -2.510  1.00  0.00    -0.340 N 
ATOM     34  C   UNL     1       4.823  -2.113  -2.700  1.00  0.00     0.243 CG0
ATOM     35  O   UNL     1       5.546  -1.539  -1.887  1.00  0.00    -0.273 OA
ATOM     36  H   UNL     1       2.887  -2.678  -3.212  1.00  0.00     0.164 HD
ATOM     37  G   UNL     1       5.343  -2.544  -4.081  1.00  0.00     0.000 G0
ENDBRANCH  32  33
BRANCH  32  38
ATOM     38  C   UNL     1       1.944  -0.483  -1.526  1.00  0.00     0.143 C 
ATOM     39  C   UNL     1       2.731   0.821  -1.598  1.00  0.00     0.041 C 
BRANCH  38  40
ATOM     40  O   UNL     1       1.184  -0.638  -2.740  1.00  0.00    -0.391 OA
ATOM     41  H   UNL     1       0.864   0.251  -2.985  1.00  0.00     0.211 HD
ENDBRANCH  38  40
ENDBRANCH  32  38
ENDBRANCH  29  32
ENDBRANCH  27  28
BRANCH  27  42
ATOM     42  C   UNL     1      -1.135  -2.990   1.296  1.00  0.00     0.015 C 
ATOM     43  C   UNL     1      -0.785  -3.473   2.708  1.00  0.00     0.010 C 
ATOM     44  C   UNL     1      -1.200  -1.459   1.259  1.00  0.00     0.010 C 
ENDBRANCH  27  42
ENDBRANCH   3  27
TORSDOF 5
ENDMDL
MODEL 5
REMARK VINA RESULT:    -5.804      1.314      1.639
REMARK INTER + INTRA:         -12.624
REMARK INTER:                 -10.397
REMARK INTRA:                  -2.227
REMARK UNBOUND:                -2.239
REMARK SMILES CC[C@H](C)[C@H]1NC(=O)c2coc(n2)[C@H](C(C)C)NC(=O)[C@H]([C@@H](C)O)NC(=O)[C@H](C)NC(=O)c2csc1n2
REMARK SMILES IDX 11 1 13 2 12 3 9 4 10 5 7 6 6 7 8 8 5 10 36 11 35 12 34 13
REMARK SMILES IDX 37 14 33 15 31 16 32 17 30 18 28 20 29 21 3 23 4 24 2 25
REMARK SMILES IDX 1 26 14 27 18 28 19 29 20 30 21 32 25 33 26 34 27 35 22 38
REMARK SMILES IDX 23 39 24 40 15 42 16 43 17 44
REMARK H PARENT 6 9 30 19 18 31 25 36 24 41
REMARK Flexibility Score:   94.900
ROOT
ATOM      1  O   UNL     1       0.431  -2.033  -0.861  1.00  0.00    -0.446 OA
ATOM      2  N   UNL     1       1.388  -4.027  -1.298  1.00  0.00    -0.207 NA
ATOM      3  C   UNL     1       0.285  -3.392  -0.943  1.00  0.00     0.217 A 
ATOM      4  C   UNL     1       2.315  -3.016  -1.487  1.00  0.00     0.167 A 
ATOM      5  C   UNL     1       1.725  -1.805  -1.220  1.00  0.00     0.231 A 
ENDROOT
BRANCH   4   6
ATOM      6  C   UNL     1       3.692  -3.265  -1.877  1.00  0.00     0.273 C 
ATOM      7  N   UNL     1       3.918  -2.933  -3.189  1.00  0.00    -0.341 N 
ATOM      8  O   UNL     1       4.534  -3.738  -1.124  1.00  0.00    -0.267 OA
ATOM      9  H   UNL     1       3.101  -2.639  -3.716  1.00  0.00     0.164 HD
BRANCH   7  10
ATOM     10  C   UNL     1       5.124  -3.305  -3.903  1.00  0.00     0.145 C 
BRANCH  10  11
ATOM     11  C   UNL     1       4.956  -4.743  -4.371  1.00  0.00     0.116 A 
ATOM     12  S   UNL     1       6.348  -5.716  -4.661  1.00  0.00    -0.124 S 
ATOM     13  C   UNL     1       5.336  -7.033  -5.063  1.00  0.00     0.101 A 
ATOM     14  N   UNL     1       3.794  -5.345  -4.571  1.00  0.00    -0.234 NA
ATOM     15  C   UNL     1       4.007  -6.671  -4.954  1.00  0.00     0.139 A 
BRANCH  15  16
ATOM     16  C   UNL     1       2.892  -7.587  -5.207  1.00  0.00     0.271 C 
ATOM     17  O   UNL     1       2.999  -8.588  -5.908  1.00  0.00    -0.267 OA
ATOM     18  N   UNL     1       1.721  -7.215  -4.580  1.00  0.00    -0.339 N 
ATOM     19  H   UNL     1       1.732  -6.309  -4.120  1.00  0.00     0.164 HD
BRANCH  18  20
ATOM     20  C   UNL     1       0.490  -7.971  -4.772  1.00  0.00     0.168 CG0
ATOM     21  C   UNL     1       0.261  -8.960  -3.627  1.00  0.00     0.041 C 
ATOM     22  G   UNL     1      -0.751  -7.069  -4.869  1.00  0.00     0.000 G0
ENDBRANCH  18  20
ENDBRANCH  15  16
ENDBRANCH  10  11
BRANCH  10  23
ATOM     23  C   UNL     1       5.435  -2.334  -5.073  1.00  0.00     0.015 C 
ATOM     24  C   UNL     1       6.904  -1.882  -5.113  1.00  0.00     0.010 C 
BRANCH  23  25
ATOM     25  C   UNL     1       5.059  -2.921  -6.452  1.00  0.00     0.002 C 
ATOM     26  C   UNL     1       6.235  -3.046  -7.412  1.00  0.00     0.004 C 
ENDBRANCH  23  25
ENDBRANCH  10  23
ENDBRANCH   7  10
ENDBRANCH   4   6
BRANCH   3  27
ATOM     27  C   UNL     1      -1.040  -4.008  -0.585  1.00  0.00     0.171 C 
BRANCH  27  28
ATOM     28  N   UNL     1      -1.377  -4.976  -1.623  1.00  0.00    -0.342 N 
ATOM     29  C   UNL     1      -2.425  -4.798  -2.498  1.00  0.00     0.245 C 
ATOM     30  O   UNL     1      -3.146  -3.801  -2.479  1.00  0.00    -0.273 OA
ATOM     31  H   UNL     1      -0.756  -5.770  -1.774  1.00  0.00     0.164 HD
BRANCH  29  32
ATOM     32  C   UNL     1      -2.547  -5.864  -3.608  1.00  0.00     0.200 C 
BRANCH  32  33
ATOM     33  N   UNL     1      -1.293  -6.626  -3.654  1.00  0.00    -0.340 N 
ATOM     34  C   UNL     1      -0.750  -7.039  -4.853  1.00  0.00     0.243 CG0
ATOM     35  O   UNL     1      -1.320  -6.846  -5.925  1.00  0.00    -0.273 OA
ATOM     36  H   UNL     1      -0.815  -6.827  -2.784  1.00  0.00     0.164 HD
ATOM     37  G   UNL     1       0.488  -7.944  -4.748  1.00  0.00     0.000 G0
ENDBRANCH  32  33
BRANCH  32  38
ATOM     38  C   UNL     1      -3.789  -6.760  -3.397  1.00  0.00     0.143 C 
ATOM     39  C   UNL     1      -3.557  -7.934  -2.453  1.00  0.00     0.041 C 
BRANCH  38  40
ATOM     40  O   UNL     1      -4.888  -5.971  -2.900  1.00  0.00    -0.391 OA
ATOM     41  H   UNL     1      -4.507  -5.326  -2.274  1.00  0.00     0.211 HD
ENDBRANCH  38  40
ENDBRANCH  32  38
ENDBRANCH  29  32
ENDBRANCH  27  28
BRANCH  27  42
ATOM     42  C   UNL     1      -1.183  -4.619   0.831  1.00  0.00     0.015 C 
ATOM     43  C   UNL     1      -0.459  -5.951   1.053  1.00  0.00     0.010 C 
ATOM     44  C   UNL     1      -0.803  -3.618   1.927  1.00  0.00     0.010 C 
ENDBRANCH  27  42
ENDBRANCH   3  27
TORSDOF 5
ENDMDL
MODEL 6
REMARK VINA RESULT:    -5.672      2.528      5.664
REMARK INTER + INTRA:         -12.388
REMARK INTER:                 -10.821
REMARK INTRA:                  -1.567
REMARK UNBOUND:                -2.239
REMARK SMILES CC[C@H](C)[C@H]1NC(=O)c2coc(n2)[C@H](C(C)C)NC(=O)[C@H]([C@@H](C)O)NC(=O)[C@H](C)NC(=O)c2csc1n2
REMARK SMILES IDX 11 1 13 2 12 3 9 4 10 5 7 6 6 7 8 8 5 10 36 11 35 12 34 13
REMARK SMILES IDX 37 14 33 15 31 16 32 17 30 18 28 20 29 21 3 23 4 24 2 25
REMARK SMILES IDX 1 26 14 27 18 28 19 29 20 30 21 32 25 33 26 34 27 35 22 38
REMARK SMILES IDX 23 39 24 40 15 42 16 43 17 44
REMARK H PARENT 6 9 30 19 18 31 25 36 24 41
REMARK Flexibility Score:   94.900
ROOT
ATOM      1  O   UNL     1      -0.683  -7.130  -3.318  1.00  0.00    -0.446 OA
ATOM      2  N   UNL     1       1.467  -6.517  -3.026  1.00  0.00    -0.207 NA
ATOM      3  C   UNL     1       0.326  -6.835  -2.441  1.00  0.00     0.217 A 
ATOM      4  C   UNL     1       1.198  -6.636  -4.379  1.00  0.00     0.167 A 
ATOM      5  C   UNL     1      -0.112  -7.011  -4.550  1.00  0.00     0.231 A 
ENDROOT
BRANCH   4   6
ATOM      6  C   UNL     1       2.183  -6.362  -5.411  1.00  0.00     0.273 C 
ATOM      7  N   UNL     1       3.414  -6.075  -4.877  1.00  0.00    -0.341 N 
ATOM      8  O   UNL     1       1.928  -6.363  -6.609  1.00  0.00    -0.267 OA
ATOM      9  H   UNL     1       3.453  -6.021  -3.863  1.00  0.00     0.164 HD
BRANCH   7  10
ATOM     10  C   UNL     1       4.507  -5.527  -5.656  1.00  0.00     0.145 C 
BRANCH  10  11
ATOM     11  C   UNL     1       4.734  -4.097  -5.188  1.00  0.00     0.116 A 
ATOM     12  S   UNL     1       5.678  -3.023  -6.151  1.00  0.00    -0.124 S 
ATOM     13  C   UNL     1       5.399  -1.775  -5.017  1.00  0.00     0.101 A 
ATOM     14  N   UNL     1       4.244  -3.576  -4.076  1.00  0.00    -0.234 NA
ATOM     15  C   UNL     1       4.610  -2.232  -3.979  1.00  0.00     0.139 A 
BRANCH  15  16
ATOM     16  C   UNL     1       4.172  -1.393  -2.861  1.00  0.00     0.271 C 
ATOM     17  O   UNL     1       4.877  -0.519  -2.369  1.00  0.00    -0.267 OA
ATOM     18  N   UNL     1       2.896  -1.681  -2.423  1.00  0.00    -0.339 N 
ATOM     19  H   UNL     1       2.458  -2.500  -2.838  1.00  0.00     0.164 HD
BRANCH  18  20
ATOM     20  C   UNL     1       2.319  -0.994  -1.276  1.00  0.00     0.168 CG0
ATOM     21  C   UNL     1       1.385   0.135  -1.716  1.00  0.00     0.041 C 
ATOM     22  G   UNL     1       1.519  -1.935  -0.360  1.00  0.00     0.000 G0
ENDBRANCH  18  20
ENDBRANCH  15  16
ENDBRANCH  10  11
BRANCH  10  23
ATOM     23  C   UNL     1       5.791  -6.393  -5.555  1.00  0.00     0.015 C 
ATOM     24  C   UNL     1       5.658  -7.566  -4.570  1.00  0.00     0.010 C 
BRANCH  23  25
ATOM     25  C   UNL     1       6.248  -6.946  -6.924  1.00  0.00     0.002 C 
ATOM     26  C   UNL     1       5.122  -7.539  -7.759  1.00  0.00     0.004 C 
ENDBRANCH  23  25
ENDBRANCH  10  23
ENDBRANCH   7  10
ENDBRANCH   4   6
BRANCH   3  27
ATOM     27  C   UNL     1       0.038  -6.848  -0.964  1.00  0.00     0.171 C 
BRANCH  27  28
ATOM     28  N   UNL     1       0.133  -5.476  -0.479  1.00  0.00    -0.342 N 
ATOM     29  C   UNL     1      -0.820  -4.520  -0.749  1.00  0.00     0.245 C 
ATOM     30  O   UNL     1      -1.831  -4.756  -1.408  1.00  0.00    -0.273 OA
ATOM     31  H   UNL     1       0.884  -5.236   0.168  1.00  0.00     0.164 HD
BRANCH  29  32
ATOM     32  C   UNL     1      -0.612  -3.163  -0.043  1.00  0.00     0.200 C 
BRANCH  32  33
ATOM     33  N   UNL     1       0.298  -2.352  -0.862  1.00  0.00    -0.340 N 
ATOM     34  C   UNL     1       1.528  -1.952  -0.382  1.00  0.00     0.243 CG0
ATOM     35  O   UNL     1       1.888  -2.199   0.767  1.00  0.00    -0.273 OA
ATOM     36  H   UNL     1       0.015  -2.107  -1.803  1.00  0.00     0.164 HD
ATOM     37  G   UNL     1       2.318  -0.995  -1.289  1.00  0.00     0.000 G0
ENDBRANCH  32  33
BRANCH  32  38
ATOM     38  C   UNL     1      -1.960  -2.459   0.236  1.00  0.00     0.143 C 
ATOM     39  C   UNL     1      -1.821  -1.046   0.791  1.00  0.00     0.041 C 
BRANCH  38  40
ATOM     40  O   UNL     1      -2.751  -2.413  -0.967  1.00  0.00    -0.391 OA
ATOM     41  H   UNL     1      -2.275  -2.942  -1.635  1.00  0.00     0.211 HD
ENDBRANCH  38  40
ENDBRANCH  32  38
ENDBRANCH  29  32
ENDBRANCH  27  28
BRANCH  27  42
ATOM     42  C   UNL     1      -1.274  -7.527  -0.500  1.00  0.00     0.015 C 
ATOM     43  C   UNL     1      -1.461  -8.981  -0.948  1.00  0.00     0.010 C 
ATOM     44  C   UNL     1      -1.475  -7.408   1.014  1.00  0.00     0.010 C 
ENDBRANCH  27  42
ENDBRANCH   3  27
TORSDOF 5
ENDMDL
MODEL 7
REMARK VINA RESULT:    -5.669      2.194      3.379
REMARK INTER + INTRA:         -12.383
REMARK INTER:                 -10.379
REMARK INTRA:                  -2.003
REMARK UNBOUND:                -2.239
REMARK SMILES CC[C@H](C)[C@H]1NC(=O)c2coc(n2)[C@H](C(C)C)NC(=O)[C@H]([C@@H](C)O)NC(=O)[C@H](C)NC(=O)c2csc1n2
REMARK SMILES IDX 11 1 13 2 12 3 9 4 10 5 7 6 6 7 8 8 5 10 36 11 35 12 34 13
REMARK SMILES IDX 37 14 33 15 31 16 32 17 30 18 28 20 29 21 3 23 4 24 2 25
REMARK SMILES IDX 1 26 14 27 18 28 19 29 20 30 21 32 25 33 26 34 27 35 22 38
REMARK SMILES IDX 23 39 24 40 15 42 16 43 17 44
REMARK H PARENT 6 9 30 19 18 31 25 36 24 41
REMARK Flexibility Score:   94.900
ROOT
ATOM      1  O   UNL     1       1.617  -0.791  -1.112  1.00  0.00    -0.446 OA
ATOM      2  N   UNL     1       2.031  -3.007  -1.169  1.00  0.00    -0.207 NA
ATOM      3  C   UNL     1       1.176  -2.057  -0.833  1.00  0.00     0.217 A 
ATOM      4  C   UNL     1       3.095  -2.322  -1.730  1.00  0.00     0.167 A 
ATOM      5  C   UNL     1       2.837  -0.973  -1.693  1.00  0.00     0.231 A 
ENDROOT
BRANCH   4   6
ATOM      6  C   UNL     1       4.288  -2.981  -2.232  1.00  0.00     0.273 C 
ATOM      7  N   UNL     1       4.198  -3.242  -3.576  1.00  0.00    -0.341 N 
ATOM      8  O   UNL     1       5.241  -3.287  -1.527  1.00  0.00    -0.267 OA
ATOM      9  H   UNL     1       3.308  -3.014  -4.011  1.00  0.00     0.164 HD
BRANCH   7  10
ATOM     10  C   UNL     1       5.128  -4.104  -4.280  1.00  0.00     0.145 C 
BRANCH  10  11
ATOM     11  C   UNL     1       4.500  -5.488  -4.362  1.00  0.00     0.116 A 
ATOM     12  S   UNL     1       5.504  -6.887  -4.287  1.00  0.00    -0.124 S 
ATOM     13  C   UNL     1       4.116  -7.879  -4.396  1.00  0.00     0.101 A 
ATOM     14  N   UNL     1       3.204  -5.727  -4.475  1.00  0.00    -0.234 NA
ATOM     15  C   UNL     1       2.974  -7.105  -4.479  1.00  0.00     0.139 A 
BRANCH  15  16
ATOM     16  C   UNL     1       1.621  -7.659  -4.556  1.00  0.00     0.271 C 
ATOM     17  O   UNL     1       1.193  -8.233  -5.552  1.00  0.00    -0.267 OA
ATOM     18  N   UNL     1       0.884  -7.474  -3.406  1.00  0.00    -0.339 N 
ATOM     19  H   UNL     1       1.311  -6.887  -2.694  1.00  0.00     0.164 HD
BRANCH  18  20
ATOM     20  C   UNL     1      -0.507  -7.900  -3.324  1.00  0.00     0.168 CG0
ATOM     21  C   UNL     1      -0.614  -9.385  -2.973  1.00  0.00     0.041 C 
ATOM     22  G   UNL     1      -1.310  -7.110  -2.278  1.00  0.00     0.000 G0
ENDBRANCH  18  20
ENDBRANCH  15  16
ENDBRANCH  10  11
BRANCH  10  23
ATOM     23  C   UNL     1       5.506  -3.542  -5.676  1.00  0.00     0.015 C 
ATOM     24  C   UNL     1       4.743  -4.214  -6.829  1.00  0.00     0.010 C 
BRANCH  23  25
ATOM     25  C   UNL     1       5.312  -2.012  -5.778  1.00  0.00     0.002 C 
ATOM     26  C   UNL     1       6.570  -1.207  -5.483  1.00  0.00     0.004 C 
ENDBRANCH  23  25
ENDBRANCH  10  23
ENDBRANCH   7  10
ENDBRANCH   4   6
BRANCH   3  27
ATOM     27  C   UNL     1      -0.154  -2.235  -0.154  1.00  0.00     0.171 C 
BRANCH  27  28
ATOM     28  N   UNL     1      -0.322  -3.655   0.136  1.00  0.00    -0.342 N 
ATOM     29  C   UNL     1      -1.308  -4.423  -0.442  1.00  0.00     0.245 C 
ATOM     30  O   UNL     1      -2.111  -3.973  -1.257  1.00  0.00    -0.273 OA
ATOM     31  H   UNL     1       0.375  -4.123   0.713  1.00  0.00     0.164 HD
BRANCH  29  32
ATOM     32  C   UNL     1      -1.247  -5.930  -0.112  1.00  0.00     0.200 C 
BRANCH  32  33
ATOM     33  N   UNL     1      -0.582  -6.618  -1.225  1.00  0.00    -0.340 N 
ATOM     34  C   UNL     1      -1.302  -7.114  -2.293  1.00  0.00     0.243 CG0
ATOM     35  O   UNL     1      -2.529  -7.059  -2.331  1.00  0.00    -0.273 OA
ATOM     36  H   UNL     1       0.427  -6.706  -1.208  1.00  0.00     0.164 HD
ATOM     37  G   UNL     1      -0.497  -7.930  -3.318  1.00  0.00     0.000 G0
ENDBRANCH  32  33
BRANCH  32  38
ATOM     38  C   UNL     1      -0.561  -6.184   1.250  1.00  0.00     0.143 C 
ATOM     39  C   UNL     1      -1.486  -6.029   2.452  1.00  0.00     0.041 C 
BRANCH  38  40
ATOM     40  O   UNL     1       0.017  -7.503   1.272  1.00  0.00    -0.391 OA
ATOM     41  H   UNL     1       0.845  -7.437   1.785  1.00  0.00     0.211 HD
ENDBRANCH  38  40
ENDBRANCH  32  38
ENDBRANCH  29  32
ENDBRANCH  27  28
BRANCH  27  42
ATOM     42  C   UNL     1      -0.441  -1.361   1.092  1.00  0.00     0.015 C 
ATOM     43  C   UNL     1      -1.480  -0.251   0.897  1.00  0.00     0.010 C 
ATOM     44  C   UNL     1      -0.795  -2.211   2.317  1.00  0.00     0.010 C 
ENDBRANCH  27  42
ENDBRANCH   3  27
TORSDOF 5
ENDMDL
MODEL 8
REMARK VINA RESULT:    -5.600      2.634      7.007
REMARK INTER + INTRA:         -12.258
REMARK INTER:                  -9.777
REMARK INTRA:                  -2.481
REMARK UNBOUND:                -2.239
REMARK SMILES CC[C@H](C)[C@H]1NC(=O)c2coc(n2)[C@H](C(C)C)NC(=O)[C@H]([C@@H](C)O)NC(=O)[C@H](C)NC(=O)c2csc1n2
REMARK SMILES IDX 11 1 13 2 12 3 9 4 10 5 7 6 6 7 8 8 5 10 36 11 35 12 34 13
REMARK SMILES IDX 37 14 33 15 31 16 32 17 30 18 28 20 29 21 3 23 4 24 2 25
REMARK SMILES IDX 1 26 14 27 18 28 19 29 20 30 21 32 25 33 26 34 27 35 22 38
REMARK SMILES IDX 23 39 24 40 15 42 16 43 17 44
REMARK H PARENT 6 9 30 19 18 31 25 36 24 41
REMARK Flexibility Score:   94.900
ROOT
ATOM      1  O   UNL     1       2.781  -2.072  -1.799  1.00  0.00    -0.446 OA
ATOM      2  N   UNL     1       2.289  -4.194  -1.219  1.00  0.00    -0.207 NA
ATOM      3  C   UNL     1       3.196  -3.375  -1.719  1.00  0.00     0.217 A 
ATOM      4  C   UNL     1       1.214  -3.373  -0.927  1.00  0.00     0.167 A 
ATOM      5  C   UNL     1       1.520  -2.082  -1.282  1.00  0.00     0.231 A 
ENDROOT
BRANCH   4   6
ATOM      6  C   UNL     1      -0.031  -3.865  -0.363  1.00  0.00     0.273 C 
ATOM      7  N   UNL     1       0.001  -5.222  -0.163  1.00  0.00    -0.341 N 
ATOM      8  O   UNL     1      -0.996  -3.149  -0.123  1.00  0.00    -0.267 OA
ATOM      9  H   UNL     1       0.835  -5.696  -0.496  1.00  0.00     0.164 HD
BRANCH   7  10
ATOM     10  C   UNL     1      -1.178  -6.004   0.152  1.00  0.00     0.145 C 
BRANCH  10  11
ATOM     11  C   UNL     1      -1.395  -6.990  -0.987  1.00  0.00     0.116 A 
ATOM     12  S   UNL     1      -2.579  -8.232  -0.829  1.00  0.00    -0.124 S 
ATOM     13  C   UNL     1      -2.211  -8.773  -2.408  1.00  0.00     0.101 A 
ATOM     14  N   UNL     1      -0.743  -6.973  -2.138  1.00  0.00    -0.234 NA
ATOM     15  C   UNL     1      -1.221  -7.989  -2.969  1.00  0.00     0.139 A 
BRANCH  15  16
ATOM     16  C   UNL     1      -0.704  -8.182  -4.326  1.00  0.00     0.271 C 
ATOM     17  O   UNL     1      -1.295  -8.839  -5.175  1.00  0.00    -0.267 OA
ATOM     18  N   UNL     1       0.503  -7.553  -4.549  1.00  0.00    -0.339 N 
ATOM     19  H   UNL     1       0.943  -7.134  -3.734  1.00  0.00     0.164 HD
BRANCH  18  20
ATOM     20  C   UNL     1       1.201  -7.691  -5.820  1.00  0.00     0.168 CG0
ATOM     21  C   UNL     1       0.672  -6.696  -6.856  1.00  0.00     0.041 C 
ATOM     22  G   UNL     1       2.717  -7.473  -5.692  1.00  0.00     0.000 G0
ENDBRANCH  18  20
ENDBRANCH  15  16
ENDBRANCH  10  11
BRANCH  10  23
ATOM     23  C   UNL     1      -1.063  -6.708   1.530  1.00  0.00     0.015 C 
ATOM     24  C   UNL     1       0.388  -6.871   2.011  1.00  0.00     0.010 C 
BRANCH  23  25
ATOM     25  C   UNL     1      -1.874  -5.995   2.636  1.00  0.00     0.002 C 
ATOM     26  C   UNL     1      -1.024  -5.473   3.786  1.00  0.00     0.004 C 
ENDBRANCH  23  25
ENDBRANCH  10  23
ENDBRANCH   7  10
ENDBRANCH   4   6
BRANCH   3  27
ATOM     27  C   UNL     1       4.562  -3.739  -2.234  1.00  0.00     0.171 C 
BRANCH  27  28
ATOM     28  N   UNL     1       4.411  -4.210  -3.606  1.00  0.00    -0.342 N 
ATOM     29  C   UNL     1       4.911  -5.417  -4.042  1.00  0.00     0.245 C 
ATOM     30  O   UNL     1       5.510  -6.195  -3.301  1.00  0.00    -0.273 OA
ATOM     31  H   UNL     1       3.828  -3.673  -4.247  1.00  0.00     0.164 HD
BRANCH  29  32
ATOM     32  C   UNL     1       4.541  -5.801  -5.490  1.00  0.00     0.200 C 
BRANCH  32  33
ATOM     33  N   UNL     1       3.118  -6.162  -5.521  1.00  0.00    -0.340 N 
ATOM     34  C   UNL     1       2.716  -7.473  -5.675  1.00  0.00     0.243 CG0
ATOM     35  O   UNL     1       3.522  -8.383  -5.856  1.00  0.00    -0.273 OA
ATOM     36  H   UNL     1       2.429  -5.429  -5.404  1.00  0.00     0.164 HD
ATOM     37  G   UNL     1       1.202  -7.692  -5.828  1.00  0.00     0.000 G0
ENDBRANCH  32  33
BRANCH  32  38
ATOM     38  C   UNL     1       4.897  -4.670  -6.483  1.00  0.00     0.143 C 
ATOM     39  C   UNL     1       5.269  -5.161  -7.877  1.00  0.00     0.041 C 
BRANCH  38  40
ATOM     40  O   UNL     1       3.798  -3.745  -6.592  1.00  0.00    -0.391 OA
ATOM     41  H   UNL     1       4.190  -2.858  -6.705  1.00  0.00     0.211 HD
ENDBRANCH  38  40
ENDBRANCH  32  38
ENDBRANCH  29  32
ENDBRANCH  27  28
BRANCH  27  42
ATOM     42  C   UNL     1       5.676  -2.671  -2.118  1.00  0.00     0.015 C 
ATOM     43  C   UNL     1       7.058  -3.198  -1.712  1.00  0.00     0.010 C 
ATOM     44  C   UNL     1       5.785  -1.817  -3.385  1.00  0.00     0.010 C 
ENDBRANCH  27  42
ENDBRANCH   3  27
TORSDOF 5
ENDMDL
MODEL 9
REMARK VINA RESULT:    -5.591      2.736      6.348
REMARK INTER + INTRA:         -12.243
REMARK INTER:                 -10.394
REMARK INTRA:                  -1.849
REMARK UNBOUND:                -2.239
REMARK SMILES CC[C@H](C)[C@H]1NC(=O)c2coc(n2)[C@H](C(C)C)NC(=O)[C@H]([C@@H](C)O)NC(=O)[C@H](C)NC(=O)c2csc1n2
REMARK SMILES IDX 11 1 13 2 12 3 9 4 10 5 7 6 6 7 8 8 5 10 36 11 35 12 34 13
REMARK SMILES IDX 37 14 33 15 31 16 32 17 30 18 28 20 29 21 3 23 4 24 2 25
REMARK SMILES IDX 1 26 14 27 18 28 19 29 20 30 21 32 25 33 26 34 27 35 22 38
REMARK SMILES IDX 23 39 24 40 15 42 16 43 17 44
REMARK H PARENT 6 9 30 19 18 31 25 36 24 41
REMARK Flexibility Score:   94.900
ROOT
ATOM      1  O   UNL     1      -1.573  -4.520  -1.643  1.00  0.00    -0.446 OA
ATOM      2  N   UNL     1       0.613  -5.034  -1.841  1.00  0.00    -0.207 NA
ATOM      3  C   UNL     1      -0.306  -4.395  -1.139  1.00  0.00     0.217 A 
ATOM      4  C   UNL     1      -0.100  -5.643  -2.859  1.00  0.00     0.167 A 
ATOM      5  C   UNL     1      -1.431  -5.327  -2.732  1.00  0.00     0.231 A 
ENDROOT
BRANCH   4   6
ATOM      6  C   UNL     1       0.524  -6.453  -3.891  1.00  0.00     0.273 C 
ATOM      7  N   UNL     1       1.858  -6.656  -3.642  1.00  0.00    -0.341 N 
ATOM      8  O   UNL     1      -0.072  -6.876  -4.874  1.00  0.00    -0.267 OA
ATOM      9  H   UNL     1       2.235  -6.167  -2.835  1.00  0.00     0.164 HD
BRANCH   7  10
ATOM     10  C   UNL     1       2.770  -7.212  -4.621  1.00  0.00     0.145 C 
BRANCH  10  11
ATOM     11  C   UNL     1       3.567  -6.059  -5.215  1.00  0.00     0.116 A 
ATOM     12  S   UNL     1       3.786  -5.961  -6.921  1.00  0.00    -0.124 S 
ATOM     13  C   UNL     1       4.658  -4.505  -6.718  1.00  0.00     0.101 A 
ATOM     14  N   UNL     1       4.117  -5.080  -4.516  1.00  0.00    -0.234 NA
ATOM     15  C   UNL     1       4.734  -4.170  -5.379  1.00  0.00     0.139 A 
BRANCH  15  16
ATOM     16  C   UNL     1       5.394  -2.962  -4.880  1.00  0.00     0.271 C 
ATOM     17  O   UNL     1       6.608  -2.797  -4.933  1.00  0.00    -0.267 OA
ATOM     18  N   UNL     1       4.520  -2.035  -4.351  1.00  0.00    -0.339 N 
ATOM     19  H   UNL     1       3.552  -2.336  -4.264  1.00  0.00     0.164 HD
BRANCH  18  20
ATOM     20  C   UNL     1       5.003  -0.802  -3.746  1.00  0.00     0.168 CG0
ATOM     21  C   UNL     1       4.717   0.406  -4.641  1.00  0.00     0.041 C 
ATOM     22  G   UNL     1       4.372  -0.528  -2.371  1.00  0.00     0.000 G0
ENDBRANCH  18  20
ENDBRANCH  15  16
ENDBRANCH  10  11
BRANCH  10  23
ATOM     23  C   UNL     1       3.683  -8.312  -4.015  1.00  0.00     0.015 C 
ATOM     24  C   UNL     1       2.956  -9.647  -3.784  1.00  0.00     0.010 C 
BRANCH  23  25
ATOM     25  C   UNL     1       4.946  -8.576  -4.865  1.00  0.00     0.002 C 
ATOM     26  C   UNL     1       4.748  -9.616  -5.959  1.00  0.00     0.004 C 
ENDBRANCH  23  25
ENDBRANCH  10  23
ENDBRANCH   7  10
ENDBRANCH   4   6
BRANCH   3  27
ATOM     27  C   UNL     1      -0.084  -3.536   0.076  1.00  0.00     0.171 C 
BRANCH  27  28
ATOM     28  N   UNL     1       0.500  -2.275  -0.369  1.00  0.00    -0.342 N 
ATOM     29  C   UNL     1       1.858  -2.051  -0.399  1.00  0.00     0.245 C 
ATOM     30  O   UNL     1       2.681  -2.904  -0.068  1.00  0.00    -0.273 OA
ATOM     31  H   UNL     1      -0.113  -1.564  -0.766  1.00  0.00     0.164 HD
BRANCH  29  32
ATOM     32  C   UNL     1       2.291  -0.707  -1.021  1.00  0.00     0.200 C 
BRANCH  32  33
ATOM     33  N   UNL     1       3.064  -0.989  -2.237  1.00  0.00    -0.340 N 
ATOM     34  C   UNL     1       4.364  -0.547  -2.377  1.00  0.00     0.243 CG0
ATOM     35  O   UNL     1       4.908   0.151  -1.525  1.00  0.00    -0.273 OA
ATOM     36  H   UNL     1       2.632  -1.537  -2.970  1.00  0.00     0.164 HD
ATOM     37  G   UNL     1       5.006  -0.793  -3.752  1.00  0.00     0.000 G0
ENDBRANCH  32  33
BRANCH  32  38
ATOM     38  C   UNL     1       1.076   0.214  -1.279  1.00  0.00     0.143 C 
ATOM     39  C   UNL     1       0.402   0.726  -0.012  1.00  0.00     0.041 C 
BRANCH  38  40
ATOM     40  O   UNL     1       1.474   1.341  -2.084  1.00  0.00    -0.391 OA
ATOM     41  H   UNL     1       1.581   2.095  -1.475  1.00  0.00     0.211 HD
ENDBRANCH  38  40
ENDBRANCH  32  38
ENDBRANCH  29  32
ENDBRANCH  27  28
BRANCH  27  42
ATOM     42  C   UNL     1      -1.293  -3.303   1.015  1.00  0.00     0.015 C 
ATOM     43  C   UNL     1      -0.980  -3.328   2.515  1.00  0.00     0.010 C 
ATOM     44  C   UNL     1      -2.062  -2.028   0.653  1.00  0.00     0.010 C 
ENDBRANCH  27  42
ENDBRANCH   3  27
TORSDOF 5
ENDMDL
MODEL 10
REMARK VINA RESULT:    -5.419      2.802      7.206
REMARK INTER + INTRA:         -11.934
REMARK INTER:                 -10.445
REMARK INTRA:                  -1.490
REMARK UNBOUND:                -2.239
REMARK SMILES CC[C@H](C)[C@H]1NC(=O)c2coc(n2)[C@H](C(C)C)NC(=O)[C@H]([C@@H](C)O)NC(=O)[C@H](C)NC(=O)c2csc1n2
REMARK SMILES IDX 11 1 13 2 12 3 9 4 10 5 7 6 6 7 8 8 5 10 36 11 35 12 34 13
REMARK SMILES IDX 37 14 33 15 31 16 32 17 30 18 28 20 29 21 3 23 4 24 2 25
REMARK SMILES IDX 1 26 14 27 18 28 19 29 20 30 21 32 25 33 26 34 27 35 22 38
REMARK SMILES IDX 23 39 24 40 15 42 16 43 17 44
REMARK H PARENT 6 9 30 19 18 31 25 36 24 41
REMARK Flexibility Score:   94.900
ROOT
ATOM      1  O   UNL     1       1.780  -0.211  -1.550  1.00  0.00    -0.446 OA
ATOM      2  N   UNL     1       1.638  -2.331  -0.796  1.00  0.00    -0.207 NA
ATOM      3  C   UNL     1       2.401  -1.419  -1.372  1.00  0.00     0.217 A 
ATOM      4  C   UNL     1       0.444  -1.672  -0.556  1.00  0.00     0.167 A 
ATOM      5  C   UNL     1       0.538  -0.381  -1.017  1.00  0.00     0.231 A 
ENDROOT
BRANCH   4   6
ATOM      6  C   UNL     1      -0.704  -2.311   0.062  1.00  0.00     0.273 C 
ATOM      7  N   UNL     1      -0.329  -3.296   0.940  1.00  0.00    -0.341 N 
ATOM      8  O   UNL     1      -1.865  -2.014  -0.196  1.00  0.00    -0.267 OA
ATOM      9  H   UNL     1       0.667  -3.493   0.982  1.00  0.00     0.164 HD
BRANCH   7  10
ATOM     10  C   UNL     1      -1.261  -4.252   1.504  1.00  0.00     0.145 C 
BRANCH  10  11
ATOM     11  C   UNL     1      -1.040  -5.582   0.798  1.00  0.00     0.116 A 
ATOM     12  S   UNL     1      -1.314  -7.056   1.648  1.00  0.00    -0.124 S 
ATOM     13  C   UNL     1      -0.910  -7.935   0.238  1.00  0.00     0.101 A 
ATOM     14  N   UNL     1      -0.655  -5.718  -0.460  1.00  0.00    -0.234 NA
ATOM     15  C   UNL     1      -0.594  -7.073  -0.794  1.00  0.00     0.139 A 
BRANCH  15  16
ATOM     16  C   UNL     1      -0.231  -7.518  -2.142  1.00  0.00     0.271 C 
ATOM     17  O   UNL     1      -0.842  -8.398  -2.739  1.00  0.00    -0.267 OA
ATOM     18  N   UNL     1       0.858  -6.854  -2.666  1.00  0.00    -0.339 N 
ATOM     19  H   UNL     1       1.344  -6.227  -2.031  1.00  0.00     0.164 HD
BRANCH  18  20
ATOM     20  C   UNL     1       1.404  -7.210  -3.969  1.00  0.00     0.168 CG0
ATOM     21  C   UNL     1       0.554  -6.637  -5.104  1.00  0.00     0.041 C 
ATOM     22  G   UNL     1       2.846  -6.715  -4.164  1.00  0.00     0.000 G0
ENDBRANCH  18  20
ENDBRANCH  15  16
ENDBRANCH  10  11
BRANCH  10  23
ATOM     23  C   UNL     1      -1.121  -4.369   3.044  1.00  0.00     0.015 C 
ATOM     24  C   UNL     1      -0.655  -3.066   3.714  1.00  0.00     0.010 C 
BRANCH  23  25
ATOM     25  C   UNL     1      -2.424  -4.839   3.730  1.00  0.00     0.002 C 
ATOM     26  C   UNL     1      -2.208  -5.485   5.092  1.00  0.00     0.004 C 
ENDBRANCH  23  25
ENDBRANCH  10  23
ENDBRANCH   7  10
ENDBRANCH   4   6
BRANCH   3  27
ATOM     27  C   UNL     1       3.807  -1.599  -1.874  1.00  0.00     0.171 C 
BRANCH  27  28
ATOM     28  N   UNL     1       3.776  -2.595  -2.940  1.00  0.00    -0.342 N 
ATOM     29  C   UNL     1       4.576  -3.716  -2.939  1.00  0.00     0.245 C 
ATOM     30  O   UNL     1       5.365  -3.969  -2.030  1.00  0.00    -0.273 OA
ATOM     31  H   UNL     1       3.067  -2.511  -3.668  1.00  0.00     0.164 HD
BRANCH  29  32
ATOM     32  C   UNL     1       4.310  -4.717  -4.083  1.00  0.00     0.200 C 
BRANCH  32  33
ATOM     33  N   UNL     1       3.024  -5.378  -3.827  1.00  0.00    -0.340 N 
ATOM     34  C   UNL     1       2.824  -6.704  -4.153  1.00  0.00     0.243 CG0
ATOM     35  O   UNL     1       3.684  -7.369  -4.726  1.00  0.00    -0.273 OA
ATOM     36  H   UNL     1       2.285  -4.846  -3.383  1.00  0.00     0.164 HD
ATOM     37  G   UNL     1       1.393  -7.229  -3.958  1.00  0.00     0.000 G0
ENDBRANCH  32  33
BRANCH  32  38
ATOM     38  C   UNL     1       4.367  -4.024  -5.465  1.00  0.00     0.143 C 
ATOM     39  C   UNL     1       5.779  -3.724  -5.953  1.00  0.00     0.041 C 
BRANCH  38  40
ATOM     40  O   UNL     1       3.693  -4.832  -6.449  1.00  0.00    -0.391 OA
ATOM     41  H   UNL     1       4.389  -5.300  -6.949  1.00  0.00     0.211 HD
ENDBRANCH  38  40
ENDBRANCH  32  38
ENDBRANCH  29  32
ENDBRANCH  27  28
BRANCH  27  42
ATOM     42  C   UNL     1       4.580  -0.328  -2.304  1.00  0.00     0.015 C 
ATOM     43  C   UNL     1       6.103  -0.477  -2.389  1.00  0.00     0.010 C 
ATOM     44  C   UNL     1       4.030   0.263  -3.606  1.00  0.00     0.010 C 
ENDBRANCH  27  42
ENDBRANCH   3  27
TORSDOF 5
ENDMDL
MODEL 11
REMARK VINA RESULT:    -5.375      1.835      2.586
REMARK INTER + INTRA:         -11.856
REMARK INTER:                  -9.792
REMARK INTRA:                  -2.064
REMARK UNBOUND:                -2.239
REMARK SMILES CC[C@H](C)[C@H]1NC(=O)c2coc(n2)[C@H](C(C)C)NC(=O)[C@H]([C@@H](C)O)NC(=O)[C@H](C)NC(=O)c2csc1n2
REMARK SMILES IDX 11 1 13 2 12 3 9 4 10 5 7 6 6 7 8 8 5 10 36 11 35 12 34 13
REMARK SMILES IDX 37 14 33 15 31 16 32 17 30 18 28 20 29 21 3 23 4 24 2 25
REMARK SMILES IDX 1 26 14 27 18 28 19 29 20 30 21 32 25 33 26 34 27 35 22 38
REMARK SMILES IDX 23 39 24 40 15 42 16 43 17 44
REMARK H PARENT 6 9 30 19 18 31 25 36 24 41
REMARK Flexibility Score:   94.900
ROOT
ATOM      1  O   UNL     1      -2.002  -3.757  -0.821  1.00  0.00    -0.446 OA
ATOM      2  N   UNL     1       0.049  -4.629  -1.158  1.00  0.00    -0.207 NA
ATOM      3  C   UNL     1      -1.255  -4.833  -1.220  1.00  0.00     0.217 A 
ATOM      4  C   UNL     1       0.167  -3.324  -0.712  1.00  0.00     0.167 A 
ATOM      5  C   UNL     1      -1.086  -2.799  -0.510  1.00  0.00     0.231 A 
ENDROOT
BRANCH   4   6
ATOM      6  C   UNL     1       1.447  -2.677  -0.483  1.00  0.00     0.273 C 
ATOM      7  N   UNL     1       1.814  -1.882  -1.540  1.00  0.00    -0.341 N 
ATOM      8  O   UNL     1       2.121  -2.847   0.526  1.00  0.00    -0.267 OA
ATOM      9  H   UNL     1       1.198  -1.912  -2.347  1.00  0.00     0.164 HD
BRANCH   7  10
ATOM     10  C   UNL     1       3.142  -1.321  -1.684  1.00  0.00     0.145 C 
BRANCH  10  11
ATOM     11  C   UNL     1       4.022  -2.380  -2.334  1.00  0.00     0.116 A 
ATOM     12  S   UNL     1       5.703  -2.440  -1.962  1.00  0.00    -0.124 S 
ATOM     13  C   UNL     1       5.873  -3.800  -2.984  1.00  0.00     0.101 A 
ATOM     14  N   UNL     1       3.596  -3.303  -3.180  1.00  0.00    -0.234 NA
ATOM     15  C   UNL     1       4.656  -4.137  -3.546  1.00  0.00     0.139 A 
BRANCH  15  16
ATOM     16  C   UNL     1       4.465  -5.275  -4.448  1.00  0.00     0.271 C 
ATOM     17  O   UNL     1       5.372  -5.747  -5.124  1.00  0.00    -0.267 OA
ATOM     18  N   UNL     1       3.174  -5.758  -4.459  1.00  0.00    -0.339 N 
ATOM     19  H   UNL     1       2.490  -5.212  -3.940  1.00  0.00     0.164 HD
BRANCH  18  20
ATOM     20  C   UNL     1       2.782  -6.844  -5.346  1.00  0.00     0.168 CG0
ATOM     21  C   UNL     1       2.834  -8.195  -4.630  1.00  0.00     0.041 C 
ATOM     22  G   UNL     1       1.364  -6.667  -5.913  1.00  0.00     0.000 G0
ENDBRANCH  18  20
ENDBRANCH  15  16
ENDBRANCH  10  11
BRANCH  10  23
ATOM     23  C   UNL     1       3.132   0.010  -2.482  1.00  0.00     0.015 C 
ATOM     24  C   UNL     1       3.718   1.195  -1.696  1.00  0.00     0.010 C 
BRANCH  23  25
ATOM     25  C   UNL     1       3.870  -0.098  -3.836  1.00  0.00     0.002 C 
ATOM     26  C   UNL     1       5.008   0.899  -4.002  1.00  0.00     0.004 C 
ENDBRANCH  23  25
ENDBRANCH  10  23
ENDBRANCH   7  10
ENDBRANCH   4   6
BRANCH   3  27
ATOM     27  C   UNL     1      -1.956  -6.102  -1.621  1.00  0.00     0.171 C 
BRANCH  27  28
ATOM     28  N   UNL     1      -1.379  -6.551  -2.884  1.00  0.00    -0.342 N 
ATOM     29  C   UNL     1      -1.874  -6.166  -4.110  1.00  0.00     0.245 C 
ATOM     30  O   UNL     1      -2.830  -5.403  -4.232  1.00  0.00    -0.273 OA
ATOM     31  H   UNL     1      -0.515  -7.092  -2.864  1.00  0.00     0.164 HD
BRANCH  29  32
ATOM     32  C   UNL     1      -1.054  -6.638  -5.330  1.00  0.00     0.200 C 
BRANCH  32  33
ATOM     33  N   UNL     1       0.361  -6.693  -4.941  1.00  0.00    -0.340 N 
ATOM     34  C   UNL     1       1.365  -6.639  -5.885  1.00  0.00     0.243 CG0
ATOM     35  O   UNL     1       1.124  -6.608  -7.090  1.00  0.00    -0.273 OA
ATOM     36  H   UNL     1       0.591  -6.750  -3.956  1.00  0.00     0.164 HD
ATOM     37  G   UNL     1       2.792  -6.845  -5.352  1.00  0.00     0.000 G0
ENDBRANCH  32  33
BRANCH  32  38
ATOM     38  C   UNL     1      -1.581  -7.984  -5.879  1.00  0.00     0.143 C 
ATOM     39  C   UNL     1      -0.784  -9.199  -5.419  1.00  0.00     0.041 C 
BRANCH  38  40
ATOM     40  O   UNL     1      -2.961  -8.162  -5.505  1.00  0.00    -0.391 OA
ATOM     41  H   UNL     1      -3.497  -7.805  -6.239  1.00  0.00     0.211 HD
ENDBRANCH  38  40
ENDBRANCH  32  38
ENDBRANCH  29  32
ENDBRANCH  27  28
BRANCH  27  42
ATOM     42  C   UNL     1      -2.009  -7.247  -0.581  1.00  0.00     0.015 C 
ATOM     43  C   UNL     1      -3.235  -8.162  -0.666  1.00  0.00     0.010 C 
ATOM     44  C   UNL     1      -0.723  -8.081  -0.580  1.00  0.00     0.010 C 
ENDBRANCH  27  42
ENDBRANCH   3  27
TORSDOF 5
ENDMDL
MODEL 12
REMARK VINA RESULT:    -5.336      2.636      7.085
REMARK INTER + INTRA:         -11.785
REMARK INTER:                 -10.272
REMARK INTRA:                  -1.513
REMARK UNBOUND:                -2.239
REMARK SMILES CC[C@H](C)[C@H]1NC(=O)c2coc(n2)[C@H](C(C)C)NC(=O)[C@H]([C@@H](C)O)NC(=O)[C@H](C)NC(=O)c2csc1n2
REMARK SMILES IDX 11 1 13 2 12 3 9 4 10 5 7 6 6 7 8 8 5 10 36 11 35 12 34 13
REMARK SMILES IDX 37 14 33 15 31 16 32 17 30 18 28 20 29 21 3 23 4 24 2 25
REMARK SMILES IDX 1 26 14 27 18 28 19 29 20 30 21 32 25 33 26 34 27 35 22 38
REMARK SMILES IDX 23 39 24 40 15 42 16 43 17 44
REMARK H PARENT 6 9 30 19 18 31 25 36 24 41
REMARK Flexibility Score:   94.900
ROOT
ATOM      1  O   UNL     1      -0.443  -3.459   1.180  1.00  0.00    -0.446 OA
ATOM      2  N   UNL     1      -0.218  -3.588  -1.060  1.00  0.00    -0.207 NA
ATOM      3  C   UNL     1       0.077  -2.912   0.037  1.00  0.00     0.217 A 
ATOM      4  C   UNL     1      -0.960  -4.664  -0.605  1.00  0.00     0.167 A 
ATOM      5  C   UNL     1      -1.093  -4.580   0.759  1.00  0.00     0.231 A 
ENDROOT
BRANCH   4   6
ATOM      6  C   UNL     1      -1.513  -5.676  -1.489  1.00  0.00     0.273 C 
ATOM      7  N   UNL     1      -0.686  -6.764  -1.599  1.00  0.00    -0.341 N 
ATOM      8  O   UNL     1      -2.579  -5.550  -2.080  1.00  0.00    -0.267 OA
ATOM      9  H   UNL     1       0.209  -6.688  -1.123  1.00  0.00     0.164 HD
BRANCH   7  10
ATOM     10  C   UNL     1      -0.869  -7.801  -2.595  1.00  0.00     0.145 C 
BRANCH  10  11
ATOM     11  C   UNL     1       0.486  -8.073  -3.231  1.00  0.00     0.116 A 
ATOM     12  S   UNL     1       0.789  -9.596  -3.979  1.00  0.00    -0.124 S 
ATOM     13  C   UNL     1       2.355  -9.065  -4.410  1.00  0.00     0.101 A 
ATOM     14  N   UNL     1       1.489  -7.211  -3.278  1.00  0.00    -0.234 NA
ATOM     15  C   UNL     1       2.564  -7.771  -3.972  1.00  0.00     0.139 A 
BRANCH  15  16
ATOM     16  C   UNL     1       3.801  -7.023  -4.209  1.00  0.00     0.271 C 
ATOM     17  O   UNL     1       4.859  -7.565  -4.510  1.00  0.00    -0.267 OA
ATOM     18  N   UNL     1       3.655  -5.659  -4.063  1.00  0.00    -0.339 N 
ATOM     19  H   UNL     1       2.758  -5.344  -3.704  1.00  0.00     0.164 HD
BRANCH  18  20
ATOM     20  C   UNL     1       4.794  -4.761  -4.195  1.00  0.00     0.168 CG0
ATOM     21  C   UNL     1       4.791  -4.054  -5.552  1.00  0.00     0.041 C 
ATOM     22  G   UNL     1       4.828  -3.680  -3.102  1.00  0.00     0.000 G0
ENDBRANCH  18  20
ENDBRANCH  15  16
ENDBRANCH  10  11
BRANCH  10  23
ATOM     23  C   UNL     1      -1.510  -9.082  -1.998  1.00  0.00     0.015 C 
ATOM     24  C   UNL     1      -1.460  -9.127  -0.461  1.00  0.00     0.010 C 
BRANCH  23  25
ATOM     25  C   UNL     1      -2.973  -9.286  -2.451  1.00  0.00     0.002 C 
ATOM     26  C   UNL     1      -3.238  -8.869  -3.892  1.00  0.00     0.004 C 
ENDBRANCH  23  25
ENDBRANCH  10  23
ENDBRANCH   7  10
ENDBRANCH   4   6
BRANCH   3  27
ATOM     27  C   UNL     1       0.853  -1.627   0.129  1.00  0.00     0.171 C 
BRANCH  27  28
ATOM     28  N   UNL     1       2.126  -1.824  -0.556  1.00  0.00    -0.342 N 
ATOM     29  C   UNL     1       2.375  -1.345  -1.823  1.00  0.00     0.245 C 
ATOM     30  O   UNL     1       1.547  -0.703  -2.466  1.00  0.00    -0.273 OA
ATOM     31  H   UNL     1       2.899  -2.247  -0.042  1.00  0.00     0.164 HD
BRANCH  29  32
ATOM     32  C   UNL     1       3.820  -1.539  -2.329  1.00  0.00     0.200 C 
BRANCH  32  33
ATOM     33  N   UNL     1       3.844  -2.706  -3.219  1.00  0.00    -0.340 N 
ATOM     34  C   UNL     1       4.821  -3.673  -3.105  1.00  0.00     0.243 CG0
ATOM     35  O   UNL     1       5.745  -3.572  -2.302  1.00  0.00    -0.273 OA
ATOM     36  H   UNL     1       3.112  -2.801  -3.913  1.00  0.00     0.164 HD
ATOM     37  G   UNL     1       4.807  -4.765  -4.187  1.00  0.00     0.000 G0
ENDBRANCH  32  33
BRANCH  32  38
ATOM     38  C   UNL     1       4.360  -0.255  -3.002  1.00  0.00     0.143 C 
ATOM     39  C   UNL     1       5.878  -0.125  -2.965  1.00  0.00     0.041 C 
BRANCH  38  40
ATOM     40  O   UNL     1       3.919  -0.194  -4.372  1.00  0.00    -0.391 OA
ATOM     41  H   UNL     1       4.420  -0.877  -4.857  1.00  0.00     0.211 HD
ENDBRANCH  38  40
ENDBRANCH  32  38
ENDBRANCH  29  32
ENDBRANCH  27  28
BRANCH  27  42
ATOM     42  C   UNL     1       0.147  -0.332  -0.343  1.00  0.00     0.015 C 
ATOM     43  C   UNL     1      -1.379  -0.320  -0.195  1.00  0.00     0.010 C 
ATOM     44  C   UNL     1       0.753   0.919   0.301  1.00  0.00     0.010 C 
ENDBRANCH  27  42
ENDBRANCH   3  27
TORSDOF 5
ENDMDL
MODEL 13
REMARK VINA RESULT:    -5.125      2.864      7.449
REMARK INTER + INTRA:         -11.409
REMARK INTER:                  -9.862
REMARK INTRA:                  -1.547
REMARK UNBOUND:                -2.239
REMARK SMILES CC[C@H](C)[C@H]1NC(=O)c2coc(n2)[C@H](C(C)C)NC(=O)[C@H]([C@@H](C)O)NC(=O)[C@H](C)NC(=O)c2csc1n2
REMARK SMILES IDX 11 1 13 2 12 3 9 4 10 5 7 6 6 7 8 8 5 10 36 11 35 12 34 13
REMARK SMILES IDX 37 14 33 15 31 16 32 17 30 18 28 20 29 21 3 23 4 24 2 25
REMARK SMILES IDX 1 26 14 27 18 28 19 29 20 30 21 32 25 33 26 34 27 35 22 38
REMARK SMILES IDX 23 39 24 40 15 42 16 43 17 44
REMARK H PARENT 6 9 30 19 18 31 25 36 24 41
REMARK Flexibility Score:   94.900
ROOT
ATOM      1  O   UNL     1       1.806  -1.338  -0.406  1.00  0.00    -0.446 OA
ATOM      2  N   UNL     1       1.734  -3.393  -1.329  1.00  0.00    -0.207 NA
ATOM      3  C   UNL     1       2.459  -2.309  -1.116  1.00  0.00     0.217 A 
ATOM      4  C   UNL     1       0.533  -3.127  -0.693  1.00  0.00     0.167 A 
ATOM      5  C   UNL     1       0.584  -1.874  -0.133  1.00  0.00     0.231 A 
ENDROOT
BRANCH   4   6
ATOM      6  C   UNL     1      -0.583  -4.057  -0.684  1.00  0.00     0.273 C 
ATOM      7  N   UNL     1      -0.640  -4.773   0.485  1.00  0.00    -0.341 N 
ATOM      8  O   UNL     1      -1.358  -4.195  -1.623  1.00  0.00    -0.267 OA
ATOM      9  H   UNL     1       0.125  -4.617   1.135  1.00  0.00     0.164 HD
BRANCH   7  10
ATOM     10  C   UNL     1      -1.492  -5.932   0.662  1.00  0.00     0.145 C 
BRANCH  10  11
ATOM     11  C   UNL     1      -1.287  -6.843  -0.539  1.00  0.00     0.116 A 
ATOM     12  S   UNL     1      -2.640  -7.644  -1.246  1.00  0.00    -0.124 S 
ATOM     13  C   UNL     1      -1.608  -8.334  -2.421  1.00  0.00     0.101 A 
ATOM     14  N   UNL     1      -0.123  -7.077  -1.124  1.00  0.00    -0.234 NA
ATOM     15  C   UNL     1      -0.304  -7.923  -2.221  1.00  0.00     0.139 A 
BRANCH  15  16
ATOM     16  C   UNL     1       0.814  -8.320  -3.079  1.00  0.00     0.271 C 
ATOM     17  O   UNL     1       0.996  -9.478  -3.441  1.00  0.00    -0.267 OA
ATOM     18  N   UNL     1       1.633  -7.271  -3.437  1.00  0.00    -0.339 N 
ATOM     19  H   UNL     1       1.441  -6.382  -2.983  1.00  0.00     0.164 HD
BRANCH  18  20
ATOM     20  C   UNL     1       2.834  -7.488  -4.233  1.00  0.00     0.168 CG0
ATOM     21  C   UNL     1       2.826  -6.630  -5.499  1.00  0.00     0.041 C 
ATOM     22  G   UNL     1       4.125  -7.172  -3.459  1.00  0.00     0.000 G0
ENDBRANCH  18  20
ENDBRANCH  15  16
ENDBRANCH  10  11
BRANCH  10  23
ATOM     23  C   UNL     1      -1.223  -6.658   2.007  1.00  0.00     0.015 C 
ATOM     24  C   UNL     1       0.266  -6.697   2.390  1.00  0.00     0.010 C 
BRANCH  23  25
ATOM     25  C   UNL     1      -2.020  -6.051   3.184  1.00  0.00     0.002 C 
ATOM     26  C   UNL     1      -3.497  -6.420   3.185  1.00  0.00     0.004 C 
ENDBRANCH  23  25
ENDBRANCH  10  23
ENDBRANCH   7  10
ENDBRANCH   4   6
BRANCH   3  27
ATOM     27  C   UNL     1       3.854  -2.041  -1.611  1.00  0.00     0.171 C 
BRANCH  27  28
ATOM     28  N   UNL     1       4.337  -3.252  -2.266  1.00  0.00    -0.342 N 
ATOM     29  C   UNL     1       5.272  -4.087  -1.697  1.00  0.00     0.245 C 
ATOM     30  O   UNL     1       5.760  -3.881  -0.587  1.00  0.00    -0.273 OA
ATOM     31  H   UNL     1       3.895  -3.548  -3.135  1.00  0.00     0.164 HD
BRANCH  29  32
ATOM     32  C   UNL     1       5.562  -5.385  -2.481  1.00  0.00     0.200 C 
BRANCH  32  33
ATOM     33  N   UNL     1       4.311  -5.835  -3.105  1.00  0.00    -0.340 N 
ATOM     34  C   UNL     1       4.117  -7.157  -3.447  1.00  0.00     0.243 CG0
ATOM     35  O   UNL     1       5.000  -8.001  -3.306  1.00  0.00    -0.273 OA
ATOM     36  H   UNL     1       3.576  -5.155  -3.262  1.00  0.00     0.164 HD
ATOM     37  G   UNL     1       2.822  -7.463  -4.216  1.00  0.00     0.000 G0
ENDBRANCH  32  33
BRANCH  32  38
ATOM     38  C   UNL     1       6.707  -5.186  -3.501  1.00  0.00     0.143 C 
ATOM     39  C   UNL     1       6.239  -5.068  -4.947  1.00  0.00     0.041 C 
BRANCH  38  40
ATOM     40  O   UNL     1       7.472  -4.013  -3.160  1.00  0.00    -0.391 OA
ATOM     41  H   UNL     1       7.536  -3.476  -3.972  1.00  0.00     0.211 HD
ENDBRANCH  38  40
ENDBRANCH  32  38
ENDBRANCH  29  32
ENDBRANCH  27  28
BRANCH  27  42
ATOM     42  C   UNL     1       4.068  -0.790  -2.498  1.00  0.00     0.015 C 
ATOM     43  C   UNL     1       4.841   0.360  -1.843  1.00  0.00     0.010 C 
ATOM     44  C   UNL     1       4.692  -1.147  -3.851  1.00  0.00     0.010 C 
ENDBRANCH  27  42
ENDBRANCH   3  27
TORSDOF 5
ENDMDL
MODEL 14
REMARK VINA RESULT:    -4.953      1.930      2.335
REMARK INTER + INTRA:         -11.101
REMARK INTER:                  -9.043
REMARK INTRA:                  -2.059
REMARK UNBOUND:                -2.239
REMARK SMILES CC[C@H](C)[C@H]1NC(=O)c2coc(n2)[C@H](C(C)C)NC(=O)[C@H]([C@@H](C)O)NC(=O)[C@H](C)NC(=O)c2csc1n2
REMARK SMILES IDX 11 1 13 2 12 3 9 4 10 5 7 6 6 7 8 8 5 10 36 11 35 12 34 13
REMARK SMILES IDX 37 14 33 15 31 16 32 17 30 18 28 20 29 21 3 23 4 24 2 25
REMARK SMILES IDX 1 26 14 27 18 28 19 29 20 30 21 32 25 33 26 34 27 35 22 38
REMARK SMILES IDX 23 39 24 40 15 42 16 43 17 44
REMARK H PARENT 6 9 30 19 18 31 25 36 24 41
REMARK Flexibility Score:   94.900
ROOT
ATOM      1  O   UNL     1      -0.056  -3.487  -0.585  1.00  0.00    -0.446 OA
ATOM      2  N   UNL     1       1.070  -5.436  -0.709  1.00  0.00    -0.207 NA
ATOM      3  C   UNL     1      -0.052  -4.836  -0.351  1.00  0.00     0.217 A 
ATOM      4  C   UNL     1       1.845  -4.419  -1.237  1.00  0.00     0.167 A 
ATOM      5  C   UNL     1       1.153  -3.235  -1.159  1.00  0.00     0.231 A 
ENDROOT
BRANCH   4   6
ATOM      6  C   UNL     1       3.188  -4.629  -1.749  1.00  0.00     0.273 C 
ATOM      7  N   UNL     1       3.456  -3.818  -2.823  1.00  0.00    -0.341 N 
ATOM      8  O   UNL     1       3.969  -5.451  -1.287  1.00  0.00    -0.267 OA
ATOM      9  H   UNL     1       2.680  -3.252  -3.153  1.00  0.00     0.164 HD
BRANCH   7  10
ATOM     10  C   UNL     1       4.617  -3.990  -3.675  1.00  0.00     0.145 C 
BRANCH  10  11
ATOM     11  C   UNL     1       4.191  -4.836  -4.867  1.00  0.00     0.116 A 
ATOM     12  S   UNL     1       5.148  -4.836  -6.300  1.00  0.00    -0.124 S 
ATOM     13  C   UNL     1       4.073  -5.960  -7.009  1.00  0.00     0.101 A 
ATOM     14  N   UNL     1       3.120  -5.612  -4.902  1.00  0.00    -0.234 NA
ATOM     15  C   UNL     1       3.056  -6.276  -6.129  1.00  0.00     0.139 A 
BRANCH  15  16
ATOM     16  C   UNL     1       1.989  -7.234  -6.431  1.00  0.00     0.271 C 
ATOM     17  O   UNL     1       1.936  -7.859  -7.484  1.00  0.00    -0.267 OA
ATOM     18  N   UNL     1       1.061  -7.360  -5.420  1.00  0.00    -0.339 N 
ATOM     19  H   UNL     1       1.154  -6.707  -4.647  1.00  0.00     0.164 HD
BRANCH  18  20
ATOM     20  C   UNL     1      -0.108  -8.217  -5.572  1.00  0.00     0.168 CG0
ATOM     21  C   UNL     1       0.216  -9.668  -5.212  1.00  0.00     0.041 C 
ATOM     22  G   UNL     1      -1.291  -7.769  -4.698  1.00  0.00     0.000 G0
ENDBRANCH  18  20
ENDBRANCH  15  16
ENDBRANCH  10  11
BRANCH  10  23
ATOM     23  C   UNL     1       5.236  -2.634  -4.103  1.00  0.00     0.015 C 
ATOM     24  C   UNL     1       4.513  -1.417  -3.501  1.00  0.00     0.010 C 
BRANCH  23  25
ATOM     25  C   UNL     1       6.741  -2.531  -3.767  1.00  0.00     0.002 C 
ATOM     26  C   UNL     1       7.167  -3.371  -2.571  1.00  0.00     0.004 C 
ENDBRANCH  23  25
ENDBRANCH  10  23
ENDBRANCH   7  10
ENDBRANCH   4   6
BRANCH   3  27
ATOM     27  C   UNL     1      -1.247  -5.467   0.310  1.00  0.00     0.171 C 
BRANCH  27  28
ATOM     28  N   UNL     1      -1.622  -6.640  -0.473  1.00  0.00    -0.342 N 
ATOM     29  C   UNL     1      -2.169  -6.553  -1.733  1.00  0.00     0.245 C 
ATOM     30  O   UNL     1      -2.368  -5.480  -2.300  1.00  0.00    -0.273 OA
ATOM     31  H   UNL     1      -1.382  -7.564  -0.116  1.00  0.00     0.164 HD
BRANCH  29  32
ATOM     32  C   UNL     1      -2.380  -7.901  -2.455  1.00  0.00     0.200 C 
BRANCH  32  33
ATOM     33  N   UNL     1      -1.245  -8.123  -3.359  1.00  0.00    -0.340 N 
ATOM     34  C   UNL     1      -1.319  -7.791  -4.696  1.00  0.00     0.243 CG0
ATOM     35  O   UNL     1      -2.353  -7.359  -5.201  1.00  0.00    -0.273 OA
ATOM     36  H   UNL     1      -0.389  -8.507  -2.977  1.00  0.00     0.164 HD
ATOM     37  G   UNL     1      -0.111  -8.203  -5.552  1.00  0.00     0.000 G0
ENDBRANCH  32  33
BRANCH  32  38
ATOM     38  C   UNL     1      -2.583  -9.057  -1.447  1.00  0.00     0.143 C 
ATOM     39  C   UNL     1      -3.442 -10.200  -1.975  1.00  0.00     0.041 C 
BRANCH  38  40
ATOM     40  O   UNL     1      -1.305  -9.582  -1.037  1.00  0.00    -0.391 OA
ATOM     41  H   UNL     1      -1.352 -10.550  -1.152  1.00  0.00     0.211 HD
ENDBRANCH  38  40
ENDBRANCH  32  38
ENDBRANCH  29  32
ENDBRANCH  27  28
BRANCH  27  42
ATOM     42  C   UNL     1      -1.135  -5.801   1.818  1.00  0.00     0.015 C 
ATOM     43  C   UNL     1       0.037  -6.708   2.209  1.00  0.00     0.010 C 
ATOM     44  C   UNL     1      -1.141  -4.538   2.686  1.00  0.00     0.010 C 
ENDBRANCH  27  42
ENDBRANCH   3  27
TORSDOF 5
ENDMDL
MODEL 15
REMARK VINA RESULT:    -4.765      2.525      6.937
REMARK INTER + INTRA:         -10.764
REMARK INTER:                  -9.785
REMARK INTRA:                  -0.979
REMARK UNBOUND:                -2.239
REMARK SMILES CC[C@H](C)[C@H]1NC(=O)c2coc(n2)[C@H](C(C)C)NC(=O)[C@H]([C@@H](C)O)NC(=O)[C@H](C)NC(=O)c2csc1n2
REMARK SMILES IDX 11 1 13 2 12 3 9 4 10 5 7 6 6 7 8 8 5 10 36 11 35 12 34 13
REMARK SMILES IDX 37 14 33 15 31 16 32 17 30 18 28 20 29 21 3 23 4 24 2 25
REMARK SMILES IDX 1 26 14 27 18 28 19 29 20 30 21 32 25 33 26 34 27 35 22 38
REMARK SMILES IDX 23 39 24 40 15 42 16 43 17 44
REMARK H PARENT 6 9 30 19 18 31 25 36 24 41
REMARK Flexibility Score:   94.900
ROOT
ATOM      1  O   UNL     1       0.911  -3.935   0.469  1.00  0.00    -0.446 OA
ATOM      2  N   UNL     1       0.673  -3.515  -1.733  1.00  0.00    -0.207 NA
ATOM      3  C   UNL     1       1.117  -3.068  -0.571  1.00  0.00     0.217 A 
ATOM      4  C   UNL     1       0.166  -4.769  -1.442  1.00  0.00     0.167 A 
ATOM      5  C   UNL     1       0.314  -5.019  -0.100  1.00  0.00     0.231 A 
ENDROOT
BRANCH   4   6
ATOM      6  C   UNL     1      -0.447  -5.628  -2.441  1.00  0.00     0.273 C 
ATOM      7  N   UNL     1       0.460  -6.497  -2.992  1.00  0.00    -0.341 N 
ATOM      8  O   UNL     1      -1.627  -5.558  -2.763  1.00  0.00    -0.267 OA
ATOM      9  H   UNL     1       1.423  -6.377  -2.693  1.00  0.00     0.164 HD
BRANCH   7  10
ATOM     10  C   UNL     1       0.181  -7.288  -4.174  1.00  0.00     0.145 C 
BRANCH  10  11
ATOM     11  C   UNL     1       1.283  -7.008  -5.186  1.00  0.00     0.116 A 
ATOM     12  S   UNL     1       1.046  -7.417  -6.843  1.00  0.00    -0.124 S 
ATOM     13  C   UNL     1       2.590  -6.785  -7.212  1.00  0.00     0.101 A 
ATOM     14  N   UNL     1       2.446  -6.445  -4.903  1.00  0.00    -0.234 NA
ATOM     15  C   UNL     1       3.199  -6.298  -6.071  1.00  0.00     0.139 A 
BRANCH  15  16
ATOM     16  C   UNL     1       4.520  -5.667  -6.061  1.00  0.00     0.271 C 
ATOM     17  O   UNL     1       5.537  -6.248  -6.424  1.00  0.00    -0.267 OA
ATOM     18  N   UNL     1       4.505  -4.365  -5.608  1.00  0.00    -0.339 N 
ATOM     19  H   UNL     1       3.620  -4.035  -5.232  1.00  0.00     0.164 HD
BRANCH  18  20
ATOM     20  C   UNL     1       5.738  -3.601  -5.465  1.00  0.00     0.168 CG0
ATOM     21  C   UNL     1       5.920  -2.618  -6.623  1.00  0.00     0.041 C 
ATOM     22  G   UNL     1       5.791  -2.799  -4.155  1.00  0.00     0.000 G0
ENDBRANCH  18  20
ENDBRANCH  15  16
ENDBRANCH  10  11
BRANCH  10  23
ATOM     23  C   UNL     1       0.046  -8.800  -3.850  1.00  0.00     0.015 C 
ATOM     24  C   UNL     1      -1.335  -9.377  -4.202  1.00  0.00     0.010 C 
BRANCH  23  25
ATOM     25  C   UNL     1       1.131  -9.658  -4.538  1.00  0.00     0.002 C 
ATOM     26  C   UNL     1       0.712 -11.100  -4.789  1.00  0.00     0.004 C 
ENDBRANCH  23  25
ENDBRANCH  10  23
ENDBRANCH   7  10
ENDBRANCH   4   6
BRANCH   3  27
ATOM     27  C   UNL     1       1.750  -1.732  -0.296  1.00  0.00     0.171 C 
BRANCH  27  28
ATOM     28  N   UNL     1       3.010  -1.675  -1.028  1.00  0.00    -0.342 N 
ATOM     29  C   UNL     1       3.118  -1.131  -2.288  1.00  0.00     0.245 C 
ATOM     30  O   UNL     1       2.162  -0.639  -2.885  1.00  0.00    -0.273 OA
ATOM     31  H   UNL     1       3.866  -1.959  -0.553  1.00  0.00     0.164 HD
BRANCH  29  32
ATOM     32  C   UNL     1       4.554  -1.043  -2.848  1.00  0.00     0.200 C 
BRANCH  32  33
ATOM     33  N   UNL     1       4.658  -1.951  -3.996  1.00  0.00    -0.340 N 
ATOM     34  C   UNL     1       5.736  -2.799  -4.143  1.00  0.00     0.243 CG0
ATOM     35  O   UNL     1       6.683  -2.787  -3.359  1.00  0.00    -0.273 OA
ATOM     36  H   UNL     1       3.906  -1.962  -4.675  1.00  0.00     0.164 HD
ATOM     37  G   UNL     1       5.784  -3.594  -5.457  1.00  0.00     0.000 G0
ENDBRANCH  32  33
BRANCH  32  38
ATOM     38  C   UNL     1       4.937   0.415  -3.196  1.00  0.00     0.143 C 
ATOM     39  C   UNL     1       6.439   0.661  -3.277  1.00  0.00     0.041 C 
BRANCH  38  40
ATOM     40  O   UNL     1       4.331   0.798  -4.446  1.00  0.00    -0.391 OA
ATOM     41  H   UNL     1       3.418   0.455  -4.430  1.00  0.00     0.211 HD
ENDBRANCH  38  40
ENDBRANCH  32  38
ENDBRANCH  29  32
ENDBRANCH  27  28
BRANCH  27  42
ATOM     42  C   UNL     1       0.888  -0.470  -0.546  1.00  0.00     0.015 C 
ATOM     43  C   UNL     1      -0.567  -0.558  -0.072  1.00  0.00     0.010 C 
ATOM     44  C   UNL     1       1.551   0.796   0.008  1.00  0.00     0.010 C 
ENDBRANCH  27  42
ENDBRANCH   3  27
TORSDOF 5
ENDMDL
MODEL 16
REMARK VINA RESULT:    -4.679     15.271     19.598
REMARK INTER + INTRA:         -10.610
REMARK INTER:                  -8.563
REMARK INTRA:                  -2.047
REMARK UNBOUND:                -2.239
REMARK SMILES CC[C@H](C)[C@H]1NC(=O)c2coc(n2)[C@H](C(C)C)NC(=O)[C@H]([C@@H](C)O)NC(=O)[C@H](C)NC(=O)c2csc1n2
REMARK SMILES IDX 11 1 13 2 12 3 9 4 10 5 7 6 6 7 8 8 5 10 36 11 35 12 34 13
REMARK SMILES IDX 37 14 33 15 31 16 32 17 30 18 28 20 29 21 3 23 4 24 2 25
REMARK SMILES IDX 1 26 14 27 18 28 19 29 20 30 21 32 25 33 26 34 27 35 22 38
REMARK SMILES IDX 23 39 24 40 15 42 16 43 17 44
REMARK H PARENT 6 9 30 19 18 31 25 36 24 41
REMARK Flexibility Score:   94.900
ROOT
ATOM      1  O   UNL     1     -12.879  -9.574  -0.592  1.00  0.00    -0.446 OA
ATOM      2  N   UNL     1     -14.347  -8.813   0.940  1.00  0.00    -0.207 NA
ATOM      3  C   UNL     1     -13.109  -8.755   0.481  1.00  0.00     0.217 A 
ATOM      4  C   UNL     1     -14.979  -9.710   0.098  1.00  0.00     0.167 A 
ATOM      5  C   UNL     1     -14.080 -10.170  -0.833  1.00  0.00     0.231 A 
ENDROOT
BRANCH   4   6
ATOM      6  C   UNL     1     -16.373 -10.091   0.247  1.00  0.00     0.273 C 
ATOM      7  N   UNL     1     -17.188  -9.386  -0.602  1.00  0.00    -0.341 N 
ATOM      8  O   UNL     1     -16.765 -10.924   1.055  1.00  0.00    -0.267 OA
ATOM      9  H   UNL     1     -16.733  -8.661  -1.150  1.00  0.00     0.164 HD
BRANCH   7  10
ATOM     10  C   UNL     1     -18.634  -9.385  -0.494  1.00  0.00     0.145 C 
BRANCH  10  11
ATOM     11  C   UNL     1     -19.028  -8.215   0.397  1.00  0.00     0.116 A 
ATOM     12  S   UNL     1     -20.566  -8.213   1.174  1.00  0.00    -0.124 S 
ATOM     13  C   UNL     1     -20.182  -6.722   1.915  1.00  0.00     0.101 A 
ATOM     14  N   UNL     1     -18.264  -7.166   0.652  1.00  0.00    -0.234 NA
ATOM     15  C   UNL     1     -18.917  -6.308   1.541  1.00  0.00     0.139 A 
BRANCH  15  16
ATOM     16  C   UNL     1     -18.287  -5.079   2.028  1.00  0.00     0.271 C 
ATOM     17  O   UNL     1     -18.931  -4.103   2.397  1.00  0.00    -0.267 OA
ATOM     18  N   UNL     1     -16.909  -5.131   2.032  1.00  0.00    -0.339 N 
ATOM     19  H   UNL     1     -16.494  -5.952   1.598  1.00  0.00     0.164 HD
BRANCH  18  20
ATOM     20  C   UNL     1     -16.112  -3.976   2.420  1.00  0.00     0.168 CG0
ATOM     21  C   UNL     1     -15.544  -4.141   3.832  1.00  0.00     0.041 C 
ATOM     22  G   UNL     1     -14.934  -3.719   1.467  1.00  0.00     0.000 G0
ENDBRANCH  18  20
ENDBRANCH  15  16
ENDBRANCH  10  11
BRANCH  10  23
ATOM     23  C   UNL     1     -19.326  -9.330  -1.881  1.00  0.00     0.015 C 
ATOM     24  C   UNL     1     -20.501 -10.313  -2.014  1.00  0.00     0.010 C 
BRANCH  23  25
ATOM     25  C   UNL     1     -19.823  -7.913  -2.247  1.00  0.00     0.002 C 
ATOM     26  C   UNL     1     -19.030  -7.250  -3.365  1.00  0.00     0.004 C 
ENDBRANCH  23  25
ENDBRANCH  10  23
ENDBRANCH   7  10
ENDBRANCH   4   6
BRANCH   3  27
ATOM     27  C   UNL     1     -11.971  -7.947   1.041  1.00  0.00     0.171 C 
BRANCH  27  28
ATOM     28  N   UNL     1     -12.454  -6.588   1.261  1.00  0.00    -0.342 N 
ATOM     29  C   UNL     1     -11.790  -5.474   0.797  1.00  0.00     0.245 C 
ATOM     30  O   UNL     1     -10.747  -5.544   0.149  1.00  0.00    -0.273 OA
ATOM     31  H   UNL     1     -13.370  -6.456   1.690  1.00  0.00     0.164 HD
BRANCH  29  32
ATOM     32  C   UNL     1     -12.520  -4.132   1.015  1.00  0.00     0.200 C 
BRANCH  32  33
ATOM     33  N   UNL     1     -13.757  -4.396   1.760  1.00  0.00    -0.340 N 
ATOM     34  C   UNL     1     -14.926  -3.724   1.468  1.00  0.00     0.243 CG0
ATOM     35  O   UNL     1     -14.970  -2.834   0.621  1.00  0.00    -0.273 OA
ATOM     36  H   UNL     1     -13.745  -5.103   2.485  1.00  0.00     0.164 HD
ATOM     37  G   UNL     1     -16.106  -3.998   2.414  1.00  0.00     0.000 G0
ENDBRANCH  32  33
BRANCH  32  38
ATOM     38  C   UNL     1     -11.606  -3.097   1.711  1.00  0.00     0.143 C 
ATOM     39  C   UNL     1     -11.971  -2.824   3.166  1.00  0.00     0.041 C 
BRANCH  38  40
ATOM     40  O   UNL     1     -10.233  -3.530   1.647  1.00  0.00    -0.391 OA
ATOM     41  H   UNL     1     -10.251  -4.485   1.443  1.00  0.00     0.211 HD
ENDBRANCH  38  40
ENDBRANCH  32  38
ENDBRANCH  29  32
ENDBRANCH  27  28
BRANCH  27  42
ATOM     42  C   UNL     1     -11.249  -8.504   2.292  1.00  0.00     0.015 C 
ATOM     43  C   UNL     1     -11.854  -8.097   3.641  1.00  0.00     0.010 C 
ATOM     44  C   UNL     1     -11.076 -10.025   2.224  1.00  0.00     0.010 C 
ENDBRANCH  27  42
ENDBRANCH   3  27
TORSDOF 5
ENDMDL
MODEL 17
REMARK VINA RESULT:    -4.668     16.529     20.206
REMARK INTER + INTRA:         -10.590
REMARK INTER:                  -8.225
REMARK INTRA:                  -2.366
REMARK UNBOUND:                -2.239
REMARK SMILES CC[C@H](C)[C@H]1NC(=O)c2coc(n2)[C@H](C(C)C)NC(=O)[C@H]([C@@H](C)O)NC(=O)[C@H](C)NC(=O)c2csc1n2
REMARK SMILES IDX 11 1 13 2 12 3 9 4 10 5 7 6 6 7 8 8 5 10 36 11 35 12 34 13
REMARK SMILES IDX 37 14 33 15 31 16 32 17 30 18 28 20 29 21 3 23 4 24 2 25
REMARK SMILES IDX 1 26 14 27 18 28 19 29 20 30 21 32 25 33 26 34 27 35 22 38
REMARK SMILES IDX 23 39 24 40 15 42 16 43 17 44
REMARK H PARENT 6 9 30 19 18 31 25 36 24 41
REMARK Flexibility Score:   94.900
ROOT
ATOM      1  O   UNL     1     -11.742  -9.610   5.431  1.00  0.00    -0.446 OA
ATOM      2  N   UNL     1     -13.628  -9.257   4.248  1.00  0.00    -0.207 NA
ATOM      3  C   UNL     1     -13.030  -9.993   5.168  1.00  0.00     0.217 A 
ATOM      4  C   UNL     1     -12.680  -8.310   3.902  1.00  0.00     0.167 A 
ATOM      5  C   UNL     1     -11.534  -8.531   4.626  1.00  0.00     0.231 A 
ENDROOT
BRANCH   4   6
ATOM      6  C   UNL     1     -12.909  -7.288   2.896  1.00  0.00     0.273 C 
ATOM      7  N   UNL     1     -13.354  -6.116   3.453  1.00  0.00    -0.341 N 
ATOM      8  O   UNL     1     -12.747  -7.469   1.695  1.00  0.00    -0.267 OA
ATOM      9  H   UNL     1     -13.530  -6.142   4.453  1.00  0.00     0.164 HD
BRANCH   7  10
ATOM     10  C   UNL     1     -13.892  -5.021   2.670  1.00  0.00     0.145 C 
BRANCH  10  11
ATOM     11  C   UNL     1     -15.400  -5.210   2.590  1.00  0.00     0.116 A 
ATOM     12  S   UNL     1     -16.301  -4.393   1.369  1.00  0.00    -0.124 S 
ATOM     13  C   UNL     1     -17.731  -5.135   1.938  1.00  0.00     0.101 A 
ATOM     14  N   UNL     1     -16.111  -5.985   3.394  1.00  0.00    -0.234 NA
ATOM     15  C   UNL     1     -17.454  -5.959   3.012  1.00  0.00     0.139 A 
BRANCH  15  16
ATOM     16  C   UNL     1     -18.467  -6.757   3.706  1.00  0.00     0.271 C 
ATOM     17  O   UNL     1     -19.657  -6.721   3.413  1.00  0.00    -0.267 OA
ATOM     18  N   UNL     1     -17.951  -7.548   4.711  1.00  0.00    -0.339 N 
ATOM     19  H   UNL     1     -16.969  -7.405   4.929  1.00  0.00     0.164 HD
BRANCH  18  20
ATOM     20  C   UNL     1     -18.820  -8.360   5.553  1.00  0.00     0.168 CG0
ATOM     21  C   UNL     1     -19.217  -9.660   4.852  1.00  0.00     0.041 C 
ATOM     22  G   UNL     1     -18.168  -8.729   6.896  1.00  0.00     0.000 G0
ENDBRANCH  18  20
ENDBRANCH  15  16
ENDBRANCH  10  11
BRANCH  10  23
ATOM     23  C   UNL     1     -13.500  -3.636   3.251  1.00  0.00     0.015 C 
ATOM     24  C   UNL     1     -12.353  -3.708   4.273  1.00  0.00     0.010 C 
BRANCH  23  25
ATOM     25  C   UNL     1     -13.123  -2.613   2.155  1.00  0.00     0.002 C 
ATOM     26  C   UNL     1     -12.564  -3.243   0.887  1.00  0.00     0.004 C 
ENDBRANCH  23  25
ENDBRANCH  10  23
ENDBRANCH   7  10
ENDBRANCH   4   6
BRANCH   3  27
ATOM     27  C   UNL     1     -13.596 -11.192   5.878  1.00  0.00     0.171 C 
BRANCH  27  28
ATOM     28  N   UNL     1     -14.918 -10.832   6.380  1.00  0.00    -0.342 N 
ATOM     29  C   UNL     1     -15.239 -10.850   7.718  1.00  0.00     0.245 C 
ATOM     30  O   UNL     1     -14.431 -11.157   8.593  1.00  0.00    -0.273 OA
ATOM     31  H   UNL     1     -15.605 -10.457   5.726  1.00  0.00     0.164 HD
BRANCH  29  32
ATOM     32  C   UNL     1     -16.644 -10.313   8.067  1.00  0.00     0.200 C 
BRANCH  32  33
ATOM     33  N   UNL     1     -17.241  -9.758   6.846  1.00  0.00    -0.340 N 
ATOM     34  C   UNL     1     -18.181  -8.750   6.903  1.00  0.00     0.243 CG0
ATOM     35  O   UNL     1     -18.606  -8.318   7.973  1.00  0.00    -0.273 OA
ATOM     36  H   UNL     1     -16.933 -10.115   5.949  1.00  0.00     0.164 HD
ATOM     37  G   UNL     1     -18.822  -8.360   5.562  1.00  0.00     0.000 G0
ENDBRANCH  32  33
BRANCH  32  38
ATOM     38  C   UNL     1     -17.520 -11.406   8.723  1.00  0.00     0.143 C 
ATOM     39  C   UNL     1     -17.549 -12.724   7.958  1.00  0.00     0.041 C 
BRANCH  38  40
ATOM     40  O   UNL     1     -17.069 -11.656  10.069  1.00  0.00    -0.391 OA
ATOM     41  H   UNL     1     -16.239 -11.156  10.182  1.00  0.00     0.211 HD
ENDBRANCH  38  40
ENDBRANCH  32  38
ENDBRANCH  29  32
ENDBRANCH  27  28
BRANCH  27  42
ATOM     42  C   UNL     1     -13.628 -12.532   5.102  1.00  0.00     0.015 C 
ATOM     43  C   UNL     1     -14.889 -12.783   4.268  1.00  0.00     0.010 C 
ATOM     44  C   UNL     1     -12.375 -12.724   4.241  1.00  0.00     0.010 C 
ENDBRANCH  27  42
ENDBRANCH   3  27
TORSDOF 5
ENDMDL
MODEL 18
REMARK VINA RESULT:    -4.614      2.355      6.324
REMARK INTER + INTRA:         -10.494
REMARK INTER:                  -9.255
REMARK INTRA:                  -1.239
REMARK UNBOUND:                -2.239
REMARK SMILES CC[C@H](C)[C@H]1NC(=O)c2coc(n2)[C@H](C(C)C)NC(=O)[C@H]([C@@H](C)O)NC(=O)[C@H](C)NC(=O)c2csc1n2
REMARK SMILES IDX 11 1 13 2 12 3 9 4 10 5 7 6 6 7 8 8 5 10 36 11 35 12 34 13
REMARK SMILES IDX 37 14 33 15 31 16 32 17 30 18 28 20 29 21 3 23 4 24 2 25
REMARK SMILES IDX 1 26 14 27 18 28 19 29 20 30 21 32 25 33 26 34 27 35 22 38
REMARK SMILES IDX 23 39 24 40 15 42 16 43 17 44
REMARK H PARENT 6 9 30 19 18 31 25 36 24 41
REMARK Flexibility Score:   94.900
ROOT
ATOM      1  O   UNL     1      -1.984  -5.042  -2.157  1.00  0.00    -0.446 OA
ATOM      2  N   UNL     1       0.005  -6.049  -2.495  1.00  0.00    -0.207 NA
ATOM      3  C   UNL     1      -0.716  -5.280  -1.698  1.00  0.00     0.217 A 
ATOM      4  C   UNL     1      -0.855  -6.360  -3.534  1.00  0.00     0.167 A 
ATOM      5  C   UNL     1      -2.064  -5.744  -3.322  1.00  0.00     0.231 A 
ENDROOT
BRANCH   4   6
ATOM      6  C   UNL     1      -0.468  -7.188  -4.663  1.00  0.00     0.273 C 
ATOM      7  N   UNL     1       0.885  -7.410  -4.692  1.00  0.00    -0.341 N 
ATOM      8  O   UNL     1      -1.260  -7.610  -5.497  1.00  0.00    -0.267 OA
ATOM      9  H   UNL     1       1.428  -6.919  -3.987  1.00  0.00     0.164 HD
BRANCH   7  10
ATOM     10  C   UNL     1       1.569  -7.988  -5.833  1.00  0.00     0.145 C 
BRANCH  10  11
ATOM     11  C   UNL     1       2.898  -7.264  -5.989  1.00  0.00     0.116 A 
ATOM     12  S   UNL     1       3.842  -7.508  -7.410  1.00  0.00    -0.124 S 
ATOM     13  C   UNL     1       5.003  -6.401  -6.819  1.00  0.00     0.101 A 
ATOM     14  N   UNL     1       3.410  -6.420  -5.108  1.00  0.00    -0.234 NA
ATOM     15  C   UNL     1       4.616  -5.905  -5.589  1.00  0.00     0.139 A 
BRANCH  15  16
ATOM     16  C   UNL     1       5.386  -4.915  -4.833  1.00  0.00     0.271 C 
ATOM     17  O   UNL     1       6.452  -5.177  -4.286  1.00  0.00    -0.267 OA
ATOM     18  N   UNL     1       4.798  -3.668  -4.801  1.00  0.00    -0.339 N 
ATOM     19  H   UNL     1       3.864  -3.607  -5.197  1.00  0.00     0.164 HD
BRANCH  18  20
ATOM     20  C   UNL     1       5.387  -2.575  -4.039  1.00  0.00     0.168 CG0
ATOM     21  C   UNL     1       5.281  -1.249  -4.795  1.00  0.00     0.041 C 
ATOM     22  G   UNL     1       4.728  -2.386  -2.664  1.00  0.00     0.000 G0
ENDBRANCH  18  20
ENDBRANCH  15  16
ENDBRANCH  10  11
BRANCH  10  23
ATOM     23  C   UNL     1       1.745  -9.523  -5.693  1.00  0.00     0.015 C 
ATOM     24  C   UNL     1       2.537 -10.153  -6.851  1.00  0.00     0.010 C 
BRANCH  23  25
ATOM     25  C   UNL     1       2.410  -9.931  -4.359  1.00  0.00     0.002 C 
ATOM     26  C   UNL     1       3.897 -10.235  -4.478  1.00  0.00     0.004 C 
ENDBRANCH  23  25
ENDBRANCH  10  23
ENDBRANCH   7  10
ENDBRANCH   4   6
BRANCH   3  27
ATOM     27  C   UNL     1      -0.268  -4.628  -0.418  1.00  0.00     0.171 C 
BRANCH  27  28
ATOM     28  N   UNL     1       0.533  -3.460  -0.768  1.00  0.00    -0.342 N 
ATOM     29  C   UNL     1       1.889  -3.525  -0.999  1.00  0.00     0.245 C 
ATOM     30  O   UNL     1       2.524  -4.576  -0.942  1.00  0.00    -0.273 OA
ATOM     31  H   UNL     1       0.058  -2.576  -0.946  1.00  0.00     0.164 HD
BRANCH  29  32
ATOM     32  C   UNL     1       2.539  -2.211  -1.483  1.00  0.00     0.200 C 
BRANCH  32  33
ATOM     33  N   UNL     1       3.343  -2.508  -2.676  1.00  0.00    -0.340 N 
ATOM     34  C   UNL     1       4.715  -2.362  -2.668  1.00  0.00     0.243 CG0
ATOM     35  O   UNL     1       5.316  -1.920  -1.692  1.00  0.00    -0.273 OA
ATOM     36  H   UNL     1       2.872  -2.845  -3.507  1.00  0.00     0.164 HD
ATOM     37  G   UNL     1       5.414  -2.573  -4.021  1.00  0.00     0.000 G0
ENDBRANCH  32  33
BRANCH  32  38
ATOM     38  C   UNL     1       1.479  -1.112  -1.729  1.00  0.00     0.143 C 
ATOM     39  C   UNL     1       1.087  -0.335  -0.477  1.00  0.00     0.041 C 
BRANCH  38  40
ATOM     40  O   UNL     1       1.952  -0.185  -2.725  1.00  0.00    -0.391 OA
ATOM     41  H   UNL     1       2.670  -0.637  -3.208  1.00  0.00     0.211 HD
ENDBRANCH  38  40
ENDBRANCH  32  38
ENDBRANCH  29  32
ENDBRANCH  27  28
BRANCH  27  42
ATOM     42  C   UNL     1      -1.358  -4.280   0.625  1.00  0.00     0.015 C 
ATOM     43  C   UNL     1      -1.280  -5.054   1.945  1.00  0.00     0.010 C 
ATOM     44  C   UNL     1      -1.431  -2.774   0.895  1.00  0.00     0.010 C 
ENDBRANCH  27  42
ENDBRANCH   3  27
TORSDOF 5
ENDMDL
MODEL 19
REMARK VINA RESULT:    -4.536     22.223     24.326
REMARK INTER + INTRA:         -10.354
REMARK INTER:                  -8.181
REMARK INTRA:                  -2.173
REMARK UNBOUND:                -2.239
REMARK SMILES CC[C@H](C)[C@H]1NC(=O)c2coc(n2)[C@H](C(C)C)NC(=O)[C@H]([C@@H](C)O)NC(=O)[C@H](C)NC(=O)c2csc1n2
REMARK SMILES IDX 11 1 13 2 12 3 9 4 10 5 7 6 6 7 8 8 5 10 36 11 35 12 34 13
REMARK SMILES IDX 37 14 33 15 31 16 32 17 30 18 28 20 29 21 3 23 4 24 2 25
REMARK SMILES IDX 1 26 14 27 18 28 19 29 20 30 21 32 25 33 26 34 27 35 22 38
REMARK SMILES IDX 23 39 24 40 15 42 16 43 17 44
REMARK H PARENT 6 9 30 19 18 31 25 36 24 41
REMARK Flexibility Score:   94.900
ROOT
ATOM      1  O   UNL     1     -14.075   8.251  -7.845  1.00  0.00    -0.446 OA
ATOM      2  N   UNL     1     -14.565  10.256  -6.939  1.00  0.00    -0.207 NA
ATOM      3  C   UNL     1     -14.318   8.979  -6.711  1.00  0.00     0.217 A 
ATOM      4  C   UNL     1     -14.451  10.384  -8.313  1.00  0.00     0.167 A 
ATOM      5  C   UNL     1     -14.152   9.159  -8.858  1.00  0.00     0.231 A 
ENDROOT
BRANCH   4   6
ATOM      6  C   UNL     1     -14.661  11.639  -9.013  1.00  0.00     0.273 C 
ATOM      7  N   UNL     1     -14.072  12.692  -8.360  1.00  0.00    -0.341 N 
ATOM      8  O   UNL     1     -15.308  11.737 -10.048  1.00  0.00    -0.267 OA
ATOM      9  H   UNL     1     -13.647  12.472  -7.464  1.00  0.00     0.164 HD
BRANCH   7  10
ATOM     10  C   UNL     1     -14.328  14.077  -8.699  1.00  0.00     0.145 C 
BRANCH  10  11
ATOM     11  C   UNL     1     -15.354  14.611  -7.709  1.00  0.00     0.116 A 
ATOM     12  S   UNL     1     -15.500  16.310  -7.463  1.00  0.00    -0.124 S 
ATOM     13  C   UNL     1     -16.770  16.033  -6.353  1.00  0.00     0.101 A 
ATOM     14  N   UNL     1     -16.186  13.864  -7.002  1.00  0.00    -0.234 NA
ATOM     15  C   UNL     1     -17.017  14.679  -6.230  1.00  0.00     0.139 A 
BRANCH  15  16
ATOM     16  C   UNL     1     -18.065  14.119  -5.374  1.00  0.00     0.271 C 
ATOM     17  O   UNL     1     -18.724  14.800  -4.597  1.00  0.00    -0.267 OA
ATOM     18  N   UNL     1     -18.236  12.759  -5.531  1.00  0.00    -0.339 N 
ATOM     19  H   UNL     1     -17.554  12.291  -6.123  1.00  0.00     0.164 HD
BRANCH  18  20
ATOM     20  C   UNL     1     -19.187  12.019  -4.713  1.00  0.00     0.168 CG0
ATOM     21  C   UNL     1     -20.049  11.088  -5.568  1.00  0.00     0.041 C 
ATOM     22  G   UNL     1     -18.504  11.166  -3.632  1.00  0.00     0.000 G0
ENDBRANCH  18  20
ENDBRANCH  15  16
ENDBRANCH  10  11
BRANCH  10  23
ATOM     23  C   UNL     1     -13.029  14.926  -8.720  1.00  0.00     0.015 C 
ATOM     24  C   UNL     1     -11.928  14.376  -7.799  1.00  0.00     0.010 C 
BRANCH  23  25
ATOM     25  C   UNL     1     -12.447  15.093 -10.142  1.00  0.00     0.002 C 
ATOM     26  C   UNL     1     -10.945  14.861 -10.227  1.00  0.00     0.004 C 
ENDBRANCH  23  25
ENDBRANCH  10  23
ENDBRANCH   7  10
ENDBRANCH   4   6
BRANCH   3  27
ATOM     27  C   UNL     1     -14.334   8.276  -5.381  1.00  0.00     0.171 C 
BRANCH  27  28
ATOM     28  N   UNL     1     -15.673   8.414  -4.819  1.00  0.00    -0.342 N 
ATOM     29  C   UNL     1     -15.900   8.791  -3.514  1.00  0.00     0.245 C 
ATOM     30  O   UNL     1     -14.990   9.055  -2.730  1.00  0.00    -0.273 OA
ATOM     31  H   UNL     1     -16.477   8.323  -5.439  1.00  0.00     0.164 HD
BRANCH  29  32
ATOM     32  C   UNL     1     -17.381   9.008  -3.139  1.00  0.00     0.200 C 
BRANCH  32  33
ATOM     33  N   UNL     1     -17.957   9.978  -4.078  1.00  0.00    -0.340 N 
ATOM     34  C   UNL     1     -18.515  11.159  -3.634  1.00  0.00     0.243 CG0
ATOM     35  O   UNL     1     -18.613  11.422  -2.437  1.00  0.00    -0.273 OA
ATOM     36  H   UNL     1     -17.919   9.775  -5.069  1.00  0.00     0.164 HD
ATOM     37  G   UNL     1     -19.203  12.017  -4.709  1.00  0.00     0.000 G0
ENDBRANCH  32  33
BRANCH  32  38
ATOM     38  C   UNL     1     -18.157   7.671  -3.102  1.00  0.00     0.143 C 
ATOM     39  C   UNL     1     -17.745   6.743  -1.965  1.00  0.00     0.041 C 
BRANCH  38  40
ATOM     40  O   UNL     1     -19.572   7.924  -3.009  1.00  0.00    -0.391 OA
ATOM     41  H   UNL     1     -19.857   7.602  -2.133  1.00  0.00     0.211 HD
ENDBRANCH  38  40
ENDBRANCH  32  38
ENDBRANCH  29  32
ENDBRANCH  27  28
BRANCH  27  42
ATOM     42  C   UNL     1     -13.850   6.805  -5.346  1.00  0.00     0.015 C 
ATOM     43  C   UNL     1     -12.694   6.512  -4.383  1.00  0.00     0.010 C 
ATOM     44  C   UNL     1     -15.005   5.828  -5.103  1.00  0.00     0.010 C 
ENDBRANCH  27  42
ENDBRANCH   3  27
TORSDOF 5
ENDMDL
MODEL 20
REMARK VINA RESULT:    -4.513      1.972      2.777
REMARK INTER + INTRA:         -10.314
REMARK INTER:                  -9.235
REMARK INTRA:                  -1.079
REMARK UNBOUND:                -2.239
REMARK SMILES CC[C@H](C)[C@H]1NC(=O)c2coc(n2)[C@H](C(C)C)NC(=O)[C@H]([C@@H](C)O)NC(=O)[C@H](C)NC(=O)c2csc1n2
REMARK SMILES IDX 11 1 13 2 12 3 9 4 10 5 7 6 6 7 8 8 5 10 36 11 35 12 34 13
REMARK SMILES IDX 37 14 33 15 31 16 32 17 30 18 28 20 29 21 3 23 4 24 2 25
REMARK SMILES IDX 1 26 14 27 18 28 19 29 20 30 21 32 25 33 26 34 27 35 22 38
REMARK SMILES IDX 23 39 24 40 15 42 16 43 17 44
REMARK H PARENT 6 9 30 19 18 31 25 36 24 41
REMARK Flexibility Score:   94.900
ROOT
ATOM      1  O   UNL     1       1.608  -3.137  -0.747  1.00  0.00    -0.446 OA
ATOM      2  N   UNL     1       1.397  -5.132  -1.776  1.00  0.00    -0.207 NA
ATOM      3  C   UNL     1       0.798  -4.196  -1.061  1.00  0.00     0.217 A 
ATOM      4  C   UNL     1       2.678  -4.645  -1.968  1.00  0.00     0.167 A 
ATOM      5  C   UNL     1       2.800  -3.429  -1.340  1.00  0.00     0.231 A 
ENDROOT
BRANCH   4   6
ATOM      6  C   UNL     1       3.701  -5.369  -2.702  1.00  0.00     0.273 C 
ATOM      7  N   UNL     1       4.067  -4.712  -3.849  1.00  0.00    -0.341 N 
ATOM      8  O   UNL     1       4.155  -6.449  -2.344  1.00  0.00    -0.267 OA
ATOM      9  H   UNL     1       3.537  -3.872  -4.064  1.00  0.00     0.164 HD
BRANCH   7  10
ATOM     10  C   UNL     1       4.877  -5.320  -4.886  1.00  0.00     0.145 C 
BRANCH  10  11
ATOM     11  C   UNL     1       3.942  -6.083  -5.813  1.00  0.00     0.116 A 
ATOM     12  S   UNL     1       4.525  -7.460  -6.670  1.00  0.00    -0.124 S 
ATOM     13  C   UNL     1       2.972  -7.685  -7.349  1.00  0.00     0.101 A 
ATOM     14  N   UNL     1       2.670  -5.785  -6.020  1.00  0.00    -0.234 NA
ATOM     15  C   UNL     1       2.100  -6.715  -6.892  1.00  0.00     0.139 A 
BRANCH  15  16
ATOM     16  C   UNL     1       0.687  -6.651  -7.270  1.00  0.00     0.271 C 
ATOM     17  O   UNL     1       0.311  -6.289  -8.380  1.00  0.00    -0.267 OA
ATOM     18  N   UNL     1      -0.171  -7.037  -6.262  1.00  0.00    -0.339 N 
ATOM     19  H   UNL     1       0.257  -7.207  -5.355  1.00  0.00     0.164 HD
BRANCH  18  20
ATOM     20  C   UNL     1      -1.616  -6.972  -6.434  1.00  0.00     0.168 CG0
ATOM     21  C   UNL     1      -2.211  -8.363  -6.662  1.00  0.00     0.041 C 
ATOM     22  G   UNL     1      -2.331  -6.347  -5.226  1.00  0.00     0.000 G0
ENDBRANCH  18  20
ENDBRANCH  15  16
ENDBRANCH  10  11
BRANCH  10  23
ATOM     23  C   UNL     1       5.739  -4.275  -5.644  1.00  0.00     0.015 C 
ATOM     24  C   UNL     1       5.253  -4.011  -7.079  1.00  0.00     0.010 C 
BRANCH  23  25
ATOM     25  C   UNL     1       5.837  -2.926  -4.898  1.00  0.00     0.002 C 
ATOM     26  C   UNL     1       5.823  -1.710  -5.814  1.00  0.00     0.004 C 
ENDBRANCH  23  25
ENDBRANCH  10  23
ENDBRANCH   7  10
ENDBRANCH   4   6
BRANCH   3  27
ATOM     27  C   UNL     1      -0.613  -4.216  -0.540  1.00  0.00     0.171 C 
BRANCH  27  28
ATOM     28  N   UNL     1      -1.469  -4.756  -1.590  1.00  0.00    -0.342 N 
ATOM     29  C   UNL     1      -1.750  -6.099  -1.710  1.00  0.00     0.245 C 
ATOM     30  O   UNL     1      -1.311  -6.942  -0.929  1.00  0.00    -0.273 OA
ATOM     31  H   UNL     1      -1.960  -4.107  -2.204  1.00  0.00     0.164 HD
BRANCH  29  32
ATOM     32  C   UNL     1      -2.777  -6.464  -2.802  1.00  0.00     0.200 C 
BRANCH  32  33
ATOM     33  N   UNL     1      -2.043  -6.871  -4.007  1.00  0.00    -0.340 N 
ATOM     34  C   UNL     1      -2.352  -6.347  -5.245  1.00  0.00     0.243 CG0
ATOM     35  O   UNL     1      -3.291  -5.570  -5.405  1.00  0.00    -0.273 OA
ATOM     36  H   UNL     1      -1.283  -7.533  -3.911  1.00  0.00     0.164 HD
ATOM     37  G   UNL     1      -1.599  -6.961  -6.436  1.00  0.00     0.000 G0
ENDBRANCH  32  33
BRANCH  32  38
ATOM     38  C   UNL     1      -3.769  -7.542  -2.308  1.00  0.00     0.143 C 
ATOM     39  C   UNL     1      -3.360  -8.969  -2.652  1.00  0.00     0.041 C 
BRANCH  38  40
ATOM     40  O   UNL     1      -3.942  -7.436  -0.881  1.00  0.00    -0.391 OA
ATOM     41  H   UNL     1      -4.903  -7.431  -0.716  1.00  0.00     0.211 HD
ENDBRANCH  38  40
ENDBRANCH  32  38
ENDBRANCH  29  32
ENDBRANCH  27  28
BRANCH  27  42
ATOM     42  C   UNL     1      -0.862  -4.921   0.816  1.00  0.00     0.015 C 
ATOM     43  C   UNL     1       0.346  -5.654   1.412  1.00  0.00     0.010 C 
ATOM     44  C   UNL     1      -1.471  -3.971   1.852  1.00  0.00     0.010 C 
ENDBRANCH  27  42
ENDBRANCH   3  27
TORSDOF 5
ENDMDL
MODEL 21
REMARK VINA RESULT:    -4.501      5.295      9.363
REMARK INTER + INTRA:         -10.292
REMARK INTER:                  -8.607
REMARK INTRA:                  -1.685
REMARK UNBOUND:                -2.239
REMARK SMILES CC[C@H](C)[C@H]1NC(=O)c2coc(n2)[C@H](C(C)C)NC(=O)[C@H]([C@@H](C)O)NC(=O)[C@H](C)NC(=O)c2csc1n2
REMARK SMILES IDX 11 1 13 2 12 3 9 4 10 5 7 6 6 7 8 8 5 10 36 11 35 12 34 13
REMARK SMILES IDX 37 14 33 15 31 16 32 17 30 18 28 20 29 21 3 23 4 24 2 25
REMARK SMILES IDX 1 26 14 27 18 28 19 29 20 30 21 32 25 33 26 34 27 35 22 38
REMARK SMILES IDX 23 39 24 40 15 42 16 43 17 44
REMARK H PARENT 6 9 30 19 18 31 25 36 24 41
REMARK Flexibility Score:   94.900
ROOT
ATOM      1  O   UNL     1      -1.942 -12.010  -1.257  1.00  0.00    -0.446 OA
ATOM      2  N   UNL     1      -3.360 -10.553  -2.231  1.00  0.00    -0.207 NA
ATOM      3  C   UNL     1      -2.466 -10.745  -1.277  1.00  0.00     0.217 A 
ATOM      4  C   UNL     1      -3.408 -11.764  -2.900  1.00  0.00     0.167 A 
ATOM      5  C   UNL     1      -2.542 -12.647  -2.302  1.00  0.00     0.231 A 
ENDROOT
BRANCH   4   6
ATOM      6  C   UNL     1      -4.284 -12.012  -4.031  1.00  0.00     0.273 C 
ATOM      7  N   UNL     1      -3.702 -11.642  -5.217  1.00  0.00    -0.341 N 
ATOM      8  O   UNL     1      -5.414 -12.472  -3.925  1.00  0.00    -0.267 OA
ATOM      9  H   UNL     1      -2.796 -11.189  -5.141  1.00  0.00     0.164 HD
BRANCH   7  10
ATOM     10  C   UNL     1      -4.435 -11.548  -6.464  1.00  0.00     0.145 C 
BRANCH  10  11
ATOM     11  C   UNL     1      -4.576 -10.071  -6.806  1.00  0.00     0.116 A 
ATOM     12  S   UNL     1      -5.608  -9.587  -8.098  1.00  0.00    -0.124 S 
ATOM     13  C   UNL     1      -5.231  -7.951  -7.776  1.00  0.00     0.101 A 
ATOM     14  N   UNL     1      -3.966  -9.085  -6.169  1.00  0.00    -0.234 NA
ATOM     15  C   UNL     1      -4.353  -7.858  -6.713  1.00  0.00     0.139 A 
BRANCH  15  16
ATOM     16  C   UNL     1      -3.860  -6.587  -6.177  1.00  0.00     0.271 C 
ATOM     17  O   UNL     1      -4.095  -5.506  -6.705  1.00  0.00    -0.267 OA
ATOM     18  N   UNL     1      -3.113  -6.729  -5.026  1.00  0.00    -0.339 N 
ATOM     19  H   UNL     1      -2.897  -7.683  -4.751  1.00  0.00     0.164 HD
BRANCH  18  20
ATOM     20  C   UNL     1      -2.485  -5.580  -4.389  1.00  0.00     0.168 CG0
ATOM     21  C   UNL     1      -3.468  -4.842  -3.478  1.00  0.00     0.041 C 
ATOM     22  G   UNL     1      -1.260  -5.965  -3.543  1.00  0.00     0.000 G0
ENDBRANCH  18  20
ENDBRANCH  15  16
ENDBRANCH  10  11
BRANCH  10  23
ATOM     23  C   UNL     1      -3.760 -12.357  -7.603  1.00  0.00     0.015 C 
ATOM     24  C   UNL     1      -4.697 -12.631  -8.792  1.00  0.00     0.010 C 
BRANCH  23  25
ATOM     25  C   UNL     1      -2.473 -11.685  -8.132  1.00  0.00     0.002 C 
ATOM     26  C   UNL     1      -2.198 -11.949  -9.606  1.00  0.00     0.004 C 
ENDBRANCH  23  25
ENDBRANCH  10  23
ENDBRANCH   7  10
ENDBRANCH   4   6
BRANCH   3  27
ATOM     27  C   UNL     1      -2.035  -9.759  -0.227  1.00  0.00     0.171 C 
BRANCH  27  28
ATOM     28  N   UNL     1      -1.632  -8.531  -0.905  1.00  0.00    -0.342 N 
ATOM     29  C   UNL     1      -0.807  -7.594  -0.326  1.00  0.00     0.245 C 
ATOM     30  O   UNL     1      -0.335  -7.729   0.801  1.00  0.00    -0.273 OA
ATOM     31  H   UNL     1      -1.891  -8.405  -1.883  1.00  0.00     0.164 HD
BRANCH  29  32
ATOM     32  C   UNL     1      -0.388  -6.426  -1.245  1.00  0.00     0.200 C 
BRANCH  32  33
ATOM     33  N   UNL     1      -1.488  -6.159  -2.180  1.00  0.00    -0.340 N 
ATOM     34  C   UNL     1      -1.255  -5.984  -3.528  1.00  0.00     0.243 CG0
ATOM     35  O   UNL     1      -0.118  -5.980  -3.996  1.00  0.00    -0.273 OA
ATOM     36  H   UNL     1      -2.434  -6.125  -1.819  1.00  0.00     0.164 HD
ATOM     37  G   UNL     1      -2.476  -5.574  -4.368  1.00  0.00     0.000 G0
ENDBRANCH  32  33
BRANCH  32  38
ATOM     38  C   UNL     1       0.023  -5.181  -0.425  1.00  0.00     0.143 C 
ATOM     39  C   UNL     1      -1.099  -4.600   0.429  1.00  0.00     0.041 C 
BRANCH  38  40
ATOM     40  O   UNL     1       1.141  -5.499   0.426  1.00  0.00    -0.391 OA
ATOM     41  H   UNL     1       1.540  -4.649   0.691  1.00  0.00     0.211 HD
ENDBRANCH  38  40
ENDBRANCH  32  38
ENDBRANCH  29  32
ENDBRANCH  27  28
BRANCH  27  42
ATOM     42  C   UNL     1      -3.023  -9.472   0.931  1.00  0.00     0.015 C 
ATOM     43  C   UNL     1      -4.211  -8.570   0.577  1.00  0.00     0.010 C 
ATOM     44  C   UNL     1      -3.514 -10.761   1.597  1.00  0.00     0.010 C 
ENDBRANCH  27  42
ENDBRANCH   3  27
TORSDOF 5
ENDMDL
MODEL 22
REMARK VINA RESULT:    -4.392      3.542      7.310
REMARK INTER + INTRA:         -10.097
REMARK INTER:                  -8.377
REMARK INTRA:                  -1.720
REMARK UNBOUND:                -2.239
REMARK SMILES CC[C@H](C)[C@H]1NC(=O)c2coc(n2)[C@H](C(C)C)NC(=O)[C@H]([C@@H](C)O)NC(=O)[C@H](C)NC(=O)c2csc1n2
REMARK SMILES IDX 11 1 13 2 12 3 9 4 10 5 7 6 6 7 8 8 5 10 36 11 35 12 34 13
REMARK SMILES IDX 37 14 33 15 31 16 32 17 30 18 28 20 29 21 3 23 4 24 2 25
REMARK SMILES IDX 1 26 14 27 18 28 19 29 20 30 21 32 25 33 26 34 27 35 22 38
REMARK SMILES IDX 23 39 24 40 15 42 16 43 17 44
REMARK H PARENT 6 9 30 19 18 31 25 36 24 41
REMARK Flexibility Score:   94.900
ROOT
ATOM      1  O   UNL     1       3.100  -3.333  -1.786  1.00  0.00    -0.446 OA
ATOM      2  N   UNL     1       2.178  -5.231  -0.994  1.00  0.00    -0.207 NA
ATOM      3  C   UNL     1       3.255  -4.665  -1.509  1.00  0.00     0.217 A 
ATOM      4  C   UNL     1       1.263  -4.198  -0.901  1.00  0.00     0.167 A 
ATOM      5  C   UNL     1       1.831  -3.044  -1.384  1.00  0.00     0.231 A 
ENDROOT
BRANCH   4   6
ATOM      6  C   UNL     1      -0.086  -4.375  -0.392  1.00  0.00     0.273 C 
ATOM      7  N   UNL     1      -0.221  -5.557   0.292  1.00  0.00    -0.341 N 
ATOM      8  O   UNL     1      -0.992  -3.573  -0.579  1.00  0.00    -0.267 OA
ATOM      9  H   UNL     1       0.593  -6.165   0.286  1.00  0.00     0.164 HD
BRANCH   7  10
ATOM     10  C   UNL     1      -1.505  -6.100   0.688  1.00  0.00     0.145 C 
BRANCH  10  11
ATOM     11  C   UNL     1      -1.797  -7.294  -0.210  1.00  0.00     0.116 A 
ATOM     12  S   UNL     1      -3.403  -7.912  -0.315  1.00  0.00    -0.124 S 
ATOM     13  C   UNL     1      -2.871  -9.078  -1.446  1.00  0.00     0.101 A 
ATOM     14  N   UNL     1      -0.901  -7.918  -0.957  1.00  0.00    -0.234 NA
ATOM     15  C   UNL     1      -1.518  -8.938  -1.686  1.00  0.00     0.139 A 
BRANCH  15  16
ATOM     16  C   UNL     1      -0.769  -9.772  -2.628  1.00  0.00     0.271 C 
ATOM     17  O   UNL     1      -0.933 -10.983  -2.720  1.00  0.00    -0.267 OA
ATOM     18  N   UNL     1       0.131  -9.063  -3.396  1.00  0.00    -0.339 N 
ATOM     19  H   UNL     1       0.253  -8.084  -3.147  1.00  0.00     0.164 HD
BRANCH  18  20
ATOM     20  C   UNL     1       1.012  -9.736  -4.340  1.00  0.00     0.168 CG0
ATOM     21  C   UNL     1       0.450  -9.680  -5.762  1.00  0.00     0.041 C 
ATOM     22  G   UNL     1       2.425  -9.131  -4.370  1.00  0.00     0.000 G0
ENDBRANCH  18  20
ENDBRANCH  15  16
ENDBRANCH  10  11
BRANCH  10  23
ATOM     23  C   UNL     1      -1.546  -6.469   2.195  1.00  0.00     0.015 C 
ATOM     24  C   UNL     1      -0.317  -5.976   2.976  1.00  0.00     0.010 C 
BRANCH  23  25
ATOM     25  C   UNL     1      -2.821  -5.956   2.902  1.00  0.00     0.002 C 
ATOM     26  C   UNL     1      -2.682  -5.832   4.413  1.00  0.00     0.004 C 
ENDBRANCH  23  25
ENDBRANCH  10  23
ENDBRANCH   7  10
ENDBRANCH   4   6
BRANCH   3  27
ATOM     27  C   UNL     1       4.556  -5.337  -1.853  1.00  0.00     0.171 C 
BRANCH  27  28
ATOM     28  N   UNL     1       4.285  -6.337  -2.880  1.00  0.00    -0.342 N 
ATOM     29  C   UNL     1       3.904  -6.008  -4.161  1.00  0.00     0.245 C 
ATOM     30  O   UNL     1       3.780  -4.845  -4.540  1.00  0.00    -0.273 OA
ATOM     31  H   UNL     1       4.478  -7.316  -2.672  1.00  0.00     0.164 HD
BRANCH  29  32
ATOM     32  C   UNL     1       3.789  -7.196  -5.140  1.00  0.00     0.200 C 
BRANCH  32  33
ATOM     33  N   UNL     1       2.498  -7.858  -4.911  1.00  0.00    -0.340 N 
ATOM     34  C   UNL     1       2.431  -9.136  -4.396  1.00  0.00     0.243 CG0
ATOM     35  O   UNL     1       3.441  -9.798  -4.168  1.00  0.00    -0.273 OA
ATOM     36  H   UNL     1       1.648  -7.348  -5.119  1.00  0.00     0.164 HD
ATOM     37  G   UNL     1       1.026  -9.757  -4.337  1.00  0.00     0.000 G0
ENDBRANCH  32  33
BRANCH  32  38
ATOM     38  C   UNL     1       3.981  -6.741  -6.606  1.00  0.00     0.143 C 
ATOM     39  C   UNL     1       4.174  -7.887  -7.592  1.00  0.00     0.041 C 
BRANCH  38  40
ATOM     40  O   UNL     1       2.856  -5.946  -7.027  1.00  0.00    -0.391 OA
ATOM     41  H   UNL     1       3.174  -5.375  -7.752  1.00  0.00     0.211 HD
ENDBRANCH  38  40
ENDBRANCH  32  38
ENDBRANCH  29  32
ENDBRANCH  27  28
BRANCH  27  42
ATOM     42  C   UNL     1       5.747  -4.427  -2.244  1.00  0.00     0.015 C 
ATOM     43  C   UNL     1       6.312  -3.556  -1.116  1.00  0.00     0.010 C 
ATOM     44  C   UNL     1       6.872  -5.216  -2.921  1.00  0.00     0.010 C 
ENDBRANCH  27  42
ENDBRANCH   3  27
TORSDOF 5
ENDMDL
MODEL 23
REMARK VINA RESULT:    -4.328      2.342      2.993
REMARK INTER + INTRA:          -9.982
REMARK INTER:                  -8.173
REMARK INTRA:                  -1.809
REMARK UNBOUND:                -2.239
REMARK SMILES CC[C@H](C)[C@H]1NC(=O)c2coc(n2)[C@H](C(C)C)NC(=O)[C@H]([C@@H](C)O)NC(=O)[C@H](C)NC(=O)c2csc1n2
REMARK SMILES IDX 11 1 13 2 12 3 9 4 10 5 7 6 6 7 8 8 5 10 36 11 35 12 34 13
REMARK SMILES IDX 37 14 33 15 31 16 32 17 30 18 28 20 29 21 3 23 4 24 2 25
REMARK SMILES IDX 1 26 14 27 18 28 19 29 20 30 21 32 25 33 26 34 27 35 22 38
REMARK SMILES IDX 23 39 24 40 15 42 16 43 17 44
REMARK H PARENT 6 9 30 19 18 31 25 36 24 41
REMARK Flexibility Score:   94.900
ROOT
ATOM      1  O   UNL     1       1.652  -2.805  -1.299  1.00  0.00    -0.446 OA
ATOM      2  N   UNL     1       1.933  -4.944  -1.951  1.00  0.00    -0.207 NA
ATOM      3  C   UNL     1       1.093  -4.043  -1.474  1.00  0.00     0.217 A 
ATOM      4  C   UNL     1       3.116  -4.247  -2.125  1.00  0.00     0.167 A 
ATOM      5  C   UNL     1       2.938  -2.945  -1.727  1.00  0.00     0.231 A 
ENDROOT
BRANCH   4   6
ATOM      6  C   UNL     1       4.333  -4.862  -2.625  1.00  0.00     0.273 C 
ATOM      7  N   UNL     1       4.480  -4.675  -3.977  1.00  0.00    -0.341 N 
ATOM      8  O   UNL     1       5.113  -5.492  -1.921  1.00  0.00    -0.267 OA
ATOM      9  H   UNL     1       3.706  -4.212  -4.444  1.00  0.00     0.164 HD
BRANCH   7  10
ATOM     10  C   UNL     1       5.464  -5.384  -4.771  1.00  0.00     0.145 C 
BRANCH  10  11
ATOM     11  C   UNL     1       4.874  -6.740  -5.131  1.00  0.00     0.116 A 
ATOM     12  S   UNL     1       5.818  -8.166  -4.922  1.00  0.00    -0.124 S 
ATOM     13  C   UNL     1       4.503  -9.110  -5.469  1.00  0.00     0.101 A 
ATOM     14  N   UNL     1       3.650  -6.936  -5.595  1.00  0.00    -0.234 NA
ATOM     15  C   UNL     1       3.424  -8.302  -5.777  1.00  0.00     0.139 A 
BRANCH  15  16
ATOM     16  C   UNL     1       2.135  -8.813  -6.248  1.00  0.00     0.271 C 
ATOM     17  O   UNL     1       1.918  -9.090  -7.422  1.00  0.00    -0.267 OA
ATOM     18  N   UNL     1       1.198  -8.952  -5.245  1.00  0.00    -0.339 N 
ATOM     19  H   UNL     1       1.463  -8.584  -4.335  1.00  0.00     0.164 HD
BRANCH  18  20
ATOM     20  C   UNL     1      -0.162  -9.383  -5.538  1.00  0.00     0.168 CG0
ATOM     21  C   UNL     1      -0.259 -10.908  -5.609  1.00  0.00     0.041 C 
ATOM     22  G   UNL     1      -1.178  -8.895  -4.492  1.00  0.00     0.000 G0
ENDBRANCH  18  20
ENDBRANCH  15  16
ENDBRANCH  10  11
BRANCH  10  23
ATOM     23  C   UNL     1       5.898  -4.577  -6.023  1.00  0.00     0.015 C 
ATOM     24  C   UNL     1       4.786  -3.671  -6.579  1.00  0.00     0.010 C 
BRANCH  23  25
ATOM     25  C   UNL     1       7.158  -3.717  -5.773  1.00  0.00     0.002 C 
ATOM     26  C   UNL     1       6.899  -2.217  -5.804  1.00  0.00     0.004 C 
ENDBRANCH  23  25
ENDBRANCH  10  23
ENDBRANCH   7  10
ENDBRANCH   4   6
BRANCH   3  27
ATOM     27  C   UNL     1      -0.341  -4.260  -1.075  1.00  0.00     0.171 C 
BRANCH  27  28
ATOM     28  N   UNL     1      -0.659  -5.666  -1.301  1.00  0.00    -0.342 N 
ATOM     29  C   UNL     1      -1.550  -6.085  -2.264  1.00  0.00     0.245 C 
ATOM     30  O   UNL     1      -2.133  -5.305  -3.016  1.00  0.00    -0.273 OA
ATOM     31  H   UNL     1      -0.130  -6.376  -0.795  1.00  0.00     0.164 HD
BRANCH  29  32
ATOM     32  C   UNL     1      -1.658  -7.614  -2.441  1.00  0.00     0.200 C 
BRANCH  32  33
ATOM     33  N   UNL     1      -0.785  -8.013  -3.552  1.00  0.00    -0.340 N 
ATOM     34  C   UNL     1      -1.201  -8.926  -4.498  1.00  0.00     0.243 CG0
ATOM     35  O   UNL     1      -2.290  -9.493  -4.419  1.00  0.00    -0.273 OA
ATOM     36  H   UNL     1       0.131  -7.586  -3.626  1.00  0.00     0.164 HD
ATOM     37  G   UNL     1      -0.139  -9.355  -5.523  1.00  0.00     0.000 G0
ENDBRANCH  32  33
BRANCH  32  38
ATOM     38  C   UNL     1      -1.338  -8.360  -1.125  1.00  0.00     0.143 C 
ATOM     39  C   UNL     1      -2.375  -8.156  -0.026  1.00  0.00     0.041 C 
BRANCH  38  40
ATOM     40  O   UNL     1      -1.199  -9.771  -1.379  1.00  0.00    -0.391 OA
ATOM     41  H   UNL     1      -2.098 -10.119  -1.529  1.00  0.00     0.211 HD
ENDBRANCH  38  40
ENDBRANCH  32  38
ENDBRANCH  29  32
ENDBRANCH  27  28
BRANCH  27  42
ATOM     42  C   UNL     1      -0.765  -3.801   0.342  1.00  0.00     0.015 C 
ATOM     43  C   UNL     1       0.374  -3.658   1.358  1.00  0.00     0.010 C 
ATOM     44  C   UNL     1      -1.605  -2.521   0.302  1.00  0.00     0.010 C 
ENDBRANCH  27  42
ENDBRANCH   3  27
TORSDOF 5
ENDMDL
MODEL 24
REMARK VINA RESULT:    -4.197      3.608      8.115
REMARK INTER + INTRA:          -9.748
REMARK INTER:                  -8.005
REMARK INTRA:                  -1.743
REMARK UNBOUND:                -2.239
REMARK SMILES CC[C@H](C)[C@H]1NC(=O)c2coc(n2)[C@H](C(C)C)NC(=O)[C@H]([C@@H](C)O)NC(=O)[C@H](C)NC(=O)c2csc1n2
REMARK SMILES IDX 11 1 13 2 12 3 9 4 10 5 7 6 6 7 8 8 5 10 36 11 35 12 34 13
REMARK SMILES IDX 37 14 33 15 31 16 32 17 30 18 28 20 29 21 3 23 4 24 2 25
REMARK SMILES IDX 1 26 14 27 18 28 19 29 20 30 21 32 25 33 26 34 27 35 22 38
REMARK SMILES IDX 23 39 24 40 15 42 16 43 17 44
REMARK H PARENT 6 9 30 19 18 31 25 36 24 41
REMARK Flexibility Score:   94.900
ROOT
ATOM      1  O   UNL     1       0.266  -6.294   1.353  1.00  0.00    -0.446 OA
ATOM      2  N   UNL     1      -0.749  -6.514  -0.648  1.00  0.00    -0.207 NA
ATOM      3  C   UNL     1       0.226  -5.936   0.031  1.00  0.00     0.217 A 
ATOM      4  C   UNL     1      -1.376  -7.325   0.282  1.00  0.00     0.167 A 
ATOM      5  C   UNL     1      -0.752  -7.187   1.498  1.00  0.00     0.231 A 
ENDROOT
BRANCH   4   6
ATOM      6  C   UNL     1      -2.531  -8.147  -0.033  1.00  0.00     0.273 C 
ATOM      7  N   UNL     1      -2.169  -9.423  -0.382  1.00  0.00    -0.341 N 
ATOM      8  O   UNL     1      -3.684  -7.733  -0.011  1.00  0.00    -0.267 OA
ATOM      9  H   UNL     1      -1.170  -9.596  -0.445  1.00  0.00     0.164 HD
BRANCH   7  10
ATOM     10  C   UNL     1      -3.089 -10.373  -0.977  1.00  0.00     0.145 C 
BRANCH  10  11
ATOM     11  C   UNL     1      -3.086 -10.136  -2.480  1.00  0.00     0.116 A 
ATOM     12  S   UNL     1      -4.464 -10.576  -3.417  1.00  0.00    -0.124 S 
ATOM     13  C   UNL     1      -3.690  -9.983  -4.820  1.00  0.00     0.101 A 
ATOM     14  N   UNL     1      -2.091  -9.590  -3.160  1.00  0.00    -0.234 NA
ATOM     15  C   UNL     1      -2.440  -9.483  -4.508  1.00  0.00     0.139 A 
BRANCH  15  16
ATOM     16  C   UNL     1      -1.539  -8.878  -5.491  1.00  0.00     0.271 C 
ATOM     17  O   UNL     1      -1.766  -8.888  -6.696  1.00  0.00    -0.267 OA
ATOM     18  N   UNL     1      -0.420  -8.300  -4.930  1.00  0.00    -0.339 N 
ATOM     19  H   UNL     1      -0.292  -8.456  -3.933  1.00  0.00     0.164 HD
BRANCH  18  20
ATOM     20  C   UNL     1       0.621  -7.709  -5.759  1.00  0.00     0.168 CG0
ATOM     21  C   UNL     1       0.214  -6.321  -6.259  1.00  0.00     0.041 C 
ATOM     22  G   UNL     1       1.961  -7.568  -5.020  1.00  0.00     0.000 G0
ENDBRANCH  18  20
ENDBRANCH  15  16
ENDBRANCH  10  11
BRANCH  10  23
ATOM     23  C   UNL     1      -2.737 -11.839  -0.608  1.00  0.00     0.015 C 
ATOM     24  C   UNL     1      -1.816 -12.520  -1.633  1.00  0.00     0.010 C 
BRANCH  23  25
ATOM     25  C   UNL     1      -2.098 -11.966   0.793  1.00  0.00     0.002 C 
ATOM     26  C   UNL     1      -2.893 -12.833   1.759  1.00  0.00     0.004 C 
ENDBRANCH  23  25
ENDBRANCH  10  23
ENDBRANCH   7  10
ENDBRANCH   4   6
BRANCH   3  27
ATOM     27  C   UNL     1       1.215  -4.927  -0.483  1.00  0.00     0.171 C 
BRANCH  27  28
ATOM     28  N   UNL     1       1.706  -5.400  -1.774  1.00  0.00    -0.342 N 
ATOM     29  C   UNL     1       3.036  -5.659  -2.018  1.00  0.00     0.245 C 
ATOM     30  O   UNL     1       3.908  -5.525  -1.161  1.00  0.00    -0.273 OA
ATOM     31  H   UNL     1       1.029  -5.643  -2.496  1.00  0.00     0.164 HD
BRANCH  29  32
ATOM     32  C   UNL     1       3.345  -6.274  -3.399  1.00  0.00     0.200 C 
BRANCH  32  33
ATOM     33  N   UNL     1       2.072  -6.586  -4.060  1.00  0.00    -0.340 N 
ATOM     34  C   UNL     1       1.989  -7.566  -5.028  1.00  0.00     0.243 CG0
ATOM     35  O   UNL     1       2.981  -8.173  -5.424  1.00  0.00    -0.273 OA
ATOM     36  H   UNL     1       1.241  -6.081  -3.776  1.00  0.00     0.164 HD
ATOM     37  G   UNL     1       0.629  -7.693  -5.732  1.00  0.00     0.000 G0
ENDBRANCH  32  33
BRANCH  32  38
ATOM     38  C   UNL     1       4.250  -5.346  -4.242  1.00  0.00     0.143 C 
ATOM     39  C   UNL     1       5.566  -5.983  -4.672  1.00  0.00     0.041 C 
BRANCH  38  40
ATOM     40  O   UNL     1       3.542  -4.899  -5.414  1.00  0.00    -0.391 OA
ATOM     41  H   UNL     1       4.016  -5.267  -6.184  1.00  0.00     0.211 HD
ENDBRANCH  38  40
ENDBRANCH  32  38
ENDBRANCH  29  32
ENDBRANCH  27  28
BRANCH  27  42
ATOM     42  C   UNL     1       0.755  -3.450  -0.556  1.00  0.00     0.015 C 
ATOM     43  C   UNL     1       0.162  -2.879   0.737  1.00  0.00     0.010 C 
ATOM     44  C   UNL     1       1.861  -2.531  -1.084  1.00  0.00     0.010 C 
ENDBRANCH  27  42
ENDBRANCH   3  27
TORSDOF 5
ENDMDL
MODEL 25
REMARK VINA RESULT:    -4.145      2.228      4.073
REMARK INTER + INTRA:          -9.655
REMARK INTER:                  -8.668
REMARK INTRA:                  -0.987
REMARK UNBOUND:                -2.239
REMARK SMILES CC[C@H](C)[C@H]1NC(=O)c2coc(n2)[C@H](C(C)C)NC(=O)[C@H]([C@@H](C)O)NC(=O)[C@H](C)NC(=O)c2csc1n2
REMARK SMILES IDX 11 1 13 2 12 3 9 4 10 5 7 6 6 7 8 8 5 10 36 11 35 12 34 13
REMARK SMILES IDX 37 14 33 15 31 16 32 17 30 18 28 20 29 21 3 23 4 24 2 25
REMARK SMILES IDX 1 26 14 27 18 28 19 29 20 30 21 32 25 33 26 34 27 35 22 38
REMARK SMILES IDX 23 39 24 40 15 42 16 43 17 44
REMARK H PARENT 6 9 30 19 18 31 25 36 24 41
REMARK Flexibility Score:   94.900
ROOT
ATOM      1  O   UNL     1      -2.402  -5.226  -2.083  1.00  0.00    -0.446 OA
ATOM      2  N   UNL     1      -0.215  -5.769  -2.024  1.00  0.00    -0.207 NA
ATOM      3  C   UNL     1      -1.427  -6.135  -2.400  1.00  0.00     0.217 A 
ATOM      4  C   UNL     1      -0.400  -4.525  -1.445  1.00  0.00     0.167 A 
ATOM      5  C   UNL     1      -1.734  -4.200  -1.485  1.00  0.00     0.231 A 
ENDROOT
BRANCH   4   6
ATOM      6  C   UNL     1       0.684  -3.747  -0.872  1.00  0.00     0.273 C 
ATOM      7  N   UNL     1       1.072  -2.725  -1.701  1.00  0.00    -0.341 N 
ATOM      8  O   UNL     1       1.200  -3.998   0.210  1.00  0.00    -0.267 OA
ATOM      9  H   UNL     1       0.615  -2.696  -2.608  1.00  0.00     0.164 HD
BRANCH   7  10
ATOM     10  C   UNL     1       2.282  -1.953  -1.495  1.00  0.00     0.145 C 
BRANCH  10  11
ATOM     11  C   UNL     1       3.437  -2.739  -2.098  1.00  0.00     0.116 A 
ATOM     12  S   UNL     1       4.898  -2.933  -1.203  1.00  0.00    -0.124 S 
ATOM     13  C   UNL     1       5.544  -3.872  -2.477  1.00  0.00     0.101 A 
ATOM     14  N   UNL     1       3.420  -3.322  -3.285  1.00  0.00    -0.234 NA
ATOM     15  C   UNL     1       4.627  -3.992  -3.503  1.00  0.00     0.139 A 
BRANCH  15  16
ATOM     16  C   UNL     1       4.871  -4.760  -4.726  1.00  0.00     0.271 C 
ATOM     17  O   UNL     1       5.784  -4.501  -5.502  1.00  0.00    -0.267 OA
ATOM     18  N   UNL     1       3.980  -5.795  -4.913  1.00  0.00    -0.339 N 
ATOM     19  H   UNL     1       3.203  -5.837  -4.258  1.00  0.00     0.164 HD
BRANCH  18  20
ATOM     20  C   UNL     1       4.028  -6.625  -6.109  1.00  0.00     0.168 CG0
ATOM     21  C   UNL     1       5.224  -7.578  -6.078  1.00  0.00     0.041 C 
ATOM     22  G   UNL     1       2.758  -7.471  -6.297  1.00  0.00     0.000 G0
ENDBRANCH  18  20
ENDBRANCH  15  16
ENDBRANCH  10  11
BRANCH  10  23
ATOM     23  C   UNL     1       2.171  -0.521  -2.081  1.00  0.00     0.015 C 
ATOM     24  C   UNL     1       1.764   0.534  -1.039  1.00  0.00     0.010 C 
BRANCH  23  25
ATOM     25  C   UNL     1       3.471  -0.056  -2.774  1.00  0.00     0.002 C 
ATOM     26  C   UNL     1       4.353   0.829  -1.905  1.00  0.00     0.004 C 
ENDBRANCH  23  25
ENDBRANCH  10  23
ENDBRANCH   7  10
ENDBRANCH   4   6
BRANCH   3  27
ATOM     27  C   UNL     1      -1.819  -7.426  -3.064  1.00  0.00     0.171 C 
BRANCH  27  28
ATOM     28  N   UNL     1      -0.824  -7.721  -4.089  1.00  0.00    -0.342 N 
ATOM     29  C   UNL     1       0.195  -8.627  -3.902  1.00  0.00     0.245 C 
ATOM     30  O   UNL     1       0.333  -9.268  -2.861  1.00  0.00    -0.273 OA
ATOM     31  H   UNL     1      -0.941  -7.314  -5.017  1.00  0.00     0.164 HD
BRANCH  29  32
ATOM     32  C   UNL     1       1.071  -8.901  -5.143  1.00  0.00     0.200 C 
BRANCH  32  33
ATOM     33  N   UNL     1       2.205  -7.969  -5.121  1.00  0.00    -0.340 N 
ATOM     34  C   UNL     1       2.744  -7.469  -6.289  1.00  0.00     0.243 CG0
ATOM     35  O   UNL     1       2.345  -7.828  -7.394  1.00  0.00    -0.273 OA
ATOM     36  H   UNL     1       2.577  -7.678  -4.224  1.00  0.00     0.164 HD
ATOM     37  G   UNL     1       4.012  -6.615  -6.125  1.00  0.00     0.000 G0
ENDBRANCH  32  33
BRANCH  32  38
ATOM     38  C   UNL     1       1.509 -10.382  -5.211  1.00  0.00     0.143 C 
ATOM     39  C   UNL     1       2.720 -10.713  -4.346  1.00  0.00     0.041 C 
BRANCH  38  40
ATOM     40  O   UNL     1       0.414 -11.238  -4.829  1.00  0.00    -0.391 OA
ATOM     41  H   UNL     1      -0.110 -10.743  -4.171  1.00  0.00     0.211 HD
ENDBRANCH  38  40
ENDBRANCH  32  38
ENDBRANCH  29  32
ENDBRANCH  27  28
BRANCH  27  42
ATOM     42  C   UNL     1      -2.076  -8.649  -2.151  1.00  0.00     0.015 C 
ATOM     43  C   UNL     1      -2.111  -8.355  -0.646  1.00  0.00     0.010 C 
ATOM     44  C   UNL     1      -3.329  -9.424  -2.570  1.00  0.00     0.010 C 
ENDBRANCH  27  42
ENDBRANCH   3  27
TORSDOF 5
ENDMDL
MODEL 26
REMARK VINA RESULT:    -4.090      2.646      7.023
REMARK INTER + INTRA:          -9.556
REMARK INTER:                 -10.274
REMARK INTRA:                   0.718
REMARK UNBOUND:                -2.239
REMARK SMILES CC[C@H](C)[C@H]1NC(=O)c2coc(n2)[C@H](C(C)C)NC(=O)[C@H]([C@@H](C)O)NC(=O)[C@H](C)NC(=O)c2csc1n2
REMARK SMILES IDX 11 1 13 2 12 3 9 4 10 5 7 6 6 7 8 8 5 10 36 11 35 12 34 13
REMARK SMILES IDX 37 14 33 15 31 16 32 17 30 18 28 20 29 21 3 23 4 24 2 25
REMARK SMILES IDX 1 26 14 27 18 28 19 29 20 30 21 32 25 33 26 34 27 35 22 38
REMARK SMILES IDX 23 39 24 40 15 42 16 43 17 44
REMARK H PARENT 6 9 30 19 18 31 25 36 24 41
REMARK Flexibility Score:   94.900
ROOT
ATOM      1  O   UNL     1       3.068  -0.033  -2.701  1.00  0.00    -0.446 OA
ATOM      2  N   UNL     1       3.225  -1.873  -1.408  1.00  0.00    -0.207 NA
ATOM      3  C   UNL     1       3.860  -1.037  -2.211  1.00  0.00     0.217 A 
ATOM      4  C   UNL     1       1.937  -1.369  -1.345  1.00  0.00     0.167 A 
ATOM      5  C   UNL     1       1.849  -0.249  -2.134  1.00  0.00     0.231 A 
ENDROOT
BRANCH   4   6
ATOM      6  C   UNL     1       0.879  -1.994  -0.571  1.00  0.00     0.273 C 
ATOM      7  N   UNL     1       0.792  -3.341  -0.820  1.00  0.00    -0.341 N 
ATOM      8  O   UNL     1       0.141  -1.379   0.189  1.00  0.00    -0.267 OA
ATOM      9  H   UNL     1       1.410  -3.695  -1.545  1.00  0.00     0.164 HD
BRANCH   7  10
ATOM     10  C   UNL     1      -0.321  -4.158  -0.379  1.00  0.00     0.145 C 
BRANCH  10  11
ATOM     11  C   UNL     1      -0.394  -5.371  -1.296  1.00  0.00     0.116 A 
ATOM     12  S   UNL     1      -1.837  -6.311  -1.355  1.00  0.00    -0.124 S 
ATOM     13  C   UNL     1      -1.122  -7.319  -2.536  1.00  0.00     0.101 A 
ATOM     14  N   UNL     1       0.580  -5.778  -2.093  1.00  0.00    -0.234 NA
ATOM     15  C   UNL     1       0.160  -6.892  -2.824  1.00  0.00     0.139 A 
BRANCH  15  16
ATOM     16  C   UNL     1       1.026  -7.532  -3.817  1.00  0.00     0.271 C 
ATOM     17  O   UNL     1       0.941  -8.720  -4.105  1.00  0.00    -0.267 OA
ATOM     18  N   UNL     1       1.937  -6.670  -4.390  1.00  0.00    -0.339 N 
ATOM     19  H   UNL     1       1.982  -5.738  -3.987  1.00  0.00     0.164 HD
BRANCH  18  20
ATOM     20  C   UNL     1       2.925  -7.145  -5.349  1.00  0.00     0.168 CG0
ATOM     21  C   UNL     1       2.390  -7.072  -6.781  1.00  0.00     0.041 C 
ATOM     22  G   UNL     1       4.237  -6.346  -5.297  1.00  0.00     0.000 G0
ENDBRANCH  18  20
ENDBRANCH  15  16
ENDBRANCH  10  11
BRANCH  10  23
ATOM     23  C   UNL     1      -0.201  -4.554   1.117  1.00  0.00     0.015 C 
ATOM     24  C   UNL     1      -1.528  -4.440   1.885  1.00  0.00     0.010 C 
BRANCH  23  25
ATOM     25  C   UNL     1       0.365  -5.978   1.315  1.00  0.00     0.002 C 
ATOM     26  C   UNL     1      -0.185  -6.697   2.539  1.00  0.00     0.004 C 
ENDBRANCH  23  25
ENDBRANCH  10  23
ENDBRANCH   7  10
ENDBRANCH   4   6
BRANCH   3  27
ATOM     27  C   UNL     1       5.294  -1.121  -2.656  1.00  0.00     0.171 C 
BRANCH  27  28
ATOM     28  N   UNL     1       5.623  -2.530  -2.842  1.00  0.00    -0.342 N 
ATOM     29  C   UNL     1       5.011  -3.322  -3.787  1.00  0.00     0.245 C 
ATOM     30  O   UNL     1       4.151  -2.895  -4.557  1.00  0.00    -0.273 OA
ATOM     31  H   UNL     1       6.405  -2.924  -2.319  1.00  0.00     0.164 HD
BRANCH  29  32
ATOM     32  C   UNL     1       5.581  -4.750  -3.921  1.00  0.00     0.200 C 
BRANCH  32  33
ATOM     33  N   UNL     1       4.458  -5.680  -4.091  1.00  0.00    -0.340 N 
ATOM     34  C   UNL     1       4.236  -6.324  -5.291  1.00  0.00     0.243 CG0
ATOM     35  O   UNL     1       4.924  -6.100  -6.285  1.00  0.00    -0.273 OA
ATOM     36  H   UNL     1       3.855  -5.862  -3.297  1.00  0.00     0.164 HD
ATOM     37  G   UNL     1       2.950  -7.161  -5.370  1.00  0.00     0.000 G0
ENDBRANCH  32  33
BRANCH  32  38
ATOM     38  C   UNL     1       6.616  -4.839  -5.067  1.00  0.00     0.143 C 
ATOM     39  C   UNL     1       7.168  -3.491  -5.514  1.00  0.00     0.041 C 
BRANCH  38  40
ATOM     40  O   UNL     1       7.714  -5.686  -4.673  1.00  0.00    -0.391 OA
ATOM     41  H   UNL     1       7.586  -6.540  -5.128  1.00  0.00     0.211 HD
ENDBRANCH  38  40
ENDBRANCH  32  38
ENDBRANCH  29  32
ENDBRANCH  27  28
BRANCH  27  42
ATOM     42  C   UNL     1       5.711  -0.273  -3.883  1.00  0.00     0.015 C 
ATOM     43  C   UNL     1       4.556   0.290  -4.721  1.00  0.00     0.010 C 
ATOM     44  C   UNL     1       6.684   0.847  -3.501  1.00  0.00     0.010 C 
ENDBRANCH  27  42
ENDBRANCH   3  27
TORSDOF 5
ENDMDL
MODEL 27
REMARK VINA RESULT:    -4.055     15.826     19.029
REMARK INTER + INTRA:          -9.495
REMARK INTER:                  -7.170
REMARK INTRA:                  -2.325
REMARK UNBOUND:                -2.239
REMARK SMILES CC[C@H](C)[C@H]1NC(=O)c2coc(n2)[C@H](C(C)C)NC(=O)[C@H]([C@@H](C)O)NC(=O)[C@H](C)NC(=O)c2csc1n2
REMARK SMILES IDX 11 1 13 2 12 3 9 4 10 5 7 6 6 7 8 8 5 10 36 11 35 12 34 13
REMARK SMILES IDX 37 14 33 15 31 16 32 17 30 18 28 20 29 21 3 23 4 24 2 25
REMARK SMILES IDX 1 26 14 27 18 28 19 29 20 30 21 32 25 33 26 34 27 35 22 38
REMARK SMILES IDX 23 39 24 40 15 42 16 43 17 44
REMARK H PARENT 6 9 30 19 18 31 25 36 24 41
REMARK Flexibility Score:   94.900
ROOT
ATOM      1  O   UNL     1     -12.221  -5.839   1.674  1.00  0.00    -0.446 OA
ATOM      2  N   UNL     1     -13.095  -6.697   3.566  1.00  0.00    -0.207 NA
ATOM      3  C   UNL     1     -13.183  -5.754   2.645  1.00  0.00     0.217 A 
ATOM      4  C   UNL     1     -12.020  -7.469   3.160  1.00  0.00     0.167 A 
ATOM      5  C   UNL     1     -11.493  -6.941   2.007  1.00  0.00     0.231 A 
ENDROOT
BRANCH   4   6
ATOM      6  C   UNL     1     -11.550  -8.626   3.901  1.00  0.00     0.273 C 
ATOM      7  N   UNL     1     -11.698  -9.786   3.183  1.00  0.00    -0.341 N 
ATOM      8  O   UNL     1     -11.100  -8.566   5.039  1.00  0.00    -0.267 OA
ATOM      9  H   UNL     1     -12.172  -9.693   2.289  1.00  0.00     0.164 HD
BRANCH   7  10
ATOM     10  C   UNL     1     -11.544 -11.104   3.766  1.00  0.00     0.145 C 
BRANCH  10  11
ATOM     11  C   UNL     1     -12.878 -11.491   4.388  1.00  0.00     0.116 A 
ATOM     12  S   UNL     1     -12.981 -12.894   5.384  1.00  0.00    -0.124 S 
ATOM     13  C   UNL     1     -14.638 -12.572   5.653  1.00  0.00     0.101 A 
ATOM     14  N   UNL     1     -14.007 -10.817   4.242  1.00  0.00    -0.234 NA
ATOM     15  C   UNL     1     -15.022 -11.426   4.983  1.00  0.00     0.139 A 
BRANCH  15  16
ATOM     16  C   UNL     1     -16.376 -10.870   5.035  1.00  0.00     0.271 C 
ATOM     17  O   UNL     1     -17.302 -11.426   5.617  1.00  0.00    -0.267 OA
ATOM     18  N   UNL     1     -16.504  -9.668   4.373  1.00  0.00    -0.339 N 
ATOM     19  H   UNL     1     -15.693  -9.367   3.838  1.00  0.00     0.164 HD
BRANCH  18  20
ATOM     20  C   UNL     1     -17.793  -9.000   4.262  1.00  0.00     0.168 CG0
ATOM     21  C   UNL     1     -18.025  -8.039   5.430  1.00  0.00     0.041 C 
ATOM     22  G   UNL     1     -17.938  -8.198   2.958  1.00  0.00     0.000 G0
ENDBRANCH  18  20
ENDBRANCH  15  16
ENDBRANCH  10  11
BRANCH  10  23
ATOM     23  C   UNL     1     -11.049 -12.149   2.730  1.00  0.00     0.015 C 
ATOM     24  C   UNL     1     -11.207 -11.684   1.273  1.00  0.00     0.010 C 
BRANCH  23  25
ATOM     25  C   UNL     1      -9.579 -12.567   2.959  1.00  0.00     0.002 C 
ATOM     26  C   UNL     1      -8.724 -11.491   3.614  1.00  0.00     0.004 C 
ENDBRANCH  23  25
ENDBRANCH  10  23
ENDBRANCH   7  10
ENDBRANCH   4   6
BRANCH   3  27
ATOM     27  C   UNL     1     -14.167  -4.618   2.601  1.00  0.00     0.171 C 
BRANCH  27  28
ATOM     28  N   UNL     1     -15.509  -5.186   2.681  1.00  0.00    -0.342 N 
ATOM     29  C   UNL     1     -16.366  -5.231   1.605  1.00  0.00     0.245 C 
ATOM     30  O   UNL     1     -16.059  -4.808   0.491  1.00  0.00    -0.273 OA
ATOM     31  H   UNL     1     -15.791  -5.658   3.540  1.00  0.00     0.164 HD
BRANCH  29  32
ATOM     32  C   UNL     1     -17.691  -5.984   1.848  1.00  0.00     0.200 C 
BRANCH  32  33
ATOM     33  N   UNL     1     -17.506  -6.884   2.993  1.00  0.00    -0.340 N 
ATOM     34  C   UNL     1     -17.934  -8.195   2.950  1.00  0.00     0.243 CG0
ATOM     35  O   UNL     1     -18.542  -8.649   1.983  1.00  0.00    -0.273 OA
ATOM     36  H   UNL     1     -17.035  -6.530   3.817  1.00  0.00     0.164 HD
ATOM     37  G   UNL     1     -17.801  -8.982   4.264  1.00  0.00     0.000 G0
ENDBRANCH  32  33
BRANCH  32  38
ATOM     38  C   UNL     1     -18.873  -5.005   2.036  1.00  0.00     0.143 C 
ATOM     39  C   UNL     1     -19.894  -5.453   3.075  1.00  0.00     0.041 C 
BRANCH  38  40
ATOM     40  O   UNL     1     -18.379  -3.701   2.398  1.00  0.00    -0.391 OA
ATOM     41  H   UNL     1     -18.157  -3.740   3.348  1.00  0.00     0.211 HD
ENDBRANCH  38  40
ENDBRANCH  32  38
ENDBRANCH  29  32
ENDBRANCH  27  28
BRANCH  27  42
ATOM     42  C   UNL     1     -13.974  -3.468   3.620  1.00  0.00     0.015 C 
ATOM     43  C   UNL     1     -14.516  -3.735   5.029  1.00  0.00     0.010 C 
ATOM     44  C   UNL     1     -12.516  -3.004   3.691  1.00  0.00     0.010 C 
ENDBRANCH  27  42
ENDBRANCH   3  27
TORSDOF 5
ENDMDL
MODEL 28
REMARK VINA RESULT:    -4.007     14.603     18.340
REMARK INTER + INTRA:          -9.409
REMARK INTER:                  -7.764
REMARK INTRA:                  -1.645
REMARK UNBOUND:                -2.239
REMARK SMILES CC[C@H](C)[C@H]1NC(=O)c2coc(n2)[C@H](C(C)C)NC(=O)[C@H]([C@@H](C)O)NC(=O)[C@H](C)NC(=O)c2csc1n2
REMARK SMILES IDX 11 1 13 2 12 3 9 4 10 5 7 6 6 7 8 8 5 10 36 11 35 12 34 13
REMARK SMILES IDX 37 14 33 15 31 16 32 17 30 18 28 20 29 21 3 23 4 24 2 25
REMARK SMILES IDX 1 26 14 27 18 28 19 29 20 30 21 32 25 33 26 34 27 35 22 38
REMARK SMILES IDX 23 39 24 40 15 42 16 43 17 44
REMARK H PARENT 6 9 30 19 18 31 25 36 24 41
REMARK Flexibility Score:   94.900
ROOT
ATOM      1  O   UNL     1     -10.409  -7.437   1.279  1.00  0.00    -0.446 OA
ATOM      2  N   UNL     1     -12.100  -6.976   2.697  1.00  0.00    -0.207 NA
ATOM      3  C   UNL     1     -11.083  -7.773   2.423  1.00  0.00     0.217 A 
ATOM      4  C   UNL     1     -12.078  -6.037   1.679  1.00  0.00     0.167 A 
ATOM      5  C   UNL     1     -11.046  -6.324   0.820  1.00  0.00     0.231 A 
ENDROOT
BRANCH   4   6
ATOM      6  C   UNL     1     -13.046  -4.959   1.573  1.00  0.00     0.273 C 
ATOM      7  N   UNL     1     -13.778  -4.816   2.725  1.00  0.00    -0.341 N 
ATOM      8  O   UNL     1     -13.198  -4.282   0.564  1.00  0.00    -0.267 OA
ATOM      9  H   UNL     1     -13.604  -5.510   3.447  1.00  0.00     0.164 HD
BRANCH   7  10
ATOM     10  C   UNL     1     -14.967  -3.992   2.810  1.00  0.00     0.145 C 
BRANCH  10  11
ATOM     11  C   UNL     1     -16.166  -4.923   2.913  1.00  0.00     0.116 A 
ATOM     12  S   UNL     1     -17.710  -4.392   2.361  1.00  0.00    -0.124 S 
ATOM     13  C   UNL     1     -18.372  -5.914   2.772  1.00  0.00     0.101 A 
ATOM     14  N   UNL     1     -16.130  -6.156   3.392  1.00  0.00    -0.234 NA
ATOM     15  C   UNL     1     -17.396  -6.739   3.298  1.00  0.00     0.139 A 
BRANCH  15  16
ATOM     16  C   UNL     1     -17.641  -8.119   3.722  1.00  0.00     0.271 C 
ATOM     17  O   UNL     1     -18.348  -8.404   4.683  1.00  0.00    -0.267 OA
ATOM     18  N   UNL     1     -17.004  -9.057   2.938  1.00  0.00    -0.339 N 
ATOM     19  H   UNL     1     -16.359  -8.691   2.243  1.00  0.00     0.164 HD
BRANCH  18  20
ATOM     20  C   UNL     1     -17.079 -10.478   3.251  1.00  0.00     0.168 CG0
ATOM     21  C   UNL     1     -17.899 -11.236   2.205  1.00  0.00     0.041 C 
ATOM     22  G   UNL     1     -15.694 -11.142   3.334  1.00  0.00     0.000 G0
ENDBRANCH  18  20
ENDBRANCH  15  16
ENDBRANCH  10  11
BRANCH  10  23
ATOM     23  C   UNL     1     -14.898  -2.984   3.988  1.00  0.00     0.015 C 
ATOM     24  C   UNL     1     -13.797  -3.315   5.009  1.00  0.00     0.010 C 
BRANCH  23  25
ATOM     25  C   UNL     1     -14.713  -1.524   3.516  1.00  0.00     0.002 C 
ATOM     26  C   UNL     1     -15.872  -0.990   2.686  1.00  0.00     0.004 C 
ENDBRANCH  23  25
ENDBRANCH  10  23
ENDBRANCH   7  10
ENDBRANCH   4   6
BRANCH   3  27
ATOM     27  C   UNL     1     -10.654  -8.992   3.193  1.00  0.00     0.171 C 
BRANCH  27  28
ATOM     28  N   UNL     1     -11.769  -9.933   3.196  1.00  0.00    -0.342 N 
ATOM     29  C   UNL     1     -12.413 -10.333   2.047  1.00  0.00     0.245 C 
ATOM     30  O   UNL     1     -12.085  -9.938   0.929  1.00  0.00    -0.273 OA
ATOM     31  H   UNL     1     -12.022 -10.390   4.072  1.00  0.00     0.164 HD
BRANCH  29  32
ATOM     32  C   UNL     1     -13.481 -11.430   2.237  1.00  0.00     0.200 C 
BRANCH  32  33
ATOM     33  N   UNL     1     -14.793 -10.782   2.346  1.00  0.00    -0.340 N 
ATOM     34  C   UNL     1     -15.691 -11.145   3.328  1.00  0.00     0.243 CG0
ATOM     35  O   UNL     1     -15.462 -12.065   4.111  1.00  0.00    -0.273 OA
ATOM     36  H   UNL     1     -15.024 -10.041   1.695  1.00  0.00     0.164 HD
ATOM     37  G   UNL     1     -17.077 -10.484   3.242  1.00  0.00     0.000 G0
ENDBRANCH  32  33
BRANCH  32  38
ATOM     38  C   UNL     1     -13.420 -12.481   1.103  1.00  0.00     0.143 C 
ATOM     39  C   UNL     1     -14.320 -12.166  -0.086  1.00  0.00     0.041 C 
BRANCH  38  40
ATOM     40  O   UNL     1     -12.064 -12.625   0.637  1.00  0.00    -0.391 OA
ATOM     41  H   UNL     1     -12.104 -13.166  -0.174  1.00  0.00     0.211 HD
ENDBRANCH  38  40
ENDBRANCH  32  38
ENDBRANCH  29  32
ENDBRANCH  27  28
BRANCH  27  42
ATOM     42  C   UNL     1      -9.332  -9.676   2.767  1.00  0.00     0.015 C 
ATOM     43  C   UNL     1      -8.048  -8.945   3.174  1.00  0.00     0.010 C 
ATOM     44  C   UNL     1      -9.275 -11.140   3.215  1.00  0.00     0.010 C 
ENDBRANCH  27  42
ENDBRANCH   3  27
TORSDOF 5
ENDMDL
MODEL 29
REMARK VINA RESULT:    -3.966      9.164     12.889
REMARK INTER + INTRA:          -9.336
REMARK INTER:                  -7.046
REMARK INTRA:                  -2.290
REMARK UNBOUND:                -2.239
REMARK SMILES CC[C@H](C)[C@H]1NC(=O)c2coc(n2)[C@H](C(C)C)NC(=O)[C@H]([C@@H](C)O)NC(=O)[C@H](C)NC(=O)c2csc1n2
REMARK SMILES IDX 11 1 13 2 12 3 9 4 10 5 7 6 6 7 8 8 5 10 36 11 35 12 34 13
REMARK SMILES IDX 37 14 33 15 31 16 32 17 30 18 28 20 29 21 3 23 4 24 2 25
REMARK SMILES IDX 1 26 14 27 18 28 19 29 20 30 21 32 25 33 26 34 27 35 22 38
REMARK SMILES IDX 23 39 24 40 15 42 16 43 17 44
REMARK H PARENT 6 9 30 19 18 31 25 36 24 41
REMARK Flexibility Score:   94.900
ROOT
ATOM      1  O   UNL     1      -4.641 -12.218   3.609  1.00  0.00    -0.446 OA
ATOM      2  N   UNL     1      -5.741 -10.261   3.813  1.00  0.00    -0.207 NA
ATOM      3  C   UNL     1      -5.618 -11.502   4.248  1.00  0.00     0.217 A 
ATOM      4  C   UNL     1      -4.763 -10.144   2.841  1.00  0.00     0.167 A 
ATOM      5  C   UNL     1      -4.096 -11.339   2.722  1.00  0.00     0.231 A 
ENDROOT
BRANCH   4   6
ATOM      6  C   UNL     1      -4.546  -8.929   2.076  1.00  0.00     0.273 C 
ATOM      7  N   UNL     1      -3.222  -8.571   2.052  1.00  0.00    -0.341 N 
ATOM      8  O   UNL     1      -5.447  -8.294   1.542  1.00  0.00    -0.267 OA
ATOM      9  H   UNL     1      -2.601  -9.142   2.618  1.00  0.00     0.164 HD
BRANCH   7  10
ATOM     10  C   UNL     1      -2.758  -7.282   1.577  1.00  0.00     0.145 C 
BRANCH  10  11
ATOM     11  C   UNL     1      -2.721  -6.338   2.770  1.00  0.00     0.116 A 
ATOM     12  S   UNL     1      -1.849  -4.855   2.660  1.00  0.00    -0.124 S 
ATOM     13  C   UNL     1      -2.332  -4.461   4.251  1.00  0.00     0.101 A 
ATOM     14  N   UNL     1      -3.331  -6.550   3.924  1.00  0.00    -0.234 NA
ATOM     15  C   UNL     1      -3.125  -5.463   4.778  1.00  0.00     0.139 A 
BRANCH  15  16
ATOM     16  C   UNL     1      -3.719  -5.411   6.115  1.00  0.00     0.271 C 
ATOM     17  O   UNL     1      -3.480  -4.512   6.914  1.00  0.00    -0.267 OA
ATOM     18  N   UNL     1      -4.569  -6.463   6.382  1.00  0.00    -0.339 N 
ATOM     19  H   UNL     1      -4.597  -7.200   5.681  1.00  0.00     0.164 HD
BRANCH  18  20
ATOM     20  C   UNL     1      -5.199  -6.613   7.686  1.00  0.00     0.168 CG0
ATOM     21  C   UNL     1      -6.718  -6.460   7.592  1.00  0.00     0.041 C 
ATOM     22  G   UNL     1      -4.903  -7.974   8.337  1.00  0.00     0.000 G0
ENDBRANCH  18  20
ENDBRANCH  15  16
ENDBRANCH  10  11
BRANCH  10  23
ATOM     23  C   UNL     1      -1.386  -7.381   0.858  1.00  0.00     0.015 C 
ATOM     24  C   UNL     1      -0.892  -8.827   0.687  1.00  0.00     0.010 C 
BRANCH  23  25
ATOM     25  C   UNL     1      -1.384  -6.690  -0.524  1.00  0.00     0.002 C 
ATOM     26  C   UNL     1      -0.413  -7.306  -1.522  1.00  0.00     0.004 C 
ENDBRANCH  23  25
ENDBRANCH  10  23
ENDBRANCH   7  10
ENDBRANCH   4   6
BRANCH   3  27
ATOM     27  C   UNL     1      -6.454 -12.182   5.298  1.00  0.00     0.171 C 
BRANCH  27  28
ATOM     28  N   UNL     1      -6.462 -11.331   6.483  1.00  0.00    -0.342 N 
ATOM     29  C   UNL     1      -5.506 -11.416   7.470  1.00  0.00     0.245 C 
ATOM     30  O   UNL     1      -4.565 -12.206   7.419  1.00  0.00    -0.273 OA
ATOM     31  H   UNL     1      -7.145 -10.577   6.539  1.00  0.00     0.164 HD
BRANCH  29  32
ATOM     32  C   UNL     1      -5.608 -10.348   8.580  1.00  0.00     0.200 C 
BRANCH  32  33
ATOM     33  N   UNL     1      -5.701  -9.029   7.942  1.00  0.00    -0.340 N 
ATOM     34  C   UNL     1      -4.908  -7.978   8.354  1.00  0.00     0.243 CG0
ATOM     35  O   UNL     1      -4.140  -8.078   9.308  1.00  0.00    -0.273 OA
ATOM     36  H   UNL     1      -6.348  -8.907   7.173  1.00  0.00     0.164 HD
ATOM     37  G   UNL     1      -5.206  -6.621   7.695  1.00  0.00     0.000 G0
ENDBRANCH  32  33
BRANCH  32  38
ATOM     38  C   UNL     1      -6.786 -10.639   9.538  1.00  0.00     0.143 C 
ATOM     39  C   UNL     1      -7.926  -9.632   9.446  1.00  0.00     0.041 C 
BRANCH  38  40
ATOM     40  O   UNL     1      -7.307 -11.960   9.292  1.00  0.00    -0.391 OA
ATOM     41  H   UNL     1      -8.279 -11.875   9.260  1.00  0.00     0.211 HD
ENDBRANCH  38  40
ENDBRANCH  32  38
ENDBRANCH  29  32
ENDBRANCH  27  28
BRANCH  27  42
ATOM     42  C   UNL     1      -7.886 -12.616   4.898  1.00  0.00     0.015 C 
ATOM     43  C   UNL     1      -9.018 -11.736   5.439  1.00  0.00     0.010 C 
ATOM     44  C   UNL     1      -8.029 -12.793   3.383  1.00  0.00     0.010 C 
ENDBRANCH  27  42
ENDBRANCH   3  27
TORSDOF 5
ENDMDL
MODEL 30
REMARK VINA RESULT:    -3.874      2.175      2.779
REMARK INTER + INTRA:          -9.170
REMARK INTER:                  -7.386
REMARK INTRA:                  -1.785
REMARK UNBOUND:                -2.239
REMARK SMILES CC[C@H](C)[C@H]1NC(=O)c2coc(n2)[C@H](C(C)C)NC(=O)[C@H]([C@@H](C)O)NC(=O)[C@H](C)NC(=O)c2csc1n2
REMARK SMILES IDX 11 1 13 2 12 3 9 4 10 5 7 6 6 7 8 8 5 10 36 11 35 12 34 13
REMARK SMILES IDX 37 14 33 15 31 16 32 17 30 18 28 20 29 21 3 23 4 24 2 25
REMARK SMILES IDX 1 26 14 27 18 28 19 29 20 30 21 32 25 33 26 34 27 35 22 38
REMARK SMILES IDX 23 39 24 40 15 42 16 43 17 44
REMARK H PARENT 6 9 30 19 18 31 25 36 24 41
REMARK Flexibility Score:   94.900
ROOT
ATOM      1  O   UNL     1       1.491  -3.642  -0.821  1.00  0.00    -0.446 OA
ATOM      2  N   UNL     1       2.110  -5.592  -1.768  1.00  0.00    -0.207 NA
ATOM      3  C   UNL     1       1.112  -4.874  -1.282  1.00  0.00     0.217 A 
ATOM      4  C   UNL     1       3.214  -4.766  -1.642  1.00  0.00     0.167 A 
ATOM      5  C   UNL     1       2.830  -3.580  -1.065  1.00  0.00     0.231 A 
ENDROOT
BRANCH   4   6
ATOM      6  C   UNL     1       4.551  -5.163  -2.046  1.00  0.00     0.273 C 
ATOM      7  N   UNL     1       4.741  -5.016  -3.397  1.00  0.00    -0.341 N 
ATOM      8  O   UNL     1       5.392  -5.600  -1.270  1.00  0.00    -0.267 OA
ATOM      9  H   UNL     1       3.923  -4.730  -3.928  1.00  0.00     0.164 HD
BRANCH   7  10
ATOM     10  C   UNL     1       5.884  -5.563  -4.101  1.00  0.00     0.145 C 
BRANCH  10  11
ATOM     11  C   UNL     1       5.430  -6.841  -4.792  1.00  0.00     0.116 A 
ATOM     12  S   UNL     1       6.585  -8.061  -5.175  1.00  0.00    -0.124 S 
ATOM     13  C   UNL     1       5.333  -9.034  -5.815  1.00  0.00     0.101 A 
ATOM     14  N   UNL     1       4.181  -7.119  -5.128  1.00  0.00    -0.234 NA
ATOM     15  C   UNL     1       4.116  -8.390  -5.703  1.00  0.00     0.139 A 
BRANCH  15  16
ATOM     16  C   UNL     1       2.845  -8.975  -6.137  1.00  0.00     0.271 C 
ATOM     17  O   UNL     1       2.768  -9.809  -7.032  1.00  0.00    -0.267 OA
ATOM     18  N   UNL     1       1.754  -8.497  -5.442  1.00  0.00    -0.339 N 
ATOM     19  H   UNL     1       1.936  -7.728  -4.803  1.00  0.00     0.164 HD
BRANCH  18  20
ATOM     20  C   UNL     1       0.401  -8.915  -5.783  1.00  0.00     0.168 CG0
ATOM     21  C   UNL     1      -0.134  -9.939  -4.779  1.00  0.00     0.041 C 
ATOM     22  G   UNL     1      -0.590  -7.741  -5.830  1.00  0.00     0.000 G0
ENDBRANCH  18  20
ENDBRANCH  15  16
ENDBRANCH  10  11
BRANCH  10  23
ATOM     23  C   UNL     1       6.505  -4.543  -5.091  1.00  0.00     0.015 C 
ATOM     24  C   UNL     1       7.960  -4.869  -5.467  1.00  0.00     0.010 C 
BRANCH  23  25
ATOM     25  C   UNL     1       5.681  -4.391  -6.390  1.00  0.00     0.002 C 
ATOM     26  C   UNL     1       5.009  -3.033  -6.540  1.00  0.00     0.004 C 
ENDBRANCH  23  25
ENDBRANCH  10  23
ENDBRANCH   7  10
ENDBRANCH   4   6
BRANCH   3  27
ATOM     27  C   UNL     1      -0.325  -5.295  -1.147  1.00  0.00     0.171 C 
BRANCH  27  28
ATOM     28  N   UNL     1      -0.726  -5.924  -2.401  1.00  0.00    -0.342 N 
ATOM     29  C   UNL     1      -1.848  -5.545  -3.103  1.00  0.00     0.245 C 
ATOM     30  O   UNL     1      -2.589  -4.635  -2.732  1.00  0.00    -0.273 OA
ATOM     31  H   UNL     1      -0.100  -6.606  -2.829  1.00  0.00     0.164 HD
BRANCH  29  32
ATOM     32  C   UNL     1      -2.037  -6.236  -4.470  1.00  0.00     0.200 C 
BRANCH  32  33
ATOM     33  N   UNL     1      -1.031  -7.299  -4.591  1.00  0.00    -0.340 N 
ATOM     34  C   UNL     1      -0.578  -7.718  -5.825  1.00  0.00     0.243 CG0
ATOM     35  O   UNL     1      -1.038  -7.269  -6.873  1.00  0.00    -0.273 OA
ATOM     36  H   UNL     1      -0.655  -7.710  -3.745  1.00  0.00     0.164 HD
ATOM     37  G   UNL     1       0.369  -8.928  -5.811  1.00  0.00     0.000 G0
ENDBRANCH  32  33
BRANCH  32  38
ATOM     38  C   UNL     1      -3.484  -6.752  -4.647  1.00  0.00     0.143 C 
ATOM     39  C   UNL     1      -4.098  -6.429  -6.004  1.00  0.00     0.041 C 
BRANCH  38  40
ATOM     40  O   UNL     1      -3.527  -8.178  -4.442  1.00  0.00    -0.391 OA
ATOM     41  H   UNL     1      -2.879  -8.568  -5.059  1.00  0.00     0.211 HD
ENDBRANCH  38  40
ENDBRANCH  32  38
ENDBRANCH  29  32
ENDBRANCH  27  28
BRANCH  27  42
ATOM     42  C   UNL     1      -0.702  -6.169   0.074  1.00  0.00     0.015 C 
ATOM     43  C   UNL     1      -1.501  -5.459   1.173  1.00  0.00     0.010 C 
ATOM     44  C   UNL     1      -1.406  -7.464  -0.343  1.00  0.00     0.010 C 
ENDBRANCH  27  42
ENDBRANCH   3  27
TORSDOF 5
ENDMDL
MODEL 31
REMARK VINA RESULT:    -3.860      2.856      7.214
REMARK INTER + INTRA:          -9.145
REMARK INTER:                  -8.283
REMARK INTRA:                  -0.862
REMARK UNBOUND:                -2.239
REMARK SMILES CC[C@H](C)[C@H]1NC(=O)c2coc(n2)[C@H](C(C)C)NC(=O)[C@H]([C@@H](C)O)NC(=O)[C@H](C)NC(=O)c2csc1n2
REMARK SMILES IDX 11 1 13 2 12 3 9 4 10 5 7 6 6 7 8 8 5 10 36 11 35 12 34 13
REMARK SMILES IDX 37 14 33 15 31 16 32 17 30 18 28 20 29 21 3 23 4 24 2 25
REMARK SMILES IDX 1 26 14 27 18 28 19 29 20 30 21 32 25 33 26 34 27 35 22 38
REMARK SMILES IDX 23 39 24 40 15 42 16 43 17 44
REMARK H PARENT 6 9 30 19 18 31 25 36 24 41
REMARK Flexibility Score:   94.900
ROOT
ATOM      1  O   UNL     1       2.992  -3.093  -1.085  1.00  0.00    -0.446 OA
ATOM      2  N   UNL     1       2.225  -5.172  -1.498  1.00  0.00    -0.207 NA
ATOM      3  C   UNL     1       3.284  -4.386  -1.431  1.00  0.00     0.217 A 
ATOM      4  C   UNL     1       1.169  -4.349  -1.146  1.00  0.00     0.167 A 
ATOM      5  C   UNL     1       1.643  -3.085  -0.895  1.00  0.00     0.231 A 
ENDROOT
BRANCH   4   6
ATOM      6  C   UNL     1      -0.210  -4.804  -1.100  1.00  0.00     0.273 C 
ATOM      7  N   UNL     1      -0.299  -6.171  -1.174  1.00  0.00    -0.341 N 
ATOM      8  O   UNL     1      -1.171  -4.047  -1.029  1.00  0.00    -0.267 OA
ATOM      9  H   UNL     1       0.578  -6.662  -1.323  1.00  0.00     0.164 HD
BRANCH   7  10
ATOM     10  C   UNL     1      -1.548  -6.872  -1.397  1.00  0.00     0.145 C 
BRANCH  10  11
ATOM     11  C   UNL     1      -1.468  -7.531  -2.767  1.00  0.00     0.116 A 
ATOM     12  S   UNL     1      -2.915  -8.017  -3.567  1.00  0.00    -0.124 S 
ATOM     13  C   UNL     1      -1.989  -8.555  -4.899  1.00  0.00     0.101 A 
ATOM     14  N   UNL     1      -0.349  -7.761  -3.433  1.00  0.00    -0.234 NA
ATOM     15  C   UNL     1      -0.643  -8.336  -4.672  1.00  0.00     0.139 A 
BRANCH  15  16
ATOM     16  C   UNL     1       0.408  -8.664  -5.638  1.00  0.00     0.271 C 
ATOM     17  O   UNL     1       0.427  -9.716  -6.268  1.00  0.00    -0.267 OA
ATOM     18  N   UNL     1       1.364  -7.679  -5.766  1.00  0.00    -0.339 N 
ATOM     19  H   UNL     1       1.297  -6.907  -5.109  1.00  0.00     0.164 HD
BRANCH  18  20
ATOM     20  C   UNL     1       2.522  -7.860  -6.632  1.00  0.00     0.168 CG0
ATOM     21  C   UNL     1       2.224  -7.405  -8.062  1.00  0.00     0.041 C 
ATOM     22  G   UNL     1       3.758  -7.090  -6.140  1.00  0.00     0.000 G0
ENDBRANCH  18  20
ENDBRANCH  15  16
ENDBRANCH  10  11
BRANCH  10  23
ATOM     23  C   UNL     1      -1.858  -7.891  -0.268  1.00  0.00     0.015 C 
ATOM     24  C   UNL     1      -3.344  -7.934   0.122  1.00  0.00     0.010 C 
BRANCH  23  25
ATOM     25  C   UNL     1      -1.395  -9.325  -0.613  1.00  0.00     0.002 C 
ATOM     26  C   UNL     1      -2.367 -10.411  -0.175  1.00  0.00     0.004 C 
ENDBRANCH  23  25
ENDBRANCH  10  23
ENDBRANCH   7  10
ENDBRANCH   4   6
BRANCH   3  27
ATOM     27  C   UNL     1       4.709  -4.755  -1.741  1.00  0.00     0.171 C 
BRANCH  27  28
ATOM     28  N   UNL     1       4.773  -5.146  -3.145  1.00  0.00    -0.342 N 
ATOM     29  C   UNL     1       4.429  -4.298  -4.174  1.00  0.00     0.245 C 
ATOM     30  O   UNL     1       4.056  -3.141  -3.985  1.00  0.00    -0.273 OA
ATOM     31  H   UNL     1       5.181  -6.050  -3.384  1.00  0.00     0.164 HD
BRANCH  29  32
ATOM     32  C   UNL     1       4.685  -4.846  -5.594  1.00  0.00     0.200 C 
BRANCH  32  33
ATOM     33  N   UNL     1       3.565  -5.721  -5.959  1.00  0.00    -0.340 N 
ATOM     34  C   UNL     1       3.745  -7.078  -6.132  1.00  0.00     0.243 CG0
ATOM     35  O   UNL     1       4.854  -7.603  -6.052  1.00  0.00    -0.273 OA
ATOM     36  H   UNL     1       2.644  -5.313  -6.062  1.00  0.00     0.164 HD
ATOM     37  G   UNL     1       2.520  -7.852  -6.647  1.00  0.00     0.000 G0
ENDBRANCH  32  33
BRANCH  32  38
ATOM     38  C   UNL     1       4.911  -3.701  -6.608  1.00  0.00     0.143 C 
ATOM     39  C   UNL     1       5.979  -2.697  -6.187  1.00  0.00     0.041 C 
BRANCH  38  40
ATOM     40  O   UNL     1       5.264  -4.245  -7.895  1.00  0.00    -0.391 OA
ATOM     41  H   UNL     1       5.504  -5.179  -7.747  1.00  0.00     0.211 HD
ENDBRANCH  38  40
ENDBRANCH  32  38
ENDBRANCH  29  32
ENDBRANCH  27  28
BRANCH  27  42
ATOM     42  C   UNL     1       5.807  -3.723  -1.386  1.00  0.00     0.015 C 
ATOM     43  C   UNL     1       6.374  -3.822   0.034  1.00  0.00     0.010 C 
ATOM     44  C   UNL     1       6.944  -3.721  -2.413  1.00  0.00     0.010 C 
ENDBRANCH  27  42
ENDBRANCH   3  27
TORSDOF 5
ENDMDL
MODEL 32
REMARK VINA RESULT:    -3.843      2.641      7.203
REMARK INTER + INTRA:          -9.114
REMARK INTER:                  -8.120
REMARK INTRA:                  -0.994
REMARK UNBOUND:                -2.239
REMARK SMILES CC[C@H](C)[C@H]1NC(=O)c2coc(n2)[C@H](C(C)C)NC(=O)[C@H]([C@@H](C)O)NC(=O)[C@H](C)NC(=O)c2csc1n2
REMARK SMILES IDX 11 1 13 2 12 3 9 4 10 5 7 6 6 7 8 8 5 10 36 11 35 12 34 13
REMARK SMILES IDX 37 14 33 15 31 16 32 17 30 18 28 20 29 21 3 23 4 24 2 25
REMARK SMILES IDX 1 26 14 27 18 28 19 29 20 30 21 32 25 33 26 34 27 35 22 38
REMARK SMILES IDX 23 39 24 40 15 42 16 43 17 44
REMARK H PARENT 6 9 30 19 18 31 25 36 24 41
REMARK Flexibility Score:   94.900
ROOT
ATOM      1  O   UNL     1      -1.984  -3.747  -1.536  1.00  0.00    -0.446 OA
ATOM      2  N   UNL     1      -1.137  -5.821  -1.791  1.00  0.00    -0.207 NA
ATOM      3  C   UNL     1      -1.074  -4.683  -1.122  1.00  0.00     0.217 A 
ATOM      4  C   UNL     1      -2.175  -5.631  -2.686  1.00  0.00     0.167 A 
ATOM      5  C   UNL     1      -2.687  -4.367  -2.525  1.00  0.00     0.231 A 
ENDROOT
BRANCH   4   6
ATOM      6  C   UNL     1      -2.591  -6.640  -3.645  1.00  0.00     0.273 C 
ATOM      7  N   UNL     1      -1.811  -7.766  -3.570  1.00  0.00    -0.341 N 
ATOM      8  O   UNL     1      -3.511  -6.483  -4.438  1.00  0.00    -0.267 OA
ATOM      9  H   UNL     1      -1.025  -7.716  -2.927  1.00  0.00     0.164 HD
BRANCH   7  10
ATOM     10  C   UNL     1      -1.842  -8.819  -4.565  1.00  0.00     0.145 C 
BRANCH  10  11
ATOM     11  C   UNL     1      -0.443  -8.943  -5.150  1.00  0.00     0.116 A 
ATOM     12  S   UNL     1      -0.179  -9.935  -6.534  1.00  0.00    -0.124 S 
ATOM     13  C   UNL     1       1.473  -9.497  -6.525  1.00  0.00     0.101 A 
ATOM     14  N   UNL     1       0.630  -8.324  -4.685  1.00  0.00    -0.234 NA
ATOM     15  C   UNL     1       1.736  -8.626  -5.484  1.00  0.00     0.139 A 
BRANCH  15  16
ATOM     16  C   UNL     1       3.055  -8.047  -5.224  1.00  0.00     0.271 C 
ATOM     17  O   UNL     1       4.091  -8.701  -5.276  1.00  0.00    -0.267 OA
ATOM     18  N   UNL     1       3.016  -6.703  -4.917  1.00  0.00    -0.339 N 
ATOM     19  H   UNL     1       2.089  -6.302  -4.796  1.00  0.00     0.164 HD
BRANCH  18  20
ATOM     20  C   UNL     1       4.226  -5.974  -4.562  1.00  0.00     0.168 CG0
ATOM     21  C   UNL     1       4.503  -4.840  -5.552  1.00  0.00     0.041 C 
ATOM     22  G   UNL     1       4.160  -5.362  -3.154  1.00  0.00     0.000 G0
ENDBRANCH  18  20
ENDBRANCH  15  16
ENDBRANCH  10  11
BRANCH  10  23
ATOM     23  C   UNL     1      -2.360 -10.161  -3.983  1.00  0.00     0.015 C 
ATOM     24  C   UNL     1      -1.578 -10.630  -2.745  1.00  0.00     0.010 C 
BRANCH  23  25
ATOM     25  C   UNL     1      -3.865 -10.119  -3.630  1.00  0.00     0.002 C 
ATOM     26  C   UNL     1      -4.438 -11.464  -3.204  1.00  0.00     0.004 C 
ENDBRANCH  23  25
ENDBRANCH  10  23
ENDBRANCH   7  10
ENDBRANCH   4   6
BRANCH   3  27
ATOM     27  C   UNL     1      -0.098  -4.323  -0.035  1.00  0.00     0.171 C 
BRANCH  27  28
ATOM     28  N   UNL     1       1.244  -4.377  -0.604  1.00  0.00    -0.342 N 
ATOM     29  C   UNL     1       1.792  -3.340  -1.326  1.00  0.00     0.245 C 
ATOM     30  O   UNL     1       1.194  -2.285  -1.533  1.00  0.00    -0.273 OA
ATOM     31  H   UNL     1       1.841  -5.171  -0.377  1.00  0.00     0.164 HD
BRANCH  29  32
ATOM     32  C   UNL     1       3.268  -3.529  -1.735  1.00  0.00     0.200 C 
BRANCH  32  33
ATOM     33  N   UNL     1       3.304  -4.292  -2.989  1.00  0.00    -0.340 N 
ATOM     34  C   UNL     1       4.173  -5.350  -3.158  1.00  0.00     0.243 CG0
ATOM     35  O   UNL     1       4.994  -5.661  -2.298  1.00  0.00    -0.273 OA
ATOM     36  H   UNL     1       2.660  -4.039  -3.729  1.00  0.00     0.164 HD
ATOM     37  G   UNL     1       4.202  -5.970  -4.565  1.00  0.00     0.000 G0
ENDBRANCH  32  33
BRANCH  32  38
ATOM     38  C   UNL     1       4.005  -2.173  -1.832  1.00  0.00     0.143 C 
ATOM     39  C   UNL     1       5.510  -2.266  -1.607  1.00  0.00     0.041 C 
BRANCH  38  40
ATOM     40  O   UNL     1       3.762  -1.571  -3.118  1.00  0.00    -0.391 OA
ATOM     41  H   UNL     1       3.822  -2.287  -3.778  1.00  0.00     0.211 HD
ENDBRANCH  38  40
ENDBRANCH  32  38
ENDBRANCH  29  32
ENDBRANCH  27  28
BRANCH  27  42
ATOM     42  C   UNL     1      -0.340  -2.999   0.730  1.00  0.00     0.015 C 
ATOM     43  C   UNL     1      -1.741  -2.394   0.578  1.00  0.00     0.010 C 
ATOM     44  C   UNL     1       0.029  -3.118   2.212  1.00  0.00     0.010 C 
ENDBRANCH  27  42
ENDBRANCH   3  27
TORSDOF 5
ENDMDL
MODEL 33
REMARK VINA RESULT:    -3.808      2.553      3.120
REMARK INTER + INTRA:          -9.052
REMARK INTER:                  -7.133
REMARK INTRA:                  -1.918
REMARK UNBOUND:                -2.239
REMARK SMILES CC[C@H](C)[C@H]1NC(=O)c2coc(n2)[C@H](C(C)C)NC(=O)[C@H]([C@@H](C)O)NC(=O)[C@H](C)NC(=O)c2csc1n2
REMARK SMILES IDX 11 1 13 2 12 3 9 4 10 5 7 6 6 7 8 8 5 10 36 11 35 12 34 13
REMARK SMILES IDX 37 14 33 15 31 16 32 17 30 18 28 20 29 21 3 23 4 24 2 25
REMARK SMILES IDX 1 26 14 27 18 28 19 29 20 30 21 32 25 33 26 34 27 35 22 38
REMARK SMILES IDX 23 39 24 40 15 42 16 43 17 44
REMARK H PARENT 6 9 30 19 18 31 25 36 24 41
REMARK Flexibility Score:   94.900
ROOT
ATOM      1  O   UNL     1      -0.413  -4.715  -1.722  1.00  0.00    -0.446 OA
ATOM      2  N   UNL     1       1.358  -6.107  -1.803  1.00  0.00    -0.207 NA
ATOM      3  C   UNL     1       0.041  -6.006  -1.760  1.00  0.00     0.217 A 
ATOM      4  C   UNL     1       1.798  -4.795  -1.821  1.00  0.00     0.167 A 
ATOM      5  C   UNL     1       0.715  -3.952  -1.773  1.00  0.00     0.231 A 
ENDROOT
BRANCH   4   6
ATOM      6  C   UNL     1       3.204  -4.430  -1.854  1.00  0.00     0.273 C 
ATOM      7  N   UNL     1       3.542  -3.807  -3.028  1.00  0.00    -0.341 N 
ATOM      8  O   UNL     1       3.989  -4.678  -0.947  1.00  0.00    -0.267 OA
ATOM      9  H   UNL     1       2.805  -3.753  -3.726  1.00  0.00     0.164 HD
BRANCH   7  10
ATOM     10  C   UNL     1       4.913  -3.560  -3.428  1.00  0.00     0.145 C 
BRANCH  10  11
ATOM     11  C   UNL     1       5.481  -4.870  -3.956  1.00  0.00     0.116 A 
ATOM     12  S   UNL     1       7.188  -5.086  -4.046  1.00  0.00    -0.124 S 
ATOM     13  C   UNL     1       6.949  -6.671  -4.639  1.00  0.00     0.101 A 
ATOM     14  N   UNL     1       4.758  -5.904  -4.354  1.00  0.00    -0.234 NA
ATOM     15  C   UNL     1       5.599  -6.953  -4.734  1.00  0.00     0.139 A 
BRANCH  15  16
ATOM     16  C   UNL     1       5.068  -8.241  -5.184  1.00  0.00     0.271 C 
ATOM     17  O   UNL     1       5.717  -9.026  -5.867  1.00  0.00    -0.267 OA
ATOM     18  N   UNL     1       3.776  -8.481  -4.766  1.00  0.00    -0.339 N 
ATOM     19  H   UNL     1       3.309  -7.706  -4.301  1.00  0.00     0.164 HD
BRANCH  18  20
ATOM     20  C   UNL     1       3.060  -9.682  -5.175  1.00  0.00     0.168 CG0
ATOM     21  C   UNL     1       3.037 -10.724  -4.055  1.00  0.00     0.041 C 
ATOM     22  G   UNL     1       1.606  -9.397  -5.583  1.00  0.00     0.000 G0
ENDBRANCH  18  20
ENDBRANCH  15  16
ENDBRANCH  10  11
BRANCH  10  23
ATOM     23  C   UNL     1       5.024  -2.409  -4.462  1.00  0.00     0.015 C 
ATOM     24  C   UNL     1       6.325  -1.599  -4.334  1.00  0.00     0.010 C 
BRANCH  23  25
ATOM     25  C   UNL     1       4.889  -2.899  -5.921  1.00  0.00     0.002 C 
ATOM     26  C   UNL     1       6.071  -2.534  -6.809  1.00  0.00     0.004 C 
ENDBRANCH  23  25
ENDBRANCH  10  23
ENDBRANCH   7  10
ENDBRANCH   4   6
BRANCH   3  27
ATOM     27  C   UNL     1      -0.953  -7.133  -1.697  1.00  0.00     0.171 C 
BRANCH  27  28
ATOM     28  N   UNL     1      -0.592  -8.105  -2.724  1.00  0.00    -0.342 N 
ATOM     29  C   UNL     1      -1.356  -8.321  -3.848  1.00  0.00     0.245 C 
ATOM     30  O   UNL     1      -2.393  -7.700  -4.079  1.00  0.00    -0.273 OA
ATOM     31  H   UNL     1       0.310  -8.575  -2.659  1.00  0.00     0.164 HD
BRANCH  29  32
ATOM     32  C   UNL     1      -0.748  -9.293  -4.882  1.00  0.00     0.200 C 
BRANCH  32  33
ATOM     33  N   UNL     1       0.684  -9.438  -4.591  1.00  0.00    -0.340 N 
ATOM     34  C   UNL     1       1.627  -9.380  -5.596  1.00  0.00     0.243 CG0
ATOM     35  O   UNL     1       1.311  -9.271  -6.779  1.00  0.00    -0.273 OA
ATOM     36  H   UNL     1       0.973  -9.560  -3.628  1.00  0.00     0.164 HD
ATOM     37  G   UNL     1       3.073  -9.684  -5.171  1.00  0.00     0.000 G0
ENDBRANCH  32  33
BRANCH  32  38
ATOM     38  C   UNL     1      -1.500 -10.645  -4.898  1.00  0.00     0.143 C 
ATOM     39  C   UNL     1      -1.208 -11.505  -6.122  1.00  0.00     0.041 C 
BRANCH  38  40
ATOM     40  O   UNL     1      -1.183 -11.398  -3.711  1.00  0.00    -0.391 OA
ATOM     41  H   UNL     1      -2.024 -11.774  -3.387  1.00  0.00     0.211 HD
ENDBRANCH  38  40
ENDBRANCH  32  38
ENDBRANCH  29  32
ENDBRANCH  27  28
BRANCH  27  42
ATOM     42  C   UNL     1      -1.175  -7.812  -0.323  1.00  0.00     0.015 C 
ATOM     43  C   UNL     1      -0.764  -6.982   0.899  1.00  0.00     0.010 C 
ATOM     44  C   UNL     1      -2.611  -8.321  -0.161  1.00  0.00     0.010 C 
ENDBRANCH  27  42
ENDBRANCH   3  27
TORSDOF 5
ENDMDL
MODEL 34
REMARK VINA RESULT:    -3.758      3.272      7.494
REMARK INTER + INTRA:          -8.963
REMARK INTER:                  -6.666
REMARK INTRA:                  -2.297
REMARK UNBOUND:                -2.239
REMARK SMILES CC[C@H](C)[C@H]1NC(=O)c2coc(n2)[C@H](C(C)C)NC(=O)[C@H]([C@@H](C)O)NC(=O)[C@H](C)NC(=O)c2csc1n2
REMARK SMILES IDX 11 1 13 2 12 3 9 4 10 5 7 6 6 7 8 8 5 10 36 11 35 12 34 13
REMARK SMILES IDX 37 14 33 15 31 16 32 17 30 18 28 20 29 21 3 23 4 24 2 25
REMARK SMILES IDX 1 26 14 27 18 28 19 29 20 30 21 32 25 33 26 34 27 35 22 38
REMARK SMILES IDX 23 39 24 40 15 42 16 43 17 44
REMARK H PARENT 6 9 30 19 18 31 25 36 24 41
REMARK Flexibility Score:   94.900
ROOT
ATOM      1  O   UNL     1       1.727  -4.185  -0.617  1.00  0.00    -0.446 OA
ATOM      2  N   UNL     1       1.799  -5.018  -2.710  1.00  0.00    -0.207 NA
ATOM      3  C   UNL     1       2.415  -4.290  -1.796  1.00  0.00     0.217 A 
ATOM      4  C   UNL     1       0.640  -5.441  -2.083  1.00  0.00     0.167 A 
ATOM      5  C   UNL     1       0.602  -4.931  -0.808  1.00  0.00     0.231 A 
ENDROOT
BRANCH   4   6
ATOM      6  C   UNL     1      -0.360  -6.268  -2.736  1.00  0.00     0.273 C 
ATOM      7  N   UNL     1      -0.097  -7.605  -2.578  1.00  0.00    -0.341 N 
ATOM      8  O   UNL     1      -1.305  -5.815  -3.370  1.00  0.00    -0.267 OA
ATOM      9  H   UNL     1       0.775  -7.830  -2.106  1.00  0.00     0.164 HD
BRANCH   7  10
ATOM     10  C   UNL     1      -0.783  -8.641  -3.325  1.00  0.00     0.145 C 
BRANCH  10  11
ATOM     11  C   UNL     1       0.276  -9.542  -3.943  1.00  0.00     0.116 A 
ATOM     12  S   UNL     1      -0.159 -10.633  -5.204  1.00  0.00    -0.124 S 
ATOM     13  C   UNL     1       1.467 -11.147  -5.310  1.00  0.00     0.101 A 
ATOM     14  N   UNL     1       1.554  -9.557  -3.598  1.00  0.00    -0.234 NA
ATOM     15  C   UNL     1       2.250 -10.469  -4.395  1.00  0.00     0.139 A 
BRANCH  15  16
ATOM     16  C   UNL     1       3.694 -10.665  -4.258  1.00  0.00     0.271 C 
ATOM     17  O   UNL     1       4.183 -11.651  -3.716  1.00  0.00    -0.267 OA
ATOM     18  N   UNL     1       4.443  -9.641  -4.797  1.00  0.00    -0.339 N 
ATOM     19  H   UNL     1       3.921  -8.830  -5.117  1.00  0.00     0.164 HD
BRANCH  18  20
ATOM     20  C   UNL     1       5.896  -9.632  -4.693  1.00  0.00     0.168 CG0
ATOM     21  C   UNL     1       6.547 -10.212  -5.950  1.00  0.00     0.041 C 
ATOM     22  G   UNL     1       6.468  -8.222  -4.475  1.00  0.00     0.000 G0
ENDBRANCH  18  20
ENDBRANCH  15  16
ENDBRANCH  10  11
BRANCH  10  23
ATOM     23  C   UNL     1      -1.790  -9.428  -2.445  1.00  0.00     0.015 C 
ATOM     24  C   UNL     1      -1.865  -8.915  -0.998  1.00  0.00     0.010 C 
BRANCH  23  25
ATOM     25  C   UNL     1      -3.217  -9.446  -3.039  1.00  0.00     0.002 C 
ATOM     26  C   UNL     1      -3.396  -8.533  -4.244  1.00  0.00     0.004 C 
ENDBRANCH  23  25
ENDBRANCH  10  23
ENDBRANCH   7  10
ENDBRANCH   4   6
BRANCH   3  27
ATOM     27  C   UNL     1       3.720  -3.558  -1.948  1.00  0.00     0.171 C 
BRANCH  27  28
ATOM     28  N   UNL     1       4.451  -4.173  -3.051  1.00  0.00    -0.342 N 
ATOM     29  C   UNL     1       5.335  -5.213  -2.873  1.00  0.00     0.245 C 
ATOM     30  O   UNL     1       5.563  -5.712  -1.773  1.00  0.00    -0.273 OA
ATOM     31  H   UNL     1       4.229  -3.889  -4.005  1.00  0.00     0.164 HD
BRANCH  29  32
ATOM     32  C   UNL     1       5.914  -5.816  -4.171  1.00  0.00     0.200 C 
BRANCH  32  33
ATOM     33  N   UNL     1       5.530  -7.232  -4.232  1.00  0.00    -0.340 N 
ATOM     34  C   UNL     1       6.461  -8.215  -4.496  1.00  0.00     0.243 CG0
ATOM     35  O   UNL     1       7.633  -7.948  -4.753  1.00  0.00    -0.273 OA
ATOM     36  H   UNL     1       4.564  -7.480  -4.055  1.00  0.00     0.164 HD
ATOM     37  G   UNL     1       5.899  -9.636  -4.667  1.00  0.00     0.000 G0
ENDBRANCH  32  33
BRANCH  32  38
ATOM     38  C   UNL     1       5.465  -5.015  -5.416  1.00  0.00     0.143 C 
ATOM     39  C   UNL     1       6.357  -5.210  -6.636  1.00  0.00     0.041 C 
BRANCH  38  40
ATOM     40  O   UNL     1       4.112  -5.365  -5.765  1.00  0.00    -0.391 OA
ATOM     41  H   UNL     1       4.082  -5.425  -6.739  1.00  0.00     0.211 HD
ENDBRANCH  38  40
ENDBRANCH  32  38
ENDBRANCH  29  32
ENDBRANCH  27  28
BRANCH  27  42
ATOM     42  C   UNL     1       3.660  -2.017  -2.093  1.00  0.00     0.015 C 
ATOM     43  C   UNL     1       2.671  -1.304  -1.164  1.00  0.00     0.010 C 
ATOM     44  C   UNL     1       5.048  -1.377  -1.983  1.00  0.00     0.010 C 
ENDBRANCH  27  42
ENDBRANCH   3  27
TORSDOF 5
ENDMDL
MODEL 35
REMARK VINA RESULT:    -3.522     23.199     25.255
REMARK INTER + INTRA:          -8.541
REMARK INTER:                  -7.528
REMARK INTRA:                  -1.013
REMARK UNBOUND:                -2.239
REMARK SMILES CC[C@H](C)[C@H]1NC(=O)c2coc(n2)[C@H](C(C)C)NC(=O)[C@H]([C@@H](C)O)NC(=O)[C@H](C)NC(=O)c2csc1n2
REMARK SMILES IDX 11 1 13 2 12 3 9 4 10 5 7 6 6 7 8 8 5 10 36 11 35 12 34 13
REMARK SMILES IDX 37 14 33 15 31 16 32 17 30 18 28 20 29 21 3 23 4 24 2 25
REMARK SMILES IDX 1 26 14 27 18 28 19 29 20 30 21 32 25 33 26 34 27 35 22 38
REMARK SMILES IDX 23 39 24 40 15 42 16 43 17 44
REMARK H PARENT 6 9 30 19 18 31 25 36 24 41
REMARK Flexibility Score:   94.900
ROOT
ATOM      1  O   UNL     1     -12.019  11.078  -5.493  1.00  0.00    -0.446 OA
ATOM      2  N   UNL     1     -13.975  12.007  -4.866  1.00  0.00    -0.207 NA
ATOM      3  C   UNL     1     -13.370  10.926  -5.324  1.00  0.00     0.217 A 
ATOM      4  C   UNL     1     -12.952  12.923  -4.697  1.00  0.00     0.167 A 
ATOM      5  C   UNL     1     -11.763  12.351  -5.080  1.00  0.00     0.231 A 
ENDROOT
BRANCH   4   6
ATOM      6  C   UNL     1     -13.170  14.276  -4.216  1.00  0.00     0.273 C 
ATOM      7  N   UNL     1     -14.213  14.339  -3.326  1.00  0.00    -0.341 N 
ATOM      8  O   UNL     1     -12.512  15.241  -4.586  1.00  0.00    -0.267 OA
ATOM      9  H   UNL     1     -14.725  13.473  -3.186  1.00  0.00     0.164 HD
BRANCH   7  10
ATOM     10  C   UNL     1     -14.802  15.588  -2.884  1.00  0.00     0.145 C 
BRANCH  10  11
ATOM     11  C   UNL     1     -16.312  15.457  -3.019  1.00  0.00     0.116 A 
ATOM     12  S   UNL     1     -17.344  16.364  -1.978  1.00  0.00    -0.124 S 
ATOM     13  C   UNL     1     -18.709  15.708  -2.772  1.00  0.00     0.101 A 
ATOM     14  N   UNL     1     -16.932  14.693  -3.903  1.00  0.00    -0.234 NA
ATOM     15  C   UNL     1     -18.314  14.846  -3.777  1.00  0.00     0.139 A 
BRANCH  15  16
ATOM     16  C   UNL     1     -19.250  14.145  -4.659  1.00  0.00     0.271 C 
ATOM     17  O   UNL     1     -20.444  14.031  -4.406  1.00  0.00    -0.267 OA
ATOM     18  N   UNL     1     -18.658  13.632  -5.794  1.00  0.00    -0.339 N 
ATOM     19  H   UNL     1     -17.644  13.696  -5.834  1.00  0.00     0.164 HD
BRANCH  18  20
ATOM     20  C   UNL     1     -19.421  12.844  -6.753  1.00  0.00     0.168 CG0
ATOM     21  C   UNL     1     -19.850  13.692  -7.952  1.00  0.00     0.041 C 
ATOM     22  G   UNL     1     -18.636  11.636  -7.288  1.00  0.00     0.000 G0
ENDBRANCH  18  20
ENDBRANCH  15  16
ENDBRANCH  10  11
BRANCH  10  23
ATOM     23  C   UNL     1     -14.367  15.963  -1.443  1.00  0.00     0.015 C 
ATOM     24  C   UNL     1     -14.049  14.741  -0.565  1.00  0.00     0.010 C 
BRANCH  23  25
ATOM     25  C   UNL     1     -13.154  16.921  -1.415  1.00  0.00     0.002 C 
ATOM     26  C   UNL     1     -11.808  16.213  -1.353  1.00  0.00     0.004 C 
ENDBRANCH  23  25
ENDBRANCH  10  23
ENDBRANCH   7  10
ENDBRANCH   4   6
BRANCH   3  27
ATOM     27  C   UNL     1     -14.012   9.621  -5.710  1.00  0.00     0.171 C 
BRANCH  27  28
ATOM     28  N   UNL     1     -15.204   9.925  -6.494  1.00  0.00    -0.342 N 
ATOM     29  C   UNL     1     -15.193  10.787  -7.568  1.00  0.00     0.245 C 
ATOM     30  O   UNL     1     -14.173  11.353  -7.956  1.00  0.00    -0.273 OA
ATOM     31  H   UNL     1     -16.061   9.407  -6.303  1.00  0.00     0.164 HD
BRANCH  29  32
ATOM     32  C   UNL     1     -16.520  10.883  -8.350  1.00  0.00     0.200 C 
BRANCH  32  33
ATOM     33  N   UNL     1     -17.353  11.915  -7.721  1.00  0.00    -0.340 N 
ATOM     34  C   UNL     1     -18.629  11.633  -7.278  1.00  0.00     0.243 CG0
ATOM     35  O   UNL     1     -19.146  10.531  -7.446  1.00  0.00    -0.273 OA
ATOM     36  H   UNL     1     -16.964  12.842  -7.596  1.00  0.00     0.164 HD
ATOM     37  G   UNL     1     -19.437  12.837  -6.766  1.00  0.00     0.000 G0
ENDBRANCH  32  33
BRANCH  32  38
ATOM     38  C   UNL     1     -16.272  11.142  -9.854  1.00  0.00     0.143 C 
ATOM     39  C   UNL     1     -17.533  11.107 -10.709  1.00  0.00     0.041 C 
BRANCH  38  40
ATOM     40  O   UNL     1     -15.621  12.416 -10.034  1.00  0.00    -0.391 OA
ATOM     41  H   UNL     1     -15.974  13.009  -9.344  1.00  0.00     0.211 HD
ENDBRANCH  38  40
ENDBRANCH  32  38
ENDBRANCH  29  32
ENDBRANCH  27  28
BRANCH  27  42
ATOM     42  C   UNL     1     -13.121   8.569  -6.414  1.00  0.00     0.015 C 
ATOM     43  C   UNL     1     -12.916   7.257  -5.648  1.00  0.00     0.010 C 
ATOM     44  C   UNL     1     -13.594   8.281  -7.843  1.00  0.00     0.010 C 
ENDBRANCH  27  42
ENDBRANCH   3  27
TORSDOF 5
ENDMDL
