MODEL 1
REMARK VINA RESULT:    -6.729      0.000      0.000
REMARK INTER + INTRA:         -27.719
REMARK INTER:                 -20.105
REMARK INTRA:                  -7.614
REMARK UNBOUND:                -7.614
REMARK SMILES C=C1C(=O)N[C@H](C)C(=O)N[C@@H](CC(C)C)C(=O)N[C@@H](C(=O)O)[C@H](C)C(=O)N[C@@H](CCCN=C(N)N)C(=O)N[C@@H](/C=C/C(C)=C/[C@H](C)[C@H](Cc2ccccc2)OC)[C@H](C)C(=O)N[C@@H](C(=O)O)CCC(=O)N1C
REMARK SMILES IDX 39 1 38 2 37 3 36 4 28 6 27 7 25 8 26 9 23 11 24 12 19 13
REMARK SMILES IDX 18 14 16 15 17 16 11 18 10 19 8 20 9 21 12 24 13 25 14 26
REMARK SMILES IDX 15 27 20 28 21 29 22 30 29 32 30 33 31 34 32 35 33 36 34 37
REMARK SMILES IDX 35 38 57 43 58 44 59 45 60 46 61 47 62 49 66 50 67 51 68 52
REMARK SMILES IDX 69 53 70 54 71 55 2 56 1 57 3 58 4 59 5 60 6 62 7 63 63 65
REMARK SMILES IDX 64 66 65 67 40 69 41 70 42 71 44 72 43 73 45 74 46 75 47 76
REMARK SMILES IDX 55 77 56 78 48 79 49 80 50 81 54 82 51 83 53 84 52 85
REMARK H PARENT 38 5 27 10 18 17 10 22 22 31 34 39 34 40 35 41 35 42 61 48
REMARK H PARENT 5 61 65 68
REMARK Flexibility Score:  369.900
ROOT
ATOM      1  C   UNL     1      -3.528  -2.059  -6.263  1.00  0.00     0.117 C 
ENDROOT
BRANCH   1   2
ATOM      2  N   UNL     1      -4.237  -1.759  -5.019  1.00  0.00    -0.347 N 
ATOM      3  O   UNL     1      -5.067  -3.862  -4.618  1.00  0.00    -0.273 OA
ATOM      4  C   UNL     1      -4.876  -2.709  -4.245  1.00  0.00     0.243 C 
ATOM      5  H   UNL     1      -4.230  -0.817  -4.660  1.00  0.00     0.164 HD
BRANCH   4   6
ATOM      6  C   UNL     1      -5.475  -2.143  -2.932  1.00  0.00     0.171 C 
BRANCH   6   7
ATOM      7  N   UNL     1      -4.616  -2.484  -1.787  1.00  0.00    -0.344 N 
ATOM      8  C   UNL     1      -3.318  -2.026  -1.721  1.00  0.00     0.226 C 
ATOM      9  O   UNL     1      -2.813  -1.344  -2.604  1.00  0.00    -0.275 OA
ATOM     10  H   UNL     1      -4.977  -3.101  -1.070  1.00  0.00     0.164 HD
BRANCH   8  11
ATOM     11  C   UNL     1      -2.581  -2.416  -0.452  1.00  0.00     0.109 C 
ATOM     12  C   UNL     1      -1.585  -3.538  -0.747  1.00  0.00     0.021 C 
BRANCH  11  13
ATOM     13  C   UNL     1      -1.970  -1.162   0.203  1.00  0.00     0.204 C 
BRANCH  13  14
ATOM     14  N   UNL     1      -1.955  -1.255   1.666  1.00  0.00    -0.340 N 
ATOM     15  C   UNL     1      -3.008  -0.841   2.453  1.00  0.00     0.243 C 
ATOM     16  O   UNL     1      -4.061  -0.420   1.978  1.00  0.00    -0.273 OA
ATOM     17  H   UNL     1      -1.062  -1.451   2.126  1.00  0.00     0.164 HD
BRANCH  15  18
ATOM     18  C   UNL     1      -2.686  -0.841   3.968  1.00  0.00     0.171 C 
BRANCH  18  19
ATOM     19  N   UNL     1      -3.657  -1.731   4.602  1.00  0.00    -0.343 N 
ATOM     20  C   UNL     1      -4.774  -1.244   5.254  1.00  0.00     0.242 CG0
ATOM     21  O   UNL     1      -4.934  -0.041   5.446  1.00  0.00    -0.273 OA
ATOM     22  H   UNL     1      -3.507  -2.733   4.571  1.00  0.00     0.164 HD
ATOM     23  G   UNL     1      -5.723  -2.336   5.791  1.00  0.00     0.000 G0
ENDBRANCH  18  19
BRANCH  18  24
ATOM     24  C   UNL     1      -1.247  -1.311   4.216  1.00  0.00     0.038 C 
BRANCH  24  25
ATOM     25  C   UNL     1      -0.272  -0.197   4.652  1.00  0.00    -0.015 C 
ATOM     26  C   UNL     1       0.942  -0.744   5.403  1.00  0.00     0.007 C 
ATOM     27  C   UNL     1      -1.009   0.816   5.532  1.00  0.00     0.007 C 
ENDBRANCH  24  25
ENDBRANCH  18  24
ENDBRANCH  15  18
ENDBRANCH  13  14
BRANCH  13  28
ATOM     28  C   UNL     1      -0.532  -0.885  -0.248  1.00  0.00     0.327 C 
ATOM     29  O   UNL     1       0.485  -1.148   0.375  1.00  0.00    -0.250 OA
BRANCH  28  30
ATOM     30  O   UNL     1      -0.465  -0.187  -1.400  1.00  0.00    -0.480 OA
ATOM     31  H   UNL     1      -0.997   0.617  -1.226  1.00  0.00     0.296 HD
ENDBRANCH  28  30
ENDBRANCH  13  28
ENDBRANCH  11  13
ENDBRANCH   8  11
ENDBRANCH   6   7
BRANCH   6  32
ATOM     32  C   UNL     1      -5.634  -0.625  -3.065  1.00  0.00     0.037 C 
BRANCH  32  33
ATOM     33  C   UNL     1      -7.025  -0.231  -3.580  1.00  0.00     0.026 C 
BRANCH  33  34
ATOM     34  C   UNL     1      -7.186   1.282  -3.732  1.00  0.00     0.146 C 
BRANCH  34  35
ATOM     35  N   UNL     1      -6.693   1.677  -5.044  1.00  0.00    -0.254 NA
ATOM     36  C   UNL     1      -6.328   2.892  -5.223  1.00  0.00     0.185 C 
ATOM     37  N   UNL     1      -5.867   3.266  -6.427  1.00  0.00    -0.370 N 
ATOM     38  N   UNL     1      -6.330   3.913  -4.348  1.00  0.00    -0.370 N 
ATOM     39  H   UNL     1      -5.825   2.548  -7.140  1.00  0.00     0.159 HD
ATOM     40  H   UNL     1      -5.404   4.141  -6.598  1.00  0.00     0.159 HD
ATOM     41  H   UNL     1      -6.150   4.857  -4.648  1.00  0.00     0.159 HD
ATOM     42  H   UNL     1      -6.667   3.780  -3.407  1.00  0.00     0.159 HD
ENDBRANCH  34  35
ENDBRANCH  33  34
ENDBRANCH  32  33
ENDBRANCH   6  32
ENDBRANCH   4   6
ENDBRANCH   1   2
BRANCH   1  43
ATOM     43  C   UNL     1      -2.404  -1.001  -6.459  1.00  0.00     0.102 C 
ATOM     44  C   UNL     1      -1.089  -1.368  -5.749  1.00  0.00     0.020 C 
BRANCH  43  45
ATOM     45  C   UNL     1      -2.911   0.408  -6.138  1.00  0.00     0.225 C 
ATOM     46  O   UNL     1      -3.740   0.995  -6.827  1.00  0.00    -0.275 OA
ATOM     47  N   UNL     1      -2.307   1.025  -5.067  1.00  0.00    -0.342 N 
ATOM     48  H   UNL     1      -1.746   0.481  -4.427  1.00  0.00     0.164 HD
BRANCH  47  49
ATOM     49  C   UNL     1      -2.716   2.361  -4.622  1.00  0.00     0.192 C 
BRANCH  49  50
ATOM     50  C   UNL     1      -1.542   3.333  -4.766  1.00  0.00     0.047 C 
BRANCH  50  51
ATOM     51  C   UNL     1      -0.338   2.692  -5.470  1.00  0.00     0.103 C 
BRANCH  51  52
ATOM     52  C   UNL     1      -0.182   3.188  -6.906  1.00  0.00     0.226 C 
ATOM     53  O   UNL     1      -1.147   3.152  -7.672  1.00  0.00    -0.275 OA
BRANCH  52  54
ATOM     54  N   UNL     1       1.067   3.739  -7.247  1.00  0.00    -0.311 N 
ATOM     55  C   UNL     1       2.313   3.174  -6.712  1.00  0.00     0.153 C 
BRANCH  54  56
ATOM     56  C   UNL     1       1.171   4.841  -8.112  1.00  0.00     0.102 C 
ATOM     57  C   UNL     1       1.171   6.126  -7.722  1.00  0.00     0.043 C 
BRANCH  56  58
ATOM     58  C   UNL     1       1.341   4.645  -9.600  1.00  0.00     0.268 C 
ATOM     59  O   UNL     1       0.409   4.396 -10.353  1.00  0.00    -0.268 OA
ATOM     60  N   UNL     1       2.633   4.840 -10.026  1.00  0.00    -0.339 N 
ATOM     61  H   UNL     1       3.349   5.033  -9.337  1.00  0.00     0.164 HD
BRANCH  60  62
ATOM     62  C   UNL     1       3.008   4.760 -11.437  1.00  0.00     0.168 CG0
ATOM     63  C   UNL     1       3.794   3.487 -11.724  1.00  0.00     0.041 C 
ATOM     64  G   UNL     1       3.828   6.008 -11.825  1.00  0.00     0.000 G0
ENDBRANCH  60  62
ENDBRANCH  56  58
ENDBRANCH  54  56
ENDBRANCH  52  54
ENDBRANCH  51  52
ENDBRANCH  50  51
ENDBRANCH  49  50
BRANCH  49  65
ATOM     65  C   UNL     1      -3.192   2.351  -3.161  1.00  0.00     0.326 C 
ATOM     66  O   UNL     1      -4.034   3.097  -2.683  1.00  0.00    -0.250 OA
BRANCH  65  67
ATOM     67  O   UNL     1      -2.557   1.460  -2.368  1.00  0.00    -0.480 OA
ATOM     68  H   UNL     1      -2.740   1.787  -1.460  1.00  0.00     0.296 HD
ENDBRANCH  65  67
ENDBRANCH  49  65
ENDBRANCH  47  49
ENDBRANCH  43  45
ENDBRANCH   1  43
BRANCH   1  69
ATOM     69  C   UNL     1      -4.594  -2.202  -7.334  1.00  0.00    -0.001 C 
ATOM     70  C   UNL     1      -4.454  -2.007  -8.657  1.00  0.00     0.001 C 
BRANCH  70  71
ATOM     71  C   UNL     1      -5.485  -2.170  -9.685  1.00  0.00    -0.055 C 
ATOM     72  C   UNL     1      -6.775  -2.063  -9.302  1.00  0.00    -0.018 C 
ATOM     73  C   UNL     1      -5.033  -2.437 -11.097  1.00  0.00     0.044 C 
BRANCH  72  74
ATOM     74  C   UNL     1      -8.041  -2.181 -10.138  1.00  0.00     0.038 C 
ATOM     75  C   UNL     1      -8.954  -1.014  -9.744  1.00  0.00     0.015 C 
BRANCH  74  76
ATOM     76  C   UNL     1      -8.656  -3.595  -9.920  1.00  0.00     0.128 C 
BRANCH  76  77
ATOM     77  O   UNL     1      -8.476  -4.396 -11.100  1.00  0.00    -0.381 OA
ATOM     78  C   UNL     1      -7.453  -5.375 -10.975  1.00  0.00     0.195 C 
ENDBRANCH  76  77
BRANCH  76  79
ATOM     79  C   UNL     1      -8.163  -4.303  -8.633  1.00  0.00     0.068 C 
BRANCH  79  80
ATOM     80  C   UNL     1      -8.857  -3.972  -7.334  1.00  0.00    -0.045 A 
ATOM     81  C   UNL     1     -10.227  -4.212  -7.165  1.00  0.00     0.004 A 
ATOM     82  C   UNL     1      -8.140  -3.389  -6.278  1.00  0.00     0.004 A 
ATOM     83  C   UNL     1     -10.864  -3.890  -5.965  1.00  0.00     0.000 A 
ATOM     84  C   UNL     1      -8.778  -3.067  -5.078  1.00  0.00     0.000 A 
ATOM     85  C   UNL     1     -10.139  -3.319  -4.921  1.00  0.00     0.000 A 
ENDBRANCH  79  80
ENDBRANCH  76  79
ENDBRANCH  74  76
ENDBRANCH  72  74
ENDBRANCH  70  71
ENDBRANCH   1  69
TORSDOF 17
ENDMDL
MODEL 2
REMARK VINA RESULT:    -6.570      4.934      8.311
REMARK INTER + INTRA:         -27.242
REMARK INTER:                 -19.066
REMARK INTRA:                  -8.176
REMARK UNBOUND:                -7.614
REMARK SMILES C=C1C(=O)N[C@H](C)C(=O)N[C@@H](CC(C)C)C(=O)N[C@@H](C(=O)O)[C@H](C)C(=O)N[C@@H](CCCN=C(N)N)C(=O)N[C@@H](/C=C/C(C)=C/[C@H](C)[C@H](Cc2ccccc2)OC)[C@H](C)C(=O)N[C@@H](C(=O)O)CCC(=O)N1C
REMARK SMILES IDX 39 1 38 2 37 3 36 4 28 6 27 7 25 8 26 9 23 11 24 12 19 13
REMARK SMILES IDX 18 14 16 15 17 16 11 18 10 19 8 20 9 21 12 24 13 25 14 26
REMARK SMILES IDX 15 27 20 28 21 29 22 30 29 32 30 33 31 34 32 35 33 36 34 37
REMARK SMILES IDX 35 38 57 43 58 44 59 45 60 46 61 47 62 49 66 50 67 51 68 52
REMARK SMILES IDX 69 53 70 54 71 55 2 56 1 57 3 58 4 59 5 60 6 62 7 63 63 65
REMARK SMILES IDX 64 66 65 67 40 69 41 70 42 71 44 72 43 73 45 74 46 75 47 76
REMARK SMILES IDX 55 77 56 78 48 79 49 80 50 81 54 82 51 83 53 84 52 85
REMARK H PARENT 38 5 27 10 18 17 10 22 22 31 34 39 34 40 35 41 35 42 61 48
REMARK H PARENT 5 61 65 68
REMARK Flexibility Score:  369.900
ROOT
ATOM      1  C   UNL     1      -2.395  -2.938  -1.496  1.00  0.00     0.117 C 
ENDROOT
BRANCH   1   2
ATOM      2  N   UNL     1      -3.722  -2.781  -0.901  1.00  0.00    -0.347 N 
ATOM      3  O   UNL     1      -4.360  -4.985  -0.973  1.00  0.00    -0.273 OA
ATOM      4  C   UNL     1      -4.565  -3.834  -0.602  1.00  0.00     0.243 C 
ATOM      5  H   UNL     1      -4.042  -1.860  -0.640  1.00  0.00     0.164 HD
BRANCH   4   6
ATOM      6  C   UNL     1      -5.877  -3.403   0.102  1.00  0.00     0.171 C 
BRANCH   6   7
ATOM      7  N   UNL     1      -6.949  -3.204  -0.886  1.00  0.00    -0.344 N 
ATOM      8  C   UNL     1      -7.048  -2.021  -1.587  1.00  0.00     0.226 C 
ATOM      9  O   UNL     1      -6.279  -1.084  -1.413  1.00  0.00    -0.275 OA
ATOM     10  H   UNL     1      -7.644  -3.929  -1.009  1.00  0.00     0.164 HD
BRANCH   8  11
ATOM     11  C   UNL     1      -8.173  -1.991  -2.607  1.00  0.00     0.109 C 
ATOM     12  C   UNL     1      -8.827  -3.369  -2.709  1.00  0.00     0.021 C 
BRANCH  11  13
ATOM     13  C   UNL     1      -9.141  -0.837  -2.281  1.00  0.00     0.204 C 
BRANCH  13  14
ATOM     14  N   UNL     1      -9.030  -0.400  -0.886  1.00  0.00    -0.340 N 
ATOM     15  C   UNL     1     -10.068  -0.500   0.015  1.00  0.00     0.243 C 
ATOM     16  O   UNL     1     -11.144  -1.020  -0.273  1.00  0.00    -0.273 OA
ATOM     17  H   UNL     1      -8.224   0.175  -0.625  1.00  0.00     0.164 HD
BRANCH  15  18
ATOM     18  C   UNL     1      -9.789   0.212   1.362  1.00  0.00     0.171 C 
BRANCH  18  19
ATOM     19  N   UNL     1     -10.352  -0.639   2.409  1.00  0.00    -0.343 N 
ATOM     20  C   UNL     1     -11.401  -0.219   3.203  1.00  0.00     0.242 CG0
ATOM     21  O   UNL     1     -11.822   0.935   3.157  1.00  0.00    -0.273 OA
ATOM     22  H   UNL     1      -9.960  -1.561   2.564  1.00  0.00     0.164 HD
ATOM     23  G   UNL     1     -11.910  -1.281   4.199  1.00  0.00     0.000 G0
ENDBRANCH  18  19
BRANCH  18  24
ATOM     24  C   UNL     1      -8.284   0.426   1.559  1.00  0.00     0.038 C 
BRANCH  24  25
ATOM     25  C   UNL     1      -7.846   1.904   1.627  1.00  0.00    -0.015 C 
ATOM     26  C   UNL     1      -6.326   2.064   1.659  1.00  0.00     0.007 C 
ATOM     27  C   UNL     1      -8.460   2.567   2.863  1.00  0.00     0.007 C 
ENDBRANCH  24  25
ENDBRANCH  18  24
ENDBRANCH  15  18
ENDBRANCH  13  14
BRANCH  13  28
ATOM     28  C   UNL     1      -8.926   0.398  -3.162  1.00  0.00     0.327 C 
ATOM     29  O   UNL     1      -7.858   0.942  -3.395  1.00  0.00    -0.250 OA
BRANCH  28  30
ATOM     30  O   UNL     1     -10.080   0.943  -3.599  1.00  0.00    -0.480 OA
ATOM     31  H   UNL     1     -10.460   1.373  -2.804  1.00  0.00     0.296 HD
ENDBRANCH  28  30
ENDBRANCH  13  28
ENDBRANCH  11  13
ENDBRANCH   8  11
ENDBRANCH   6   7
BRANCH   6  32
ATOM     32  C   UNL     1      -6.270  -4.469   1.130  1.00  0.00     0.037 C 
BRANCH  32  33
ATOM     33  C   UNL     1      -7.784  -4.496   1.386  1.00  0.00     0.026 C 
BRANCH  33  34
ATOM     34  C   UNL     1      -8.307  -5.908   1.653  1.00  0.00     0.146 C 
BRANCH  34  35
ATOM     35  N   UNL     1      -9.661  -5.815   2.180  1.00  0.00    -0.254 NA
ATOM     36  C   UNL     1     -10.208  -6.870   2.659  1.00  0.00     0.185 C 
ATOM     37  N   UNL     1     -11.454  -6.795   3.152  1.00  0.00    -0.370 N 
ATOM     38  N   UNL     1      -9.704  -8.114   2.754  1.00  0.00    -0.370 N 
ATOM     39  H   UNL     1     -11.898  -5.886   3.126  1.00  0.00     0.159 HD
ATOM     40  H   UNL     1     -11.881  -7.524   3.697  1.00  0.00     0.159 HD
ATOM     41  H   UNL     1     -10.284  -8.891   3.024  1.00  0.00     0.159 HD
ATOM     42  H   UNL     1      -8.781  -8.321   2.408  1.00  0.00     0.159 HD
ENDBRANCH  34  35
ENDBRANCH  33  34
ENDBRANCH  32  33
ENDBRANCH   6  32
ENDBRANCH   4   6
ENDBRANCH   1   2
BRANCH   1  43
ATOM     43  C   UNL     1      -1.342  -2.326  -0.526  1.00  0.00     0.102 C 
ATOM     44  C   UNL     1      -1.941  -1.860   0.812  1.00  0.00     0.020 C 
BRANCH  43  45
ATOM     45  C   UNL     1      -0.496  -1.263  -1.233  1.00  0.00     0.225 C 
ATOM     46  O   UNL     1      -0.786  -0.070  -1.238  1.00  0.00    -0.275 OA
ATOM     47  N   UNL     1       0.576  -1.740  -1.951  1.00  0.00    -0.342 N 
ATOM     48  H   UNL     1       0.887  -2.691  -1.813  1.00  0.00     0.164 HD
BRANCH  47  49
ATOM     49  C   UNL     1       1.495  -0.835  -2.648  1.00  0.00     0.192 C 
BRANCH  49  50
ATOM     50  C   UNL     1       1.358  -1.028  -4.161  1.00  0.00     0.047 C 
BRANCH  50  51
ATOM     51  C   UNL     1       0.847  -2.429  -4.525  1.00  0.00     0.103 C 
BRANCH  51  52
ATOM     52  C   UNL     1       1.897  -3.245  -5.276  1.00  0.00     0.226 C 
ATOM     53  O   UNL     1       2.959  -3.532  -4.720  1.00  0.00    -0.275 OA
BRANCH  52  54
ATOM     54  N   UNL     1       1.541  -3.692  -6.562  1.00  0.00    -0.311 N 
ATOM     55  C   UNL     1       1.739  -2.839  -7.741  1.00  0.00     0.153 C 
BRANCH  54  56
ATOM     56  C   UNL     1       0.991  -4.968  -6.767  1.00  0.00     0.102 C 
ATOM     57  C   UNL     1      -0.291  -5.210  -7.086  1.00  0.00     0.043 C 
BRANCH  56  58
ATOM     58  C   UNL     1       1.853  -6.206  -6.684  1.00  0.00     0.268 C 
ATOM     59  O   UNL     1       1.921  -6.909  -5.685  1.00  0.00    -0.268 OA
ATOM     60  N   UNL     1       2.497  -6.497  -7.864  1.00  0.00    -0.339 N 
ATOM     61  H   UNL     1       2.396  -5.858  -8.643  1.00  0.00     0.164 HD
BRANCH  60  62
ATOM     62  C   UNL     1       3.333  -7.686  -8.023  1.00  0.00     0.168 CG0
ATOM     63  C   UNL     1       4.808  -7.311  -8.099  1.00  0.00     0.041 C 
ATOM     64  G   UNL     1       2.899  -8.457  -9.286  1.00  0.00     0.000 G0
ENDBRANCH  60  62
ENDBRANCH  56  58
ENDBRANCH  54  56
ENDBRANCH  52  54
ENDBRANCH  51  52
ENDBRANCH  50  51
ENDBRANCH  49  50
BRANCH  49  65
ATOM     65  C   UNL     1       2.954  -1.079  -2.234  1.00  0.00     0.326 C 
ATOM     66  O   UNL     1       3.808  -0.215  -2.099  1.00  0.00    -0.250 OA
BRANCH  65  67
ATOM     67  O   UNL     1       3.284  -2.379  -2.072  1.00  0.00    -0.480 OA
ATOM     68  H   UNL     1       4.084  -2.346  -1.503  1.00  0.00     0.296 HD
ENDBRANCH  65  67
ENDBRANCH  49  65
ENDBRANCH  47  49
ENDBRANCH  43  45
ENDBRANCH   1  43
BRANCH   1  69
ATOM     69  C   UNL     1      -2.496  -2.391  -2.908  1.00  0.00    -0.001 C 
ATOM     70  C   UNL     1      -3.337  -1.443  -3.359  1.00  0.00     0.001 C 
BRANCH  70  71
ATOM     71  C   UNL     1      -3.410  -0.908  -4.720  1.00  0.00    -0.055 C 
ATOM     72  C   UNL     1      -2.250  -0.719  -5.384  1.00  0.00    -0.018 C 
ATOM     73  C   UNL     1      -4.775  -0.614  -5.286  1.00  0.00     0.044 C 
BRANCH  72  74
ATOM     74  C   UNL     1      -2.022  -0.187  -6.791  1.00  0.00     0.038 C 
ATOM     75  C   UNL     1      -1.547  -1.366  -7.649  1.00  0.00     0.015 C 
BRANCH  74  76
ATOM     76  C   UNL     1      -1.028   1.010  -6.719  1.00  0.00     0.128 C 
BRANCH  76  77
ATOM     77  O   UNL     1       0.069   0.792  -7.623  1.00  0.00    -0.381 OA
ATOM     78  C   UNL     1       1.320   1.243  -7.122  1.00  0.00     0.195 C 
ENDBRANCH  76  77
BRANCH  76  79
ATOM     79  C   UNL     1      -1.696   2.395  -6.909  1.00  0.00     0.068 C 
BRANCH  79  80
ATOM     80  C   UNL     1      -3.014   2.645  -6.218  1.00  0.00    -0.045 A 
ATOM     81  C   UNL     1      -4.202   2.765  -6.951  1.00  0.00     0.004 A 
ATOM     82  C   UNL     1      -3.065   2.790  -4.823  1.00  0.00     0.004 A 
ATOM     83  C   UNL     1      -5.416   3.011  -6.304  1.00  0.00     0.000 A 
ATOM     84  C   UNL     1      -4.279   3.036  -4.178  1.00  0.00     0.000 A 
ATOM     85  C   UNL     1      -5.454   3.145  -4.918  1.00  0.00     0.000 A 
ENDBRANCH  79  80
ENDBRANCH  76  79
ENDBRANCH  74  76
ENDBRANCH  72  74
ENDBRANCH  70  71
ENDBRANCH   1  69
TORSDOF 17
ENDMDL
MODEL 3
REMARK VINA RESULT:    -6.567      4.840      9.740
REMARK INTER + INTRA:         -27.233
REMARK INTER:                 -19.775
REMARK INTRA:                  -7.457
REMARK UNBOUND:                -7.614
REMARK SMILES C=C1C(=O)N[C@H](C)C(=O)N[C@@H](CC(C)C)C(=O)N[C@@H](C(=O)O)[C@H](C)C(=O)N[C@@H](CCCN=C(N)N)C(=O)N[C@@H](/C=C/C(C)=C/[C@H](C)[C@H](Cc2ccccc2)OC)[C@H](C)C(=O)N[C@@H](C(=O)O)CCC(=O)N1C
REMARK SMILES IDX 39 1 38 2 37 3 36 4 28 6 27 7 25 8 26 9 23 11 24 12 19 13
REMARK SMILES IDX 18 14 16 15 17 16 11 18 10 19 8 20 9 21 12 24 13 25 14 26
REMARK SMILES IDX 15 27 20 28 21 29 22 30 29 32 30 33 31 34 32 35 33 36 34 37
REMARK SMILES IDX 35 38 57 43 58 44 59 45 60 46 61 47 62 49 66 50 67 51 68 52
REMARK SMILES IDX 69 53 70 54 71 55 2 56 1 57 3 58 4 59 5 60 6 62 7 63 63 65
REMARK SMILES IDX 64 66 65 67 40 69 41 70 42 71 44 72 43 73 45 74 46 75 47 76
REMARK SMILES IDX 55 77 56 78 48 79 49 80 50 81 54 82 51 83 53 84 52 85
REMARK H PARENT 38 5 27 10 18 17 10 22 22 31 34 39 34 40 35 41 35 42 61 48
REMARK H PARENT 5 61 65 68
REMARK Flexibility Score:  369.900
ROOT
ATOM      1  C   UNL     1       0.425  -1.631  -0.487  1.00  0.00     0.117 C 
ENDROOT
BRANCH   1   2
ATOM      2  N   UNL     1      -0.900  -1.865  -1.062  1.00  0.00    -0.347 N 
ATOM      3  O   UNL     1      -1.461   0.326  -1.456  1.00  0.00    -0.273 OA
ATOM      4  C   UNL     1      -1.702  -0.870  -1.586  1.00  0.00     0.243 C 
ATOM      5  H   UNL     1      -1.248  -2.809  -1.134  1.00  0.00     0.164 HD
BRANCH   4   6
ATOM      6  C   UNL     1      -3.020  -1.396  -2.211  1.00  0.00     0.171 C 
BRANCH   6   7
ATOM      7  N   UNL     1      -4.137  -1.233  -1.267  1.00  0.00    -0.344 N 
ATOM      8  C   UNL     1      -4.314  -2.119  -0.228  1.00  0.00     0.226 C 
ATOM      9  O   UNL     1      -3.580  -3.084  -0.050  1.00  0.00    -0.275 OA
ATOM     10  H   UNL     1      -4.804  -0.487  -1.421  1.00  0.00     0.164 HD
BRANCH   8  11
ATOM     11  C   UNL     1      -5.478  -1.784   0.689  1.00  0.00     0.109 C 
ATOM     12  C   UNL     1      -5.026  -1.825   2.149  1.00  0.00     0.021 C 
BRANCH  11  13
ATOM     13  C   UNL     1      -6.124  -0.456   0.247  1.00  0.00     0.204 C 
BRANCH  13  14
ATOM     14  N   UNL     1      -7.568  -0.433   0.505  1.00  0.00    -0.340 N 
ATOM     15  C   UNL     1      -8.476   0.112  -0.377  1.00  0.00     0.243 C 
ATOM     16  O   UNL     1      -8.145   0.563  -1.472  1.00  0.00    -0.273 OA
ATOM     17  H   UNL     1      -7.890  -0.650   1.451  1.00  0.00     0.164 HD
BRANCH  15  18
ATOM     18  C   UNL     1      -9.911   0.212   0.197  1.00  0.00     0.171 C 
BRANCH  18  19
ATOM     19  N   UNL     1      -9.987   1.484   0.913  1.00  0.00    -0.343 N 
ATOM     20  C   UNL     1      -9.698   1.580   2.261  1.00  0.00     0.242 CG0
ATOM     21  O   UNL     1      -9.493   0.582   2.947  1.00  0.00    -0.273 OA
ATOM     22  H   UNL     1     -10.266   2.321   0.413  1.00  0.00     0.164 HD
ATOM     23  G   UNL     1      -9.756   3.015   2.824  1.00  0.00     0.000 G0
ENDBRANCH  18  19
BRANCH  18  24
ATOM     24  C   UNL     1     -10.951   0.138  -0.928  1.00  0.00     0.038 C 
BRANCH  24  25
ATOM     25  C   UNL     1     -12.224  -0.660  -0.576  1.00  0.00    -0.015 C 
ATOM     26  C   UNL     1     -12.085  -1.439   0.732  1.00  0.00     0.007 C 
ATOM     27  C   UNL     1     -12.559  -1.624  -1.717  1.00  0.00     0.007 C 
ENDBRANCH  24  25
ENDBRANCH  18  24
ENDBRANCH  15  18
ENDBRANCH  13  14
BRANCH  13  28
ATOM     28  C   UNL     1      -5.520   0.769   0.939  1.00  0.00     0.327 C 
ATOM     29  O   UNL     1      -5.969   1.340   1.921  1.00  0.00    -0.250 OA
BRANCH  28  30
ATOM     30  O   UNL     1      -4.454   1.273   0.285  1.00  0.00    -0.480 OA
ATOM     31  H   UNL     1      -3.697   0.743   0.612  1.00  0.00     0.296 HD
ENDBRANCH  28  30
ENDBRANCH  13  28
ENDBRANCH  11  13
ENDBRANCH   8  11
ENDBRANCH   6   7
BRANCH   6  32
ATOM     32  C   UNL     1      -3.292  -0.643  -3.518  1.00  0.00     0.037 C 
BRANCH  32  33
ATOM     33  C   UNL     1      -4.794  -0.494  -3.798  1.00  0.00     0.026 C 
BRANCH  33  34
ATOM     34  C   UNL     1      -5.217   0.966  -3.963  1.00  0.00     0.146 C 
BRANCH  34  35
ATOM     35  N   UNL     1      -4.890   1.691  -2.742  1.00  0.00    -0.254 NA
ATOM     36  C   UNL     1      -4.379   2.861  -2.841  1.00  0.00     0.185 C 
ATOM     37  N   UNL     1      -4.079   3.540  -1.722  1.00  0.00    -0.370 N 
ATOM     38  N   UNL     1      -4.078   3.561  -3.949  1.00  0.00    -0.370 N 
ATOM     39  H   UNL     1      -4.287   3.082  -0.844  1.00  0.00     0.159 HD
ATOM     40  H   UNL     1      -3.842   4.517  -1.711  1.00  0.00     0.159 HD
ATOM     41  H   UNL     1      -3.550   4.417  -3.897  1.00  0.00     0.159 HD
ATOM     42  H   UNL     1      -4.236   3.167  -4.863  1.00  0.00     0.159 HD
ENDBRANCH  34  35
ENDBRANCH  33  34
ENDBRANCH  32  33
ENDBRANCH   6  32
ENDBRANCH   4   6
ENDBRANCH   1   2
BRANCH   1  43
ATOM     43  C   UNL     1       1.473  -2.424  -1.320  1.00  0.00     0.102 C 
ATOM     44  C   UNL     1       2.637  -1.556  -1.826  1.00  0.00     0.020 C 
BRANCH  43  45
ATOM     45  C   UNL     1       0.793  -3.251  -2.416  1.00  0.00     0.225 C 
ATOM     46  O   UNL     1       0.096  -4.233  -2.179  1.00  0.00    -0.275 OA
ATOM     47  N   UNL     1       1.089  -2.880  -3.707  1.00  0.00    -0.342 N 
ATOM     48  H   UNL     1       1.533  -1.990  -3.883  1.00  0.00     0.164 HD
BRANCH  47  49
ATOM     49  C   UNL     1       0.483  -3.558  -4.857  1.00  0.00     0.192 C 
BRANCH  49  50
ATOM     50  C   UNL     1       1.448  -3.521  -6.044  1.00  0.00     0.047 C 
BRANCH  50  51
ATOM     51  C   UNL     1       1.550  -4.877  -6.755  1.00  0.00     0.103 C 
BRANCH  51  52
ATOM     52  C   UNL     1       2.954  -5.471  -6.660  1.00  0.00     0.226 C 
ATOM     53  O   UNL     1       3.732  -5.062  -5.796  1.00  0.00    -0.275 OA
BRANCH  52  54
ATOM     54  N   UNL     1       3.248  -6.528  -7.541  1.00  0.00    -0.311 N 
ATOM     55  C   UNL     1       2.440  -7.755  -7.547  1.00  0.00     0.153 C 
BRANCH  54  56
ATOM     56  C   UNL     1       4.318  -6.449  -8.448  1.00  0.00     0.102 C 
ATOM     57  C   UNL     1       5.298  -7.361  -8.561  1.00  0.00     0.043 C 
BRANCH  56  58
ATOM     58  C   UNL     1       4.418  -5.306  -9.430  1.00  0.00     0.268 C 
ATOM     59  O   UNL     1       4.162  -5.422 -10.621  1.00  0.00    -0.268 OA
ATOM     60  N   UNL     1       4.762  -4.114  -8.839  1.00  0.00    -0.339 N 
ATOM     61  H   UNL     1       4.969  -4.104  -7.847  1.00  0.00     0.164 HD
BRANCH  60  62
ATOM     62  C   UNL     1       4.854  -2.867  -9.596  1.00  0.00     0.168 CG0
ATOM     63  C   UNL     1       3.565  -2.062  -9.484  1.00  0.00     0.041 C 
ATOM     64  G   UNL     1       5.175  -3.181 -11.072  1.00  0.00     0.000 G0
ENDBRANCH  60  62
ENDBRANCH  56  58
ENDBRANCH  54  56
ENDBRANCH  52  54
ENDBRANCH  51  52
ENDBRANCH  50  51
ENDBRANCH  49  50
BRANCH  49  65
ATOM     65  C   UNL     1      -0.848  -2.905  -5.263  1.00  0.00     0.326 C 
ATOM     66  O   UNL     1      -0.967  -1.914  -5.968  1.00  0.00    -0.250 OA
BRANCH  65  67
ATOM     67  O   UNL     1      -1.946  -3.481  -4.725  1.00  0.00    -0.480 OA
ATOM     68  H   UNL     1      -1.873  -3.271  -3.769  1.00  0.00     0.296 HD
ENDBRANCH  65  67
ENDBRANCH  49  65
ENDBRANCH  47  49
ENDBRANCH  43  45
ENDBRANCH   1  43
BRANCH   1  69
ATOM     69  C   UNL     1       0.300  -1.918   0.998  1.00  0.00    -0.001 C 
ATOM     70  C   UNL     1      -0.326  -1.170   1.925  1.00  0.00     0.001 C 
BRANCH  70  71
ATOM     71  C   UNL     1      -0.458  -1.468   3.352  1.00  0.00    -0.055 C 
ATOM     72  C   UNL     1      -1.630  -1.166   3.950  1.00  0.00    -0.018 C 
ATOM     73  C   UNL     1       0.719  -2.098   4.051  1.00  0.00     0.044 C 
BRANCH  72  74
ATOM     74  C   UNL     1      -2.051  -1.363   5.400  1.00  0.00     0.038 C 
ATOM     75  C   UNL     1      -3.145  -2.437   5.412  1.00  0.00     0.015 C 
BRANCH  74  76
ATOM     76  C   UNL     1      -2.480   0.014   5.988  1.00  0.00     0.128 C 
BRANCH  76  77
ATOM     77  O   UNL     1      -1.332   0.702   6.512  1.00  0.00    -0.381 OA
ATOM     78  C   UNL     1      -1.613   2.023   6.958  1.00  0.00     0.195 C 
ENDBRANCH  76  77
BRANCH  76  79
ATOM     79  C   UNL     1      -3.307   0.885   5.010  1.00  0.00     0.068 C 
BRANCH  79  80
ATOM     80  C   UNL     1      -4.787   1.031   5.272  1.00  0.00    -0.045 A 
ATOM     81  C   UNL     1      -5.643  -0.076   5.211  1.00  0.00     0.004 A 
ATOM     82  C   UNL     1      -5.334   2.292   5.555  1.00  0.00     0.004 A 
ATOM     83  C   UNL     1      -7.013   0.070   5.441  1.00  0.00     0.000 A 
ATOM     84  C   UNL     1      -6.704   2.437   5.784  1.00  0.00     0.000 A 
ATOM     85  C   UNL     1      -7.543   1.326   5.729  1.00  0.00     0.000 A 
ENDBRANCH  79  80
ENDBRANCH  76  79
ENDBRANCH  74  76
ENDBRANCH  72  74
ENDBRANCH  70  71
ENDBRANCH   1  69
TORSDOF 17
ENDMDL
MODEL 4
REMARK VINA RESULT:    -6.551      3.632      5.849
REMARK INTER + INTRA:         -27.185
REMARK INTER:                 -20.975
REMARK INTRA:                  -6.211
REMARK UNBOUND:                -7.614
REMARK SMILES C=C1C(=O)N[C@H](C)C(=O)N[C@@H](CC(C)C)C(=O)N[C@@H](C(=O)O)[C@H](C)C(=O)N[C@@H](CCCN=C(N)N)C(=O)N[C@@H](/C=C/C(C)=C/[C@H](C)[C@H](Cc2ccccc2)OC)[C@H](C)C(=O)N[C@@H](C(=O)O)CCC(=O)N1C
REMARK SMILES IDX 39 1 38 2 37 3 36 4 28 6 27 7 25 8 26 9 23 11 24 12 19 13
REMARK SMILES IDX 18 14 16 15 17 16 11 18 10 19 8 20 9 21 12 24 13 25 14 26
REMARK SMILES IDX 15 27 20 28 21 29 22 30 29 32 30 33 31 34 32 35 33 36 34 37
REMARK SMILES IDX 35 38 57 43 58 44 59 45 60 46 61 47 62 49 66 50 67 51 68 52
REMARK SMILES IDX 69 53 70 54 71 55 2 56 1 57 3 58 4 59 5 60 6 62 7 63 63 65
REMARK SMILES IDX 64 66 65 67 40 69 41 70 42 71 44 72 43 73 45 74 46 75 47 76
REMARK SMILES IDX 55 77 56 78 48 79 49 80 50 81 54 82 51 83 53 84 52 85
REMARK H PARENT 38 5 27 10 18 17 10 22 22 31 34 39 34 40 35 41 35 42 61 48
REMARK H PARENT 5 61 65 68
REMARK Flexibility Score:  369.900
ROOT
ATOM      1  C   UNL     1       1.614  -2.552  -4.080  1.00  0.00     0.117 C 
ENDROOT
BRANCH   1   2
ATOM      2  N   UNL     1       0.188  -2.226  -4.067  1.00  0.00    -0.347 N 
ATOM      3  O   UNL     1      -0.480  -3.798  -2.533  1.00  0.00    -0.273 OA
ATOM      4  C   UNL     1      -0.733  -2.816  -3.223  1.00  0.00     0.243 C 
ATOM      5  H   UNL     1      -0.157  -1.492  -4.668  1.00  0.00     0.164 HD
BRANCH   4   6
ATOM      6  C   UNL     1      -2.162  -2.228  -3.351  1.00  0.00     0.171 C 
BRANCH   6   7
ATOM      7  N   UNL     1      -2.673  -1.827  -2.031  1.00  0.00    -0.344 N 
ATOM      8  C   UNL     1      -2.002  -0.894  -1.271  1.00  0.00     0.226 C 
ATOM      9  O   UNL     1      -0.953  -0.375  -1.637  1.00  0.00    -0.275 OA
ATOM     10  H   UNL     1      -3.500  -2.283  -1.666  1.00  0.00     0.164 HD
BRANCH   8  11
ATOM     11  C   UNL     1      -2.684  -0.546   0.040  1.00  0.00     0.109 C 
ATOM     12  C   UNL     1      -4.111  -0.064  -0.221  1.00  0.00     0.021 C 
BRANCH  11  13
ATOM     13  C   UNL     1      -2.570  -1.733   1.018  1.00  0.00     0.204 C 
BRANCH  13  14
ATOM     14  N   UNL     1      -2.219  -1.299   2.373  1.00  0.00    -0.340 N 
ATOM     15  C   UNL     1      -0.927  -1.313   2.852  1.00  0.00     0.243 C 
ATOM     16  O   UNL     1       0.033  -1.634   2.154  1.00  0.00    -0.273 OA
ATOM     17  H   UNL     1      -2.978  -1.167   3.047  1.00  0.00     0.164 HD
BRANCH  15  18
ATOM     18  C   UNL     1      -0.826  -1.012   4.368  1.00  0.00     0.171 C 
BRANCH  18  19
ATOM     19  N   UNL     1      -1.685  -1.981   5.045  1.00  0.00    -0.343 N 
ATOM     20  C   UNL     1      -2.566  -1.603   6.040  1.00  0.00     0.242 CG0
ATOM     21  O   UNL     1      -2.573  -0.461   6.494  1.00  0.00    -0.273 OA
ATOM     22  H   UNL     1      -1.633  -2.959   4.785  1.00  0.00     0.164 HD
ATOM     23  G   UNL     1      -3.445  -2.750   6.582  1.00  0.00     0.000 G0
ENDBRANCH  18  19
BRANCH  18  24
ATOM     24  C   UNL     1       0.628  -1.120   4.846  1.00  0.00     0.038 C 
BRANCH  24  25
ATOM     25  C   UNL     1       1.175   0.148   5.534  1.00  0.00    -0.015 C 
ATOM     26  C   UNL     1       0.190   1.316   5.480  1.00  0.00     0.007 C 
ATOM     27  C   UNL     1       2.497   0.559   4.881  1.00  0.00     0.007 C 
ENDBRANCH  24  25
ENDBRANCH  18  24
ENDBRANCH  15  18
ENDBRANCH  13  14
BRANCH  13  28
ATOM     28  C   UNL     1      -3.859  -2.554   1.123  1.00  0.00     0.327 C 
ATOM     29  O   UNL     1      -4.665  -2.519   2.041  1.00  0.00    -0.250 OA
BRANCH  28  30
ATOM     30  O   UNL     1      -3.995  -3.454   0.129  1.00  0.00    -0.480 OA
ATOM     31  H   UNL     1      -4.565  -4.153   0.512  1.00  0.00     0.296 HD
ENDBRANCH  28  30
ENDBRANCH  13  28
ENDBRANCH  11  13
ENDBRANCH   8  11
ENDBRANCH   6   7
BRANCH   6  32
ATOM     32  C   UNL     1      -2.131  -1.035  -4.312  1.00  0.00     0.037 C 
BRANCH  32  33
ATOM     33  C   UNL     1      -3.505  -0.365  -4.448  1.00  0.00     0.026 C 
BRANCH  33  34
ATOM     34  C   UNL     1      -3.449   0.926  -5.266  1.00  0.00     0.146 C 
BRANCH  34  35
ATOM     35  N   UNL     1      -4.474   1.837  -4.777  1.00  0.00    -0.254 NA
ATOM     36  C   UNL     1      -4.119   2.826  -4.044  1.00  0.00     0.185 C 
ATOM     37  N   UNL     1      -5.056   3.675  -3.592  1.00  0.00    -0.370 N 
ATOM     38  N   UNL     1      -2.887   3.172  -3.631  1.00  0.00    -0.370 N 
ATOM     39  H   UNL     1      -6.011   3.487  -3.870  1.00  0.00     0.159 HD
ATOM     40  H   UNL     1      -4.844   4.560  -3.165  1.00  0.00     0.159 HD
ATOM     41  H   UNL     1      -2.752   3.893  -2.942  1.00  0.00     0.159 HD
ATOM     42  H   UNL     1      -2.086   2.614  -3.883  1.00  0.00     0.159 HD
ENDBRANCH  34  35
ENDBRANCH  33  34
ENDBRANCH  32  33
ENDBRANCH   6  32
ENDBRANCH   4   6
ENDBRANCH   1   2
BRANCH   1  43
ATOM     43  C   UNL     1       2.412  -1.306  -3.600  1.00  0.00     0.102 C 
ATOM     44  C   UNL     1       2.260  -1.022  -2.096  1.00  0.00     0.020 C 
BRANCH  43  45
ATOM     45  C   UNL     1       2.127  -0.094  -4.493  1.00  0.00     0.225 C 
ATOM     46  O   UNL     1       1.120   0.599  -4.382  1.00  0.00    -0.275 OA
ATOM     47  N   UNL     1       3.035   0.123  -5.504  1.00  0.00    -0.342 N 
ATOM     48  H   UNL     1       3.925  -0.354  -5.488  1.00  0.00     0.164 HD
BRANCH  47  49
ATOM     49  C   UNL     1       2.909   1.267  -6.413  1.00  0.00     0.192 C 
BRANCH  49  50
ATOM     50  C   UNL     1       3.198   0.817  -7.848  1.00  0.00     0.047 C 
BRANCH  50  51
ATOM     51  C   UNL     1       3.249   1.996  -8.829  1.00  0.00     0.103 C 
BRANCH  51  52
ATOM     52  C   UNL     1       1.917   2.203  -9.547  1.00  0.00     0.226 C 
ATOM     53  O   UNL     1       1.120   1.267  -9.636  1.00  0.00    -0.275 OA
BRANCH  52  54
ATOM     54  N   UNL     1       1.648   3.505 -10.007  1.00  0.00    -0.311 N 
ATOM     55  C   UNL     1       1.722   4.658  -9.099  1.00  0.00     0.153 C 
BRANCH  54  56
ATOM     56  C   UNL     1       1.306   3.753 -11.347  1.00  0.00     0.102 C 
ATOM     57  C   UNL     1       0.055   3.939 -11.799  1.00  0.00     0.043 C 
BRANCH  56  58
ATOM     58  C   UNL     1       2.374   3.878 -12.408  1.00  0.00     0.268 C 
ATOM     59  O   UNL     1       3.441   4.446 -12.221  1.00  0.00    -0.268 OA
ATOM     60  N   UNL     1       2.050   3.233 -13.578  1.00  0.00    -0.339 N 
ATOM     61  H   UNL     1       1.140   2.794 -13.657  1.00  0.00     0.164 HD
BRANCH  60  62
ATOM     62  C   UNL     1       2.967   3.175 -14.715  1.00  0.00     0.168 CG0
ATOM     63  C   UNL     1       3.798   1.898 -14.683  1.00  0.00     0.041 C 
ATOM     64  G   UNL     1       3.879   4.419 -14.708  1.00  0.00     0.000 G0
ENDBRANCH  60  62
ENDBRANCH  56  58
ENDBRANCH  54  56
ENDBRANCH  52  54
ENDBRANCH  51  52
ENDBRANCH  50  51
ENDBRANCH  49  50
BRANCH  49  65
ATOM     65  C   UNL     1       3.873   2.402  -6.033  1.00  0.00     0.326 C 
ATOM     66  O   UNL     1       3.559   3.570  -5.853  1.00  0.00    -0.250 OA
BRANCH  65  67
ATOM     67  O   UNL     1       5.172   2.038  -5.957  1.00  0.00    -0.480 OA
ATOM     68  H   UNL     1       5.546   2.337  -6.813  1.00  0.00     0.296 HD
ENDBRANCH  65  67
ENDBRANCH  49  65
ENDBRANCH  47  49
ENDBRANCH  43  45
ENDBRANCH   1  43
BRANCH   1  69
ATOM     69  C   UNL     1       1.905  -3.126  -5.454  1.00  0.00    -0.001 C 
ATOM     70  C   UNL     1       1.052  -3.247  -6.487  1.00  0.00     0.001 C 
BRANCH  70  71
ATOM     71  C   UNL     1       1.350  -3.782  -7.816  1.00  0.00    -0.055 C 
ATOM     72  C   UNL     1       2.129  -3.040  -8.632  1.00  0.00    -0.018 C 
ATOM     73  C   UNL     1       0.775  -5.127  -8.178  1.00  0.00     0.044 C 
BRANCH  72  74
ATOM     74  C   UNL     1       2.601  -3.339 -10.047  1.00  0.00     0.038 C 
ATOM     75  C   UNL     1       4.126  -3.173 -10.061  1.00  0.00     0.015 C 
BRANCH  74  76
ATOM     76  C   UNL     1       1.835  -2.413 -11.037  1.00  0.00     0.128 C 
BRANCH  76  77
ATOM     77  O   UNL     1       2.769  -1.655 -11.824  1.00  0.00    -0.381 OA
ATOM     78  C   UNL     1       2.196  -0.516 -12.451  1.00  0.00     0.195 C 
ENDBRANCH  76  77
BRANCH  76  79
ATOM     79  C   UNL     1       0.782  -3.151 -11.902  1.00  0.00     0.068 C 
BRANCH  79  80
ATOM     80  C   UNL     1      -0.677  -2.890 -11.617  1.00  0.00    -0.045 A 
ATOM     81  C   UNL     1      -1.144  -2.767 -10.301  1.00  0.00     0.004 A 
ATOM     82  C   UNL     1      -1.598  -2.793 -12.671  1.00  0.00     0.004 A 
ATOM     83  C   UNL     1      -2.498  -2.539 -10.045  1.00  0.00     0.000 A 
ATOM     84  C   UNL     1      -2.952  -2.566 -12.413  1.00  0.00     0.000 A 
ATOM     85  C   UNL     1      -3.401  -2.437 -11.101  1.00  0.00     0.000 A 
ENDBRANCH  79  80
ENDBRANCH  76  79
ENDBRANCH  74  76
ENDBRANCH  72  74
ENDBRANCH  70  71
ENDBRANCH   1  69
TORSDOF 17
ENDMDL
MODEL 5
REMARK VINA RESULT:    -6.530      3.289      8.874
REMARK INTER + INTRA:         -27.124
REMARK INTER:                 -20.757
REMARK INTRA:                  -6.367
REMARK UNBOUND:                -7.614
REMARK SMILES C=C1C(=O)N[C@H](C)C(=O)N[C@@H](CC(C)C)C(=O)N[C@@H](C(=O)O)[C@H](C)C(=O)N[C@@H](CCCN=C(N)N)C(=O)N[C@@H](/C=C/C(C)=C/[C@H](C)[C@H](Cc2ccccc2)OC)[C@H](C)C(=O)N[C@@H](C(=O)O)CCC(=O)N1C
REMARK SMILES IDX 39 1 38 2 37 3 36 4 28 6 27 7 25 8 26 9 23 11 24 12 19 13
REMARK SMILES IDX 18 14 16 15 17 16 11 18 10 19 8 20 9 21 12 24 13 25 14 26
REMARK SMILES IDX 15 27 20 28 21 29 22 30 29 32 30 33 31 34 32 35 33 36 34 37
REMARK SMILES IDX 35 38 57 43 58 44 59 45 60 46 61 47 62 49 66 50 67 51 68 52
REMARK SMILES IDX 69 53 70 54 71 55 2 56 1 57 3 58 4 59 5 60 6 62 7 63 63 65
REMARK SMILES IDX 64 66 65 67 40 69 41 70 42 71 44 72 43 73 45 74 46 75 47 76
REMARK SMILES IDX 55 77 56 78 48 79 49 80 50 81 54 82 51 83 53 84 52 85
REMARK H PARENT 38 5 27 10 18 17 10 22 22 31 34 39 34 40 35 41 35 42 61 48
REMARK H PARENT 5 61 65 68
REMARK Flexibility Score:  369.900
ROOT
ATOM      1  C   UNL     1      -3.196   2.306  -5.564  1.00  0.00     0.117 C 
ENDROOT
BRANCH   1   2
ATOM      2  N   UNL     1      -2.800   1.280  -4.600  1.00  0.00    -0.347 N 
ATOM      3  O   UNL     1      -2.953   2.559  -2.700  1.00  0.00    -0.273 OA
ATOM      4  C   UNL     1      -2.799   1.464  -3.231  1.00  0.00     0.243 C 
ATOM      5  H   UNL     1      -2.557   0.358  -4.930  1.00  0.00     0.164 HD
BRANCH   4   6
ATOM      6  C   UNL     1      -2.422   0.192  -2.430  1.00  0.00     0.171 C 
BRANCH   6   7
ATOM      7  N   UNL     1      -3.577  -0.292  -1.659  1.00  0.00    -0.344 N 
ATOM      8  C   UNL     1      -3.409  -0.820  -0.397  1.00  0.00     0.226 C 
ATOM      9  O   UNL     1      -2.308  -0.933   0.130  1.00  0.00    -0.275 OA
ATOM     10  H   UNL     1      -4.495  -0.277  -2.087  1.00  0.00     0.164 HD
BRANCH   8  11
ATOM     11  C   UNL     1      -4.701  -1.224   0.290  1.00  0.00     0.109 C 
ATOM     12  C   UNL     1      -4.690  -2.722   0.593  1.00  0.00     0.021 C 
BRANCH  11  13
ATOM     13  C   UNL     1      -4.947  -0.317   1.513  1.00  0.00     0.204 C 
BRANCH  13  14
ATOM     14  N   UNL     1      -3.752  -0.188   2.353  1.00  0.00    -0.340 N 
ATOM     15  C   UNL     1      -3.650  -0.760   3.602  1.00  0.00     0.243 C 
ATOM     16  O   UNL     1      -4.533  -1.473   4.077  1.00  0.00    -0.273 OA
ATOM     17  H   UNL     1      -3.051   0.508   2.087  1.00  0.00     0.164 HD
BRANCH  15  18
ATOM     18  C   UNL     1      -2.388  -0.318   4.384  1.00  0.00     0.171 C 
BRANCH  18  19
ATOM     19  N   UNL     1      -2.833   0.658   5.378  1.00  0.00    -0.343 N 
ATOM     20  C   UNL     1      -2.029   1.708   5.778  1.00  0.00     0.242 CG0
ATOM     21  O   UNL     1      -0.857   1.795   5.419  1.00  0.00    -0.273 OA
ATOM     22  H   UNL     1      -3.753   0.562   5.792  1.00  0.00     0.164 HD
ATOM     23  G   UNL     1      -2.698   2.678   6.774  1.00  0.00     0.000 G0
ENDBRANCH  18  19
BRANCH  18  24
ATOM     24  C   UNL     1      -1.710  -1.524   5.045  1.00  0.00     0.038 C 
BRANCH  24  25
ATOM     25  C   UNL     1      -0.291  -1.832   4.522  1.00  0.00    -0.015 C 
ATOM     26  C   UNL     1       0.802  -1.224   5.402  1.00  0.00     0.007 C 
ATOM     27  C   UNL     1      -0.147  -1.313   3.089  1.00  0.00     0.007 C 
ENDBRANCH  24  25
ENDBRANCH  18  24
ENDBRANCH  15  18
ENDBRANCH  13  14
BRANCH  13  28
ATOM     28  C   UNL     1      -5.391   1.099   1.135  1.00  0.00     0.327 C 
ATOM     29  O   UNL     1      -5.579   2.027   1.907  1.00  0.00    -0.250 OA
BRANCH  28  30
ATOM     30  O   UNL     1      -5.686   1.229  -0.174  1.00  0.00    -0.480 OA
ATOM     31  H   UNL     1      -5.056   1.906  -0.497  1.00  0.00     0.296 HD
ENDBRANCH  28  30
ENDBRANCH  13  28
ENDBRANCH  11  13
ENDBRANCH   8  11
ENDBRANCH   6   7
BRANCH   6  32
ATOM     32  C   UNL     1      -1.923  -0.884  -3.402  1.00  0.00     0.037 C 
BRANCH  32  33
ATOM     33  C   UNL     1      -0.612  -1.528  -2.929  1.00  0.00     0.026 C 
BRANCH  33  34
ATOM     34  C   UNL     1       0.447  -1.575  -4.031  1.00  0.00     0.146 C 
BRANCH  34  35
ATOM     35  N   UNL     1       1.337  -0.432  -3.878  1.00  0.00    -0.254 NA
ATOM     36  C   UNL     1       2.495  -0.619  -3.364  1.00  0.00     0.185 C 
ATOM     37  N   UNL     1       3.324   0.426  -3.222  1.00  0.00    -0.370 N 
ATOM     38  N   UNL     1       3.046  -1.762  -2.916  1.00  0.00    -0.370 N 
ATOM     39  H   UNL     1       2.984   1.322  -3.547  1.00  0.00     0.159 HD
ATOM     40  H   UNL     1       4.299   0.335  -2.993  1.00  0.00     0.159 HD
ATOM     41  H   UNL     1       3.912  -1.756  -2.404  1.00  0.00     0.159 HD
ATOM     42  H   UNL     1       2.528  -2.626  -2.946  1.00  0.00     0.159 HD
ENDBRANCH  34  35
ENDBRANCH  33  34
ENDBRANCH  32  33
ENDBRANCH   6  32
ENDBRANCH   4   6
ENDBRANCH   1   2
BRANCH   1  43
ATOM     43  C   UNL     1      -4.341   1.738  -6.451  1.00  0.00     0.102 C 
ATOM     44  C   UNL     1      -5.535   2.697  -6.598  1.00  0.00     0.020 C 
BRANCH  43  45
ATOM     45  C   UNL     1      -4.730   0.324  -6.007  1.00  0.00     0.225 C 
ATOM     46  O   UNL     1      -4.052  -0.668  -6.258  1.00  0.00    -0.275 OA
ATOM     47  N   UNL     1      -5.951   0.215  -5.382  1.00  0.00    -0.342 N 
ATOM     48  H   UNL     1      -6.420   1.046  -5.052  1.00  0.00     0.164 HD
BRANCH  47  49
ATOM     49  C   UNL     1      -6.438  -1.070  -4.872  1.00  0.00     0.192 C 
BRANCH  49  50
ATOM     50  C   UNL     1      -7.919  -1.235  -5.221  1.00  0.00     0.047 C 
BRANCH  50  51
ATOM     51  C   UNL     1      -8.215  -0.885  -6.686  1.00  0.00     0.103 C 
BRANCH  51  52
ATOM     52  C   UNL     1      -8.362  -2.132  -7.555  1.00  0.00     0.226 C 
ATOM     53  O   UNL     1      -8.622  -3.216  -7.028  1.00  0.00    -0.275 OA
BRANCH  52  54
ATOM     54  N   UNL     1      -8.262  -1.943  -8.945  1.00  0.00    -0.311 N 
ATOM     55  C   UNL     1      -9.054  -0.911  -9.627  1.00  0.00     0.153 C 
BRANCH  54  56
ATOM     56  C   UNL     1      -7.399  -2.726  -9.731  1.00  0.00     0.102 C 
ATOM     57  C   UNL     1      -6.110  -2.441  -9.974  1.00  0.00     0.043 C 
BRANCH  56  58
ATOM     58  C   UNL     1      -7.874  -4.022 -10.346  1.00  0.00     0.268 C 
ATOM     59  O   UNL     1      -9.051  -4.262 -10.576  1.00  0.00    -0.268 OA
ATOM     60  N   UNL     1      -6.845  -4.870 -10.679  1.00  0.00    -0.339 N 
ATOM     61  H   UNL     1      -5.896  -4.601 -10.445  1.00  0.00     0.164 HD
BRANCH  60  62
ATOM     62  C   UNL     1      -7.076  -6.152 -11.343  1.00  0.00     0.168 CG0
ATOM     63  C   UNL     1      -6.516  -7.304 -10.518  1.00  0.00     0.041 C 
ATOM     64  G   UNL     1      -6.441  -6.128 -12.749  1.00  0.00     0.000 G0
ENDBRANCH  60  62
ENDBRANCH  56  58
ENDBRANCH  54  56
ENDBRANCH  52  54
ENDBRANCH  51  52
ENDBRANCH  50  51
ENDBRANCH  49  50
BRANCH  49  65
ATOM     65  C   UNL     1      -6.258  -1.180  -3.350  1.00  0.00     0.326 C 
ATOM     66  O   UNL     1      -6.577  -0.328  -2.533  1.00  0.00    -0.250 OA
BRANCH  65  67
ATOM     67  O   UNL     1      -5.643  -2.309  -2.934  1.00  0.00    -0.480 OA
ATOM     68  H   UNL     1      -6.253  -2.669  -2.256  1.00  0.00     0.296 HD
ENDBRANCH  65  67
ENDBRANCH  49  65
ENDBRANCH  47  49
ENDBRANCH  43  45
ENDBRANCH   1  43
BRANCH   1  69
ATOM     69  C   UNL     1      -1.916   2.777  -6.232  1.00  0.00    -0.001 C 
ATOM     70  C   UNL     1      -0.663   2.360  -5.980  1.00  0.00     0.001 C 
BRANCH  70  71
ATOM     71  C   UNL     1       0.563   2.806  -6.646  1.00  0.00    -0.055 C 
ATOM     72  C   UNL     1       0.434   3.558  -7.759  1.00  0.00    -0.018 C 
ATOM     73  C   UNL     1       1.880   2.401  -6.037  1.00  0.00     0.044 C 
BRANCH  72  74
ATOM     74  C   UNL     1       1.515   4.157  -8.647  1.00  0.00     0.038 C 
ATOM     75  C   UNL     1       1.251   5.666  -8.726  1.00  0.00     0.015 C 
BRANCH  74  76
ATOM     76  C   UNL     1       1.504   3.419 -10.018  1.00  0.00     0.128 C 
BRANCH  76  77
ATOM     77  O   UNL     1       1.171   2.034  -9.827  1.00  0.00    -0.381 OA
ATOM     78  C   UNL     1       2.297   1.167  -9.849  1.00  0.00     0.195 C 
ENDBRANCH  76  77
BRANCH  76  79
ATOM     79  C   UNL     1       0.625   4.105 -11.095  1.00  0.00     0.068 C 
BRANCH  79  80
ATOM     80  C   UNL     1       1.014   3.927 -12.542  1.00  0.00    -0.045 A 
ATOM     81  C   UNL     1       0.046   3.937 -13.556  1.00  0.00     0.004 A 
ATOM     82  C   UNL     1       2.356   3.719 -12.894  1.00  0.00     0.004 A 
ATOM     83  C   UNL     1       0.412   3.757 -14.892  1.00  0.00     0.000 A 
ATOM     84  C   UNL     1       2.721   3.539 -14.230  1.00  0.00     0.000 A 
ATOM     85  C   UNL     1       1.749   3.560 -15.228  1.00  0.00     0.000 A 
ENDBRANCH  79  80
ENDBRANCH  76  79
ENDBRANCH  74  76
ENDBRANCH  72  74
ENDBRANCH  70  71
ENDBRANCH   1  69
TORSDOF 17
ENDMDL
MODEL 6
REMARK VINA RESULT:    -6.466      4.722     10.005
REMARK INTER + INTRA:         -26.932
REMARK INTER:                 -19.764
REMARK INTRA:                  -7.168
REMARK UNBOUND:                -7.614
REMARK SMILES C=C1C(=O)N[C@H](C)C(=O)N[C@@H](CC(C)C)C(=O)N[C@@H](C(=O)O)[C@H](C)C(=O)N[C@@H](CCCN=C(N)N)C(=O)N[C@@H](/C=C/C(C)=C/[C@H](C)[C@H](Cc2ccccc2)OC)[C@H](C)C(=O)N[C@@H](C(=O)O)CCC(=O)N1C
REMARK SMILES IDX 39 1 38 2 37 3 36 4 28 6 27 7 25 8 26 9 23 11 24 12 19 13
REMARK SMILES IDX 18 14 16 15 17 16 11 18 10 19 8 20 9 21 12 24 13 25 14 26
REMARK SMILES IDX 15 27 20 28 21 29 22 30 29 32 30 33 31 34 32 35 33 36 34 37
REMARK SMILES IDX 35 38 57 43 58 44 59 45 60 46 61 47 62 49 66 50 67 51 68 52
REMARK SMILES IDX 69 53 70 54 71 55 2 56 1 57 3 58 4 59 5 60 6 62 7 63 63 65
REMARK SMILES IDX 64 66 65 67 40 69 41 70 42 71 44 72 43 73 45 74 46 75 47 76
REMARK SMILES IDX 55 77 56 78 48 79 49 80 50 81 54 82 51 83 53 84 52 85
REMARK H PARENT 38 5 27 10 18 17 10 22 22 31 34 39 34 40 35 41 35 42 61 48
REMARK H PARENT 5 61 65 68
REMARK Flexibility Score:  369.900
ROOT
ATOM      1  C   UNL     1       0.487  -1.356  -1.362  1.00  0.00     0.117 C 
ENDROOT
BRANCH   1   2
ATOM      2  N   UNL     1      -0.874  -1.796  -1.667  1.00  0.00    -0.347 N 
ATOM      3  O   UNL     1      -1.637   0.162  -2.592  1.00  0.00    -0.273 OA
ATOM      4  C   UNL     1      -1.802  -1.028  -2.343  1.00  0.00     0.243 C 
ATOM      5  H   UNL     1      -1.158  -2.733  -1.421  1.00  0.00     0.164 HD
BRANCH   4   6
ATOM      6  C   UNL     1      -3.141  -1.762  -2.613  1.00  0.00     0.171 C 
BRANCH   6   7
ATOM      7  N   UNL     1      -4.074  -1.559  -1.494  1.00  0.00    -0.344 N 
ATOM      8  C   UNL     1      -4.034  -2.380  -0.388  1.00  0.00     0.226 C 
ATOM      9  O   UNL     1      -3.252  -3.318  -0.290  1.00  0.00    -0.275 OA
ATOM     10  H   UNL     1      -4.779  -0.836  -1.568  1.00  0.00     0.164 HD
BRANCH   8  11
ATOM     11  C   UNL     1      -5.023  -2.009   0.703  1.00  0.00     0.109 C 
ATOM     12  C   UNL     1      -4.321  -1.980   2.061  1.00  0.00     0.021 C 
BRANCH  11  13
ATOM     13  C   UNL     1      -5.753  -0.705   0.323  1.00  0.00     0.204 C 
BRANCH  13  14
ATOM     14  N   UNL     1      -7.085  -0.621   0.931  1.00  0.00    -0.340 N 
ATOM     15  C   UNL     1      -8.163  -0.044   0.295  1.00  0.00     0.243 C 
ATOM     16  O   UNL     1      -8.097   0.389  -0.854  1.00  0.00    -0.273 OA
ATOM     17  H   UNL     1      -7.170  -0.822   1.931  1.00  0.00     0.164 HD
BRANCH  15  18
ATOM     18  C   UNL     1      -9.404   0.117   1.206  1.00  0.00     0.171 C 
BRANCH  18  19
ATOM     19  N   UNL     1      -9.800   1.522   1.130  1.00  0.00    -0.343 N 
ATOM     20  C   UNL     1      -9.331   2.461   2.029  1.00  0.00     0.242 CG0
ATOM     21  O   UNL     1      -8.668   2.136   3.011  1.00  0.00    -0.273 OA
ATOM     22  H   UNL     1     -10.441   1.820   0.403  1.00  0.00     0.164 HD
ATOM     23  G   UNL     1      -9.795   3.904   1.743  1.00  0.00     0.000 G0
ENDBRANCH  18  19
BRANCH  18  24
ATOM     24  C   UNL     1     -10.536  -0.811   0.748  1.00  0.00     0.038 C 
BRANCH  24  25
ATOM     25  C   UNL     1     -11.611  -0.133  -0.129  1.00  0.00    -0.015 C 
ATOM     26  C   UNL     1     -13.007  -0.215   0.489  1.00  0.00     0.007 C 
ATOM     27  C   UNL     1     -11.623  -0.776  -1.518  1.00  0.00     0.007 C 
ENDBRANCH  24  25
ENDBRANCH  18  24
ENDBRANCH  15  18
ENDBRANCH  13  14
BRANCH  13  28
ATOM     28  C   UNL     1      -4.988   0.557   0.732  1.00  0.00     0.327 C 
ATOM     29  O   UNL     1      -5.208   1.250   1.714  1.00  0.00    -0.250 OA
BRANCH  28  30
ATOM     30  O   UNL     1      -4.070   0.938  -0.180  1.00  0.00    -0.480 OA
ATOM     31  H   UNL     1      -3.221   0.914   0.308  1.00  0.00     0.296 HD
ENDBRANCH  28  30
ENDBRANCH  13  28
ENDBRANCH  11  13
ENDBRANCH   8  11
ENDBRANCH   6   7
BRANCH   6  32
ATOM     32  C   UNL     1      -3.741  -1.247  -3.927  1.00  0.00     0.037 C 
BRANCH  32  33
ATOM     33  C   UNL     1      -5.028  -0.443  -3.699  1.00  0.00     0.026 C 
BRANCH  33  34
ATOM     34  C   UNL     1      -4.922   0.991  -4.219  1.00  0.00     0.146 C 
BRANCH  34  35
ATOM     35  N   UNL     1      -4.998   1.908  -3.090  1.00  0.00    -0.254 NA
ATOM     36  C   UNL     1      -4.019   2.706  -2.878  1.00  0.00     0.185 C 
ATOM     37  N   UNL     1      -4.081   3.558  -1.843  1.00  0.00    -0.370 N 
ATOM     38  N   UNL     1      -2.872   2.835  -3.568  1.00  0.00    -0.370 N 
ATOM     39  H   UNL     1      -4.921   3.528  -1.280  1.00  0.00     0.159 HD
ATOM     40  H   UNL     1      -3.443   4.324  -1.715  1.00  0.00     0.159 HD
ATOM     41  H   UNL     1      -2.116   3.403  -3.220  1.00  0.00     0.159 HD
ATOM     42  H   UNL     1      -2.682   2.246  -4.364  1.00  0.00     0.159 HD
ENDBRANCH  34  35
ENDBRANCH  33  34
ENDBRANCH  32  33
ENDBRANCH   6  32
ENDBRANCH   4   6
ENDBRANCH   1   2
BRANCH   1  43
ATOM     43  C   UNL     1       1.467  -2.058  -2.347  1.00  0.00     0.102 C 
ATOM     44  C   UNL     1       2.937  -1.659  -2.135  1.00  0.00     0.020 C 
BRANCH  43  45
ATOM     45  C   UNL     1       0.987  -1.917  -3.794  1.00  0.00     0.225 C 
ATOM     46  O   UNL     1       0.560  -2.861  -4.454  1.00  0.00    -0.275 OA
ATOM     47  N   UNL     1       1.151  -0.671  -4.354  1.00  0.00    -0.342 N 
ATOM     48  H   UNL     1       1.358   0.120  -3.762  1.00  0.00     0.164 HD
BRANCH  47  49
ATOM     49  C   UNL     1       0.705  -0.380  -5.720  1.00  0.00     0.192 C 
BRANCH  49  50
ATOM     50  C   UNL     1       1.918  -0.287  -6.649  1.00  0.00     0.047 C 
BRANCH  50  51
ATOM     51  C   UNL     1       1.634  -0.876  -8.038  1.00  0.00     0.103 C 
BRANCH  51  52
ATOM     52  C   UNL     1       2.687  -1.903  -8.451  1.00  0.00     0.226 C 
ATOM     53  O   UNL     1       3.799  -1.521  -8.823  1.00  0.00    -0.275 OA
BRANCH  52  54
ATOM     54  N   UNL     1       2.333  -3.257  -8.305  1.00  0.00    -0.311 N 
ATOM     55  C   UNL     1       1.124  -3.795  -8.941  1.00  0.00     0.153 C 
BRANCH  54  56
ATOM     56  C   UNL     1       3.123  -4.143  -7.553  1.00  0.00     0.102 C 
ATOM     57  C   UNL     1       3.044  -4.302  -6.222  1.00  0.00     0.043 C 
BRANCH  56  58
ATOM     58  C   UNL     1       4.127  -5.048  -8.227  1.00  0.00     0.268 C 
ATOM     59  O   UNL     1       4.845  -4.684  -9.148  1.00  0.00    -0.268 OA
ATOM     60  N   UNL     1       4.196  -6.297  -7.657  1.00  0.00    -0.339 N 
ATOM     61  H   UNL     1       3.559  -6.524  -6.903  1.00  0.00     0.164 HD
BRANCH  60  62
ATOM     62  C   UNL     1       5.146  -7.311  -8.114  1.00  0.00     0.168 CG0
ATOM     63  C   UNL     1       4.543  -8.166  -9.221  1.00  0.00     0.041 C 
ATOM     64  G   UNL     1       5.580  -8.188  -6.921  1.00  0.00     0.000 G0
ENDBRANCH  60  62
ENDBRANCH  56  58
ENDBRANCH  54  56
ENDBRANCH  52  54
ENDBRANCH  51  52
ENDBRANCH  50  51
ENDBRANCH  49  50
BRANCH  49  65
ATOM     65  C   UNL     1      -0.091   0.933  -5.789  1.00  0.00     0.326 C 
ATOM     66  O   UNL     1      -0.701   1.344  -6.765  1.00  0.00    -0.250 OA
BRANCH  65  67
ATOM     67  O   UNL     1      -0.034   1.686  -4.668  1.00  0.00    -0.480 OA
ATOM     68  H   UNL     1      -0.698   2.390  -4.828  1.00  0.00     0.296 HD
ENDBRANCH  65  67
ENDBRANCH  49  65
ENDBRANCH  47  49
ENDBRANCH  43  45
ENDBRANCH   1  43
BRANCH   1  69
ATOM     69  C   UNL     1       0.675  -1.560   0.130  1.00  0.00    -0.001 C 
ATOM     70  C   UNL     1      -0.280  -1.603   1.075  1.00  0.00     0.001 C 
BRANCH  70  71
ATOM     71  C   UNL     1      -0.089  -1.822   2.510  1.00  0.00    -0.055 C 
ATOM     72  C   UNL     1      -0.882  -1.137   3.361  1.00  0.00    -0.018 C 
ATOM     73  C   UNL     1       0.974  -2.802   2.935  1.00  0.00     0.044 C 
BRANCH  72  74
ATOM     74  C   UNL     1      -0.912  -1.165   4.882  1.00  0.00     0.038 C 
ATOM     75  C   UNL     1      -2.312  -1.630   5.299  1.00  0.00     0.015 C 
BRANCH  74  76
ATOM     76  C   UNL     1      -0.505   0.240   5.417  1.00  0.00     0.128 C 
BRANCH  76  77
ATOM     77  O   UNL     1       0.672   0.703   4.734  1.00  0.00    -0.381 OA
ATOM     78  C   UNL     1       1.886   0.348   5.383  1.00  0.00     0.195 C 
ENDBRANCH  76  77
BRANCH  76  79
ATOM     79  C   UNL     1      -1.656   1.278   5.398  1.00  0.00     0.068 C 
BRANCH  79  80
ATOM     80  C   UNL     1      -1.577   2.439   6.360  1.00  0.00    -0.045 A 
ATOM     81  C   UNL     1      -0.401   3.190   6.491  1.00  0.00     0.004 A 
ATOM     82  C   UNL     1      -2.678   2.767   7.165  1.00  0.00     0.004 A 
ATOM     83  C   UNL     1      -0.331   4.253   7.393  1.00  0.00     0.000 A 
ATOM     84  C   UNL     1      -2.607   3.830   8.068  1.00  0.00     0.000 A 
ATOM     85  C   UNL     1      -1.435   4.573   8.180  1.00  0.00     0.000 A 
ENDBRANCH  79  80
ENDBRANCH  76  79
ENDBRANCH  74  76
ENDBRANCH  72  74
ENDBRANCH  70  71
ENDBRANCH   1  69
TORSDOF 17
ENDMDL
MODEL 7
REMARK VINA RESULT:    -6.447      4.267     10.252
REMARK INTER + INTRA:         -26.874
REMARK INTER:                 -19.201
REMARK INTRA:                  -7.673
REMARK UNBOUND:                -7.614
REMARK SMILES C=C1C(=O)N[C@H](C)C(=O)N[C@@H](CC(C)C)C(=O)N[C@@H](C(=O)O)[C@H](C)C(=O)N[C@@H](CCCN=C(N)N)C(=O)N[C@@H](/C=C/C(C)=C/[C@H](C)[C@H](Cc2ccccc2)OC)[C@H](C)C(=O)N[C@@H](C(=O)O)CCC(=O)N1C
REMARK SMILES IDX 39 1 38 2 37 3 36 4 28 6 27 7 25 8 26 9 23 11 24 12 19 13
REMARK SMILES IDX 18 14 16 15 17 16 11 18 10 19 8 20 9 21 12 24 13 25 14 26
REMARK SMILES IDX 15 27 20 28 21 29 22 30 29 32 30 33 31 34 32 35 33 36 34 37
REMARK SMILES IDX 35 38 57 43 58 44 59 45 60 46 61 47 62 49 66 50 67 51 68 52
REMARK SMILES IDX 69 53 70 54 71 55 2 56 1 57 3 58 4 59 5 60 6 62 7 63 63 65
REMARK SMILES IDX 64 66 65 67 40 69 41 70 42 71 44 72 43 73 45 74 46 75 47 76
REMARK SMILES IDX 55 77 56 78 48 79 49 80 50 81 54 82 51 83 53 84 52 85
REMARK H PARENT 38 5 27 10 18 17 10 22 22 31 34 39 34 40 35 41 35 42 61 48
REMARK H PARENT 5 61 65 68
REMARK Flexibility Score:  369.900
ROOT
ATOM      1  C   UNL     1      -6.868  -1.304  -4.782  1.00  0.00     0.117 C 
ENDROOT
BRANCH   1   2
ATOM      2  N   UNL     1      -5.545  -0.691  -4.654  1.00  0.00    -0.347 N 
ATOM      3  O   UNL     1      -4.428  -2.049  -6.129  1.00  0.00    -0.273 OA
ATOM      4  C   UNL     1      -4.448  -1.056  -5.409  1.00  0.00     0.243 C 
ATOM      5  H   UNL     1      -5.417   0.079  -4.016  1.00  0.00     0.164 HD
BRANCH   4   6
ATOM      6  C   UNL     1      -3.190  -0.192  -5.138  1.00  0.00     0.171 C 
BRANCH   6   7
ATOM      7  N   UNL     1      -2.068  -1.039  -4.702  1.00  0.00    -0.344 N 
ATOM      8  C   UNL     1      -1.145  -0.569  -3.793  1.00  0.00     0.226 C 
ATOM      9  O   UNL     1      -1.194   0.563  -3.328  1.00  0.00    -0.275 OA
ATOM     10  H   UNL     1      -1.956  -1.957  -5.115  1.00  0.00     0.164 HD
BRANCH   8  11
ATOM     11  C   UNL     1      -0.081  -1.580  -3.403  1.00  0.00     0.109 C 
ATOM     12  C   UNL     1      -0.710  -2.961  -3.220  1.00  0.00     0.021 C 
BRANCH  11  13
ATOM     13  C   UNL     1       1.084  -1.527  -4.411  1.00  0.00     0.204 C 
BRANCH  13  14
ATOM     14  N   UNL     1       1.619  -0.170  -4.565  1.00  0.00    -0.340 N 
ATOM     15  C   UNL     1       2.288   0.247  -5.695  1.00  0.00     0.243 C 
ATOM     16  O   UNL     1       2.432  -0.474  -6.681  1.00  0.00    -0.273 OA
ATOM     17  H   UNL     1       1.667   0.424  -3.733  1.00  0.00     0.164 HD
BRANCH  15  18
ATOM     18  C   UNL     1       2.940   1.644  -5.548  1.00  0.00     0.171 C 
BRANCH  18  19
ATOM     19  N   UNL     1       4.262   1.556  -6.166  1.00  0.00    -0.343 N 
ATOM     20  C   UNL     1       5.328   2.310  -5.715  1.00  0.00     0.242 CG0
ATOM     21  O   UNL     1       5.184   3.184  -4.864  1.00  0.00    -0.273 OA
ATOM     22  H   UNL     1       4.403   0.931  -6.951  1.00  0.00     0.164 HD
ATOM     23  G   UNL     1       6.660   2.025  -6.439  1.00  0.00     0.000 G0
ENDBRANCH  18  19
BRANCH  18  24
ATOM     24  C   UNL     1       2.075   2.718  -6.219  1.00  0.00     0.038 C 
BRANCH  24  25
ATOM     25  C   UNL     1       0.593   2.329  -6.404  1.00  0.00    -0.015 C 
ATOM     26  C   UNL     1       0.120   2.495  -7.849  1.00  0.00     0.007 C 
ATOM     27  C   UNL     1      -0.281   3.176  -5.476  1.00  0.00     0.007 C 
ENDBRANCH  24  25
ENDBRANCH  18  24
ENDBRANCH  15  18
ENDBRANCH  13  14
BRANCH  13  28
ATOM     28  C   UNL     1       2.256  -2.435  -4.027  1.00  0.00     0.327 C 
ATOM     29  O   UNL     1       2.857  -2.429  -2.963  1.00  0.00    -0.250 OA
BRANCH  28  30
ATOM     30  O   UNL     1       2.678  -3.213  -5.045  1.00  0.00    -0.480 OA
ATOM     31  H   UNL     1       3.627  -2.991  -5.141  1.00  0.00     0.296 HD
ENDBRANCH  28  30
ENDBRANCH  13  28
ENDBRANCH  11  13
ENDBRANCH   8  11
ENDBRANCH   6   7
BRANCH   6  32
ATOM     32  C   UNL     1      -2.828   0.582  -6.411  1.00  0.00     0.037 C 
BRANCH  32  33
ATOM     33  C   UNL     1      -3.710   1.823  -6.604  1.00  0.00     0.026 C 
BRANCH  33  34
ATOM     34  C   UNL     1      -3.849   2.648  -5.324  1.00  0.00     0.146 C 
BRANCH  34  35
ATOM     35  N   UNL     1      -5.121   3.357  -5.357  1.00  0.00    -0.254 NA
ATOM     36  C   UNL     1      -5.476   4.029  -4.326  1.00  0.00     0.185 C 
ATOM     37  N   UNL     1      -6.644   4.690  -4.348  1.00  0.00    -0.370 N 
ATOM     38  N   UNL     1      -4.830   4.190  -3.158  1.00  0.00    -0.370 N 
ATOM     39  H   UNL     1      -7.187   4.626  -5.200  1.00  0.00     0.159 HD
ATOM     40  H   UNL     1      -6.910   5.372  -3.658  1.00  0.00     0.159 HD
ATOM     41  H   UNL     1      -5.278   4.630  -2.371  1.00  0.00     0.159 HD
ATOM     42  H   UNL     1      -3.944   3.737  -2.996  1.00  0.00     0.159 HD
ENDBRANCH  34  35
ENDBRANCH  33  34
ENDBRANCH  32  33
ENDBRANCH   6  32
ENDBRANCH   4   6
ENDBRANCH   1   2
BRANCH   1  43
ATOM     43  C   UNL     1      -7.807  -0.305  -5.519  1.00  0.00     0.102 C 
ATOM     44  C   UNL     1      -9.294  -0.497  -5.177  1.00  0.00     0.020 C 
BRANCH  43  45
ATOM     45  C   UNL     1      -7.513  -0.279  -7.022  1.00  0.00     0.225 C 
ATOM     46  O   UNL     1      -7.306   0.756  -7.647  1.00  0.00    -0.275 OA
ATOM     47  N   UNL     1      -7.588  -1.496  -7.660  1.00  0.00    -0.342 N 
ATOM     48  H   UNL     1      -7.608  -2.347  -7.116  1.00  0.00     0.164 HD
BRANCH  47  49
ATOM     49  C   UNL     1      -7.297  -1.630  -9.091  1.00  0.00     0.192 C 
BRANCH  49  50
ATOM     50  C   UNL     1      -8.531  -2.168  -9.819  1.00  0.00     0.047 C 
BRANCH  50  51
ATOM     51  C   UNL     1      -9.636  -2.606  -8.848  1.00  0.00     0.103 C 
BRANCH  51  52
ATOM     52  C   UNL     1     -10.071  -4.050  -9.088  1.00  0.00     0.226 C 
ATOM     53  O   UNL     1     -10.830  -4.311 -10.023  1.00  0.00    -0.275 OA
BRANCH  52  54
ATOM     54  N   UNL     1      -9.501  -5.024  -8.247  1.00  0.00    -0.311 N 
ATOM     55  C   UNL     1      -8.983  -4.668  -6.919  1.00  0.00     0.153 C 
BRANCH  54  56
ATOM     56  C   UNL     1      -9.412  -6.370  -8.641  1.00  0.00     0.102 C 
ATOM     57  C   UNL     1      -8.340  -6.930  -9.223  1.00  0.00     0.043 C 
BRANCH  56  58
ATOM     58  C   UNL     1     -10.550  -7.330  -8.383  1.00  0.00     0.268 C 
ATOM     59  O   UNL     1     -11.425  -7.123  -7.554  1.00  0.00    -0.268 OA
ATOM     60  N   UNL     1     -10.535  -8.421  -9.219  1.00  0.00    -0.339 N 
ATOM     61  H   UNL     1      -9.768  -8.524  -9.873  1.00  0.00     0.164 HD
BRANCH  60  62
ATOM     62  C   UNL     1     -11.580  -9.443  -9.183  1.00  0.00     0.168 CG0
ATOM     63  C   UNL     1     -12.477  -9.352 -10.411  1.00  0.00     0.041 C 
ATOM     64  G   UNL     1     -12.408  -9.291  -7.890  1.00  0.00     0.000 G0
ENDBRANCH  60  62
ENDBRANCH  56  58
ENDBRANCH  54  56
ENDBRANCH  52  54
ENDBRANCH  51  52
ENDBRANCH  50  51
ENDBRANCH  49  50
BRANCH  49  65
ATOM     65  C   UNL     1      -6.108  -2.570  -9.341  1.00  0.00     0.326 C 
ATOM     66  O   UNL     1      -5.396  -2.566 -10.335  1.00  0.00    -0.250 OA
BRANCH  65  67
ATOM     67  O   UNL     1      -5.909  -3.496  -8.378  1.00  0.00    -0.480 OA
ATOM     68  H   UNL     1      -5.349  -3.029  -7.720  1.00  0.00     0.296 HD
ENDBRANCH  65  67
ENDBRANCH  49  65
ENDBRANCH  47  49
ENDBRANCH  43  45
ENDBRANCH   1  43
BRANCH   1  69
ATOM     69  C   UNL     1      -7.251  -1.782  -3.394  1.00  0.00    -0.001 C 
ATOM     70  C   UNL     1      -6.584  -1.572  -2.245  1.00  0.00     0.001 C 
BRANCH  70  71
ATOM     71  C   UNL     1      -6.974  -2.020  -0.907  1.00  0.00    -0.055 C 
ATOM     72  C   UNL     1      -6.686  -3.293  -0.563  1.00  0.00    -0.018 C 
ATOM     73  C   UNL     1      -7.662  -1.028  -0.006  1.00  0.00     0.044 C 
BRANCH  72  74
ATOM     74  C   UNL     1      -6.965  -4.025   0.743  1.00  0.00     0.038 C 
ATOM     75  C   UNL     1      -5.636  -4.625   1.218  1.00  0.00     0.015 C 
BRANCH  74  76
ATOM     76  C   UNL     1      -8.101  -5.062   0.503  1.00  0.00     0.128 C 
BRANCH  76  77
ATOM     77  O   UNL     1      -8.053  -6.085   1.512  1.00  0.00    -0.381 OA
ATOM     78  C   UNL     1      -9.284  -6.267   2.199  1.00  0.00     0.195 C 
ENDBRANCH  76  77
BRANCH  76  79
ATOM     79  C   UNL     1      -9.509  -4.431   0.355  1.00  0.00     0.068 C 
BRANCH  79  80
ATOM     80  C   UNL     1      -9.960  -4.024  -1.027  1.00  0.00    -0.045 A 
ATOM     81  C   UNL     1     -10.731  -2.871  -1.224  1.00  0.00     0.004 A 
ATOM     82  C   UNL     1      -9.634  -4.815  -2.139  1.00  0.00     0.004 A 
ATOM     83  C   UNL     1     -11.156  -2.508  -2.504  1.00  0.00     0.000 A 
ATOM     84  C   UNL     1     -10.060  -4.452  -3.418  1.00  0.00     0.000 A 
ATOM     85  C   UNL     1     -10.820  -3.298  -3.601  1.00  0.00     0.000 A 
ENDBRANCH  79  80
ENDBRANCH  76  79
ENDBRANCH  74  76
ENDBRANCH  72  74
ENDBRANCH  70  71
ENDBRANCH   1  69
TORSDOF 17
ENDMDL
MODEL 8
REMARK VINA RESULT:    -6.443      3.374     12.241
REMARK INTER + INTRA:         -26.864
REMARK INTER:                 -18.646
REMARK INTRA:                  -8.218
REMARK UNBOUND:                -7.614
REMARK SMILES C=C1C(=O)N[C@H](C)C(=O)N[C@@H](CC(C)C)C(=O)N[C@@H](C(=O)O)[C@H](C)C(=O)N[C@@H](CCCN=C(N)N)C(=O)N[C@@H](/C=C/C(C)=C/[C@H](C)[C@H](Cc2ccccc2)OC)[C@H](C)C(=O)N[C@@H](C(=O)O)CCC(=O)N1C
REMARK SMILES IDX 39 1 38 2 37 3 36 4 28 6 27 7 25 8 26 9 23 11 24 12 19 13
REMARK SMILES IDX 18 14 16 15 17 16 11 18 10 19 8 20 9 21 12 24 13 25 14 26
REMARK SMILES IDX 15 27 20 28 21 29 22 30 29 32 30 33 31 34 32 35 33 36 34 37
REMARK SMILES IDX 35 38 57 43 58 44 59 45 60 46 61 47 62 49 66 50 67 51 68 52
REMARK SMILES IDX 69 53 70 54 71 55 2 56 1 57 3 58 4 59 5 60 6 62 7 63 63 65
REMARK SMILES IDX 64 66 65 67 40 69 41 70 42 71 44 72 43 73 45 74 46 75 47 76
REMARK SMILES IDX 55 77 56 78 48 79 49 80 50 81 54 82 51 83 53 84 52 85
REMARK H PARENT 38 5 27 10 18 17 10 22 22 31 34 39 34 40 35 41 35 42 61 48
REMARK H PARENT 5 61 65 68
REMARK Flexibility Score:  369.900
ROOT
ATOM      1  C   UNL     1      -4.919  -0.476  -4.143  1.00  0.00     0.117 C 
ENDROOT
BRANCH   1   2
ATOM      2  N   UNL     1      -3.510  -0.496  -4.537  1.00  0.00    -0.347 N 
ATOM      3  O   UNL     1      -3.698  -1.953  -6.300  1.00  0.00    -0.273 OA
ATOM      4  C   UNL     1      -3.025  -1.164  -5.645  1.00  0.00     0.243 C 
ATOM      5  H   UNL     1      -2.841   0.045  -4.009  1.00  0.00     0.164 HD
BRANCH   4   6
ATOM      6  C   UNL     1      -1.509  -0.953  -5.887  1.00  0.00     0.171 C 
BRANCH   6   7
ATOM      7  N   UNL     1      -1.262   0.374  -6.473  1.00  0.00    -0.344 N 
ATOM      8  C   UNL     1      -0.238   0.564  -7.376  1.00  0.00     0.226 C 
ATOM      9  O   UNL     1       0.520  -0.338  -7.714  1.00  0.00    -0.275 OA
ATOM     10  H   UNL     1      -1.824   1.158  -6.167  1.00  0.00     0.164 HD
BRANCH   8  11
ATOM     11  C   UNL     1      -0.147   1.975  -7.930  1.00  0.00     0.109 C 
ATOM     12  C   UNL     1      -0.760   2.969  -6.944  1.00  0.00     0.021 C 
BRANCH  11  13
ATOM     13  C   UNL     1       1.308   2.281  -8.339  1.00  0.00     0.204 C 
BRANCH  13  14
ATOM     14  N   UNL     1       1.386   2.947  -9.644  1.00  0.00    -0.340 N 
ATOM     15  C   UNL     1       2.467   2.814 -10.488  1.00  0.00     0.243 C 
ATOM     16  O   UNL     1       3.418   2.078 -10.232  1.00  0.00    -0.273 OA
ATOM     17  H   UNL     1       0.706   3.685  -9.848  1.00  0.00     0.164 HD
BRANCH  15  18
ATOM     18  C   UNL     1       2.420   3.768 -11.707  1.00  0.00     0.171 C 
BRANCH  18  19
ATOM     19  N   UNL     1       3.346   4.862 -11.418  1.00  0.00    -0.343 N 
ATOM     20  C   UNL     1       2.952   5.984 -10.715  1.00  0.00     0.242 CG0
ATOM     21  O   UNL     1       1.776   6.175 -10.416  1.00  0.00    -0.273 OA
ATOM     22  H   UNL     1       4.303   4.802 -11.746  1.00  0.00     0.164 HD
ATOM     23  G   UNL     1       4.085   6.993 -10.440  1.00  0.00     0.000 G0
ENDBRANCH  18  19
BRANCH  18  24
ATOM     24  C   UNL     1       2.810   3.025 -12.991  1.00  0.00     0.038 C 
BRANCH  24  25
ATOM     25  C   UNL     1       1.743   3.061 -14.105  1.00  0.00    -0.015 C 
ATOM     26  C   UNL     1       2.161   3.937 -15.287  1.00  0.00     0.007 C 
ATOM     27  C   UNL     1       0.417   3.568 -13.532  1.00  0.00     0.007 C 
ENDBRANCH  24  25
ENDBRANCH  18  24
ENDBRANCH  15  18
ENDBRANCH  13  14
BRANCH  13  28
ATOM     28  C   UNL     1       2.044   3.170  -7.332  1.00  0.00     0.327 C 
ATOM     29  O   UNL     1       2.198   4.379  -7.412  1.00  0.00    -0.250 OA
BRANCH  28  30
ATOM     30  O   UNL     1       2.642   2.469  -6.347  1.00  0.00    -0.480 OA
ATOM     31  H   UNL     1       3.539   2.284  -6.694  1.00  0.00     0.296 HD
ENDBRANCH  28  30
ENDBRANCH  13  28
ENDBRANCH  11  13
ENDBRANCH   8  11
ENDBRANCH   6   7
BRANCH   6  32
ATOM     32  C   UNL     1      -0.761  -1.113  -4.559  1.00  0.00     0.037 C 
BRANCH  32  33
ATOM     33  C   UNL     1      -0.681  -2.579  -4.112  1.00  0.00     0.026 C 
BRANCH  33  34
ATOM     34  C   UNL     1      -1.144  -2.777  -2.668  1.00  0.00     0.146 C 
BRANCH  34  35
ATOM     35  N   UNL     1      -1.380  -1.471  -2.068  1.00  0.00    -0.254 NA
ATOM     36  C   UNL     1      -1.449  -1.385  -0.792  1.00  0.00     0.185 C 
ATOM     37  N   UNL     1      -1.662  -0.186  -0.227  1.00  0.00    -0.370 N 
ATOM     38  N   UNL     1      -1.336  -2.360   0.128  1.00  0.00    -0.370 N 
ATOM     39  H   UNL     1      -1.748   0.603  -0.856  1.00  0.00     0.159 HD
ATOM     40  H   UNL     1      -1.556  -0.008   0.757  1.00  0.00     0.159 HD
ATOM     41  H   UNL     1      -1.548  -2.189   1.097  1.00  0.00     0.159 HD
ATOM     42  H   UNL     1      -1.190  -3.317  -0.154  1.00  0.00     0.159 HD
ENDBRANCH  34  35
ENDBRANCH  33  34
ENDBRANCH  32  33
ENDBRANCH   6  32
ENDBRANCH   4   6
ENDBRANCH   1   2
BRANCH   1  43
ATOM     43  C   UNL     1      -5.489   0.945  -4.415  1.00  0.00     0.102 C 
ATOM     44  C   UNL     1      -5.001   2.003  -3.411  1.00  0.00     0.020 C 
BRANCH  43  45
ATOM     45  C   UNL     1      -7.011   0.904  -4.584  1.00  0.00     0.225 C 
ATOM     46  O   UNL     1      -7.774   1.651  -3.978  1.00  0.00    -0.275 OA
ATOM     47  N   UNL     1      -7.490  -0.097  -5.398  1.00  0.00    -0.342 N 
ATOM     48  H   UNL     1      -6.853  -0.598  -6.002  1.00  0.00     0.164 HD
BRANCH  47  49
ATOM     49  C   UNL     1      -8.922  -0.235  -5.681  1.00  0.00     0.192 C 
BRANCH  49  50
ATOM     50  C   UNL     1      -9.513  -1.345  -4.808  1.00  0.00     0.047 C 
BRANCH  50  51
ATOM     51  C   UNL     1     -10.399  -0.792  -3.683  1.00  0.00     0.103 C 
BRANCH  51  52
ATOM     52  C   UNL     1     -10.485  -1.750  -2.497  1.00  0.00     0.226 C 
ATOM     53  O   UNL     1     -11.511  -2.409  -2.319  1.00  0.00    -0.275 OA
BRANCH  52  54
ATOM     54  N   UNL     1      -9.328  -1.875  -1.707  1.00  0.00    -0.311 N 
ATOM     55  C   UNL     1      -8.421  -3.019  -1.870  1.00  0.00     0.153 C 
BRANCH  54  56
ATOM     56  C   UNL     1      -8.993  -0.912  -0.740  1.00  0.00     0.102 C 
ATOM     57  C   UNL     1      -8.045   0.028  -0.888  1.00  0.00     0.043 C 
BRANCH  56  58
ATOM     58  C   UNL     1      -9.740  -0.836   0.570  1.00  0.00     0.268 C 
ATOM     59  O   UNL     1      -9.758   0.164   1.274  1.00  0.00    -0.268 OA
ATOM     60  N   UNL     1     -10.448  -1.980   0.855  1.00  0.00    -0.339 N 
ATOM     61  H   UNL     1     -10.372  -2.769   0.225  1.00  0.00     0.164 HD
BRANCH  60  62
ATOM     62  C   UNL     1     -11.292  -2.098   2.044  1.00  0.00     0.168 CG0
ATOM     63  C   UNL     1     -10.536  -2.766   3.186  1.00  0.00     0.041 C 
ATOM     64  G   UNL     1     -12.567  -2.892   1.695  1.00  0.00     0.000 G0
ENDBRANCH  60  62
ENDBRANCH  56  58
ENDBRANCH  54  56
ENDBRANCH  52  54
ENDBRANCH  51  52
ENDBRANCH  50  51
ENDBRANCH  49  50
BRANCH  49  65
ATOM     65  C   UNL     1      -9.179  -0.561  -7.160  1.00  0.00     0.326 C 
ATOM     66  O   UNL     1     -10.236  -0.959  -7.627  1.00  0.00    -0.250 OA
BRANCH  65  67
ATOM     67  O   UNL     1      -8.098  -0.432  -7.962  1.00  0.00    -0.480 OA
ATOM     68  H   UNL     1      -8.400  -0.805  -8.818  1.00  0.00     0.296 HD
ENDBRANCH  65  67
ENDBRANCH  49  65
ENDBRANCH  47  49
ENDBRANCH  43  45
ENDBRANCH   1  43
BRANCH   1  69
ATOM     69  C   UNL     1      -4.972  -1.030  -2.731  1.00  0.00    -0.001 C 
ATOM     70  C   UNL     1      -4.790  -2.305  -2.346  1.00  0.00     0.001 C 
BRANCH  70  71
ATOM     71  C   UNL     1      -4.823  -2.824  -0.977  1.00  0.00    -0.055 C 
ATOM     72  C   UNL     1      -5.048  -1.945   0.022  1.00  0.00    -0.018 C 
ATOM     73  C   UNL     1      -4.610  -4.302  -0.781  1.00  0.00     0.044 C 
BRANCH  72  74
ATOM     74  C   UNL     1      -5.139  -2.193   1.521  1.00  0.00     0.038 C 
ATOM     75  C   UNL     1      -6.621  -2.397   1.858  1.00  0.00     0.015 C 
BRANCH  74  76
ATOM     76  C   UNL     1      -4.456  -1.008   2.267  1.00  0.00     0.128 C 
BRANCH  76  77
ATOM     77  O   UNL     1      -3.035  -1.214   2.318  1.00  0.00    -0.381 OA
ATOM     78  C   UNL     1      -2.463  -0.940   3.590  1.00  0.00     0.195 C 
ENDBRANCH  76  77
BRANCH  76  79
ATOM     79  C   UNL     1      -4.841   0.388   1.715  1.00  0.00     0.068 C 
BRANCH  79  80
ATOM     80  C   UNL     1      -6.013   1.100   2.347  1.00  0.00    -0.045 A 
ATOM     81  C   UNL     1      -6.711   2.097   1.653  1.00  0.00     0.004 A 
ATOM     82  C   UNL     1      -6.405   0.790   3.658  1.00  0.00     0.004 A 
ATOM     83  C   UNL     1      -7.785   2.760   2.250  1.00  0.00     0.000 A 
ATOM     84  C   UNL     1      -7.479   1.455   4.254  1.00  0.00     0.000 A 
ATOM     85  C   UNL     1      -8.169   2.438   3.549  1.00  0.00     0.000 A 
ENDBRANCH  79  80
ENDBRANCH  76  79
ENDBRANCH  74  76
ENDBRANCH  72  74
ENDBRANCH  70  71
ENDBRANCH   1  69
TORSDOF 17
ENDMDL
MODEL 9
REMARK VINA RESULT:    -6.436      3.865      6.511
REMARK INTER + INTRA:         -26.843
REMARK INTER:                 -20.154
REMARK INTRA:                  -6.689
REMARK UNBOUND:                -7.614
REMARK SMILES C=C1C(=O)N[C@H](C)C(=O)N[C@@H](CC(C)C)C(=O)N[C@@H](C(=O)O)[C@H](C)C(=O)N[C@@H](CCCN=C(N)N)C(=O)N[C@@H](/C=C/C(C)=C/[C@H](C)[C@H](Cc2ccccc2)OC)[C@H](C)C(=O)N[C@@H](C(=O)O)CCC(=O)N1C
REMARK SMILES IDX 39 1 38 2 37 3 36 4 28 6 27 7 25 8 26 9 23 11 24 12 19 13
REMARK SMILES IDX 18 14 16 15 17 16 11 18 10 19 8 20 9 21 12 24 13 25 14 26
REMARK SMILES IDX 15 27 20 28 21 29 22 30 29 32 30 33 31 34 32 35 33 36 34 37
REMARK SMILES IDX 35 38 57 43 58 44 59 45 60 46 61 47 62 49 66 50 67 51 68 52
REMARK SMILES IDX 69 53 70 54 71 55 2 56 1 57 3 58 4 59 5 60 6 62 7 63 63 65
REMARK SMILES IDX 64 66 65 67 40 69 41 70 42 71 44 72 43 73 45 74 46 75 47 76
REMARK SMILES IDX 55 77 56 78 48 79 49 80 50 81 54 82 51 83 53 84 52 85
REMARK H PARENT 38 5 27 10 18 17 10 22 22 31 34 39 34 40 35 41 35 42 61 48
REMARK H PARENT 5 61 65 68
REMARK Flexibility Score:  369.900
ROOT
ATOM      1  C   UNL     1       1.299  -2.279  -4.207  1.00  0.00     0.117 C 
ENDROOT
BRANCH   1   2
ATOM      2  N   UNL     1      -0.122  -1.938  -4.150  1.00  0.00    -0.347 N 
ATOM      3  O   UNL     1      -0.775  -3.562  -2.665  1.00  0.00    -0.273 OA
ATOM      4  C   UNL     1      -1.032  -2.551  -3.310  1.00  0.00     0.243 C 
ATOM      5  H   UNL     1      -0.472  -1.178  -4.714  1.00  0.00     0.164 HD
BRANCH   4   6
ATOM      6  C   UNL     1      -2.456  -1.944  -3.383  1.00  0.00     0.171 C 
BRANCH   6   7
ATOM      7  N   UNL     1      -2.934  -1.590  -2.037  1.00  0.00    -0.344 N 
ATOM      8  C   UNL     1      -2.230  -0.703  -1.252  1.00  0.00     0.226 C 
ATOM      9  O   UNL     1      -1.179  -0.190  -1.616  1.00  0.00    -0.275 OA
ATOM     10  H   UNL     1      -3.763  -2.045  -1.676  1.00  0.00     0.164 HD
BRANCH   8  11
ATOM     11  C   UNL     1      -2.881  -0.399   0.086  1.00  0.00     0.109 C 
ATOM     12  C   UNL     1      -4.360  -0.068  -0.112  1.00  0.00     0.021 C 
BRANCH  11  13
ATOM     13  C   UNL     1      -2.600  -1.548   1.075  1.00  0.00     0.204 C 
BRANCH  13  14
ATOM     14  N   UNL     1      -2.096  -1.058   2.361  1.00  0.00    -0.340 N 
ATOM     15  C   UNL     1      -0.818  -1.312   2.810  1.00  0.00     0.243 C 
ATOM     16  O   UNL     1       0.011  -1.917   2.134  1.00  0.00    -0.273 OA
ATOM     17  H   UNL     1      -2.773  -0.683   3.032  1.00  0.00     0.164 HD
BRANCH  15  18
ATOM     18  C   UNL     1      -0.579  -0.876   4.277  1.00  0.00     0.171 C 
BRANCH  18  19
ATOM     19  N   UNL     1      -1.082  -1.957   5.122  1.00  0.00    -0.343 N 
ATOM     20  C   UNL     1      -2.385  -1.977   5.582  1.00  0.00     0.242 CG0
ATOM     21  O   UNL     1      -3.141  -1.023   5.413  1.00  0.00    -0.273 OA
ATOM     22  H   UNL     1      -0.460  -2.713   5.386  1.00  0.00     0.164 HD
ATOM     23  G   UNL     1      -2.755  -3.236   6.393  1.00  0.00     0.000 G0
ENDBRANCH  18  19
BRANCH  18  24
ATOM     24  C   UNL     1       0.911  -0.613   4.528  1.00  0.00     0.038 C 
BRANCH  24  25
ATOM     25  C   UNL     1       1.221   0.736   5.210  1.00  0.00    -0.015 C 
ATOM     26  C   UNL     1       1.923   0.563   6.558  1.00  0.00     0.007 C 
ATOM     27  C   UNL     1      -0.076   1.526   5.403  1.00  0.00     0.007 C 
ENDBRANCH  24  25
ENDBRANCH  18  24
ENDBRANCH  15  18
ENDBRANCH  13  14
BRANCH  13  28
ATOM     28  C   UNL     1      -3.834  -2.407   1.369  1.00  0.00     0.327 C 
ATOM     29  O   UNL     1      -4.489  -2.402   2.400  1.00  0.00    -0.250 OA
BRANCH  28  30
ATOM     30  O   UNL     1      -4.098  -3.303   0.396  1.00  0.00    -0.480 OA
ATOM     31  H   UNL     1      -3.216  -3.555   0.054  1.00  0.00     0.296 HD
ENDBRANCH  28  30
ENDBRANCH  13  28
ENDBRANCH  11  13
ENDBRANCH   8  11
ENDBRANCH   6   7
BRANCH   6  32
ATOM     32  C   UNL     1      -2.432  -0.713  -4.297  1.00  0.00     0.037 C 
BRANCH  32  33
ATOM     33  C   UNL     1      -3.721  -0.577  -5.120  1.00  0.00     0.026 C 
BRANCH  33  34
ATOM     34  C   UNL     1      -4.701   0.426  -4.511  1.00  0.00     0.146 C 
BRANCH  34  35
ATOM     35  N   UNL     1      -4.293   1.771  -4.894  1.00  0.00    -0.254 NA
ATOM     36  C   UNL     1      -4.319   2.696  -4.008  1.00  0.00     0.185 C 
ATOM     37  N   UNL     1      -3.941   3.938  -4.348  1.00  0.00    -0.370 N 
ATOM     38  N   UNL     1      -4.683   2.618  -2.715  1.00  0.00    -0.370 N 
ATOM     39  H   UNL     1      -3.641   4.076  -5.305  1.00  0.00     0.159 HD
ATOM     40  H   UNL     1      -3.767   4.669  -3.680  1.00  0.00     0.159 HD
ATOM     41  H   UNL     1      -4.793   3.447  -2.155  1.00  0.00     0.159 HD
ATOM     42  H   UNL     1      -5.006   1.747  -2.325  1.00  0.00     0.159 HD
ENDBRANCH  34  35
ENDBRANCH  33  34
ENDBRANCH  32  33
ENDBRANCH   6  32
ENDBRANCH   4   6
ENDBRANCH   1   2
BRANCH   1  43
ATOM     43  C   UNL     1       2.107  -0.985  -4.515  1.00  0.00     0.102 C 
ATOM     44  C   UNL     1       2.488  -0.187  -3.256  1.00  0.00     0.020 C 
BRANCH  43  45
ATOM     45  C   UNL     1       1.415  -0.149  -5.595  1.00  0.00     0.225 C 
ATOM     46  O   UNL     1       1.088  -0.602  -6.688  1.00  0.00    -0.275 OA
ATOM     47  N   UNL     1       1.261   1.187  -5.302  1.00  0.00    -0.342 N 
ATOM     48  H   UNL     1       1.392   1.510  -4.353  1.00  0.00     0.164 HD
BRANCH  47  49
ATOM     49  C   UNL     1       0.583   2.101  -6.226  1.00  0.00     0.192 C 
BRANCH  49  50
ATOM     50  C   UNL     1       1.511   3.272  -6.564  1.00  0.00     0.047 C 
BRANCH  50  51
ATOM     51  C   UNL     1       0.795   4.369  -7.364  1.00  0.00     0.103 C 
BRANCH  51  52
ATOM     52  C   UNL     1       1.552   4.734  -8.640  1.00  0.00     0.226 C 
ATOM     53  O   UNL     1       2.145   5.812  -8.711  1.00  0.00    -0.275 OA
BRANCH  52  54
ATOM     54  N   UNL     1       1.585   3.755  -9.651  1.00  0.00    -0.311 N 
ATOM     55  C   UNL     1       0.344   3.200 -10.207  1.00  0.00     0.153 C 
BRANCH  54  56
ATOM     56  C   UNL     1       2.800   3.277 -10.168  1.00  0.00     0.102 C 
ATOM     57  C   UNL     1       3.642   2.456  -9.518  1.00  0.00     0.043 C 
BRANCH  56  58
ATOM     58  C   UNL     1       3.241   3.634 -11.568  1.00  0.00     0.268 C 
ATOM     59  O   UNL     1       3.796   4.688 -11.847  1.00  0.00    -0.268 OA
ATOM     60  N   UNL     1       3.014   2.630 -12.478  1.00  0.00    -0.339 N 
ATOM     61  H   UNL     1       2.538   1.790 -12.169  1.00  0.00     0.164 HD
BRANCH  60  62
ATOM     62  C   UNL     1       3.420   2.741 -13.879  1.00  0.00     0.168 CG0
ATOM     63  C   UNL     1       2.221   2.607 -14.809  1.00  0.00     0.041 C 
ATOM     64  G   UNL     1       4.480   1.666 -14.196  1.00  0.00     0.000 G0
ENDBRANCH  60  62
ENDBRANCH  56  58
ENDBRANCH  54  56
ENDBRANCH  52  54
ENDBRANCH  51  52
ENDBRANCH  50  51
ENDBRANCH  49  50
BRANCH  49  65
ATOM     65  C   UNL     1      -0.725   2.644  -5.630  1.00  0.00     0.326 C 
ATOM     66  O   UNL     1      -0.827   3.248  -4.573  1.00  0.00    -0.250 OA
BRANCH  65  67
ATOM     67  O   UNL     1      -1.834   2.355  -6.347  1.00  0.00    -0.480 OA
ATOM     68  H   UNL     1      -1.704   1.417  -6.605  1.00  0.00     0.296 HD
ENDBRANCH  65  67
ENDBRANCH  49  65
ENDBRANCH  47  49
ENDBRANCH  43  45
ENDBRANCH   1  43
BRANCH   1  69
ATOM     69  C   UNL     1       1.415  -3.459  -5.154  1.00  0.00    -0.001 C 
ATOM     70  C   UNL     1       2.500  -3.847  -5.847  1.00  0.00     0.001 C 
BRANCH  70  71
ATOM     71  C   UNL     1       2.605  -5.001  -6.742  1.00  0.00    -0.055 C 
ATOM     72  C   UNL     1       3.792  -5.221  -7.345  1.00  0.00    -0.018 C 
ATOM     73  C   UNL     1       1.384  -5.865  -6.921  1.00  0.00     0.044 C 
BRANCH  72  74
ATOM     74  C   UNL     1       4.192  -6.328  -8.311  1.00  0.00     0.038 C 
ATOM     75  C   UNL     1       5.578  -6.824  -7.882  1.00  0.00     0.015 C 
BRANCH  74  76
ATOM     76  C   UNL     1       4.116  -5.776  -9.765  1.00  0.00     0.128 C 
BRANCH  76  77
ATOM     77  O   UNL     1       2.804  -5.999 -10.307  1.00  0.00    -0.381 OA
ATOM     78  C   UNL     1       2.361  -7.345 -10.195  1.00  0.00     0.195 C 
ENDBRANCH  76  77
BRANCH  76  79
ATOM     79  C   UNL     1       4.580  -4.304  -9.904  1.00  0.00     0.068 C 
BRANCH  79  80
ATOM     80  C   UNL     1       3.586  -3.296 -10.427  1.00  0.00    -0.045 A 
ATOM     81  C   UNL     1       2.792  -2.543  -9.552  1.00  0.00     0.004 A 
ATOM     82  C   UNL     1       3.421  -3.117 -11.809  1.00  0.00     0.004 A 
ATOM     83  C   UNL     1       1.864  -1.623 -10.045  1.00  0.00     0.000 A 
ATOM     84  C   UNL     1       2.493  -2.197 -12.301  1.00  0.00     0.000 A 
ATOM     85  C   UNL     1       1.716  -1.449 -11.419  1.00  0.00     0.000 A 
ENDBRANCH  79  80
ENDBRANCH  76  79
ENDBRANCH  74  76
ENDBRANCH  72  74
ENDBRANCH  70  71
ENDBRANCH   1  69
TORSDOF 17
ENDMDL
MODEL 10
REMARK VINA RESULT:    -6.427      4.147     12.436
REMARK INTER + INTRA:         -26.815
REMARK INTER:                 -19.258
REMARK INTRA:                  -7.557
REMARK UNBOUND:                -7.614
REMARK SMILES C=C1C(=O)N[C@H](C)C(=O)N[C@@H](CC(C)C)C(=O)N[C@@H](C(=O)O)[C@H](C)C(=O)N[C@@H](CCCN=C(N)N)C(=O)N[C@@H](/C=C/C(C)=C/[C@H](C)[C@H](Cc2ccccc2)OC)[C@H](C)C(=O)N[C@@H](C(=O)O)CCC(=O)N1C
REMARK SMILES IDX 39 1 38 2 37 3 36 4 28 6 27 7 25 8 26 9 23 11 24 12 19 13
REMARK SMILES IDX 18 14 16 15 17 16 11 18 10 19 8 20 9 21 12 24 13 25 14 26
REMARK SMILES IDX 15 27 20 28 21 29 22 30 29 32 30 33 31 34 32 35 33 36 34 37
REMARK SMILES IDX 35 38 57 43 58 44 59 45 60 46 61 47 62 49 66 50 67 51 68 52
REMARK SMILES IDX 69 53 70 54 71 55 2 56 1 57 3 58 4 59 5 60 6 62 7 63 63 65
REMARK SMILES IDX 64 66 65 67 40 69 41 70 42 71 44 72 43 73 45 74 46 75 47 76
REMARK SMILES IDX 55 77 56 78 48 79 49 80 50 81 54 82 51 83 53 84 52 85
REMARK H PARENT 38 5 27 10 18 17 10 22 22 31 34 39 34 40 35 41 35 42 61 48
REMARK H PARENT 5 61 65 68
REMARK Flexibility Score:  369.900
ROOT
ATOM      1  C   UNL     1      -3.917  -0.226   0.941  1.00  0.00     0.117 C 
ENDROOT
BRANCH   1   2
ATOM      2  N   UNL     1      -3.991  -0.313  -0.518  1.00  0.00    -0.347 N 
ATOM      3  O   UNL     1      -1.793   0.167  -0.973  1.00  0.00    -0.273 OA
ATOM      4  C   UNL     1      -2.899  -0.199  -1.356  1.00  0.00     0.243 C 
ATOM      5  H   UNL     1      -4.876  -0.518  -0.957  1.00  0.00     0.164 HD
BRANCH   4   6
ATOM      6  C   UNL     1      -3.236  -0.417  -2.853  1.00  0.00     0.171 C 
BRANCH   6   7
ATOM      7  N   UNL     1      -3.235   0.867  -3.573  1.00  0.00    -0.344 N 
ATOM      8  C   UNL     1      -4.249   1.780  -3.383  1.00  0.00     0.226 C 
ATOM      9  O   UNL     1      -5.199   1.567  -2.638  1.00  0.00    -0.275 OA
ATOM     10  H   UNL     1      -2.502   1.050  -4.247  1.00  0.00     0.164 HD
BRANCH   8  11
ATOM     11  C   UNL     1      -4.076   3.077  -4.154  1.00  0.00     0.109 C 
ATOM     12  C   UNL     1      -2.705   3.108  -4.829  1.00  0.00     0.021 C 
BRANCH  11  13
ATOM     13  C   UNL     1      -5.272   3.281  -5.105  1.00  0.00     0.204 C 
BRANCH  13  14
ATOM     14  N   UNL     1      -6.074   2.063  -5.253  1.00  0.00    -0.340 N 
ATOM     15  C   UNL     1      -6.057   1.289  -6.394  1.00  0.00     0.243 C 
ATOM     16  O   UNL     1      -5.319   1.534  -7.346  1.00  0.00    -0.273 OA
ATOM     17  H   UNL     1      -6.814   1.889  -4.568  1.00  0.00     0.164 HD
BRANCH  15  18
ATOM     18  C   UNL     1      -7.134   0.177  -6.403  1.00  0.00     0.171 C 
BRANCH  18  19
ATOM     19  N   UNL     1      -6.428  -1.088  -6.600  1.00  0.00    -0.343 N 
ATOM     20  C   UNL     1      -6.388  -1.716  -7.829  1.00  0.00     0.242 CG0
ATOM     21  O   UNL     1      -7.053  -1.313  -8.780  1.00  0.00    -0.273 OA
ATOM     22  H   UNL     1      -5.957  -1.523  -5.814  1.00  0.00     0.164 HD
ATOM     23  G   UNL     1      -5.530  -2.998  -7.862  1.00  0.00     0.000 G0
ENDBRANCH  18  19
BRANCH  18  24
ATOM     24  C   UNL     1      -7.926   0.179  -5.090  1.00  0.00     0.038 C 
BRANCH  24  25
ATOM     25  C   UNL     1      -9.278  -0.564  -5.151  1.00  0.00    -0.015 C 
ATOM     26  C   UNL     1      -9.179  -2.000  -4.638  1.00  0.00     0.007 C 
ATOM     27  C   UNL     1      -9.799  -0.565  -6.591  1.00  0.00     0.007 C 
ENDBRANCH  24  25
ENDBRANCH  18  24
ENDBRANCH  15  18
ENDBRANCH  13  14
BRANCH  13  28
ATOM     28  C   UNL     1      -6.219   4.396  -4.653  1.00  0.00     0.327 C 
ATOM     29  O   UNL     1      -5.922   5.566  -4.467  1.00  0.00    -0.250 OA
BRANCH  28  30
ATOM     30  O   UNL     1      -7.454   3.949  -4.347  1.00  0.00    -0.480 OA
ATOM     31  H   UNL     1      -7.972   4.091  -5.167  1.00  0.00     0.296 HD
ENDBRANCH  28  30
ENDBRANCH  13  28
ENDBRANCH  11  13
ENDBRANCH   8  11
ENDBRANCH   6   7
BRANCH   6  32
ATOM     32  C   UNL     1      -2.218  -1.387  -3.463  1.00  0.00     0.037 C 
BRANCH  32  33
ATOM     33  C   UNL     1      -0.977  -0.662  -4.001  1.00  0.00     0.026 C 
BRANCH  33  34
ATOM     34  C   UNL     1       0.325  -1.239  -3.445  1.00  0.00     0.146 C 
BRANCH  34  35
ATOM     35  N   UNL     1       1.332  -0.186  -3.417  1.00  0.00    -0.254 NA
ATOM     36  C   UNL     1       2.204  -0.145  -4.354  1.00  0.00     0.185 C 
ATOM     37  N   UNL     1       3.133   0.823  -4.341  1.00  0.00    -0.370 N 
ATOM     38  N   UNL     1       2.347  -0.964  -5.412  1.00  0.00    -0.370 N 
ATOM     39  H   UNL     1       3.085   1.488  -3.579  1.00  0.00     0.159 HD
ATOM     40  H   UNL     1       3.735   1.027  -5.120  1.00  0.00     0.159 HD
ATOM     41  H   UNL     1       3.159  -0.911  -6.005  1.00  0.00     0.159 HD
ATOM     42  H   UNL     1       1.727  -1.748  -5.541  1.00  0.00     0.159 HD
ENDBRANCH  34  35
ENDBRANCH  33  34
ENDBRANCH  32  33
ENDBRANCH   6  32
ENDBRANCH   4   6
ENDBRANCH   1   2
BRANCH   1  43
ATOM     43  C   UNL     1      -3.294  -1.544   1.485  1.00  0.00     0.102 C 
ATOM     44  C   UNL     1      -4.064  -2.806   1.059  1.00  0.00     0.020 C 
BRANCH  43  45
ATOM     45  C   UNL     1      -3.039  -1.450   2.992  1.00  0.00     0.225 C 
ATOM     46  O   UNL     1      -3.811  -1.904   3.832  1.00  0.00    -0.275 OA
ATOM     47  N   UNL     1      -1.923  -0.735   3.361  1.00  0.00    -0.342 N 
ATOM     48  H   UNL     1      -1.226  -0.503   2.667  1.00  0.00     0.164 HD
BRANCH  47  49
ATOM     49  C   UNL     1      -1.534  -0.593   4.767  1.00  0.00     0.192 C 
BRANCH  49  50
ATOM     50  C   UNL     1      -2.075   0.729   5.319  1.00  0.00     0.047 C 
BRANCH  50  51
ATOM     51  C   UNL     1      -3.145   0.514   6.398  1.00  0.00     0.103 C 
BRANCH  51  52
ATOM     52  C   UNL     1      -4.138   1.674   6.459  1.00  0.00     0.226 C 
ATOM     53  O   UNL     1      -4.453   2.262   5.423  1.00  0.00    -0.275 OA
BRANCH  52  54
ATOM     54  N   UNL     1      -4.699   1.952   7.719  1.00  0.00    -0.311 N 
ATOM     55  C   UNL     1      -6.144   2.171   7.872  1.00  0.00     0.153 C 
BRANCH  54  56
ATOM     56  C   UNL     1      -3.904   2.026   8.875  1.00  0.00     0.102 C 
ATOM     57  C   UNL     1      -2.953   2.948   9.096  1.00  0.00     0.043 C 
BRANCH  56  58
ATOM     58  C   UNL     1      -4.105   1.057  10.017  1.00  0.00     0.268 C 
ATOM     59  O   UNL     1      -3.960  -0.153   9.902  1.00  0.00    -0.268 OA
ATOM     60  N   UNL     1      -4.400   1.678  11.207  1.00  0.00    -0.339 N 
ATOM     61  H   UNL     1      -4.513   2.685  11.216  1.00  0.00     0.164 HD
BRANCH  60  62
ATOM     62  C   UNL     1      -4.572   0.933  12.453  1.00  0.00     0.168 CG0
ATOM     63  C   UNL     1      -3.741   1.543  13.575  1.00  0.00     0.041 C 
ATOM     64  G   UNL     1      -4.187  -0.544  12.229  1.00  0.00     0.000 G0
ENDBRANCH  60  62
ENDBRANCH  56  58
ENDBRANCH  54  56
ENDBRANCH  52  54
ENDBRANCH  51  52
ENDBRANCH  50  51
ENDBRANCH  49  50
BRANCH  49  65
ATOM     65  C   UNL     1      -0.007  -0.630   4.940  1.00  0.00     0.326 C 
ATOM     66  O   UNL     1       0.598  -0.363   5.968  1.00  0.00    -0.250 OA
BRANCH  65  67
ATOM     67  O   UNL     1       0.680  -0.934   3.817  1.00  0.00    -0.480 OA
ATOM     68  H   UNL     1       0.187  -0.465   3.109  1.00  0.00     0.296 HD
ENDBRANCH  65  67
ENDBRANCH  49  65
ENDBRANCH  47  49
ENDBRANCH  43  45
ENDBRANCH   1  43
BRANCH   1  69
ATOM     69  C   UNL     1      -5.302   0.180   1.412  1.00  0.00    -0.001 C 
ATOM     70  C   UNL     1      -5.611   1.101   2.342  1.00  0.00     0.001 C 
BRANCH  70  71
ATOM     71  C   UNL     1      -6.952   1.500   2.773  1.00  0.00    -0.055 C 
ATOM     72  C   UNL     1      -7.616   0.671   3.606  1.00  0.00    -0.018 C 
ATOM     73  C   UNL     1      -7.493   2.810   2.264  1.00  0.00     0.044 C 
BRANCH  72  74
ATOM     74  C   UNL     1      -9.003   0.823   4.213  1.00  0.00     0.038 C 
ATOM     75  C   UNL     1      -8.870   0.563   5.718  1.00  0.00     0.015 C 
BRANCH  74  76
ATOM     76  C   UNL     1      -9.983  -0.132   3.470  1.00  0.00     0.128 C 
BRANCH  76  77
ATOM     77  O   UNL     1     -11.175  -0.318   4.252  1.00  0.00    -0.381 OA
ATOM     78  C   UNL     1     -12.344  -0.521   3.471  1.00  0.00     0.195 C 
ENDBRANCH  76  77
BRANCH  76  79
ATOM     79  C   UNL     1     -10.284   0.288   2.009  1.00  0.00     0.068 C 
BRANCH  79  80
ATOM     80  C   UNL     1      -9.370  -0.225   0.923  1.00  0.00    -0.045 A 
ATOM     81  C   UNL     1      -9.061   0.563  -0.194  1.00  0.00     0.004 A 
ATOM     82  C   UNL     1      -8.835  -1.520   1.003  1.00  0.00     0.004 A 
ATOM     83  C   UNL     1      -8.226   0.075  -1.201  1.00  0.00     0.000 A 
ATOM     84  C   UNL     1      -8.000  -2.007  -0.006  1.00  0.00     0.000 A 
ATOM     85  C   UNL     1      -7.695  -1.209  -1.106  1.00  0.00     0.000 A 
ENDBRANCH  79  80
ENDBRANCH  76  79
ENDBRANCH  74  76
ENDBRANCH  72  74
ENDBRANCH  70  71
ENDBRANCH   1  69
TORSDOF 17
ENDMDL
MODEL 11
REMARK VINA RESULT:    -6.377      8.952     14.672
REMARK INTER + INTRA:         -26.666
REMARK INTER:                 -17.666
REMARK INTRA:                  -9.000
REMARK UNBOUND:                -7.614
REMARK SMILES C=C1C(=O)N[C@H](C)C(=O)N[C@@H](CC(C)C)C(=O)N[C@@H](C(=O)O)[C@H](C)C(=O)N[C@@H](CCCN=C(N)N)C(=O)N[C@@H](/C=C/C(C)=C/[C@H](C)[C@H](Cc2ccccc2)OC)[C@H](C)C(=O)N[C@@H](C(=O)O)CCC(=O)N1C
REMARK SMILES IDX 39 1 38 2 37 3 36 4 28 6 27 7 25 8 26 9 23 11 24 12 19 13
REMARK SMILES IDX 18 14 16 15 17 16 11 18 10 19 8 20 9 21 12 24 13 25 14 26
REMARK SMILES IDX 15 27 20 28 21 29 22 30 29 32 30 33 31 34 32 35 33 36 34 37
REMARK SMILES IDX 35 38 57 43 58 44 59 45 60 46 61 47 62 49 66 50 67 51 68 52
REMARK SMILES IDX 69 53 70 54 71 55 2 56 1 57 3 58 4 59 5 60 6 62 7 63 63 65
REMARK SMILES IDX 64 66 65 67 40 69 41 70 42 71 44 72 43 73 45 74 46 75 47 76
REMARK SMILES IDX 55 77 56 78 48 79 49 80 50 81 54 82 51 83 53 84 52 85
REMARK H PARENT 38 5 27 10 18 17 10 22 22 31 34 39 34 40 35 41 35 42 61 48
REMARK H PARENT 5 61 65 68
REMARK Flexibility Score:  369.900
ROOT
ATOM      1  C   UNL     1     -11.794  -4.567   3.378  1.00  0.00     0.117 C 
ENDROOT
BRANCH   1   2
ATOM      2  N   UNL     1     -11.951  -4.325   4.813  1.00  0.00    -0.347 N 
ATOM      3  O   UNL     1     -13.805  -5.636   5.149  1.00  0.00    -0.273 OA
ATOM      4  C   UNL     1     -12.893  -4.953   5.604  1.00  0.00     0.243 C 
ATOM      5  H   UNL     1     -11.312  -3.702   5.282  1.00  0.00     0.164 HD
BRANCH   4   6
ATOM      6  C   UNL     1     -12.792  -4.584   7.106  1.00  0.00     0.171 C 
BRANCH   6   7
ATOM      7  N   UNL     1     -12.147  -3.272   7.270  1.00  0.00    -0.344 N 
ATOM      8  C   UNL     1     -11.352  -3.012   8.366  1.00  0.00     0.226 C 
ATOM      9  O   UNL     1     -11.162  -3.835   9.254  1.00  0.00    -0.275 OA
ATOM     10  H   UNL     1     -12.334  -2.544   6.592  1.00  0.00     0.164 HD
BRANCH   8  11
ATOM     11  C   UNL     1     -10.714  -1.634   8.363  1.00  0.00     0.109 C 
ATOM     12  C   UNL     1     -10.771  -1.030   6.960  1.00  0.00     0.021 C 
BRANCH  11  13
ATOM     13  C   UNL     1     -11.346  -0.765   9.469  1.00  0.00     0.204 C 
BRANCH  13  14
ATOM     14  N   UNL     1     -12.323  -1.512  10.267  1.00  0.00    -0.340 N 
ATOM     15  C   UNL     1     -13.500  -0.958  10.720  1.00  0.00     0.243 C 
ATOM     16  O   UNL     1     -13.844   0.187  10.434  1.00  0.00    -0.273 OA
ATOM     17  H   UNL     1     -12.032  -2.410  10.664  1.00  0.00     0.164 HD
BRANCH  15  18
ATOM     18  C   UNL     1     -14.270  -1.865  11.712  1.00  0.00     0.171 C 
BRANCH  18  19
ATOM     19  N   UNL     1     -15.100  -0.982  12.529  1.00  0.00    -0.343 N 
ATOM     20  C   UNL     1     -15.329  -1.230  13.869  1.00  0.00     0.242 CG0
ATOM     21  O   UNL     1     -14.956  -2.272  14.403  1.00  0.00    -0.273 OA
ATOM     22  H   UNL     1     -15.527  -0.167  12.103  1.00  0.00     0.164 HD
ATOM     23  G   UNL     1     -16.164  -0.147  14.583  1.00  0.00     0.000 G0
ENDBRANCH  18  19
BRANCH  18  24
ATOM     24  C   UNL     1     -15.118  -2.896  10.958  1.00  0.00     0.038 C 
BRANCH  24  25
ATOM     25  C   UNL     1     -16.575  -2.460  10.692  1.00  0.00    -0.015 C 
ATOM     26  C   UNL     1     -17.587  -3.540  11.076  1.00  0.00     0.007 C 
ATOM     27  C   UNL     1     -16.743  -2.099   9.214  1.00  0.00     0.007 C 
ENDBRANCH  24  25
ENDBRANCH  18  24
ENDBRANCH  15  18
ENDBRANCH  13  14
BRANCH  13  28
ATOM     28  C   UNL     1     -10.317  -0.181  10.441  1.00  0.00     0.327 C 
ATOM     29  O   UNL     1     -10.555   0.340  11.520  1.00  0.00    -0.250 OA
BRANCH  28  30
ATOM     30  O   UNL     1      -9.062  -0.182   9.946  1.00  0.00    -0.480 OA
ATOM     31  H   UNL     1      -9.149  -0.612   9.070  1.00  0.00     0.296 HD
ENDBRANCH  28  30
ENDBRANCH  13  28
ENDBRANCH  11  13
ENDBRANCH   8  11
ENDBRANCH   6   7
BRANCH   6  32
ATOM     32  C   UNL     1     -14.196  -4.584   7.720  1.00  0.00     0.037 C 
BRANCH  32  33
ATOM     33  C   UNL     1     -14.344  -5.635   8.829  1.00  0.00     0.026 C 
BRANCH  33  34
ATOM     34  C   UNL     1     -14.266  -7.066   8.293  1.00  0.00     0.146 C 
BRANCH  34  35
ATOM     35  N   UNL     1     -15.578  -7.684   8.413  1.00  0.00    -0.254 NA
ATOM     36  C   UNL     1     -16.323  -7.753   7.373  1.00  0.00     0.185 C 
ATOM     37  N   UNL     1     -17.533  -8.326   7.471  1.00  0.00    -0.370 N 
ATOM     38  N   UNL     1     -16.073  -7.319   6.125  1.00  0.00    -0.370 N 
ATOM     39  H   UNL     1     -17.791  -8.688   8.380  1.00  0.00     0.159 HD
ATOM     40  H   UNL     1     -18.097  -8.572   6.676  1.00  0.00     0.159 HD
ATOM     41  H   UNL     1     -16.795  -7.305   5.424  1.00  0.00     0.159 HD
ATOM     42  H   UNL     1     -15.205  -6.852   5.909  1.00  0.00     0.159 HD
ENDBRANCH  34  35
ENDBRANCH  33  34
ENDBRANCH  32  33
ENDBRANCH   6  32
ENDBRANCH   4   6
ENDBRANCH   1   2
BRANCH   1  43
ATOM     43  C   UNL     1     -10.751  -5.705   3.180  1.00  0.00     0.102 C 
ATOM     44  C   UNL     1      -9.503  -5.261   2.398  1.00  0.00     0.020 C 
BRANCH  43  45
ATOM     45  C   UNL     1     -11.415  -6.969   2.625  1.00  0.00     0.225 C 
ATOM     46  O   UNL     1     -10.798  -8.005   2.397  1.00  0.00    -0.275 OA
ATOM     47  N   UNL     1     -12.747  -6.846   2.304  1.00  0.00    -0.342 N 
ATOM     48  H   UNL     1     -13.270  -6.047   2.636  1.00  0.00     0.164 HD
BRANCH  47  49
ATOM     49  C   UNL     1     -13.521  -7.983   1.798  1.00  0.00     0.192 C 
BRANCH  49  50
ATOM     50  C   UNL     1     -13.621  -7.898   0.272  1.00  0.00     0.047 C 
BRANCH  50  51
ATOM     51  C   UNL     1     -13.282  -6.498  -0.256  1.00  0.00     0.103 C 
BRANCH  51  52
ATOM     52  C   UNL     1     -12.420  -6.554  -1.516  1.00  0.00     0.226 C 
ATOM     53  O   UNL     1     -12.910  -6.958  -2.573  1.00  0.00    -0.275 OA
BRANCH  52  54
ATOM     54  N   UNL     1     -11.109  -6.055  -1.402  1.00  0.00    -0.311 N 
ATOM     55  C   UNL     1     -10.003  -6.927  -0.986  1.00  0.00     0.153 C 
BRANCH  54  56
ATOM     56  C   UNL     1     -10.809  -4.713  -1.685  1.00  0.00     0.102 C 
ATOM     57  C   UNL     1     -10.833  -3.714  -0.787  1.00  0.00     0.043 C 
BRANCH  56  58
ATOM     58  C   UNL     1     -10.376  -4.290  -3.069  1.00  0.00     0.268 C 
ATOM     59  O   UNL     1     -10.672  -4.910  -4.082  1.00  0.00    -0.268 OA
ATOM     60  N   UNL     1      -9.674  -3.109  -3.079  1.00  0.00    -0.339 N 
ATOM     61  H   UNL     1      -9.460  -2.662  -2.195  1.00  0.00     0.164 HD
BRANCH  60  62
ATOM     62  C   UNL     1      -9.213  -2.486  -4.319  1.00  0.00     0.168 CG0
ATOM     63  C   UNL     1     -10.079  -1.287  -4.683  1.00  0.00     0.041 C 
ATOM     64  G   UNL     1      -9.221  -3.530  -5.455  1.00  0.00     0.000 G0
ENDBRANCH  60  62
ENDBRANCH  56  58
ENDBRANCH  54  56
ENDBRANCH  52  54
ENDBRANCH  51  52
ENDBRANCH  50  51
ENDBRANCH  49  50
BRANCH  49  65
ATOM     65  C   UNL     1     -14.935  -8.019   2.399  1.00  0.00     0.326 C 
ATOM     66  O   UNL     1     -15.214  -8.364   3.538  1.00  0.00    -0.250 OA
BRANCH  65  67
ATOM     67  O   UNL     1     -15.922  -7.686   1.539  1.00  0.00    -0.480 OA
ATOM     68  H   UNL     1     -15.537  -7.881   0.657  1.00  0.00     0.296 HD
ENDBRANCH  65  67
ENDBRANCH  49  65
ENDBRANCH  47  49
ENDBRANCH  43  45
ENDBRANCH   1  43
BRANCH   1  69
ATOM     69  C   UNL     1     -11.530  -3.212   2.746  1.00  0.00    -0.001 C 
ATOM     70  C   UNL     1     -11.177  -2.075   3.369  1.00  0.00     0.001 C 
BRANCH  70  71
ATOM     71  C   UNL     1     -10.904  -0.778   2.746  1.00  0.00    -0.055 C 
ATOM     72  C   UNL     1     -10.365  -0.777   1.509  1.00  0.00    -0.018 C 
ATOM     73  C   UNL     1     -11.253   0.463   3.525  1.00  0.00     0.044 C 
BRANCH  72  74
ATOM     74  C   UNL     1      -9.982   0.402   0.626  1.00  0.00     0.038 C 
ATOM     75  C   UNL     1     -10.915   0.377  -0.591  1.00  0.00     0.015 C 
BRANCH  74  76
ATOM     76  C   UNL     1      -8.465   0.303   0.287  1.00  0.00     0.128 C 
BRANCH  76  77
ATOM     77  O   UNL     1      -8.258   0.548  -1.114  1.00  0.00    -0.381 OA
ATOM     78  C   UNL     1      -6.889   0.553  -1.496  1.00  0.00     0.195 C 
ENDBRANCH  76  77
BRANCH  76  79
ATOM     79  C   UNL     1      -7.561   1.180   1.190  1.00  0.00     0.068 C 
BRANCH  79  80
ATOM     80  C   UNL     1      -7.553   0.895   2.672  1.00  0.00    -0.045 A 
ATOM     81  C   UNL     1      -7.298  -0.393   3.159  1.00  0.00     0.004 A 
ATOM     82  C   UNL     1      -7.833   1.920   3.590  1.00  0.00     0.004 A 
ATOM     83  C   UNL     1      -7.307  -0.651   4.532  1.00  0.00     0.000 A 
ATOM     84  C   UNL     1      -7.842   1.661   4.962  1.00  0.00     0.000 A 
ATOM     85  C   UNL     1      -7.577   0.377   5.433  1.00  0.00     0.000 A 
ENDBRANCH  79  80
ENDBRANCH  76  79
ENDBRANCH  74  76
ENDBRANCH  72  74
ENDBRANCH  70  71
ENDBRANCH   1  69
TORSDOF 17
ENDMDL
MODEL 12
REMARK VINA RESULT:    -6.340      4.329      8.185
REMARK INTER + INTRA:         -26.555
REMARK INTER:                 -19.558
REMARK INTRA:                  -6.997
REMARK UNBOUND:                -7.614
REMARK SMILES C=C1C(=O)N[C@H](C)C(=O)N[C@@H](CC(C)C)C(=O)N[C@@H](C(=O)O)[C@H](C)C(=O)N[C@@H](CCCN=C(N)N)C(=O)N[C@@H](/C=C/C(C)=C/[C@H](C)[C@H](Cc2ccccc2)OC)[C@H](C)C(=O)N[C@@H](C(=O)O)CCC(=O)N1C
REMARK SMILES IDX 39 1 38 2 37 3 36 4 28 6 27 7 25 8 26 9 23 11 24 12 19 13
REMARK SMILES IDX 18 14 16 15 17 16 11 18 10 19 8 20 9 21 12 24 13 25 14 26
REMARK SMILES IDX 15 27 20 28 21 29 22 30 29 32 30 33 31 34 32 35 33 36 34 37
REMARK SMILES IDX 35 38 57 43 58 44 59 45 60 46 61 47 62 49 66 50 67 51 68 52
REMARK SMILES IDX 69 53 70 54 71 55 2 56 1 57 3 58 4 59 5 60 6 62 7 63 63 65
REMARK SMILES IDX 64 66 65 67 40 69 41 70 42 71 44 72 43 73 45 74 46 75 47 76
REMARK SMILES IDX 55 77 56 78 48 79 49 80 50 81 54 82 51 83 53 84 52 85
REMARK H PARENT 38 5 27 10 18 17 10 22 22 31 34 39 34 40 35 41 35 42 61 48
REMARK H PARENT 5 61 65 68
REMARK Flexibility Score:  369.900
ROOT
ATOM      1  C   UNL     1      -1.871  -2.125  -0.251  1.00  0.00     0.117 C 
ENDROOT
BRANCH   1   2
ATOM      2  N   UNL     1      -2.212  -1.383   0.963  1.00  0.00    -0.347 N 
ATOM      3  O   UNL     1      -4.149  -2.501   1.479  1.00  0.00    -0.273 OA
ATOM      4  C   UNL     1      -3.279  -1.692   1.784  1.00  0.00     0.243 C 
ATOM      5  H   UNL     1      -1.616  -0.627   1.264  1.00  0.00     0.164 HD
BRANCH   4   6
ATOM      6  C   UNL     1      -3.367  -0.805   3.052  1.00  0.00     0.171 C 
BRANCH   6   7
ATOM      7  N   UNL     1      -4.735  -0.820   3.596  1.00  0.00    -0.344 N 
ATOM      8  C   UNL     1      -5.549   0.286   3.481  1.00  0.00     0.226 C 
ATOM      9  O   UNL     1      -5.177   1.327   2.952  1.00  0.00    -0.275 OA
ATOM     10  H   UNL     1      -5.054  -1.638   4.099  1.00  0.00     0.164 HD
BRANCH   8  11
ATOM     11  C   UNL     1      -6.947   0.095   4.043  1.00  0.00     0.109 C 
ATOM     12  C   UNL     1      -7.616  -1.113   3.388  1.00  0.00     0.021 C 
BRANCH  11  13
ATOM     13  C   UNL     1      -6.888   0.048   5.583  1.00  0.00     0.204 C 
BRANCH  13  14
ATOM     14  N   UNL     1      -5.986   1.065   6.132  1.00  0.00    -0.340 N 
ATOM     15  C   UNL     1      -4.830   0.752   6.813  1.00  0.00     0.243 C 
ATOM     16  O   UNL     1      -4.442  -0.406   6.956  1.00  0.00    -0.273 OA
ATOM     17  H   UNL     1      -6.324   2.030   6.181  1.00  0.00     0.164 HD
BRANCH  15  18
ATOM     18  C   UNL     1      -4.153   1.975   7.478  1.00  0.00     0.171 C 
BRANCH  18  19
ATOM     19  N   UNL     1      -4.394   1.858   8.914  1.00  0.00    -0.343 N 
ATOM     20  C   UNL     1      -5.645   2.067   9.463  1.00  0.00     0.242 CG0
ATOM     21  O   UNL     1      -6.581   2.490   8.788  1.00  0.00    -0.273 OA
ATOM     22  H   UNL     1      -3.624   1.623   9.531  1.00  0.00     0.164 HD
ATOM     23  G   UNL     1      -5.723   1.821  10.984  1.00  0.00     0.000 G0
ENDBRANCH  18  19
BRANCH  18  24
ATOM     24  C   UNL     1      -2.652   2.002   7.160  1.00  0.00     0.038 C 
BRANCH  24  25
ATOM     25  C   UNL     1      -2.135   3.346   6.605  1.00  0.00    -0.015 C 
ATOM     26  C   UNL     1      -0.860   3.185   5.776  1.00  0.00     0.007 C 
ATOM     27  C   UNL     1      -1.879   4.316   7.761  1.00  0.00     0.007 C 
ENDBRANCH  24  25
ENDBRANCH  18  24
ENDBRANCH  15  18
ENDBRANCH  13  14
BRANCH  13  28
ATOM     28  C   UNL     1      -8.255   0.248   6.245  1.00  0.00     0.327 C 
ATOM     29  O   UNL     1      -9.295   0.550   5.680  1.00  0.00    -0.250 OA
BRANCH  28  30
ATOM     30  O   UNL     1      -8.207   0.172   7.590  1.00  0.00    -0.480 OA
ATOM     31  H   UNL     1      -8.794   0.895   7.894  1.00  0.00     0.296 HD
ENDBRANCH  28  30
ENDBRANCH  13  28
ENDBRANCH  11  13
ENDBRANCH   8  11
ENDBRANCH   6   7
BRANCH   6  32
ATOM     32  C   UNL     1      -2.360  -1.310   4.091  1.00  0.00     0.037 C 
BRANCH  32  33
ATOM     33  C   UNL     1      -1.496  -0.176   4.660  1.00  0.00     0.026 C 
BRANCH  33  34
ATOM     34  C   UNL     1      -0.019  -0.558   4.758  1.00  0.00     0.146 C 
BRANCH  34  35
ATOM     35  N   UNL     1       0.518  -0.038   6.008  1.00  0.00    -0.254 NA
ATOM     36  C   UNL     1       1.702   0.451   6.012  1.00  0.00     0.185 C 
ATOM     37  N   UNL     1       2.205   0.937   7.157  1.00  0.00    -0.370 N 
ATOM     38  N   UNL     1       2.573   0.564   4.993  1.00  0.00    -0.370 N 
ATOM     39  H   UNL     1       1.604   0.898   7.970  1.00  0.00     0.159 HD
ATOM     40  H   UNL     1       3.045   1.489   7.206  1.00  0.00     0.159 HD
ATOM     41  H   UNL     1       3.528   0.840   5.152  1.00  0.00     0.159 HD
ATOM     42  H   UNL     1       2.334   0.225   4.074  1.00  0.00     0.159 HD
ENDBRANCH  34  35
ENDBRANCH  33  34
ENDBRANCH  32  33
ENDBRANCH   6  32
ENDBRANCH   4   6
ENDBRANCH   1   2
BRANCH   1  43
ATOM     43  C   UNL     1      -0.337  -2.391  -0.255  1.00  0.00     0.102 C 
ATOM     44  C   UNL     1       0.213  -2.817   1.117  1.00  0.00     0.020 C 
BRANCH  43  45
ATOM     45  C   UNL     1       0.422  -1.224  -0.894  1.00  0.00     0.225 C 
ATOM     46  O   UNL     1       0.364  -0.073  -0.470  1.00  0.00    -0.275 OA
ATOM     47  N   UNL     1       1.111  -1.526  -2.046  1.00  0.00    -0.342 N 
ATOM     48  H   UNL     1       1.273  -2.492  -2.294  1.00  0.00     0.164 HD
BRANCH  47  49
ATOM     49  C   UNL     1       1.912  -0.517  -2.747  1.00  0.00     0.192 C 
BRANCH  49  50
ATOM     50  C   UNL     1       1.912  -0.812  -4.249  1.00  0.00     0.047 C 
BRANCH  50  51
ATOM     51  C   UNL     1       1.933  -2.318  -4.546  1.00  0.00     0.103 C 
BRANCH  51  52
ATOM     52  C   UNL     1       1.890  -2.607  -6.045  1.00  0.00     0.226 C 
ATOM     53  O   UNL     1       2.425  -1.824  -6.833  1.00  0.00    -0.275 OA
BRANCH  52  54
ATOM     54  N   UNL     1       1.292  -3.820  -6.433  1.00  0.00    -0.311 N 
ATOM     55  C   UNL     1      -0.122  -3.874  -6.826  1.00  0.00     0.153 C 
BRANCH  54  56
ATOM     56  C   UNL     1       2.022  -5.020  -6.463  1.00  0.00     0.102 C 
ATOM     57  C   UNL     1       1.546  -6.219  -6.088  1.00  0.00     0.043 C 
BRANCH  56  58
ATOM     58  C   UNL     1       3.439  -5.052  -6.985  1.00  0.00     0.268 C 
ATOM     59  O   UNL     1       4.390  -5.436  -6.318  1.00  0.00    -0.268 OA
ATOM     60  N   UNL     1       3.539  -4.669  -8.301  1.00  0.00    -0.339 N 
ATOM     61  H   UNL     1       2.705  -4.353  -8.781  1.00  0.00     0.164 HD
BRANCH  60  62
ATOM     62  C   UNL     1       4.811  -4.686  -9.023  1.00  0.00     0.168 CG0
ATOM     63  C   UNL     1       4.918  -5.918  -9.913  1.00  0.00     0.041 C 
ATOM     64  G   UNL     1       5.978  -4.637  -8.016  1.00  0.00     0.000 G0
ENDBRANCH  60  62
ENDBRANCH  56  58
ENDBRANCH  54  56
ENDBRANCH  52  54
ENDBRANCH  51  52
ENDBRANCH  50  51
ENDBRANCH  49  50
BRANCH  49  65
ATOM     65  C   UNL     1       3.360  -0.488  -2.234  1.00  0.00     0.326 C 
ATOM     66  O   UNL     1       4.125   0.462  -2.319  1.00  0.00    -0.250 OA
BRANCH  65  67
ATOM     67  O   UNL     1       3.794  -1.652  -1.702  1.00  0.00    -0.480 OA
ATOM     68  H   UNL     1       4.365  -1.367  -0.956  1.00  0.00     0.296 HD
ENDBRANCH  65  67
ENDBRANCH  49  65
ENDBRANCH  47  49
ENDBRANCH  43  45
ENDBRANCH   1  43
BRANCH   1  69
ATOM     69  C   UNL     1      -2.484  -1.353  -1.406  1.00  0.00    -0.001 C 
ATOM     70  C   UNL     1      -3.133  -0.177  -1.349  1.00  0.00     0.001 C 
BRANCH  70  71
ATOM     71  C   UNL     1      -3.702   0.569  -2.473  1.00  0.00    -0.055 C 
ATOM     72  C   UNL     1      -4.865   0.126  -2.995  1.00  0.00    -0.018 C 
ATOM     73  C   UNL     1      -2.954   1.782  -2.962  1.00  0.00     0.044 C 
BRANCH  72  74
ATOM     74  C   UNL     1      -5.681   0.693  -4.149  1.00  0.00     0.038 C 
ATOM     75  C   UNL     1      -7.098   0.945  -3.620  1.00  0.00     0.015 C 
BRANCH  74  76
ATOM     76  C   UNL     1      -5.598  -0.292  -5.352  1.00  0.00     0.128 C 
BRANCH  76  77
ATOM     77  O   UNL     1      -6.907  -0.801  -5.661  1.00  0.00    -0.381 OA
ATOM     78  C   UNL     1      -7.212  -0.787  -7.049  1.00  0.00     0.195 C 
ENDBRANCH  76  77
BRANCH  76  79
ATOM     79  C   UNL     1      -4.873   0.289  -6.592  1.00  0.00     0.068 C 
BRANCH  79  80
ATOM     80  C   UNL     1      -3.433   0.716  -6.434  1.00  0.00    -0.045 A 
ATOM     81  C   UNL     1      -3.055   2.055  -6.596  1.00  0.00     0.004 A 
ATOM     82  C   UNL     1      -2.441  -0.235  -6.148  1.00  0.00     0.004 A 
ATOM     83  C   UNL     1      -1.720   2.439  -6.462  1.00  0.00     0.000 A 
ATOM     84  C   UNL     1      -1.106   0.150  -6.015  1.00  0.00     0.000 A 
ATOM     85  C   UNL     1      -0.745   1.487  -6.170  1.00  0.00     0.000 A 
ENDBRANCH  79  80
ENDBRANCH  76  79
ENDBRANCH  74  76
ENDBRANCH  72  74
ENDBRANCH  70  71
ENDBRANCH   1  69
TORSDOF 17
ENDMDL
MODEL 13
REMARK VINA RESULT:    -6.328      2.787      5.462
REMARK INTER + INTRA:         -26.521
REMARK INTER:                 -18.953
REMARK INTRA:                  -7.568
REMARK UNBOUND:                -7.614
REMARK SMILES C=C1C(=O)N[C@H](C)C(=O)N[C@@H](CC(C)C)C(=O)N[C@@H](C(=O)O)[C@H](C)C(=O)N[C@@H](CCCN=C(N)N)C(=O)N[C@@H](/C=C/C(C)=C/[C@H](C)[C@H](Cc2ccccc2)OC)[C@H](C)C(=O)N[C@@H](C(=O)O)CCC(=O)N1C
REMARK SMILES IDX 39 1 38 2 37 3 36 4 28 6 27 7 25 8 26 9 23 11 24 12 19 13
REMARK SMILES IDX 18 14 16 15 17 16 11 18 10 19 8 20 9 21 12 24 13 25 14 26
REMARK SMILES IDX 15 27 20 28 21 29 22 30 29 32 30 33 31 34 32 35 33 36 34 37
REMARK SMILES IDX 35 38 57 43 58 44 59 45 60 46 61 47 62 49 66 50 67 51 68 52
REMARK SMILES IDX 69 53 70 54 71 55 2 56 1 57 3 58 4 59 5 60 6 62 7 63 63 65
REMARK SMILES IDX 64 66 65 67 40 69 41 70 42 71 44 72 43 73 45 74 46 75 47 76
REMARK SMILES IDX 55 77 56 78 48 79 49 80 50 81 54 82 51 83 53 84 52 85
REMARK H PARENT 38 5 27 10 18 17 10 22 22 31 34 39 34 40 35 41 35 42 61 48
REMARK H PARENT 5 61 65 68
REMARK Flexibility Score:  369.900
ROOT
ATOM      1  C   UNL     1      -2.614   0.655  -4.756  1.00  0.00     0.117 C 
ENDROOT
BRANCH   1   2
ATOM      2  N   UNL     1      -2.504   0.108  -3.403  1.00  0.00    -0.347 N 
ATOM      3  O   UNL     1      -0.226  -0.169  -3.360  1.00  0.00    -0.273 OA
ATOM      4  C   UNL     1      -1.305  -0.175  -2.778  1.00  0.00     0.243 C 
ATOM      5  H   UNL     1      -3.341  -0.031  -2.857  1.00  0.00     0.164 HD
BRANCH   4   6
ATOM      6  C   UNL     1      -1.465  -0.662  -1.315  1.00  0.00     0.171 C 
BRANCH   6   7
ATOM      7  N   UNL     1      -2.544  -1.659  -1.220  1.00  0.00    -0.344 N 
ATOM      8  C   UNL     1      -3.669  -1.406  -0.466  1.00  0.00     0.226 C 
ATOM      9  O   UNL     1      -3.819  -0.369   0.170  1.00  0.00    -0.275 OA
ATOM     10  H   UNL     1      -2.426  -2.554  -1.676  1.00  0.00     0.164 HD
BRANCH   8  11
ATOM     11  C   UNL     1      -4.714  -2.507  -0.512  1.00  0.00     0.109 C 
ATOM     12  C   UNL     1      -4.302  -3.580  -1.520  1.00  0.00     0.021 C 
BRANCH  11  13
ATOM     13  C   UNL     1      -4.987  -3.027   0.913  1.00  0.00     0.204 C 
BRANCH  13  14
ATOM     14  N   UNL     1      -5.631  -2.015   1.756  1.00  0.00    -0.340 N 
ATOM     15  C   UNL     1      -5.129  -1.631   2.981  1.00  0.00     0.243 C 
ATOM     16  O   UNL     1      -4.070  -2.068   3.427  1.00  0.00    -0.273 OA
ATOM     17  H   UNL     1      -6.584  -1.727   1.517  1.00  0.00     0.164 HD
BRANCH  15  18
ATOM     18  C   UNL     1      -6.083  -0.708   3.778  1.00  0.00     0.171 C 
BRANCH  18  19
ATOM     19  N   UNL     1      -5.239   0.171   4.584  1.00  0.00    -0.343 N 
ATOM     20  C   UNL     1      -5.425   0.313   5.946  1.00  0.00     0.242 CG0
ATOM     21  O   UNL     1      -6.389  -0.187   6.519  1.00  0.00    -0.273 OA
ATOM     22  H   UNL     1      -4.498   0.698   4.135  1.00  0.00     0.164 HD
ATOM     23  G   UNL     1      -4.388   1.222   6.638  1.00  0.00     0.000 G0
ENDBRANCH  18  19
BRANCH  18  24
ATOM     24  C   UNL     1      -6.982   0.092   2.828  1.00  0.00     0.038 C 
BRANCH  24  25
ATOM     25  C   UNL     1      -6.718   1.613   2.818  1.00  0.00    -0.015 C 
ATOM     26  C   UNL     1      -8.005   2.431   2.913  1.00  0.00     0.007 C 
ATOM     27  C   UNL     1      -5.957   1.994   1.546  1.00  0.00     0.007 C 
ENDBRANCH  24  25
ENDBRANCH  18  24
ENDBRANCH  15  18
ENDBRANCH  13  14
BRANCH  13  28
ATOM     28  C   UNL     1      -5.876  -4.274   0.941  1.00  0.00     0.327 C 
ATOM     29  O   UNL     1      -7.088  -4.301   0.788  1.00  0.00    -0.250 OA
BRANCH  28  30
ATOM     30  O   UNL     1      -5.205  -5.395   1.277  1.00  0.00    -0.480 OA
ATOM     31  H   UNL     1      -4.800  -5.183   2.143  1.00  0.00     0.296 HD
ENDBRANCH  28  30
ENDBRANCH  13  28
ENDBRANCH  11  13
ENDBRANCH   8  11
ENDBRANCH   6   7
BRANCH   6  32
ATOM     32  C   UNL     1      -0.134  -1.248  -0.832  1.00  0.00     0.037 C 
BRANCH  32  33
ATOM     33  C   UNL     1      -0.335  -2.403   0.160  1.00  0.00     0.026 C 
BRANCH  33  34
ATOM     34  C   UNL     1       0.237  -2.093   1.543  1.00  0.00     0.146 C 
BRANCH  34  35
ATOM     35  N   UNL     1      -0.738  -1.312   2.291  1.00  0.00    -0.254 NA
ATOM     36  C   UNL     1      -0.622  -1.242   3.565  1.00  0.00     0.185 C 
ATOM     37  N   UNL     1      -1.512  -0.520   4.264  1.00  0.00    -0.370 N 
ATOM     38  N   UNL     1       0.302  -1.807   4.362  1.00  0.00    -0.370 N 
ATOM     39  H   UNL     1      -2.236  -0.053   3.732  1.00  0.00     0.159 HD
ATOM     40  H   UNL     1      -1.392  -0.275   5.231  1.00  0.00     0.159 HD
ATOM     41  H   UNL     1       0.205  -1.793   5.364  1.00  0.00     0.159 HD
ATOM     42  H   UNL     1       1.025  -2.392   3.973  1.00  0.00     0.159 HD
ENDBRANCH  34  35
ENDBRANCH  33  34
ENDBRANCH  32  33
ENDBRANCH   6  32
ENDBRANCH   4   6
ENDBRANCH   1   2
BRANCH   1  43
ATOM     43  C   UNL     1      -2.546   2.207  -4.670  1.00  0.00     0.102 C 
ATOM     44  C   UNL     1      -3.715   2.911  -5.380  1.00  0.00     0.020 C 
BRANCH  43  45
ATOM     45  C   UNL     1      -1.165   2.721  -5.088  1.00  0.00     0.225 C 
ATOM     46  O   UNL     1      -0.751   3.841  -4.802  1.00  0.00    -0.275 OA
ATOM     47  N   UNL     1      -0.438   1.877  -5.896  1.00  0.00    -0.342 N 
ATOM     48  H   UNL     1      -0.722   0.912  -5.995  1.00  0.00     0.164 HD
BRANCH  47  49
ATOM     49  C   UNL     1       0.915   2.221  -6.344  1.00  0.00     0.192 C 
BRANCH  49  50
ATOM     50  C   UNL     1       0.941   2.322  -7.872  1.00  0.00     0.047 C 
BRANCH  50  51
ATOM     51  C   UNL     1       1.983   3.332  -8.371  1.00  0.00     0.103 C 
BRANCH  51  52
ATOM     52  C   UNL     1       2.912   2.725  -9.421  1.00  0.00     0.226 C 
ATOM     53  O   UNL     1       4.034   2.336  -9.091  1.00  0.00    -0.275 OA
BRANCH  52  54
ATOM     54  N   UNL     1       2.383   2.579 -10.717  1.00  0.00    -0.311 N 
ATOM     55  C   UNL     1       1.919   1.272 -11.201  1.00  0.00     0.153 C 
BRANCH  54  56
ATOM     56  C   UNL     1       2.272   3.674 -11.591  1.00  0.00     0.102 C 
ATOM     57  C   UNL     1       3.184   4.652 -11.715  1.00  0.00     0.043 C 
BRANCH  56  58
ATOM     58  C   UNL     1       1.090   3.806 -12.522  1.00  0.00     0.268 C 
ATOM     59  O   UNL     1      -0.025   4.140 -12.145  1.00  0.00    -0.268 OA
ATOM     60  N   UNL     1       1.412   3.578 -13.839  1.00  0.00    -0.339 N 
ATOM     61  H   UNL     1       2.357   3.295 -14.067  1.00  0.00     0.164 HD
BRANCH  60  62
ATOM     62  C   UNL     1       0.431   3.714 -14.915  1.00  0.00     0.168 CG0
ATOM     63  C   UNL     1      -0.047   2.349 -15.395  1.00  0.00     0.041 C 
ATOM     64  G   UNL     1       1.049   4.516 -16.078  1.00  0.00     0.000 G0
ENDBRANCH  60  62
ENDBRANCH  56  58
ENDBRANCH  54  56
ENDBRANCH  52  54
ENDBRANCH  51  52
ENDBRANCH  50  51
ENDBRANCH  49  50
BRANCH  49  65
ATOM     65  C   UNL     1       1.946   1.179  -5.885  1.00  0.00     0.326 C 
ATOM     66  O   UNL     1       3.150   1.367  -5.786  1.00  0.00    -0.250 OA
BRANCH  65  67
ATOM     67  O   UNL     1       1.436  -0.047  -5.635  1.00  0.00    -0.480 OA
ATOM     68  H   UNL     1       2.031  -0.651  -6.131  1.00  0.00     0.296 HD
ENDBRANCH  65  67
ENDBRANCH  49  65
ENDBRANCH  47  49
ENDBRANCH  43  45
ENDBRANCH   1  43
BRANCH   1  69
ATOM     69  C   UNL     1      -3.838   0.007  -5.377  1.00  0.00    -0.001 C 
ATOM     70  C   UNL     1      -3.947  -0.519  -6.610  1.00  0.00     0.001 C 
BRANCH  70  71
ATOM     71  C   UNL     1      -5.128  -1.160  -7.191  1.00  0.00    -0.055 C 
ATOM     72  C   UNL     1      -6.327  -0.894  -6.630  1.00  0.00    -0.018 C 
ATOM     73  C   UNL     1      -4.924  -2.066  -8.377  1.00  0.00     0.044 C 
BRANCH  72  74
ATOM     74  C   UNL     1      -7.706  -1.407  -7.017  1.00  0.00     0.038 C 
ATOM     75  C   UNL     1      -8.188  -0.561  -8.203  1.00  0.00     0.015 C 
BRANCH  74  76
ATOM     76  C   UNL     1      -8.629  -1.358  -5.764  1.00  0.00     0.128 C 
BRANCH  76  77
ATOM     77  O   UNL     1      -8.336  -2.466  -4.895  1.00  0.00    -0.381 OA
ATOM     78  C   UNL     1      -9.301  -3.508  -4.953  1.00  0.00     0.195 C 
ENDBRANCH  76  77
BRANCH  76  79
ATOM     79  C   UNL     1      -8.615   0.003  -5.024  1.00  0.00     0.068 C 
BRANCH  79  80
ATOM     80  C   UNL     1      -8.341  -0.001  -3.540  1.00  0.00    -0.045 A 
ATOM     81  C   UNL     1      -9.375  -0.198  -2.615  1.00  0.00     0.004 A 
ATOM     82  C   UNL     1      -7.041   0.221  -3.060  1.00  0.00     0.004 A 
ATOM     83  C   UNL     1      -9.115  -0.187  -1.243  1.00  0.00     0.000 A 
ATOM     84  C   UNL     1      -6.783   0.233  -1.687  1.00  0.00     0.000 A 
ATOM     85  C   UNL     1      -7.819   0.028  -0.780  1.00  0.00     0.000 A 
ENDBRANCH  79  80
ENDBRANCH  76  79
ENDBRANCH  74  76
ENDBRANCH  72  74
ENDBRANCH  70  71
ENDBRANCH   1  69
TORSDOF 17
ENDMDL
MODEL 14
REMARK VINA RESULT:    -6.304      3.530     12.290
REMARK INTER + INTRA:         -26.447
REMARK INTER:                 -18.973
REMARK INTRA:                  -7.474
REMARK UNBOUND:                -7.614
REMARK SMILES C=C1C(=O)N[C@H](C)C(=O)N[C@@H](CC(C)C)C(=O)N[C@@H](C(=O)O)[C@H](C)C(=O)N[C@@H](CCCN=C(N)N)C(=O)N[C@@H](/C=C/C(C)=C/[C@H](C)[C@H](Cc2ccccc2)OC)[C@H](C)C(=O)N[C@@H](C(=O)O)CCC(=O)N1C
REMARK SMILES IDX 39 1 38 2 37 3 36 4 28 6 27 7 25 8 26 9 23 11 24 12 19 13
REMARK SMILES IDX 18 14 16 15 17 16 11 18 10 19 8 20 9 21 12 24 13 25 14 26
REMARK SMILES IDX 15 27 20 28 21 29 22 30 29 32 30 33 31 34 32 35 33 36 34 37
REMARK SMILES IDX 35 38 57 43 58 44 59 45 60 46 61 47 62 49 66 50 67 51 68 52
REMARK SMILES IDX 69 53 70 54 71 55 2 56 1 57 3 58 4 59 5 60 6 62 7 63 63 65
REMARK SMILES IDX 64 66 65 67 40 69 41 70 42 71 44 72 43 73 45 74 46 75 47 76
REMARK SMILES IDX 55 77 56 78 48 79 49 80 50 81 54 82 51 83 53 84 52 85
REMARK H PARENT 38 5 27 10 18 17 10 22 22 31 34 39 34 40 35 41 35 42 61 48
REMARK H PARENT 5 61 65 68
REMARK Flexibility Score:  369.900
ROOT
ATOM      1  C   UNL     1      -4.143  -0.306  -4.515  1.00  0.00     0.117 C 
ENDROOT
BRANCH   1   2
ATOM      2  N   UNL     1      -3.051  -0.440  -5.480  1.00  0.00    -0.347 N 
ATOM      3  O   UNL     1      -4.125  -1.808  -6.979  1.00  0.00    -0.273 OA
ATOM      4  C   UNL     1      -3.161  -1.108  -6.684  1.00  0.00     0.243 C 
ATOM      5  H   UNL     1      -2.171   0.017  -5.297  1.00  0.00     0.164 HD
BRANCH   4   6
ATOM      6  C   UNL     1      -1.886  -1.028  -7.560  1.00  0.00     0.171 C 
BRANCH   6   7
ATOM      7  N   UNL     1      -0.864  -0.196  -6.906  1.00  0.00    -0.344 N 
ATOM      8  C   UNL     1       0.173   0.346  -7.634  1.00  0.00     0.226 C 
ATOM      9  O   UNL     1       0.310   0.150  -8.835  1.00  0.00    -0.275 OA
ATOM     10  H   UNL     1      -0.905  -0.067  -5.902  1.00  0.00     0.164 HD
BRANCH   8  11
ATOM     11  C   UNL     1       1.113   1.224  -6.826  1.00  0.00     0.109 C 
ATOM     12  C   UNL     1       1.597   0.474  -5.585  1.00  0.00     0.021 C 
BRANCH  11  13
ATOM     13  C   UNL     1       2.235   1.763  -7.736  1.00  0.00     0.204 C 
BRANCH  13  14
ATOM     14  N   UNL     1       1.712   2.610  -8.813  1.00  0.00    -0.340 N 
ATOM     15  C   UNL     1       2.290   2.672 -10.062  1.00  0.00     0.243 C 
ATOM     16  O   UNL     1       3.251   1.975 -10.382  1.00  0.00    -0.273 OA
ATOM     17  H   UNL     1       1.017   3.321  -8.570  1.00  0.00     0.164 HD
BRANCH  15  18
ATOM     18  C   UNL     1       1.696   3.783 -10.963  1.00  0.00     0.171 C 
BRANCH  18  19
ATOM     19  N   UNL     1       2.829   4.498 -11.548  1.00  0.00    -0.343 N 
ATOM     20  C   UNL     1       3.283   5.695 -11.027  1.00  0.00     0.242 CG0
ATOM     21  O   UNL     1       2.675   6.280 -10.134  1.00  0.00    -0.273 OA
ATOM     22  H   UNL     1       3.295   4.112 -12.362  1.00  0.00     0.164 HD
ATOM     23  G   UNL     1       4.536   6.259 -11.728  1.00  0.00     0.000 G0
ENDBRANCH  18  19
BRANCH  18  24
ATOM     24  C   UNL     1       0.794   3.178 -12.046  1.00  0.00     0.038 C 
BRANCH  24  25
ATOM     25  C   UNL     1       1.302   3.374 -13.490  1.00  0.00    -0.015 C 
ATOM     26  C   UNL     1       0.209   3.884 -14.430  1.00  0.00     0.007 C 
ATOM     27  C   UNL     1       1.863   2.052 -14.022  1.00  0.00     0.007 C 
ENDBRANCH  24  25
ENDBRANCH  18  24
ENDBRANCH  15  18
ENDBRANCH  13  14
BRANCH  13  28
ATOM     28  C   UNL     1       3.283   2.585  -6.980  1.00  0.00     0.327 C 
ATOM     29  O   UNL     1       3.064   3.546  -6.258  1.00  0.00    -0.250 OA
BRANCH  28  30
ATOM     30  O   UNL     1       4.549   2.224  -7.271  1.00  0.00    -0.480 OA
ATOM     31  H   UNL     1       4.449   1.442  -7.853  1.00  0.00     0.296 HD
ENDBRANCH  28  30
ENDBRANCH  13  28
ENDBRANCH  11  13
ENDBRANCH   8  11
ENDBRANCH   6   7
BRANCH   6  32
ATOM     32  C   UNL     1      -1.358  -2.445  -7.813  1.00  0.00     0.037 C 
BRANCH  32  33
ATOM     33  C   UNL     1      -0.866  -3.118  -6.524  1.00  0.00     0.026 C 
BRANCH  33  34
ATOM     34  C   UNL     1       0.553  -3.672  -6.659  1.00  0.00     0.146 C 
BRANCH  34  35
ATOM     35  N   UNL     1       1.385  -2.678  -7.323  1.00  0.00    -0.254 NA
ATOM     36  C   UNL     1       2.646  -2.887  -7.404  1.00  0.00     0.185 C 
ATOM     37  N   UNL     1       3.421  -1.980  -8.018  1.00  0.00    -0.370 N 
ATOM     38  N   UNL     1       3.360  -3.931  -6.947  1.00  0.00    -0.370 N 
ATOM     39  H   UNL     1       2.954  -1.167  -8.399  1.00  0.00     0.159 HD
ATOM     40  H   UNL     1       4.379  -2.149  -8.274  1.00  0.00     0.159 HD
ATOM     41  H   UNL     1       4.367  -3.915  -6.950  1.00  0.00     0.159 HD
ATOM     42  H   UNL     1       2.909  -4.683  -6.450  1.00  0.00     0.159 HD
ENDBRANCH  34  35
ENDBRANCH  33  34
ENDBRANCH  32  33
ENDBRANCH   6  32
ENDBRANCH   4   6
ENDBRANCH   1   2
BRANCH   1  43
ATOM     43  C   UNL     1      -4.701   1.144  -4.596  1.00  0.00     0.102 C 
ATOM     44  C   UNL     1      -4.418   1.980  -3.337  1.00  0.00     0.020 C 
BRANCH  43  45
ATOM     45  C   UNL     1      -6.171   1.144  -5.024  1.00  0.00     0.225 C 
ATOM     46  O   UNL     1      -6.737   2.134  -5.480  1.00  0.00    -0.275 OA
ATOM     47  N   UNL     1      -6.860  -0.022  -4.779  1.00  0.00    -0.342 N 
ATOM     48  H   UNL     1      -6.352  -0.864  -4.550  1.00  0.00     0.164 HD
BRANCH  47  49
ATOM     49  C   UNL     1      -8.265  -0.178  -5.169  1.00  0.00     0.192 C 
BRANCH  49  50
ATOM     50  C   UNL     1      -9.049  -0.816  -4.019  1.00  0.00     0.047 C 
BRANCH  50  51
ATOM     51  C   UNL     1      -8.140  -1.235  -2.856  1.00  0.00     0.103 C 
BRANCH  51  52
ATOM     52  C   UNL     1      -8.484  -0.495  -1.565  1.00  0.00     0.226 C 
ATOM     53  O   UNL     1      -8.008   0.622  -1.357  1.00  0.00    -0.275 OA
BRANCH  52  54
ATOM     54  N   UNL     1      -9.405  -1.125  -0.708  1.00  0.00    -0.311 N 
ATOM     55  C   UNL     1      -9.238  -2.532  -0.319  1.00  0.00     0.153 C 
BRANCH  54  56
ATOM     56  C   UNL     1     -10.513  -0.434  -0.189  1.00  0.00     0.102 C 
ATOM     57  C   UNL     1     -11.690  -0.285  -0.820  1.00  0.00     0.043 C 
BRANCH  56  58
ATOM     58  C   UNL     1     -10.469   0.176   1.192  1.00  0.00     0.268 C 
ATOM     59  O   UNL     1     -11.070  -0.291   2.150  1.00  0.00    -0.268 OA
ATOM     60  N   UNL     1      -9.635   1.265   1.275  1.00  0.00    -0.339 N 
ATOM     61  H   UNL     1      -9.180   1.596   0.432  1.00  0.00     0.164 HD
BRANCH  60  62
ATOM     62  C   UNL     1      -9.396   1.969   2.534  1.00  0.00     0.168 CG0
ATOM     63  C   UNL     1      -8.084   2.742   2.488  1.00  0.00     0.041 C 
ATOM     64  G   UNL     1      -9.394   0.958   3.699  1.00  0.00     0.000 G0
ENDBRANCH  60  62
ENDBRANCH  56  58
ENDBRANCH  54  56
ENDBRANCH  52  54
ENDBRANCH  51  52
ENDBRANCH  50  51
ENDBRANCH  49  50
BRANCH  49  65
ATOM     65  C   UNL     1      -8.410  -1.047  -6.428  1.00  0.00     0.326 C 
ATOM     66  O   UNL     1      -7.598  -1.873  -6.819  1.00  0.00    -0.250 OA
BRANCH  65  67
ATOM     67  O   UNL     1      -9.520  -0.801  -7.158  1.00  0.00    -0.480 OA
ATOM     68  H   UNL     1     -10.254  -1.014  -6.543  1.00  0.00     0.296 HD
ENDBRANCH  65  67
ENDBRANCH  49  65
ENDBRANCH  47  49
ENDBRANCH  43  45
ENDBRANCH   1  43
BRANCH   1  69
ATOM     69  C   UNL     1      -3.601  -0.810  -3.189  1.00  0.00    -0.001 C 
ATOM     70  C   UNL     1      -3.892  -1.972  -2.577  1.00  0.00     0.001 C 
BRANCH  70  71
ATOM     71  C   UNL     1      -3.346  -2.457  -1.308  1.00  0.00    -0.055 C 
ATOM     72  C   UNL     1      -2.763  -1.556  -0.489  1.00  0.00    -0.018 C 
ATOM     73  C   UNL     1      -3.481  -3.926  -1.001  1.00  0.00     0.044 C 
BRANCH  72  74
ATOM     74  C   UNL     1      -2.121  -1.767   0.874  1.00  0.00     0.038 C 
ATOM     75  C   UNL     1      -2.924  -0.940   1.886  1.00  0.00     0.015 C 
BRANCH  74  76
ATOM     76  C   UNL     1      -0.611  -1.396   0.780  1.00  0.00     0.128 C 
BRANCH  76  77
ATOM     77  O   UNL     1       0.194  -2.580   0.908  1.00  0.00    -0.381 OA
ATOM     78  C   UNL     1       0.791  -2.728   2.189  1.00  0.00     0.195 C 
ENDBRANCH  76  77
BRANCH  76  79
ATOM     79  C   UNL     1      -0.247  -0.555  -0.469  1.00  0.00     0.068 C 
BRANCH  79  80
ATOM     80  C   UNL     1       0.761  -1.127  -1.437  1.00  0.00    -0.045 A 
ATOM     81  C   UNL     1       2.117  -0.784  -1.354  1.00  0.00     0.004 A 
ATOM     82  C   UNL     1       0.346  -1.994  -2.459  1.00  0.00     0.004 A 
ATOM     83  C   UNL     1       3.040  -1.307  -2.262  1.00  0.00     0.000 A 
ATOM     84  C   UNL     1       1.270  -2.515  -3.368  1.00  0.00     0.000 A 
ATOM     85  C   UNL     1       2.617  -2.173  -3.268  1.00  0.00     0.000 A 
ENDBRANCH  79  80
ENDBRANCH  76  79
ENDBRANCH  74  76
ENDBRANCH  72  74
ENDBRANCH  70  71
ENDBRANCH   1  69
TORSDOF 17
ENDMDL
MODEL 15
REMARK VINA RESULT:    -6.289      5.266     12.069
REMARK INTER + INTRA:         -26.402
REMARK INTER:                 -19.560
REMARK INTRA:                  -6.842
REMARK UNBOUND:                -7.614
REMARK SMILES C=C1C(=O)N[C@H](C)C(=O)N[C@@H](CC(C)C)C(=O)N[C@@H](C(=O)O)[C@H](C)C(=O)N[C@@H](CCCN=C(N)N)C(=O)N[C@@H](/C=C/C(C)=C/[C@H](C)[C@H](Cc2ccccc2)OC)[C@H](C)C(=O)N[C@@H](C(=O)O)CCC(=O)N1C
REMARK SMILES IDX 39 1 38 2 37 3 36 4 28 6 27 7 25 8 26 9 23 11 24 12 19 13
REMARK SMILES IDX 18 14 16 15 17 16 11 18 10 19 8 20 9 21 12 24 13 25 14 26
REMARK SMILES IDX 15 27 20 28 21 29 22 30 29 32 30 33 31 34 32 35 33 36 34 37
REMARK SMILES IDX 35 38 57 43 58 44 59 45 60 46 61 47 62 49 66 50 67 51 68 52
REMARK SMILES IDX 69 53 70 54 71 55 2 56 1 57 3 58 4 59 5 60 6 62 7 63 63 65
REMARK SMILES IDX 64 66 65 67 40 69 41 70 42 71 44 72 43 73 45 74 46 75 47 76
REMARK SMILES IDX 55 77 56 78 48 79 49 80 50 81 54 82 51 83 53 84 52 85
REMARK H PARENT 38 5 27 10 18 17 10 22 22 31 34 39 34 40 35 41 35 42 61 48
REMARK H PARENT 5 61 65 68
REMARK Flexibility Score:  369.900
ROOT
ATOM      1  C   UNL     1       0.677  -3.110  -8.117  1.00  0.00     0.117 C 
ENDROOT
BRANCH   1   2
ATOM      2  N   UNL     1       0.336  -4.452  -7.643  1.00  0.00    -0.347 N 
ATOM      3  O   UNL     1      -0.311  -5.340  -9.659  1.00  0.00    -0.273 OA
ATOM      4  C   UNL     1      -0.045  -5.491  -8.471  1.00  0.00     0.243 C 
ATOM      5  H   UNL     1       0.426  -4.668  -6.662  1.00  0.00     0.164 HD
BRANCH   4   6
ATOM      6  C   UNL     1      -0.267  -6.832  -7.726  1.00  0.00     0.171 C 
BRANCH   6   7
ATOM      7  N   UNL     1      -1.019  -7.772  -8.573  1.00  0.00    -0.344 N 
ATOM      8  C   UNL     1      -2.396  -7.802  -8.537  1.00  0.00     0.226 C 
ATOM      9  O   UNL     1      -3.053  -7.079  -7.797  1.00  0.00    -0.275 OA
ATOM     10  H   UNL     1      -0.509  -8.431  -9.147  1.00  0.00     0.164 HD
BRANCH   8  11
ATOM     11  C   UNL     1      -3.026  -8.786  -9.507  1.00  0.00     0.109 C 
ATOM     12  C   UNL     1      -3.979  -9.721  -8.762  1.00  0.00     0.021 C 
BRANCH  11  13
ATOM     13  C   UNL     1      -3.658  -8.023 -10.688  1.00  0.00     0.204 C 
BRANCH  13  14
ATOM     14  N   UNL     1      -2.707  -7.107 -11.325  1.00  0.00    -0.340 N 
ATOM     15  C   UNL     1      -3.101  -6.052 -12.120  1.00  0.00     0.243 C 
ATOM     16  O   UNL     1      -4.283  -5.767 -12.300  1.00  0.00    -0.273 OA
ATOM     17  H   UNL     1      -1.719  -7.376 -11.341  1.00  0.00     0.164 HD
BRANCH  15  18
ATOM     18  C   UNL     1      -1.926  -5.356 -12.850  1.00  0.00     0.171 C 
BRANCH  18  19
ATOM     19  N   UNL     1      -1.706  -6.097 -14.090  1.00  0.00    -0.343 N 
ATOM     20  C   UNL     1      -0.557  -6.834 -14.305  1.00  0.00     0.242 CG0
ATOM     21  O   UNL     1       0.389  -6.793 -13.521  1.00  0.00    -0.273 OA
ATOM     22  H   UNL     1      -2.410  -6.068 -14.819  1.00  0.00     0.164 HD
ATOM     23  G   UNL     1      -0.538  -7.611 -15.637  1.00  0.00     0.000 G0
ENDBRANCH  18  19
BRANCH  18  24
ATOM     24  C   UNL     1      -2.257  -3.884 -13.126  1.00  0.00     0.038 C 
BRANCH  24  25
ATOM     25  C   UNL     1      -1.433  -3.240 -14.261  1.00  0.00    -0.015 C 
ATOM     26  C   UNL     1      -0.058  -2.767 -13.790  1.00  0.00     0.007 C 
ATOM     27  C   UNL     1      -2.208  -2.061 -14.855  1.00  0.00     0.007 C 
ENDBRANCH  24  25
ENDBRANCH  18  24
ENDBRANCH  15  18
ENDBRANCH  13  14
BRANCH  13  28
ATOM     28  C   UNL     1      -4.202  -8.946 -11.782  1.00  0.00     0.327 C 
ATOM     29  O   UNL     1      -3.542  -9.546 -12.616  1.00  0.00    -0.250 OA
BRANCH  28  30
ATOM     30  O   UNL     1      -5.550  -8.967 -11.834  1.00  0.00    -0.480 OA
ATOM     31  H   UNL     1      -5.829  -8.861 -10.901  1.00  0.00     0.296 HD
ENDBRANCH  28  30
ENDBRANCH  13  28
ENDBRANCH  11  13
ENDBRANCH   8  11
ENDBRANCH   6   7
BRANCH   6  32
ATOM     32  C   UNL     1       1.093  -7.419  -7.332  1.00  0.00     0.037 C 
BRANCH  32  33
ATOM     33  C   UNL     1       1.893  -7.898  -8.551  1.00  0.00     0.026 C 
BRANCH  33  34
ATOM     34  C   UNL     1       3.365  -8.153  -8.223  1.00  0.00     0.146 C 
BRANCH  34  35
ATOM     35  N   UNL     1       3.840  -7.093  -7.345  1.00  0.00    -0.254 NA
ATOM     36  C   UNL     1       4.848  -6.393  -7.716  1.00  0.00     0.185 C 
ATOM     37  N   UNL     1       5.291  -5.411  -6.917  1.00  0.00    -0.370 N 
ATOM     38  N   UNL     1       5.574  -6.490  -8.843  1.00  0.00    -0.370 N 
ATOM     39  H   UNL     1       4.788  -5.268  -6.050  1.00  0.00     0.159 HD
ATOM     40  H   UNL     1       5.954  -4.714  -7.208  1.00  0.00     0.159 HD
ATOM     41  H   UNL     1       6.431  -5.974  -8.957  1.00  0.00     0.159 HD
ATOM     42  H   UNL     1       5.363  -7.198  -9.530  1.00  0.00     0.159 HD
ENDBRANCH  34  35
ENDBRANCH  33  34
ENDBRANCH  32  33
ENDBRANCH   6  32
ENDBRANCH   4   6
ENDBRANCH   1   2
BRANCH   1  43
ATOM     43  C   UNL     1       2.071  -2.722  -7.543  1.00  0.00     0.102 C 
ATOM     44  C   UNL     1       3.241  -3.108  -8.463  1.00  0.00     0.020 C 
BRANCH  43  45
ATOM     45  C   UNL     1       2.227  -3.212  -6.100  1.00  0.00     0.225 C 
ATOM     46  O   UNL     1       2.769  -4.274  -5.807  1.00  0.00    -0.275 OA
ATOM     47  N   UNL     1       1.633  -2.425  -5.140  1.00  0.00    -0.342 N 
ATOM     48  H   UNL     1       1.329  -1.491  -5.376  1.00  0.00     0.164 HD
BRANCH  47  49
ATOM     49  C   UNL     1       1.732  -2.751  -3.714  1.00  0.00     0.192 C 
BRANCH  49  50
ATOM     50  C   UNL     1       0.342  -2.691  -3.075  1.00  0.00     0.047 C 
BRANCH  50  51
ATOM     51  C   UNL     1       0.039  -3.931  -2.223  1.00  0.00     0.103 C 
BRANCH  51  52
ATOM     52  C   UNL     1      -1.073  -3.671  -1.208  1.00  0.00     0.226 C 
ATOM     53  O   UNL     1      -2.111  -4.335  -1.256  1.00  0.00    -0.275 OA
BRANCH  52  54
ATOM     54  N   UNL     1      -0.800  -2.717  -0.210  1.00  0.00    -0.311 N 
ATOM     55  C   UNL     1       0.412  -2.809   0.614  1.00  0.00     0.153 C 
BRANCH  54  56
ATOM     56  C   UNL     1      -1.671  -1.641   0.031  1.00  0.00     0.102 C 
ATOM     57  C   UNL     1      -1.734  -0.523  -0.711  1.00  0.00     0.043 C 
BRANCH  56  58
ATOM     58  C   UNL     1      -2.668  -1.690   1.164  1.00  0.00     0.268 C 
ATOM     59  O   UNL     1      -3.693  -2.358   1.126  1.00  0.00    -0.268 OA
ATOM     60  N   UNL     1      -2.275  -0.962   2.261  1.00  0.00    -0.339 N 
ATOM     61  H   UNL     1      -1.417  -0.426   2.209  1.00  0.00     0.164 HD
BRANCH  60  62
ATOM     62  C   UNL     1      -3.063  -0.922   3.493  1.00  0.00     0.168 CG0
ATOM     63  C   UNL     1      -4.121   0.173   3.431  1.00  0.00     0.041 C 
ATOM     64  G   UNL     1      -2.126  -0.708   4.699  1.00  0.00     0.000 G0
ENDBRANCH  60  62
ENDBRANCH  56  58
ENDBRANCH  54  56
ENDBRANCH  52  54
ENDBRANCH  51  52
ENDBRANCH  50  51
ENDBRANCH  49  50
BRANCH  49  65
ATOM     65  C   UNL     1       2.673  -1.787  -2.976  1.00  0.00     0.326 C 
ATOM     66  O   UNL     1       2.823  -0.602  -3.236  1.00  0.00    -0.250 OA
BRANCH  65  67
ATOM     67  O   UNL     1       3.416  -2.358  -2.002  1.00  0.00    -0.480 OA
ATOM     68  H   UNL     1       2.973  -2.071  -1.175  1.00  0.00     0.296 HD
ENDBRANCH  65  67
ENDBRANCH  49  65
ENDBRANCH  47  49
ENDBRANCH  43  45
ENDBRANCH   1  43
BRANCH   1  69
ATOM     69  C   UNL     1      -0.518  -2.232  -7.797  1.00  0.00    -0.001 C 
ATOM     70  C   UNL     1      -0.667  -1.405  -6.747  1.00  0.00     0.001 C 
BRANCH  70  71
ATOM     71  C   UNL     1      -1.818  -0.545  -6.461  1.00  0.00    -0.055 C 
ATOM     72  C   UNL     1      -1.625   0.509  -5.640  1.00  0.00    -0.018 C 
ATOM     73  C   UNL     1      -3.132  -0.892  -7.109  1.00  0.00     0.044 C 
BRANCH  72  74
ATOM     74  C   UNL     1      -2.620   1.561  -5.173  1.00  0.00     0.038 C 
ATOM     75  C   UNL     1      -1.873   2.898  -5.117  1.00  0.00     0.015 C 
BRANCH  74  76
ATOM     76  C   UNL     1      -3.238   1.100  -3.820  1.00  0.00     0.128 C 
BRANCH  76  77
ATOM     77  O   UNL     1      -2.986   2.086  -2.804  1.00  0.00    -0.381 OA
ATOM     78  C   UNL     1      -4.108   2.910  -2.518  1.00  0.00     0.195 C 
ENDBRANCH  76  77
BRANCH  76  79
ATOM     79  C   UNL     1      -4.733   0.703  -3.912  1.00  0.00     0.068 C 
BRANCH  79  80
ATOM     80  C   UNL     1      -5.093  -0.748  -3.706  1.00  0.00    -0.045 A 
ATOM     81  C   UNL     1      -4.102  -1.716  -3.499  1.00  0.00     0.004 A 
ATOM     82  C   UNL     1      -6.435  -1.156  -3.747  1.00  0.00     0.004 A 
ATOM     83  C   UNL     1      -4.443  -3.059  -3.324  1.00  0.00     0.000 A 
ATOM     84  C   UNL     1      -6.775  -2.499  -3.572  1.00  0.00     0.000 A 
ATOM     85  C   UNL     1      -5.779  -3.449  -3.358  1.00  0.00     0.000 A 
ENDBRANCH  79  80
ENDBRANCH  76  79
ENDBRANCH  74  76
ENDBRANCH  72  74
ENDBRANCH  70  71
ENDBRANCH   1  69
TORSDOF 17
ENDMDL
MODEL 16
REMARK VINA RESULT:    -6.279      3.041      5.602
REMARK INTER + INTRA:         -26.372
REMARK INTER:                 -18.060
REMARK INTRA:                  -8.313
REMARK UNBOUND:                -7.614
REMARK SMILES C=C1C(=O)N[C@H](C)C(=O)N[C@@H](CC(C)C)C(=O)N[C@@H](C(=O)O)[C@H](C)C(=O)N[C@@H](CCCN=C(N)N)C(=O)N[C@@H](/C=C/C(C)=C/[C@H](C)[C@H](Cc2ccccc2)OC)[C@H](C)C(=O)N[C@@H](C(=O)O)CCC(=O)N1C
REMARK SMILES IDX 39 1 38 2 37 3 36 4 28 6 27 7 25 8 26 9 23 11 24 12 19 13
REMARK SMILES IDX 18 14 16 15 17 16 11 18 10 19 8 20 9 21 12 24 13 25 14 26
REMARK SMILES IDX 15 27 20 28 21 29 22 30 29 32 30 33 31 34 32 35 33 36 34 37
REMARK SMILES IDX 35 38 57 43 58 44 59 45 60 46 61 47 62 49 66 50 67 51 68 52
REMARK SMILES IDX 69 53 70 54 71 55 2 56 1 57 3 58 4 59 5 60 6 62 7 63 63 65
REMARK SMILES IDX 64 66 65 67 40 69 41 70 42 71 44 72 43 73 45 74 46 75 47 76
REMARK SMILES IDX 55 77 56 78 48 79 49 80 50 81 54 82 51 83 53 84 52 85
REMARK H PARENT 38 5 27 10 18 17 10 22 22 31 34 39 34 40 35 41 35 42 61 48
REMARK H PARENT 5 61 65 68
REMARK Flexibility Score:  369.900
ROOT
ATOM      1  C   UNL     1      -4.106   0.424  -5.927  1.00  0.00     0.117 C 
ENDROOT
BRANCH   1   2
ATOM      2  N   UNL     1      -2.963  -0.209  -5.268  1.00  0.00    -0.347 N 
ATOM      3  O   UNL     1      -2.331  -1.586  -6.993  1.00  0.00    -0.273 OA
ATOM      4  C   UNL     1      -2.109  -1.100  -5.889  1.00  0.00     0.243 C 
ATOM      5  H   UNL     1      -2.738   0.043  -4.318  1.00  0.00     0.164 HD
BRANCH   4   6
ATOM      6  C   UNL     1      -0.928  -1.557  -4.995  1.00  0.00     0.171 C 
BRANCH   6   7
ATOM      7  N   UNL     1      -1.413  -1.948  -3.662  1.00  0.00    -0.344 N 
ATOM      8  C   UNL     1      -1.441  -1.036  -2.629  1.00  0.00     0.226 C 
ATOM      9  O   UNL     1      -1.050   0.118  -2.756  1.00  0.00    -0.275 OA
ATOM     10  H   UNL     1      -1.682  -2.911  -3.500  1.00  0.00     0.164 HD
BRANCH   8  11
ATOM     11  C   UNL     1      -2.019  -1.577  -1.333  1.00  0.00     0.109 C 
ATOM     12  C   UNL     1      -1.835  -3.093  -1.267  1.00  0.00     0.021 C 
BRANCH  11  13
ATOM     13  C   UNL     1      -1.434  -0.800  -0.137  1.00  0.00     0.204 C 
BRANCH  13  14
ATOM     14  N   UNL     1      -2.180  -1.050   1.101  1.00  0.00    -0.340 N 
ATOM     15  C   UNL     1      -3.450  -0.563   1.320  1.00  0.00     0.243 C 
ATOM     16  O   UNL     1      -4.073   0.065   0.466  1.00  0.00    -0.273 OA
ATOM     17  H   UNL     1      -1.668  -1.430   1.902  1.00  0.00     0.164 HD
BRANCH  15  18
ATOM     18  C   UNL     1      -3.952  -0.774   2.770  1.00  0.00     0.171 C 
BRANCH  18  19
ATOM     19  N   UNL     1      -2.824  -1.310   3.529  1.00  0.00    -0.343 N 
ATOM     20  C   UNL     1      -2.997  -1.930   4.752  1.00  0.00     0.242 CG0
ATOM     21  O   UNL     1      -4.087  -1.941   5.319  1.00  0.00    -0.273 OA
ATOM     22  H   UNL     1      -1.886  -1.222   3.155  1.00  0.00     0.164 HD
ATOM     23  G   UNL     1      -1.702  -2.502   5.365  1.00  0.00     0.000 G0
ENDBRANCH  18  19
BRANCH  18  24
ATOM     24  C   UNL     1      -4.454   0.547   3.367  1.00  0.00     0.038 C 
BRANCH  24  25
ATOM     25  C   UNL     1      -5.990   0.670   3.458  1.00  0.00    -0.015 C 
ATOM     26  C   UNL     1      -6.693  -0.684   3.354  1.00  0.00     0.007 C 
ATOM     27  C   UNL     1      -6.497   1.600   2.353  1.00  0.00     0.007 C 
ENDBRANCH  24  25
ENDBRANCH  18  24
ENDBRANCH  15  18
ENDBRANCH  13  14
BRANCH  13  28
ATOM     28  C   UNL     1       0.034  -1.137   0.142  1.00  0.00     0.327 C 
ATOM     29  O   UNL     1       0.448  -1.937   0.968  1.00  0.00    -0.250 OA
BRANCH  28  30
ATOM     30  O   UNL     1       0.895  -0.363  -0.550  1.00  0.00    -0.480 OA
ATOM     31  H   UNL     1       1.053   0.405   0.037  1.00  0.00     0.296 HD
ENDBRANCH  28  30
ENDBRANCH  13  28
ENDBRANCH  11  13
ENDBRANCH   8  11
ENDBRANCH   6   7
BRANCH   6  32
ATOM     32  C   UNL     1      -0.202  -2.722  -5.677  1.00  0.00     0.037 C 
BRANCH  32  33
ATOM     33  C   UNL     1       0.659  -3.525  -4.691  1.00  0.00     0.026 C 
BRANCH  33  34
ATOM     34  C   UNL     1       2.142  -3.165  -4.783  1.00  0.00     0.146 C 
BRANCH  34  35
ATOM     35  N   UNL     1       2.295  -1.736  -4.551  1.00  0.00    -0.254 NA
ATOM     36  C   UNL     1       2.637  -1.335  -3.384  1.00  0.00     0.185 C 
ATOM     37  N   UNL     1       2.785  -0.020  -3.161  1.00  0.00    -0.370 N 
ATOM     38  N   UNL     1       2.888  -2.063  -2.281  1.00  0.00    -0.370 N 
ATOM     39  H   UNL     1       2.624   0.595  -3.948  1.00  0.00     0.159 HD
ATOM     40  H   UNL     1       3.215   0.359  -2.334  1.00  0.00     0.159 HD
ATOM     41  H   UNL     1       3.013  -1.623  -1.384  1.00  0.00     0.159 HD
ATOM     42  H   UNL     1       2.799  -3.067  -2.298  1.00  0.00     0.159 HD
ENDBRANCH  34  35
ENDBRANCH  33  34
ENDBRANCH  32  33
ENDBRANCH   6  32
ENDBRANCH   4   6
ENDBRANCH   1   2
BRANCH   1  43
ATOM     43  C   UNL     1      -4.024   1.960  -5.693  1.00  0.00     0.102 C 
ATOM     44  C   UNL     1      -4.789   2.781  -6.745  1.00  0.00     0.020 C 
BRANCH  43  45
ATOM     45  C   UNL     1      -2.574   2.409  -5.489  1.00  0.00     0.225 C 
ATOM     46  O   UNL     1      -2.135   2.788  -4.407  1.00  0.00    -0.275 OA
ATOM     47  N   UNL     1      -1.802   2.452  -6.627  1.00  0.00    -0.342 N 
ATOM     48  H   UNL     1      -2.126   1.998  -7.469  1.00  0.00     0.164 HD
BRANCH  47  49
ATOM     49  C   UNL     1      -0.385   2.828  -6.578  1.00  0.00     0.192 C 
BRANCH  49  50
ATOM     50  C   UNL     1      -0.003   3.563  -7.865  1.00  0.00     0.047 C 
BRANCH  50  51
ATOM     51  C   UNL     1       1.376   4.229  -7.768  1.00  0.00     0.103 C 
BRANCH  51  52
ATOM     52  C   UNL     1       1.904   4.657  -9.135  1.00  0.00     0.226 C 
ATOM     53  O   UNL     1       2.296   5.814  -9.303  1.00  0.00    -0.275 OA
BRANCH  52  54
ATOM     54  N   UNL     1       1.978   3.655 -10.121  1.00  0.00    -0.311 N 
ATOM     55  C   UNL     1       2.667   2.385  -9.856  1.00  0.00     0.153 C 
BRANCH  54  56
ATOM     56  C   UNL     1       1.395   3.828 -11.387  1.00  0.00     0.102 C 
ATOM     57  C   UNL     1       0.076   3.938 -11.617  1.00  0.00     0.043 C 
BRANCH  56  58
ATOM     58  C   UNL     1       2.252   3.953 -12.624  1.00  0.00     0.268 C 
ATOM     59  O   UNL     1       3.421   4.314 -12.596  1.00  0.00    -0.268 OA
ATOM     60  N   UNL     1       1.606   3.559 -13.771  1.00  0.00    -0.339 N 
ATOM     61  H   UNL     1       0.633   3.283 -13.712  1.00  0.00     0.164 HD
BRANCH  60  62
ATOM     62  C   UNL     1       2.271   3.540 -15.073  1.00  0.00     0.168 CG0
ATOM     63  C   UNL     1       2.831   2.158 -15.382  1.00  0.00     0.041 C 
ATOM     64  G   UNL     1       3.391   4.601 -15.097  1.00  0.00     0.000 G0
ENDBRANCH  60  62
ENDBRANCH  56  58
ENDBRANCH  54  56
ENDBRANCH  52  54
ENDBRANCH  51  52
ENDBRANCH  50  51
ENDBRANCH  49  50
BRANCH  49  65
ATOM     65  C   UNL     1       0.522   1.599  -6.404  1.00  0.00     0.326 C 
ATOM     66  O   UNL     1       1.250   1.384  -5.447  1.00  0.00    -0.250 OA
BRANCH  65  67
ATOM     67  O   UNL     1       0.518   0.744  -7.451  1.00  0.00    -0.480 OA
ATOM     68  H   UNL     1       0.749  -0.119  -7.044  1.00  0.00     0.296 HD
ENDBRANCH  65  67
ENDBRANCH  49  65
ENDBRANCH  47  49
ENDBRANCH  43  45
ENDBRANCH   1  43
BRANCH   1  69
ATOM     69  C   UNL     1      -5.338  -0.326  -5.453  1.00  0.00    -0.001 C 
ATOM     70  C   UNL     1      -6.095  -0.054  -4.376  1.00  0.00     0.001 C 
BRANCH  70  71
ATOM     71  C   UNL     1      -7.294  -0.772  -3.940  1.00  0.00    -0.055 C 
ATOM     72  C   UNL     1      -7.880  -0.375  -2.790  1.00  0.00    -0.018 C 
ATOM     73  C   UNL     1      -7.795  -1.896  -4.808  1.00  0.00     0.044 C 
BRANCH  72  74
ATOM     74  C   UNL     1      -9.121  -0.925  -2.102  1.00  0.00     0.038 C 
ATOM     75  C   UNL     1     -10.180   0.184  -2.125  1.00  0.00     0.015 C 
BRANCH  74  76
ATOM     76  C   UNL     1      -8.727  -1.423  -0.680  1.00  0.00     0.128 C 
BRANCH  76  77
ATOM     77  O   UNL     1      -9.226  -2.754  -0.470  1.00  0.00    -0.381 OA
ATOM     78  C   UNL     1      -9.719  -3.372  -1.651  1.00  0.00     0.195 C 
ENDBRANCH  76  77
BRANCH  76  79
ATOM     79  C   UNL     1      -7.216  -1.292  -0.364  1.00  0.00     0.068 C 
BRANCH  79  80
ATOM     80  C   UNL     1      -6.393  -2.556  -0.307  1.00  0.00    -0.045 A 
ATOM     81  C   UNL     1      -6.048  -3.139   0.920  1.00  0.00     0.004 A 
ATOM     82  C   UNL     1      -5.935  -3.156  -1.490  1.00  0.00     0.004 A 
ATOM     83  C   UNL     1      -5.275  -4.301   0.964  1.00  0.00     0.000 A 
ATOM     84  C   UNL     1      -5.162  -4.317  -1.445  1.00  0.00     0.000 A 
ATOM     85  C   UNL     1      -4.833  -4.890  -0.219  1.00  0.00     0.000 A 
ENDBRANCH  79  80
ENDBRANCH  76  79
ENDBRANCH  74  76
ENDBRANCH  72  74
ENDBRANCH  70  71
ENDBRANCH   1  69
TORSDOF 17
ENDMDL
MODEL 17
REMARK VINA RESULT:    -6.265      9.502     15.578
REMARK INTER + INTRA:         -26.332
REMARK INTER:                 -19.423
REMARK INTRA:                  -6.909
REMARK UNBOUND:                -7.614
REMARK SMILES C=C1C(=O)N[C@H](C)C(=O)N[C@@H](CC(C)C)C(=O)N[C@@H](C(=O)O)[C@H](C)C(=O)N[C@@H](CCCN=C(N)N)C(=O)N[C@@H](/C=C/C(C)=C/[C@H](C)[C@H](Cc2ccccc2)OC)[C@H](C)C(=O)N[C@@H](C(=O)O)CCC(=O)N1C
REMARK SMILES IDX 39 1 38 2 37 3 36 4 28 6 27 7 25 8 26 9 23 11 24 12 19 13
REMARK SMILES IDX 18 14 16 15 17 16 11 18 10 19 8 20 9 21 12 24 13 25 14 26
REMARK SMILES IDX 15 27 20 28 21 29 22 30 29 32 30 33 31 34 32 35 33 36 34 37
REMARK SMILES IDX 35 38 57 43 58 44 59 45 60 46 61 47 62 49 66 50 67 51 68 52
REMARK SMILES IDX 69 53 70 54 71 55 2 56 1 57 3 58 4 59 5 60 6 62 7 63 63 65
REMARK SMILES IDX 64 66 65 67 40 69 41 70 42 71 44 72 43 73 45 74 46 75 47 76
REMARK SMILES IDX 55 77 56 78 48 79 49 80 50 81 54 82 51 83 53 84 52 85
REMARK H PARENT 38 5 27 10 18 17 10 22 22 31 34 39 34 40 35 41 35 42 61 48
REMARK H PARENT 5 61 65 68
REMARK Flexibility Score:  369.900
ROOT
ATOM      1  C   UNL     1      -5.357   0.898   6.031  1.00  0.00     0.117 C 
ENDROOT
BRANCH   1   2
ATOM      2  N   UNL     1      -6.641   0.196   6.000  1.00  0.00    -0.347 N 
ATOM      3  O   UNL     1      -7.867   1.832   4.956  1.00  0.00    -0.273 OA
ATOM      4  C   UNL     1      -7.775   0.685   5.381  1.00  0.00     0.243 C 
ATOM      5  H   UNL     1      -6.712  -0.724   6.408  1.00  0.00     0.164 HD
BRANCH   4   6
ATOM      6  C   UNL     1      -8.977  -0.293   5.419  1.00  0.00     0.171 C 
BRANCH   6   7
ATOM      7  N   UNL     1      -9.631  -0.254   6.736  1.00  0.00    -0.344 N 
ATOM      8  C   UNL     1     -10.126  -1.405   7.310  1.00  0.00     0.226 C 
ATOM      9  O   UNL     1     -10.070  -2.496   6.755  1.00  0.00    -0.275 OA
ATOM     10  H   UNL     1      -9.756   0.640   7.196  1.00  0.00     0.164 HD
BRANCH   8  11
ATOM     11  C   UNL     1     -10.721  -1.209   8.693  1.00  0.00     0.109 C 
ATOM     12  C   UNL     1     -10.262   0.126   9.279  1.00  0.00     0.021 C 
BRANCH  11  13
ATOM     13  C   UNL     1     -12.250  -1.399   8.634  1.00  0.00     0.204 C 
BRANCH  13  14
ATOM     14  N   UNL     1     -12.622  -2.782   8.321  1.00  0.00    -0.340 N 
ATOM     15  C   UNL     1     -13.327  -3.129   7.189  1.00  0.00     0.243 C 
ATOM     16  O   UNL     1     -13.642  -2.308   6.329  1.00  0.00    -0.273 OA
ATOM     17  H   UNL     1     -12.527  -3.484   9.059  1.00  0.00     0.164 HD
BRANCH  15  18
ATOM     18  C   UNL     1     -13.785  -4.608   7.174  1.00  0.00     0.171 C 
BRANCH  18  19
ATOM     19  N   UNL     1     -13.357  -5.167   5.893  1.00  0.00    -0.343 N 
ATOM     20  C   UNL     1     -14.182  -5.980   5.140  1.00  0.00     0.242 CG0
ATOM     21  O   UNL     1     -15.260  -6.379   5.573  1.00  0.00    -0.273 OA
ATOM     22  H   UNL     1     -12.427  -4.959   5.546  1.00  0.00     0.164 HD
ATOM     23  G   UNL     1     -13.587  -6.408   3.783  1.00  0.00     0.000 G0
ENDBRANCH  18  19
BRANCH  18  24
ATOM     24  C   UNL     1     -13.175  -5.375   8.354  1.00  0.00     0.038 C 
BRANCH  24  25
ATOM     25  C   UNL     1     -14.179  -6.232   9.153  1.00  0.00    -0.015 C 
ATOM     26  C   UNL     1     -14.202  -7.690   8.692  1.00  0.00     0.007 C 
ATOM     27  C   UNL     1     -15.582  -5.631   9.030  1.00  0.00     0.007 C 
ENDBRANCH  24  25
ENDBRANCH  18  24
ENDBRANCH  15  18
ENDBRANCH  13  14
BRANCH  13  28
ATOM     28  C   UNL     1     -12.956  -1.024   9.941  1.00  0.00     0.327 C 
ATOM     29  O   UNL     1     -13.419   0.070  10.224  1.00  0.00    -0.250 OA
BRANCH  28  30
ATOM     30  O   UNL     1     -12.930  -2.012  10.858  1.00  0.00    -0.480 OA
ATOM     31  H   UNL     1     -13.438  -1.652  11.615  1.00  0.00     0.296 HD
ENDBRANCH  28  30
ENDBRANCH  13  28
ENDBRANCH  11  13
ENDBRANCH   8  11
ENDBRANCH   6   7
BRANCH   6  32
ATOM     32  C   UNL     1      -9.964   0.080   4.306  1.00  0.00     0.037 C 
BRANCH  32  33
ATOM     33  C   UNL     1     -10.186  -1.075   3.319  1.00  0.00     0.026 C 
BRANCH  33  34
ATOM     34  C   UNL     1      -9.768  -0.714   1.893  1.00  0.00     0.146 C 
BRANCH  34  35
ATOM     35  N   UNL     1      -8.686   0.259   1.953  1.00  0.00    -0.254 NA
ATOM     36  C   UNL     1      -8.270   0.783   0.860  1.00  0.00     0.185 C 
ATOM     37  N   UNL     1      -7.277   1.684   0.904  1.00  0.00    -0.370 N 
ATOM     38  N   UNL     1      -8.693   0.562  -0.397  1.00  0.00    -0.370 N 
ATOM     39  H   UNL     1      -6.910   1.912   1.820  1.00  0.00     0.159 HD
ATOM     40  H   UNL     1      -7.016   2.262   0.124  1.00  0.00     0.159 HD
ATOM     41  H   UNL     1      -8.191   0.932  -1.188  1.00  0.00     0.159 HD
ATOM     42  H   UNL     1      -9.426  -0.105  -0.582  1.00  0.00     0.159 HD
ENDBRANCH  34  35
ENDBRANCH  33  34
ENDBRANCH  32  33
ENDBRANCH   6  32
ENDBRANCH   4   6
ENDBRANCH   1   2
BRANCH   1  43
ATOM     43  C   UNL     1      -4.285  -0.002   5.351  1.00  0.00     0.102 C 
ATOM     44  C   UNL     1      -4.722  -1.469   5.202  1.00  0.00     0.020 C 
BRANCH  43  45
ATOM     45  C   UNL     1      -2.917   0.174   6.018  1.00  0.00     0.225 C 
ATOM     46  O   UNL     1      -2.658  -0.251   7.140  1.00  0.00    -0.275 OA
ATOM     47  N   UNL     1      -2.007   0.929   5.313  1.00  0.00    -0.342 N 
ATOM     48  H   UNL     1      -2.179   1.138   4.339  1.00  0.00     0.164 HD
BRANCH  47  49
ATOM     49  C   UNL     1      -0.647   1.151   5.811  1.00  0.00     0.192 C 
BRANCH  49  50
ATOM     50  C   UNL     1      -0.327   2.648   5.784  1.00  0.00     0.047 C 
BRANCH  50  51
ATOM     51  C   UNL     1      -0.995   3.406   6.940  1.00  0.00     0.103 C 
BRANCH  51  52
ATOM     52  C   UNL     1      -0.524   2.904   8.303  1.00  0.00     0.226 C 
ATOM     53  O   UNL     1      -1.193   2.064   8.908  1.00  0.00    -0.275 OA
BRANCH  52  54
ATOM     54  N   UNL     1       0.716   3.391   8.757  1.00  0.00    -0.311 N 
ATOM     55  C   UNL     1       1.172   4.742   8.404  1.00  0.00     0.153 C 
BRANCH  54  56
ATOM     56  C   UNL     1       1.559   2.610   9.565  1.00  0.00     0.102 C 
ATOM     57  C   UNL     1       1.586   2.647  10.907  1.00  0.00     0.043 C 
BRANCH  56  58
ATOM     58  C   UNL     1       2.500   1.599   8.954  1.00  0.00     0.268 C 
ATOM     59  O   UNL     1       2.236   0.965   7.941  1.00  0.00    -0.268 OA
ATOM     60  N   UNL     1       3.704   1.516   9.612  1.00  0.00    -0.339 N 
ATOM     61  H   UNL     1       3.840   2.068  10.450  1.00  0.00     0.164 HD
BRANCH  60  62
ATOM     62  C   UNL     1       4.785   0.645   9.151  1.00  0.00     0.168 CG0
ATOM     63  C   UNL     1       6.038   0.834   9.997  1.00  0.00     0.041 C 
ATOM     64  G   UNL     1       5.081   0.932   7.665  1.00  0.00     0.000 G0
ENDBRANCH  60  62
ENDBRANCH  56  58
ENDBRANCH  54  56
ENDBRANCH  52  54
ENDBRANCH  51  52
ENDBRANCH  50  51
ENDBRANCH  49  50
BRANCH  49  65
ATOM     65  C   UNL     1       0.394   0.393   4.972  1.00  0.00     0.326 C 
ATOM     66  O   UNL     1       0.178  -0.609   4.307  1.00  0.00    -0.250 OA
BRANCH  65  67
ATOM     67  O   UNL     1       1.651   0.884   5.055  1.00  0.00    -0.480 OA
ATOM     68  H   UNL     1       1.577   1.595   5.728  1.00  0.00     0.296 HD
ENDBRANCH  65  67
ENDBRANCH  49  65
ENDBRANCH  47  49
ENDBRANCH  43  45
ENDBRANCH   1  43
BRANCH   1  69
ATOM     69  C   UNL     1      -5.146   1.331   7.470  1.00  0.00    -0.001 C 
ATOM     70  C   UNL     1      -5.837   2.260   8.154  1.00  0.00     0.001 C 
BRANCH  70  71
ATOM     71  C   UNL     1      -5.638   2.655   9.550  1.00  0.00    -0.055 C 
ATOM     72  C   UNL     1      -4.421   2.442  10.094  1.00  0.00    -0.018 C 
ATOM     73  C   UNL     1      -6.800   3.278  10.276  1.00  0.00     0.044 C 
BRANCH  72  74
ATOM     74  C   UNL     1      -3.929   2.749  11.501  1.00  0.00     0.038 C 
ATOM     75  C   UNL     1      -2.878   3.860  11.381  1.00  0.00     0.015 C 
BRANCH  74  76
ATOM     76  C   UNL     1      -3.413   1.431  12.151  1.00  0.00     0.128 C 
BRANCH  76  77
ATOM     77  O   UNL     1      -2.021   1.559  12.484  1.00  0.00    -0.381 OA
ATOM     78  C   UNL     1      -1.323   0.321  12.511  1.00  0.00     0.195 C 
ENDBRANCH  76  77
BRANCH  76  79
ATOM     79  C   UNL     1      -4.272   0.938  13.343  1.00  0.00     0.068 C 
BRANCH  79  80
ATOM     80  C   UNL     1      -5.773   0.939  13.181  1.00  0.00    -0.045 A 
ATOM     81  C   UNL     1      -6.395   0.137  12.214  1.00  0.00     0.004 A 
ATOM     82  C   UNL     1      -6.571   1.769  13.983  1.00  0.00     0.004 A 
ATOM     83  C   UNL     1      -7.783   0.154  12.061  1.00  0.00     0.000 A 
ATOM     84  C   UNL     1      -7.959   1.786  13.828  1.00  0.00     0.000 A 
ATOM     85  C   UNL     1      -8.564   0.977  12.869  1.00  0.00     0.000 A 
ENDBRANCH  79  80
ENDBRANCH  76  79
ENDBRANCH  74  76
ENDBRANCH  72  74
ENDBRANCH  70  71
ENDBRANCH   1  69
TORSDOF 17
ENDMDL
MODEL 18
REMARK VINA RESULT:    -6.246      9.702     14.920
REMARK INTER + INTRA:         -26.276
REMARK INTER:                 -21.317
REMARK INTRA:                  -4.959
REMARK UNBOUND:                -7.614
REMARK SMILES C=C1C(=O)N[C@H](C)C(=O)N[C@@H](CC(C)C)C(=O)N[C@@H](C(=O)O)[C@H](C)C(=O)N[C@@H](CCCN=C(N)N)C(=O)N[C@@H](/C=C/C(C)=C/[C@H](C)[C@H](Cc2ccccc2)OC)[C@H](C)C(=O)N[C@@H](C(=O)O)CCC(=O)N1C
REMARK SMILES IDX 39 1 38 2 37 3 36 4 28 6 27 7 25 8 26 9 23 11 24 12 19 13
REMARK SMILES IDX 18 14 16 15 17 16 11 18 10 19 8 20 9 21 12 24 13 25 14 26
REMARK SMILES IDX 15 27 20 28 21 29 22 30 29 32 30 33 31 34 32 35 33 36 34 37
REMARK SMILES IDX 35 38 57 43 58 44 59 45 60 46 61 47 62 49 66 50 67 51 68 52
REMARK SMILES IDX 69 53 70 54 71 55 2 56 1 57 3 58 4 59 5 60 6 62 7 63 63 65
REMARK SMILES IDX 64 66 65 67 40 69 41 70 42 71 44 72 43 73 45 74 46 75 47 76
REMARK SMILES IDX 55 77 56 78 48 79 49 80 50 81 54 82 51 83 53 84 52 85
REMARK H PARENT 38 5 27 10 18 17 10 22 22 31 34 39 34 40 35 41 35 42 61 48
REMARK H PARENT 5 61 65 68
REMARK Flexibility Score:  369.900
ROOT
ATOM      1  C   UNL     1      -4.638   0.615   4.192  1.00  0.00     0.117 C 
ENDROOT
BRANCH   1   2
ATOM      2  N   UNL     1      -5.975   0.029   4.301  1.00  0.00    -0.347 N 
ATOM      3  O   UNL     1      -5.870  -0.577   6.513  1.00  0.00    -0.273 OA
ATOM      4  C   UNL     1      -6.519  -0.439   5.482  1.00  0.00     0.243 C 
ATOM      5  H   UNL     1      -6.571   0.001   3.488  1.00  0.00     0.164 HD
BRANCH   4   6
ATOM      6  C   UNL     1      -7.983  -0.929   5.342  1.00  0.00     0.171 C 
BRANCH   6   7
ATOM      7  N   UNL     1      -8.746  -0.626   6.563  1.00  0.00    -0.344 N 
ATOM      8  C   UNL     1      -9.772  -1.449   6.973  1.00  0.00     0.226 C 
ATOM      9  O   UNL     1     -10.111  -2.445   6.344  1.00  0.00    -0.275 OA
ATOM     10  H   UNL     1      -8.539   0.224   7.072  1.00  0.00     0.164 HD
BRANCH   8  11
ATOM     11  C   UNL     1     -10.425  -1.032   8.279  1.00  0.00     0.109 C 
ATOM     12  C   UNL     1      -9.706   0.185   8.861  1.00  0.00     0.021 C 
BRANCH  11  13
ATOM     13  C   UNL     1     -11.941  -0.850   8.069  1.00  0.00     0.204 C 
BRANCH  13  14
ATOM     14  N   UNL     1     -12.608  -2.113   7.736  1.00  0.00    -0.340 N 
ATOM     15  C   UNL     1     -12.449  -3.261   8.482  1.00  0.00     0.243 C 
ATOM     16  O   UNL     1     -11.784  -3.291   9.515  1.00  0.00    -0.273 OA
ATOM     17  H   UNL     1     -13.047  -2.196   6.816  1.00  0.00     0.164 HD
BRANCH  15  18
ATOM     18  C   UNL     1     -13.078  -4.515   7.826  1.00  0.00     0.171 C 
BRANCH  18  19
ATOM     19  N   UNL     1     -12.416  -4.689   6.534  1.00  0.00    -0.343 N 
ATOM     20  C   UNL     1     -13.108  -5.098   5.410  1.00  0.00     0.242 CG0
ATOM     21  O   UNL     1     -14.279  -5.463   5.473  1.00  0.00    -0.273 OA
ATOM     22  H   UNL     1     -11.421  -4.510   6.457  1.00  0.00     0.164 HD
ATOM     23  G   UNL     1     -12.259  -5.147   4.123  1.00  0.00     0.000 G0
ENDBRANCH  18  19
BRANCH  18  24
ATOM     24  C   UNL     1     -12.891  -5.746   8.722  1.00  0.00     0.038 C 
BRANCH  24  25
ATOM     25  C   UNL     1     -14.204  -6.435   9.153  1.00  0.00    -0.015 C 
ATOM     26  C   UNL     1     -14.559  -7.625   8.262  1.00  0.00     0.007 C 
ATOM     27  C   UNL     1     -15.348  -5.418   9.134  1.00  0.00     0.007 C 
ENDBRANCH  24  25
ENDBRANCH  18  24
ENDBRANCH  15  18
ENDBRANCH  13  14
BRANCH  13  28
ATOM     28  C   UNL     1     -12.655  -0.269   9.293  1.00  0.00     0.327 C 
ATOM     29  O   UNL     1     -12.293  -0.369  10.456  1.00  0.00    -0.250 OA
BRANCH  28  30
ATOM     30  O   UNL     1     -13.840   0.300   8.994  1.00  0.00    -0.480 OA
ATOM     31  H   UNL     1     -14.461  -0.076   9.652  1.00  0.00     0.296 HD
ENDBRANCH  28  30
ENDBRANCH  13  28
ENDBRANCH  11  13
ENDBRANCH   8  11
ENDBRANCH   6   7
BRANCH   6  32
ATOM     32  C   UNL     1      -8.621  -0.264   4.117  1.00  0.00     0.037 C 
BRANCH  32  33
ATOM     33  C   UNL     1      -8.999   1.200   4.385  1.00  0.00     0.026 C 
BRANCH  33  34
ATOM     34  C   UNL     1      -9.052   2.034   3.104  1.00  0.00     0.146 C 
BRANCH  34  35
ATOM     35  N   UNL     1      -7.699   2.442   2.753  1.00  0.00    -0.254 NA
ATOM     36  C   UNL     1      -7.217   2.068   1.626  1.00  0.00     0.185 C 
ATOM     37  N   UNL     1      -5.973   2.442   1.290  1.00  0.00    -0.370 N 
ATOM     38  N   UNL     1      -7.792   1.318   0.669  1.00  0.00    -0.370 N 
ATOM     39  H   UNL     1      -5.477   3.020   1.956  1.00  0.00     0.159 HD
ATOM     40  H   UNL     1      -5.593   2.340   0.365  1.00  0.00     0.159 HD
ATOM     41  H   UNL     1      -7.260   0.974  -0.114  1.00  0.00     0.159 HD
ATOM     42  H   UNL     1      -8.723   0.952   0.794  1.00  0.00     0.159 HD
ENDBRANCH  34  35
ENDBRANCH  33  34
ENDBRANCH  32  33
ENDBRANCH   6  32
ENDBRANCH   4   6
ENDBRANCH   1   2
BRANCH   1  43
ATOM     43  C   UNL     1      -3.668  -0.466   3.633  1.00  0.00     0.102 C 
ATOM     44  C   UNL     1      -4.389  -1.698   3.059  1.00  0.00     0.020 C 
BRANCH  43  45
ATOM     45  C   UNL     1      -2.576  -0.804   4.652  1.00  0.00     0.225 C 
ATOM     46  O   UNL     1      -2.743  -1.594   5.577  1.00  0.00    -0.275 OA
ATOM     47  N   UNL     1      -1.406  -0.091   4.524  1.00  0.00    -0.342 N 
ATOM     48  H   UNL     1      -1.230   0.434   3.680  1.00  0.00     0.164 HD
BRANCH  47  49
ATOM     49  C   UNL     1      -0.261  -0.334   5.407  1.00  0.00     0.192 C 
BRANCH  49  50
ATOM     50  C   UNL     1       0.695   0.861   5.351  1.00  0.00     0.047 C 
BRANCH  50  51
ATOM     51  C   UNL     1       0.518   1.804   6.549  1.00  0.00     0.103 C 
BRANCH  51  52
ATOM     52  C   UNL     1       1.574   1.567   7.626  1.00  0.00     0.226 C 
ATOM     53  O   UNL     1       2.295   0.569   7.565  1.00  0.00    -0.275 OA
BRANCH  52  54
ATOM     54  N   UNL     1       1.709   2.570   8.604  1.00  0.00    -0.311 N 
ATOM     55  C   UNL     1       1.170   3.919   8.382  1.00  0.00     0.153 C 
BRANCH  54  56
ATOM     56  C   UNL     1       2.355   2.321   9.826  1.00  0.00     0.102 C 
ATOM     57  C   UNL     1       1.730   2.081  10.990  1.00  0.00     0.043 C 
BRANCH  56  58
ATOM     58  C   UNL     1       3.862   2.257   9.907  1.00  0.00     0.268 C 
ATOM     59  O   UNL     1       4.488   1.206   9.923  1.00  0.00    -0.268 OA
ATOM     60  N   UNL     1       4.456   3.497   9.894  1.00  0.00    -0.339 N 
ATOM     61  H   UNL     1       3.866   4.320   9.890  1.00  0.00     0.164 HD
BRANCH  60  62
ATOM     62  C   UNL     1       5.908   3.664   9.902  1.00  0.00     0.168 CG0
ATOM     63  C   UNL     1       6.289   5.140   9.904  1.00  0.00     0.041 C 
ATOM     64  G   UNL     1       6.519   2.945   8.682  1.00  0.00     0.000 G0
ENDBRANCH  60  62
ENDBRANCH  56  58
ENDBRANCH  54  56
ENDBRANCH  52  54
ENDBRANCH  51  52
ENDBRANCH  50  51
ENDBRANCH  49  50
BRANCH  49  65
ATOM     65  C   UNL     1       0.498  -1.611   5.013  1.00  0.00     0.326 C 
ATOM     66  O   UNL     1       0.792  -1.940   3.872  1.00  0.00    -0.250 OA
BRANCH  65  67
ATOM     67  O   UNL     1       0.794  -2.433   6.044  1.00  0.00    -0.480 OA
ATOM     68  H   UNL     1       1.218  -3.204   5.611  1.00  0.00     0.296 HD
ENDBRANCH  65  67
ENDBRANCH  49  65
ENDBRANCH  47  49
ENDBRANCH  43  45
ENDBRANCH   1  43
BRANCH   1  69
ATOM     69  C   UNL     1      -4.338   1.243   5.540  1.00  0.00    -0.001 C 
ATOM     70  C   UNL     1      -3.577   2.324   5.787  1.00  0.00     0.001 C 
BRANCH  70  71
ATOM     71  C   UNL     1      -3.312   2.933   7.092  1.00  0.00    -0.055 C 
ATOM     72  C   UNL     1      -3.888   2.372   8.176  1.00  0.00    -0.018 C 
ATOM     73  C   UNL     1      -2.410   4.139   7.134  1.00  0.00     0.044 C 
BRANCH  72  74
ATOM     74  C   UNL     1      -3.792   2.781   9.639  1.00  0.00     0.038 C 
ATOM     75  C   UNL     1      -3.525   1.506  10.449  1.00  0.00     0.015 C 
BRANCH  74  76
ATOM     76  C   UNL     1      -5.090   3.545  10.032  1.00  0.00     0.128 C 
BRANCH  76  77
ATOM     77  O   UNL     1      -5.020   4.904   9.569  1.00  0.00    -0.381 OA
ATOM     78  C   UNL     1      -4.822   5.852  10.609  1.00  0.00     0.195 C 
ENDBRANCH  76  77
BRANCH  76  79
ATOM     79  C   UNL     1      -6.396   2.831   9.599  1.00  0.00     0.068 C 
BRANCH  79  80
ATOM     80  C   UNL     1      -7.263   2.229  10.678  1.00  0.00    -0.045 A 
ATOM     81  C   UNL     1      -7.014   0.941  11.170  1.00  0.00     0.004 A 
ATOM     82  C   UNL     1      -8.357   2.945  11.188  1.00  0.00     0.004 A 
ATOM     83  C   UNL     1      -7.830   0.385  12.158  1.00  0.00     0.000 A 
ATOM     84  C   UNL     1      -9.173   2.389  12.175  1.00  0.00     0.000 A 
ATOM     85  C   UNL     1      -8.908   1.110  12.661  1.00  0.00     0.000 A 
ENDBRANCH  79  80
ENDBRANCH  76  79
ENDBRANCH  74  76
ENDBRANCH  72  74
ENDBRANCH  70  71
ENDBRANCH   1  69
TORSDOF 17
ENDMDL
MODEL 19
REMARK VINA RESULT:    -6.237      4.361      7.669
REMARK INTER + INTRA:         -26.247
REMARK INTER:                 -19.335
REMARK INTRA:                  -6.912
REMARK UNBOUND:                -7.614
REMARK SMILES C=C1C(=O)N[C@H](C)C(=O)N[C@@H](CC(C)C)C(=O)N[C@@H](C(=O)O)[C@H](C)C(=O)N[C@@H](CCCN=C(N)N)C(=O)N[C@@H](/C=C/C(C)=C/[C@H](C)[C@H](Cc2ccccc2)OC)[C@H](C)C(=O)N[C@@H](C(=O)O)CCC(=O)N1C
REMARK SMILES IDX 39 1 38 2 37 3 36 4 28 6 27 7 25 8 26 9 23 11 24 12 19 13
REMARK SMILES IDX 18 14 16 15 17 16 11 18 10 19 8 20 9 21 12 24 13 25 14 26
REMARK SMILES IDX 15 27 20 28 21 29 22 30 29 32 30 33 31 34 32 35 33 36 34 37
REMARK SMILES IDX 35 38 57 43 58 44 59 45 60 46 61 47 62 49 66 50 67 51 68 52
REMARK SMILES IDX 69 53 70 54 71 55 2 56 1 57 3 58 4 59 5 60 6 62 7 63 63 65
REMARK SMILES IDX 64 66 65 67 40 69 41 70 42 71 44 72 43 73 45 74 46 75 47 76
REMARK SMILES IDX 55 77 56 78 48 79 49 80 50 81 54 82 51 83 53 84 52 85
REMARK H PARENT 38 5 27 10 18 17 10 22 22 31 34 39 34 40 35 41 35 42 61 48
REMARK H PARENT 5 61 65 68
REMARK Flexibility Score:  369.900
ROOT
ATOM      1  C   UNL     1      -0.439  -0.563  -5.389  1.00  0.00     0.117 C 
ENDROOT
BRANCH   1   2
ATOM      2  N   UNL     1      -1.319  -1.094  -4.347  1.00  0.00    -0.347 N 
ATOM      3  O   UNL     1      -0.549   0.187  -2.605  1.00  0.00    -0.273 OA
ATOM      4  C   UNL     1      -1.366  -0.610  -3.054  1.00  0.00     0.243 C 
ATOM      5  H   UNL     1      -1.974  -1.825  -4.579  1.00  0.00     0.164 HD
BRANCH   4   6
ATOM      6  C   UNL     1      -2.445  -1.289  -2.174  1.00  0.00     0.171 C 
BRANCH   6   7
ATOM      7  N   UNL     1      -3.772  -1.166  -2.799  1.00  0.00    -0.344 N 
ATOM      8  C   UNL     1      -4.456   0.030  -2.765  1.00  0.00     0.226 C 
ATOM      9  O   UNL     1      -4.015   1.027  -2.204  1.00  0.00    -0.275 OA
ATOM     10  H   UNL     1      -4.198  -1.985  -3.213  1.00  0.00     0.164 HD
BRANCH   8  11
ATOM     11  C   UNL     1      -5.784   0.012  -3.500  1.00  0.00     0.109 C 
ATOM     12  C   UNL     1      -5.798  -1.113  -4.534  1.00  0.00     0.021 C 
BRANCH  11  13
ATOM     13  C   UNL     1      -6.943  -0.027  -2.483  1.00  0.00     0.204 C 
BRANCH  13  14
ATOM     14  N   UNL     1      -6.632   0.725  -1.264  1.00  0.00    -0.340 N 
ATOM     15  C   UNL     1      -7.080   0.346  -0.017  1.00  0.00     0.243 C 
ATOM     16  O   UNL     1      -7.722  -0.685   0.169  1.00  0.00    -0.273 OA
ATOM     17  H   UNL     1      -6.236   1.663  -1.366  1.00  0.00     0.164 HD
BRANCH  15  18
ATOM     18  C   UNL     1      -6.806   1.400   1.085  1.00  0.00     0.171 C 
BRANCH  18  19
ATOM     19  N   UNL     1      -7.689   1.075   2.203  1.00  0.00    -0.343 N 
ATOM     20  C   UNL     1      -8.551   2.008   2.746  1.00  0.00     0.242 CG0
ATOM     21  O   UNL     1      -8.521   3.188   2.403  1.00  0.00    -0.273 OA
ATOM     22  H   UNL     1      -7.668   0.142   2.600  1.00  0.00     0.164 HD
ATOM     23  G   UNL     1      -9.460   1.460   3.866  1.00  0.00     0.000 G0
ENDBRANCH  18  19
BRANCH  18  24
ATOM     24  C   UNL     1      -5.332   1.371   1.507  1.00  0.00     0.038 C 
BRANCH  24  25
ATOM     25  C   UNL     1      -4.859   0.031   2.107  1.00  0.00    -0.015 C 
ATOM     26  C   UNL     1      -4.359   0.177   3.545  1.00  0.00     0.007 C 
ATOM     27  C   UNL     1      -3.749  -0.562   1.234  1.00  0.00     0.007 C 
ENDBRANCH  24  25
ENDBRANCH  18  24
ENDBRANCH  15  18
ENDBRANCH  13  14
BRANCH  13  28
ATOM     28  C   UNL     1      -8.254   0.534  -3.041  1.00  0.00     0.327 C 
ATOM     29  O   UNL     1      -8.368   1.317  -3.971  1.00  0.00    -0.250 OA
BRANCH  28  30
ATOM     30  O   UNL     1      -9.334   0.170  -2.320  1.00  0.00    -0.480 OA
ATOM     31  H   UNL     1      -9.596   0.987  -1.847  1.00  0.00     0.296 HD
ENDBRANCH  28  30
ENDBRANCH  13  28
ENDBRANCH  11  13
ENDBRANCH   8  11
ENDBRANCH   6   7
BRANCH   6  32
ATOM     32  C   UNL     1      -2.073  -2.762  -1.967  1.00  0.00     0.037 C 
BRANCH  32  33
ATOM     33  C   UNL     1      -0.779  -2.924  -1.157  1.00  0.00     0.026 C 
BRANCH  33  34
ATOM     34  C   UNL     1       0.220  -3.865  -1.832  1.00  0.00     0.146 C 
BRANCH  34  35
ATOM     35  N   UNL     1       0.888  -3.146  -2.908  1.00  0.00    -0.254 NA
ATOM     36  C   UNL     1       1.857  -2.362  -2.614  1.00  0.00     0.185 C 
ATOM     37  N   UNL     1       2.483  -1.699  -3.599  1.00  0.00    -0.370 N 
ATOM     38  N   UNL     1       2.380  -2.080  -1.408  1.00  0.00    -0.370 N 
ATOM     39  H   UNL     1       2.153  -1.867  -4.541  1.00  0.00     0.159 HD
ATOM     40  H   UNL     1       3.352  -1.208  -3.474  1.00  0.00     0.159 HD
ATOM     41  H   UNL     1       3.051  -1.339  -1.291  1.00  0.00     0.159 HD
ATOM     42  H   UNL     1       1.997  -2.496  -0.573  1.00  0.00     0.159 HD
ENDBRANCH  34  35
ENDBRANCH  33  34
ENDBRANCH  32  33
ENDBRANCH   6  32
ENDBRANCH   4   6
ENDBRANCH   1   2
BRANCH   1  43
ATOM     43  C   UNL     1      -1.037   0.777  -5.907  1.00  0.00     0.102 C 
ATOM     44  C   UNL     1      -1.571   0.694  -7.347  1.00  0.00     0.020 C 
BRANCH  43  45
ATOM     45  C   UNL     1      -0.069   1.940  -5.669  1.00  0.00     0.225 C 
ATOM     46  O   UNL     1      -0.343   2.909  -4.967  1.00  0.00    -0.275 OA
ATOM     47  N   UNL     1       1.111   1.882  -6.375  1.00  0.00    -0.342 N 
ATOM     48  H   UNL     1       1.384   1.018  -6.823  1.00  0.00     0.164 HD
BRANCH  47  49
ATOM     49  C   UNL     1       2.148   2.907  -6.221  1.00  0.00     0.192 C 
BRANCH  49  50
ATOM     50  C   UNL     1       2.187   3.791  -7.470  1.00  0.00     0.047 C 
BRANCH  50  51
ATOM     51  C   UNL     1       1.800   3.021  -8.740  1.00  0.00     0.103 C 
BRANCH  51  52
ATOM     52  C   UNL     1       2.729   3.342  -9.910  1.00  0.00     0.226 C 
ATOM     53  O   UNL     1       3.783   2.716 -10.041  1.00  0.00    -0.275 OA
BRANCH  52  54
ATOM     54  N   UNL     1       2.271   4.305 -10.828  1.00  0.00    -0.311 N 
ATOM     55  C   UNL     1       2.669   5.714 -10.707  1.00  0.00     0.153 C 
BRANCH  54  56
ATOM     56  C   UNL     1       1.425   3.957 -11.894  1.00  0.00     0.102 C 
ATOM     57  C   UNL     1       0.084   4.021 -11.863  1.00  0.00     0.043 C 
BRANCH  56  58
ATOM     58  C   UNL     1       1.994   3.510 -13.220  1.00  0.00     0.268 C 
ATOM     59  O   UNL     1       3.046   3.937 -13.676  1.00  0.00    -0.268 OA
ATOM     60  N   UNL     1       1.244   2.531 -13.827  1.00  0.00    -0.339 N 
ATOM     61  H   UNL     1       0.378   2.238 -13.389  1.00  0.00     0.164 HD
BRANCH  60  62
ATOM     62  C   UNL     1       1.646   1.911 -15.089  1.00  0.00     0.168 CG0
ATOM     63  C   UNL     1       2.326   0.569 -14.847  1.00  0.00     0.041 C 
ATOM     64  G   UNL     1       2.581   2.866 -15.858  1.00  0.00     0.000 G0
ENDBRANCH  60  62
ENDBRANCH  56  58
ENDBRANCH  54  56
ENDBRANCH  52  54
ENDBRANCH  51  52
ENDBRANCH  50  51
ENDBRANCH  49  50
BRANCH  49  65
ATOM     65  C   UNL     1       3.533   2.282  -5.996  1.00  0.00     0.326 C 
ATOM     66  O   UNL     1       4.495   2.399  -6.741  1.00  0.00    -0.250 OA
BRANCH  65  67
ATOM     67  O   UNL     1       3.629   1.502  -4.896  1.00  0.00    -0.480 OA
ATOM     68  H   UNL     1       2.698   1.403  -4.602  1.00  0.00     0.296 HD
ENDBRANCH  65  67
ENDBRANCH  49  65
ENDBRANCH  47  49
ENDBRANCH  43  45
ENDBRANCH   1  43
BRANCH   1  69
ATOM     69  C   UNL     1      -0.216  -1.695  -6.374  1.00  0.00    -0.001 C 
ATOM     70  C   UNL     1       0.875  -1.921  -7.126  1.00  0.00     0.001 C 
BRANCH  70  71
ATOM     71  C   UNL     1       1.087  -3.031  -8.058  1.00  0.00    -0.055 C 
ATOM     72  C   UNL     1       1.982  -3.980  -7.711  1.00  0.00    -0.018 C 
ATOM     73  C   UNL     1       0.286  -3.039  -9.334  1.00  0.00     0.044 C 
BRANCH  72  74
ATOM     74  C   UNL     1       2.401  -5.232  -8.469  1.00  0.00     0.038 C 
ATOM     75  C   UNL     1       1.936  -6.437  -7.642  1.00  0.00     0.015 C 
BRANCH  74  76
ATOM     76  C   UNL     1       3.935  -5.170  -8.729  1.00  0.00     0.128 C 
BRANCH  76  77
ATOM     77  O   UNL     1       4.619  -6.077  -7.847  1.00  0.00    -0.381 OA
ATOM     78  C   UNL     1       5.540  -5.438  -6.973  1.00  0.00     0.195 C 
ENDBRANCH  76  77
BRANCH  76  79
ATOM     79  C   UNL     1       4.330  -5.366 -10.214  1.00  0.00     0.068 C 
BRANCH  79  80
ATOM     80  C   UNL     1       3.626  -4.523 -11.250  1.00  0.00    -0.045 A 
ATOM     81  C   UNL     1       3.560  -3.129 -11.123  1.00  0.00     0.004 A 
ATOM     82  C   UNL     1       2.998  -5.130 -12.348  1.00  0.00     0.004 A 
ATOM     83  C   UNL     1       2.895  -2.357 -12.078  1.00  0.00     0.000 A 
ATOM     84  C   UNL     1       2.333  -4.357 -13.302  1.00  0.00     0.000 A 
ATOM     85  C   UNL     1       2.282  -2.971 -13.168  1.00  0.00     0.000 A 
ENDBRANCH  79  80
ENDBRANCH  76  79
ENDBRANCH  74  76
ENDBRANCH  72  74
ENDBRANCH  70  71
ENDBRANCH   1  69
TORSDOF 17
ENDMDL
MODEL 20
REMARK VINA RESULT:    -6.211      1.584      2.573
REMARK INTER + INTRA:         -26.170
REMARK INTER:                 -19.418
REMARK INTRA:                  -6.752
REMARK UNBOUND:                -7.614
REMARK SMILES C=C1C(=O)N[C@H](C)C(=O)N[C@@H](CC(C)C)C(=O)N[C@@H](C(=O)O)[C@H](C)C(=O)N[C@@H](CCCN=C(N)N)C(=O)N[C@@H](/C=C/C(C)=C/[C@H](C)[C@H](Cc2ccccc2)OC)[C@H](C)C(=O)N[C@@H](C(=O)O)CCC(=O)N1C
REMARK SMILES IDX 39 1 38 2 37 3 36 4 28 6 27 7 25 8 26 9 23 11 24 12 19 13
REMARK SMILES IDX 18 14 16 15 17 16 11 18 10 19 8 20 9 21 12 24 13 25 14 26
REMARK SMILES IDX 15 27 20 28 21 29 22 30 29 32 30 33 31 34 32 35 33 36 34 37
REMARK SMILES IDX 35 38 57 43 58 44 59 45 60 46 61 47 62 49 66 50 67 51 68 52
REMARK SMILES IDX 69 53 70 54 71 55 2 56 1 57 3 58 4 59 5 60 6 62 7 63 63 65
REMARK SMILES IDX 64 66 65 67 40 69 41 70 42 71 44 72 43 73 45 74 46 75 47 76
REMARK SMILES IDX 55 77 56 78 48 79 49 80 50 81 54 82 51 83 53 84 52 85
REMARK H PARENT 38 5 27 10 18 17 10 22 22 31 34 39 34 40 35 41 35 42 61 48
REMARK H PARENT 5 61 65 68
REMARK Flexibility Score:  369.900
ROOT
ATOM      1  C   UNL     1      -4.881  -1.637  -6.132  1.00  0.00     0.117 C 
ENDROOT
BRANCH   1   2
ATOM      2  N   UNL     1      -5.307  -1.286  -4.777  1.00  0.00    -0.347 N 
ATOM      3  O   UNL     1      -5.639  -3.418  -3.991  1.00  0.00    -0.273 OA
ATOM      4  C   UNL     1      -5.565  -2.211  -3.783  1.00  0.00     0.243 C 
ATOM      5  H   UNL     1      -5.376  -0.314  -4.516  1.00  0.00     0.164 HD
BRANCH   4   6
ATOM      6  C   UNL     1      -5.915  -1.574  -2.414  1.00  0.00     0.171 C 
BRANCH   6   7
ATOM      7  N   UNL     1      -4.941  -1.986  -1.391  1.00  0.00    -0.344 N 
ATOM      8  C   UNL     1      -3.588  -1.920  -1.642  1.00  0.00     0.226 C 
ATOM      9  O   UNL     1      -3.133  -1.544  -2.715  1.00  0.00    -0.275 OA
ATOM     10  H   UNL     1      -5.280  -2.366  -0.516  1.00  0.00     0.164 HD
BRANCH   8  11
ATOM     11  C   UNL     1      -2.714  -2.328  -0.469  1.00  0.00     0.109 C 
ATOM     12  C   UNL     1      -1.645  -3.319  -0.929  1.00  0.00     0.021 C 
BRANCH  11  13
ATOM     13  C   UNL     1      -2.170  -1.070   0.238  1.00  0.00     0.204 C 
BRANCH  13  14
ATOM     14  N   UNL     1      -1.936  -1.299   1.668  1.00  0.00    -0.340 N 
ATOM     15  C   UNL     1      -2.834  -0.921   2.643  1.00  0.00     0.243 C 
ATOM     16  O   UNL     1      -3.925  -0.419   2.377  1.00  0.00    -0.273 OA
ATOM     17  H   UNL     1      -0.994  -1.569   1.963  1.00  0.00     0.164 HD
BRANCH  15  18
ATOM     18  C   UNL     1      -2.284  -1.073   4.082  1.00  0.00     0.171 C 
BRANCH  18  19
ATOM     19  N   UNL     1      -3.262  -1.868   4.822  1.00  0.00    -0.343 N 
ATOM     20  C   UNL     1      -3.559  -1.610   6.146  1.00  0.00     0.242 CG0
ATOM     21  O   UNL     1      -2.922  -0.788   6.800  1.00  0.00    -0.273 OA
ATOM     22  H   UNL     1      -3.732  -2.636   4.357  1.00  0.00     0.164 HD
ATOM     23  G   UNL     1      -4.671  -2.503   6.734  1.00  0.00     0.000 G0
ENDBRANCH  18  19
BRANCH  18  24
ATOM     24  C   UNL     1      -0.906  -1.746   4.067  1.00  0.00     0.038 C 
BRANCH  24  25
ATOM     25  C   UNL     1       0.064  -1.253   5.162  1.00  0.00    -0.015 C 
ATOM     26  C   UNL     1       1.079  -0.241   4.631  1.00  0.00     0.007 C 
ATOM     27  C   UNL     1       0.799  -2.448   5.774  1.00  0.00     0.007 C 
ENDBRANCH  24  25
ENDBRANCH  18  24
ENDBRANCH  15  18
ENDBRANCH  13  14
BRANCH  13  28
ATOM     28  C   UNL     1      -0.855  -0.561  -0.361  1.00  0.00     0.327 C 
ATOM     29  O   UNL     1       0.255  -0.668   0.137  1.00  0.00    -0.250 OA
BRANCH  28  30
ATOM     30  O   UNL     1      -1.031   0.154  -1.491  1.00  0.00    -0.480 OA
ATOM     31  H   UNL     1      -1.804  -0.265  -1.923  1.00  0.00     0.296 HD
ENDBRANCH  28  30
ENDBRANCH  13  28
ENDBRANCH  11  13
ENDBRANCH   8  11
ENDBRANCH   6   7
BRANCH   6  32
ATOM     32  C   UNL     1      -5.942  -0.049  -2.561  1.00  0.00     0.037 C 
BRANCH  32  33
ATOM     33  C   UNL     1      -6.059   0.662  -1.206  1.00  0.00     0.026 C 
BRANCH  33  34
ATOM     34  C   UNL     1      -7.264   0.182  -0.395  1.00  0.00     0.146 C 
BRANCH  34  35
ATOM     35  N   UNL     1      -6.814  -0.193   0.938  1.00  0.00    -0.254 NA
ATOM     36  C   UNL     1      -7.344  -1.215   1.501  1.00  0.00     0.185 C 
ATOM     37  N   UNL     1      -6.933  -1.572   2.728  1.00  0.00    -0.370 N 
ATOM     38  N   UNL     1      -8.302  -2.035   1.033  1.00  0.00    -0.370 N 
ATOM     39  H   UNL     1      -6.204  -1.008   3.145  1.00  0.00     0.159 HD
ATOM     40  H   UNL     1      -7.170  -2.449   3.160  1.00  0.00     0.159 HD
ATOM     41  H   UNL     1      -8.735  -2.722   1.628  1.00  0.00     0.159 HD
ATOM     42  H   UNL     1      -8.715  -1.876   0.128  1.00  0.00     0.159 HD
ENDBRANCH  34  35
ENDBRANCH  33  34
ENDBRANCH  32  33
ENDBRANCH   6  32
ENDBRANCH   4   6
ENDBRANCH   1   2
BRANCH   1  43
ATOM     43  C   UNL     1      -3.818  -0.602  -6.600  1.00  0.00     0.102 C 
ATOM     44  C   UNL     1      -2.371  -1.101  -6.450  1.00  0.00     0.020 C 
BRANCH  43  45
ATOM     45  C   UNL     1      -4.071   0.770  -5.969  1.00  0.00     0.225 C 
ATOM     46  O   UNL     1      -5.168   1.322  -5.979  1.00  0.00    -0.275 OA
ATOM     47  N   UNL     1      -2.959   1.403  -5.462  1.00  0.00    -0.342 N 
ATOM     48  H   UNL     1      -2.105   0.880  -5.325  1.00  0.00     0.164 HD
BRANCH  47  49
ATOM     49  C   UNL     1      -3.055   2.705  -4.797  1.00  0.00     0.192 C 
BRANCH  49  50
ATOM     50  C   UNL     1      -1.721   3.446  -4.920  1.00  0.00     0.047 C 
BRANCH  50  51
ATOM     51  C   UNL     1      -0.624   2.570  -5.542  1.00  0.00     0.103 C 
BRANCH  51  52
ATOM     52  C   UNL     1      -0.376   2.918  -7.008  1.00  0.00     0.226 C 
ATOM     53  O   UNL     1      -1.294   2.813  -7.824  1.00  0.00    -0.275 OA
BRANCH  52  54
ATOM     54  N   UNL     1       0.899   3.420  -7.326  1.00  0.00    -0.311 N 
ATOM     55  C   UNL     1       2.115   2.785  -6.799  1.00  0.00     0.153 C 
BRANCH  54  56
ATOM     56  C   UNL     1       1.059   4.538  -8.161  1.00  0.00     0.102 C 
ATOM     57  C   UNL     1       1.171   5.807  -7.733  1.00  0.00     0.043 C 
BRANCH  56  58
ATOM     58  C   UNL     1       1.165   4.379  -9.659  1.00  0.00     0.268 C 
ATOM     59  O   UNL     1       0.190   4.302 -10.395  1.00  0.00    -0.268 OA
ATOM     60  N   UNL     1       2.462   4.394 -10.114  1.00  0.00    -0.339 N 
ATOM     61  H   UNL     1       3.214   4.450  -9.438  1.00  0.00     0.164 HD
BRANCH  60  62
ATOM     62  C   UNL     1       2.789   4.316 -11.537  1.00  0.00     0.168 CG0
ATOM     63  C   UNL     1       3.787   3.197 -11.808  1.00  0.00     0.041 C 
ATOM     64  G   UNL     1       3.348   5.673 -12.014  1.00  0.00     0.000 G0
ENDBRANCH  60  62
ENDBRANCH  56  58
ENDBRANCH  54  56
ENDBRANCH  52  54
ENDBRANCH  51  52
ENDBRANCH  50  51
ENDBRANCH  49  50
BRANCH  49  65
ATOM     65  C   UNL     1      -3.420   2.557  -3.311  1.00  0.00     0.326 C 
ATOM     66  O   UNL     1      -2.940   1.739  -2.540  1.00  0.00    -0.250 OA
BRANCH  65  67
ATOM     67  O   UNL     1      -4.397   3.388  -2.885  1.00  0.00    -0.480 OA
ATOM     68  H   UNL     1      -5.185   2.805  -2.823  1.00  0.00     0.296 HD
ENDBRANCH  65  67
ENDBRANCH  49  65
ENDBRANCH  47  49
ENDBRANCH  43  45
ENDBRANCH   1  43
BRANCH   1  69
ATOM     69  C   UNL     1      -6.151  -1.804  -6.946  1.00  0.00    -0.001 C 
ATOM     70  C   UNL     1      -6.275  -2.365  -8.161  1.00  0.00     0.001 C 
BRANCH  70  71
ATOM     71  C   UNL     1      -7.510  -2.539  -8.928  1.00  0.00    -0.055 C 
ATOM     72  C   UNL     1      -8.034  -3.781  -9.001  1.00  0.00    -0.018 C 
ATOM     73  C   UNL     1      -8.113  -1.320  -9.575  1.00  0.00     0.044 C 
BRANCH  72  74
ATOM     74  C   UNL     1      -9.292  -4.256  -9.714  1.00  0.00     0.038 C 
ATOM     75  C   UNL     1      -9.318  -3.574 -11.087  1.00  0.00     0.015 C 
BRANCH  74  76
ATOM     76  C   UNL     1     -10.525  -3.952  -8.811  1.00  0.00     0.128 C 
BRANCH  76  77
ATOM     77  O   UNL     1     -11.674  -4.670  -9.291  1.00  0.00    -0.381 OA
ATOM     78  C   UNL     1     -11.791  -5.983  -8.757  1.00  0.00     0.195 C 
ENDBRANCH  76  77
BRANCH  76  79
ATOM     79  C   UNL     1     -10.267  -4.174  -7.299  1.00  0.00     0.068 C 
BRANCH  79  80
ATOM     80  C   UNL     1      -9.990  -2.962  -6.444  1.00  0.00    -0.045 A 
ATOM     81  C   UNL     1     -10.352  -1.678  -6.872  1.00  0.00     0.004 A 
ATOM     82  C   UNL     1      -9.335  -3.101  -5.210  1.00  0.00     0.004 A 
ATOM     83  C   UNL     1     -10.080  -0.560  -6.081  1.00  0.00     0.000 A 
ATOM     84  C   UNL     1      -9.063  -1.982  -4.420  1.00  0.00     0.000 A 
ATOM     85  C   UNL     1      -9.436  -0.713  -4.855  1.00  0.00     0.000 A 
ENDBRANCH  79  80
ENDBRANCH  76  79
ENDBRANCH  74  76
ENDBRANCH  72  74
ENDBRANCH  70  71
ENDBRANCH   1  69
TORSDOF 17
ENDMDL
MODEL 21
REMARK VINA RESULT:    -6.203      6.331     14.356
REMARK INTER + INTRA:         -26.146
REMARK INTER:                 -18.562
REMARK INTRA:                  -7.584
REMARK UNBOUND:                -7.614
REMARK SMILES C=C1C(=O)N[C@H](C)C(=O)N[C@@H](CC(C)C)C(=O)N[C@@H](C(=O)O)[C@H](C)C(=O)N[C@@H](CCCN=C(N)N)C(=O)N[C@@H](/C=C/C(C)=C/[C@H](C)[C@H](Cc2ccccc2)OC)[C@H](C)C(=O)N[C@@H](C(=O)O)CCC(=O)N1C
REMARK SMILES IDX 39 1 38 2 37 3 36 4 28 6 27 7 25 8 26 9 23 11 24 12 19 13
REMARK SMILES IDX 18 14 16 15 17 16 11 18 10 19 8 20 9 21 12 24 13 25 14 26
REMARK SMILES IDX 15 27 20 28 21 29 22 30 29 32 30 33 31 34 32 35 33 36 34 37
REMARK SMILES IDX 35 38 57 43 58 44 59 45 60 46 61 47 62 49 66 50 67 51 68 52
REMARK SMILES IDX 69 53 70 54 71 55 2 56 1 57 3 58 4 59 5 60 6 62 7 63 63 65
REMARK SMILES IDX 64 66 65 67 40 69 41 70 42 71 44 72 43 73 45 74 46 75 47 76
REMARK SMILES IDX 55 77 56 78 48 79 49 80 50 81 54 82 51 83 53 84 52 85
REMARK H PARENT 38 5 27 10 18 17 10 22 22 31 34 39 34 40 35 41 35 42 61 48
REMARK H PARENT 5 61 65 68
REMARK Flexibility Score:  369.900
ROOT
ATOM      1  C   UNL     1      -8.762  -4.354   0.562  1.00  0.00     0.117 C 
ENDROOT
BRANCH   1   2
ATOM      2  N   UNL     1      -7.565  -3.722   0.007  1.00  0.00    -0.347 N 
ATOM      3  O   UNL     1      -6.012  -5.168   0.882  1.00  0.00    -0.273 OA
ATOM      4  C   UNL     1      -6.289  -4.234   0.136  1.00  0.00     0.243 C 
ATOM      5  H   UNL     1      -7.660  -2.886  -0.550  1.00  0.00     0.164 HD
BRANCH   4   6
ATOM      6  C   UNL     1      -5.209  -3.418  -0.619  1.00  0.00     0.171 C 
BRANCH   6   7
ATOM      7  N   UNL     1      -5.515  -1.980  -0.557  1.00  0.00    -0.344 N 
ATOM      8  C   UNL     1      -5.290  -1.166  -1.646  1.00  0.00     0.226 C 
ATOM      9  O   UNL     1      -4.813  -1.583  -2.695  1.00  0.00    -0.275 OA
ATOM     10  H   UNL     1      -5.848  -1.586   0.314  1.00  0.00     0.164 HD
BRANCH   8  11
ATOM     11  C   UNL     1      -5.708   0.280  -1.444  1.00  0.00     0.109 C 
ATOM     12  C   UNL     1      -4.542   1.214  -1.770  1.00  0.00     0.021 C 
BRANCH  11  13
ATOM     13  C   UNL     1      -7.005   0.563  -2.227  1.00  0.00     0.204 C 
BRANCH  13  14
ATOM     14  N   UNL     1      -6.859   0.274  -3.657  1.00  0.00    -0.340 N 
ATOM     15  C   UNL     1      -7.097   1.212  -4.639  1.00  0.00     0.243 C 
ATOM     16  O   UNL     1      -7.390   2.378  -4.380  1.00  0.00    -0.273 OA
ATOM     17  H   UNL     1      -6.769  -0.705  -3.943  1.00  0.00     0.164 HD
BRANCH  15  18
ATOM     18  C   UNL     1      -7.084   0.625  -6.072  1.00  0.00     0.171 C 
BRANCH  18  19
ATOM     19  N   UNL     1      -5.684   0.374  -6.408  1.00  0.00    -0.343 N 
ATOM     20  C   UNL     1      -4.880   1.352  -6.961  1.00  0.00     0.242 CG0
ATOM     21  O   UNL     1      -5.338   2.435  -7.319  1.00  0.00    -0.273 OA
ATOM     22  H   UNL     1      -5.289  -0.544  -6.238  1.00  0.00     0.164 HD
ATOM     23  G   UNL     1      -3.413   0.925  -7.174  1.00  0.00     0.000 G0
ENDBRANCH  18  19
BRANCH  18  24
ATOM     24  C   UNL     1      -7.918  -0.660  -6.138  1.00  0.00     0.038 C 
BRANCH  24  25
ATOM     25  C   UNL     1      -9.445  -0.438  -6.132  1.00  0.00    -0.015 C 
ATOM     26  C   UNL     1     -10.132  -1.127  -4.953  1.00  0.00     0.007 C 
ATOM     27  C   UNL     1     -10.044  -0.947  -7.446  1.00  0.00     0.007 C 
ENDBRANCH  24  25
ENDBRANCH  18  24
ENDBRANCH  15  18
ENDBRANCH  13  14
BRANCH  13  28
ATOM     28  C   UNL     1      -8.204  -0.243  -1.721  1.00  0.00     0.327 C 
ATOM     29  O   UNL     1      -8.387  -1.441  -1.876  1.00  0.00    -0.250 OA
BRANCH  28  30
ATOM     30  O   UNL     1      -9.157   0.525  -1.155  1.00  0.00    -0.480 OA
ATOM     31  H   UNL     1      -9.311   0.113  -0.279  1.00  0.00     0.296 HD
ENDBRANCH  28  30
ENDBRANCH  13  28
ENDBRANCH  11  13
ENDBRANCH   8  11
ENDBRANCH   6   7
BRANCH   6  32
ATOM     32  C   UNL     1      -3.836  -3.712  -0.006  1.00  0.00     0.037 C 
BRANCH  32  33
ATOM     33  C   UNL     1      -2.764  -3.955  -1.078  1.00  0.00     0.026 C 
BRANCH  33  34
ATOM     34  C   UNL     1      -1.517  -3.096  -0.864  1.00  0.00     0.146 C 
BRANCH  34  35
ATOM     35  N   UNL     1      -1.373  -2.187  -1.992  1.00  0.00    -0.254 NA
ATOM     36  C   UNL     1      -1.394  -0.925  -1.772  1.00  0.00     0.185 C 
ATOM     37  N   UNL     1      -1.258  -0.079  -2.804  1.00  0.00    -0.370 N 
ATOM     38  N   UNL     1      -1.540  -0.274  -0.604  1.00  0.00    -0.370 N 
ATOM     39  H   UNL     1      -1.133  -0.494  -3.718  1.00  0.00     0.159 HD
ATOM     40  H   UNL     1      -1.091   0.907  -2.696  1.00  0.00     0.159 HD
ATOM     41  H   UNL     1      -1.681   0.722  -0.577  1.00  0.00     0.159 HD
ATOM     42  H   UNL     1      -1.669  -0.786   0.255  1.00  0.00     0.159 HD
ENDBRANCH  34  35
ENDBRANCH  33  34
ENDBRANCH  32  33
ENDBRANCH   6  32
ENDBRANCH   4   6
ENDBRANCH   1   2
BRANCH   1  43
ATOM     43  C   UNL     1      -9.626  -4.897  -0.613  1.00  0.00     0.102 C 
ATOM     44  C   UNL     1     -10.976  -4.175  -0.764  1.00  0.00     0.020 C 
BRANCH  43  45
ATOM     45  C   UNL     1      -9.740  -6.423  -0.553  1.00  0.00     0.225 C 
ATOM     46  O   UNL     1      -9.304  -7.163  -1.430  1.00  0.00    -0.275 OA
ATOM     47  N   UNL     1     -10.453  -6.922   0.513  1.00  0.00    -0.342 N 
ATOM     48  H   UNL     1     -10.670  -6.320   1.295  1.00  0.00     0.164 HD
BRANCH  47  49
ATOM     49  C   UNL     1     -10.614  -8.364   0.720  1.00  0.00     0.192 C 
BRANCH  49  50
ATOM     50  C   UNL     1     -12.099  -8.730   0.663  1.00  0.00     0.047 C 
BRANCH  50  51
ATOM     51  C   UNL     1     -13.006  -7.524   0.944  1.00  0.00     0.103 C 
BRANCH  51  52
ATOM     52  C   UNL     1     -13.882  -7.740   2.176  1.00  0.00     0.226 C 
ATOM     53  O   UNL     1     -14.571  -8.758   2.264  1.00  0.00    -0.275 OA
BRANCH  52  54
ATOM     54  N   UNL     1     -13.786  -6.771   3.192  1.00  0.00    -0.311 N 
ATOM     55  C   UNL     1     -12.487  -6.195   3.566  1.00  0.00     0.153 C 
BRANCH  54  56
ATOM     56  C   UNL     1     -14.923  -6.315   3.879  1.00  0.00     0.102 C 
ATOM     57  C   UNL     1     -15.715  -5.310   3.472  1.00  0.00     0.043 C 
BRANCH  56  58
ATOM     58  C   UNL     1     -15.376  -6.982   5.156  1.00  0.00     0.268 C 
ATOM     59  O   UNL     1     -16.076  -7.986   5.175  1.00  0.00    -0.268 OA
ATOM     60  N   UNL     1     -14.868  -6.388   6.286  1.00  0.00    -0.339 N 
ATOM     61  H   UNL     1     -14.304  -5.552   6.186  1.00  0.00     0.164 HD
BRANCH  60  62
ATOM     62  C   UNL     1     -15.130  -6.911   7.627  1.00  0.00     0.168 CG0
ATOM     63  C   UNL     1     -13.834  -7.310   8.321  1.00  0.00     0.041 C 
ATOM     64  G   UNL     1     -16.092  -8.113   7.533  1.00  0.00     0.000 G0
ENDBRANCH  60  62
ENDBRANCH  56  58
ENDBRANCH  54  56
ENDBRANCH  52  54
ENDBRANCH  51  52
ENDBRANCH  50  51
ENDBRANCH  49  50
BRANCH  49  65
ATOM     65  C   UNL     1     -10.030  -8.812   2.069  1.00  0.00     0.326 C 
ATOM     66  O   UNL     1     -10.113  -9.937   2.541  1.00  0.00    -0.250 OA
BRANCH  65  67
ATOM     67  O   UNL     1      -9.433  -7.830   2.779  1.00  0.00    -0.480 OA
ATOM     68  H   UNL     1      -8.793  -7.442   2.145  1.00  0.00     0.296 HD
ENDBRANCH  65  67
ENDBRANCH  49  65
ENDBRANCH  47  49
ENDBRANCH  43  45
ENDBRANCH   1  43
BRANCH   1  69
ATOM     69  C   UNL     1      -9.373  -3.342   1.514  1.00  0.00    -0.001 C 
ATOM     70  C   UNL     1      -9.267  -2.003   1.462  1.00  0.00     0.001 C 
BRANCH  70  71
ATOM     71  C   UNL     1      -9.879  -1.036   2.375  1.00  0.00    -0.055 C 
ATOM     72  C   UNL     1      -9.144   0.037   2.738  1.00  0.00    -0.018 C 
ATOM     73  C   UNL     1     -11.287  -1.301   2.839  1.00  0.00     0.044 C 
BRANCH  72  74
ATOM     74  C   UNL     1      -9.514   1.191   3.658  1.00  0.00     0.038 C 
ATOM     75  C   UNL     1      -9.700   2.432   2.776  1.00  0.00     0.015 C 
BRANCH  74  76
ATOM     76  C   UNL     1      -8.417   1.329   4.755  1.00  0.00     0.128 C 
BRANCH  76  77
ATOM     77  O   UNL     1      -8.099   0.035   5.296  1.00  0.00    -0.381 OA
ATOM     78  C   UNL     1      -8.830  -0.287   6.472  1.00  0.00     0.195 C 
ENDBRANCH  76  77
BRANCH  76  79
ATOM     79  C   UNL     1      -7.161   2.111   4.295  1.00  0.00     0.068 C 
BRANCH  79  80
ATOM     80  C   UNL     1      -5.943   1.317   3.889  1.00  0.00    -0.045 A 
ATOM     81  C   UNL     1      -5.765   0.894   2.565  1.00  0.00     0.004 A 
ATOM     82  C   UNL     1      -4.978   0.965   4.845  1.00  0.00     0.004 A 
ATOM     83  C   UNL     1      -4.642   0.148   2.201  1.00  0.00     0.000 A 
ATOM     84  C   UNL     1      -3.856   0.218   4.479  1.00  0.00     0.000 A 
ATOM     85  C   UNL     1      -3.687  -0.189   3.158  1.00  0.00     0.000 A 
ENDBRANCH  79  80
ENDBRANCH  76  79
ENDBRANCH  74  76
ENDBRANCH  72  74
ENDBRANCH  70  71
ENDBRANCH   1  69
TORSDOF 17
ENDMDL
MODEL 22
REMARK VINA RESULT:    -6.202      3.921      8.415
REMARK INTER + INTRA:         -26.142
REMARK INTER:                 -18.112
REMARK INTRA:                  -8.030
REMARK UNBOUND:                -7.614
REMARK SMILES C=C1C(=O)N[C@H](C)C(=O)N[C@@H](CC(C)C)C(=O)N[C@@H](C(=O)O)[C@H](C)C(=O)N[C@@H](CCCN=C(N)N)C(=O)N[C@@H](/C=C/C(C)=C/[C@H](C)[C@H](Cc2ccccc2)OC)[C@H](C)C(=O)N[C@@H](C(=O)O)CCC(=O)N1C
REMARK SMILES IDX 39 1 38 2 37 3 36 4 28 6 27 7 25 8 26 9 23 11 24 12 19 13
REMARK SMILES IDX 18 14 16 15 17 16 11 18 10 19 8 20 9 21 12 24 13 25 14 26
REMARK SMILES IDX 15 27 20 28 21 29 22 30 29 32 30 33 31 34 32 35 33 36 34 37
REMARK SMILES IDX 35 38 57 43 58 44 59 45 60 46 61 47 62 49 66 50 67 51 68 52
REMARK SMILES IDX 69 53 70 54 71 55 2 56 1 57 3 58 4 59 5 60 6 62 7 63 63 65
REMARK SMILES IDX 64 66 65 67 40 69 41 70 42 71 44 72 43 73 45 74 46 75 47 76
REMARK SMILES IDX 55 77 56 78 48 79 49 80 50 81 54 82 51 83 53 84 52 85
REMARK H PARENT 38 5 27 10 18 17 10 22 22 31 34 39 34 40 35 41 35 42 61 48
REMARK H PARENT 5 61 65 68
REMARK Flexibility Score:  369.900
ROOT
ATOM      1  C   UNL     1      -3.885  -3.028  -2.335  1.00  0.00     0.117 C 
ENDROOT
BRANCH   1   2
ATOM      2  N   UNL     1      -3.092  -2.057  -1.580  1.00  0.00    -0.347 N 
ATOM      3  O   UNL     1      -1.561  -3.523  -0.697  1.00  0.00    -0.273 OA
ATOM      4  C   UNL     1      -1.935  -2.371  -0.893  1.00  0.00     0.243 C 
ATOM      5  H   UNL     1      -3.361  -1.085  -1.589  1.00  0.00     0.164 HD
BRANCH   4   6
ATOM      6  C   UNL     1      -1.240  -1.144  -0.250  1.00  0.00     0.171 C 
BRANCH   6   7
ATOM      7  N   UNL     1      -0.580  -1.528   1.009  1.00  0.00    -0.344 N 
ATOM      8  C   UNL     1      -1.234  -1.394   2.214  1.00  0.00     0.226 C 
ATOM      9  O   UNL     1      -2.368  -0.937   2.303  1.00  0.00    -0.275 OA
ATOM     10  H   UNL     1       0.381  -1.846   0.982  1.00  0.00     0.164 HD
BRANCH   8  11
ATOM     11  C   UNL     1      -0.442  -1.883   3.414  1.00  0.00     0.109 C 
ATOM     12  C   UNL     1       0.811  -2.626   2.949  1.00  0.00     0.021 C 
BRANCH  11  13
ATOM     13  C   UNL     1      -0.179  -0.710   4.379  1.00  0.00     0.204 C 
BRANCH  13  14
ATOM     14  N   UNL     1      -1.421  -0.058   4.806  1.00  0.00    -0.340 N 
ATOM     15  C   UNL     1      -1.456   1.219   5.321  1.00  0.00     0.243 C 
ATOM     16  O   UNL     1      -0.454   1.927   5.403  1.00  0.00    -0.273 OA
ATOM     17  H   UNL     1      -2.258  -0.638   4.906  1.00  0.00     0.164 HD
BRANCH  15  18
ATOM     18  C   UNL     1      -2.839   1.617   5.895  1.00  0.00     0.171 C 
BRANCH  18  19
ATOM     19  N   UNL     1      -2.787   3.055   6.153  1.00  0.00    -0.343 N 
ATOM     20  C   UNL     1      -2.986   3.575   7.417  1.00  0.00     0.242 CG0
ATOM     21  O   UNL     1      -3.346   2.868   8.355  1.00  0.00    -0.273 OA
ATOM     22  H   UNL     1      -2.606   3.692   5.386  1.00  0.00     0.164 HD
ATOM     23  G   UNL     1      -2.815   5.106   7.509  1.00  0.00     0.000 G0
ENDBRANCH  18  19
BRANCH  18  24
ATOM     24  C   UNL     1      -3.957   1.263   4.906  1.00  0.00     0.038 C 
BRANCH  24  25
ATOM     25  C   UNL     1      -5.317   0.941   5.560  1.00  0.00    -0.015 C 
ATOM     26  C   UNL     1      -6.176   2.189   5.770  1.00  0.00     0.007 C 
ATOM     27  C   UNL     1      -5.090   0.241   6.903  1.00  0.00     0.007 C 
ENDBRANCH  24  25
ENDBRANCH  18  24
ENDBRANCH  15  18
ENDBRANCH  13  14
BRANCH  13  28
ATOM     28  C   UNL     1       0.574  -1.128   5.646  1.00  0.00     0.327 C 
ATOM     29  O   UNL     1       0.435  -2.177   6.256  1.00  0.00    -0.250 OA
BRANCH  28  30
ATOM     30  O   UNL     1       1.367  -0.153   6.135  1.00  0.00    -0.480 OA
ATOM     31  H   UNL     1       1.309   0.562   5.468  1.00  0.00     0.296 HD
ENDBRANCH  28  30
ENDBRANCH  13  28
ENDBRANCH  11  13
ENDBRANCH   8  11
ENDBRANCH   6   7
BRANCH   6  32
ATOM     32  C   UNL     1      -0.228  -0.562  -1.243  1.00  0.00     0.037 C 
BRANCH  32  33
ATOM     33  C   UNL     1       1.200  -1.057  -0.972  1.00  0.00     0.026 C 
BRANCH  33  34
ATOM     34  C   UNL     1       1.846  -1.685  -2.208  1.00  0.00     0.146 C 
BRANCH  34  35
ATOM     35  N   UNL     1       2.682  -0.686  -2.859  1.00  0.00    -0.254 NA
ATOM     36  C   UNL     1       2.285  -0.180  -3.967  1.00  0.00     0.185 C 
ATOM     37  N   UNL     1       3.046   0.745  -4.573  1.00  0.00    -0.370 N 
ATOM     38  N   UNL     1       1.162  -0.440  -4.660  1.00  0.00    -0.370 N 
ATOM     39  H   UNL     1       3.906   1.002  -4.106  1.00  0.00     0.159 HD
ATOM     40  H   UNL     1       2.728   1.309  -5.342  1.00  0.00     0.159 HD
ATOM     41  H   UNL     1       1.029  -0.078  -5.590  1.00  0.00     0.159 HD
ATOM     42  H   UNL     1       0.503  -1.127  -4.330  1.00  0.00     0.159 HD
ENDBRANCH  34  35
ENDBRANCH  33  34
ENDBRANCH  32  33
ENDBRANCH   6  32
ENDBRANCH   4   6
ENDBRANCH   1   2
BRANCH   1  43
ATOM     43  C   UNL     1      -4.444  -2.328  -3.607  1.00  0.00     0.102 C 
ATOM     44  C   UNL     1      -3.622  -2.614  -4.875  1.00  0.00     0.020 C 
BRANCH  43  45
ATOM     45  C   UNL     1      -4.693  -0.839  -3.351  1.00  0.00     0.225 C 
ATOM     46  O   UNL     1      -5.421  -0.425  -2.453  1.00  0.00    -0.275 OA
ATOM     47  N   UNL     1      -4.118   0.022  -4.257  1.00  0.00    -0.342 N 
ATOM     48  H   UNL     1      -3.407  -0.318  -4.889  1.00  0.00     0.164 HD
BRANCH  47  49
ATOM     49  C   UNL     1      -4.241   1.476  -4.118  1.00  0.00     0.192 C 
BRANCH  49  50
ATOM     50  C   UNL     1      -4.370   2.117  -5.502  1.00  0.00     0.047 C 
BRANCH  50  51
ATOM     51  C   UNL     1      -5.739   1.849  -6.142  1.00  0.00     0.103 C 
BRANCH  51  52
ATOM     52  C   UNL     1      -5.860   0.415  -6.656  1.00  0.00     0.226 C 
ATOM     53  O   UNL     1      -4.959  -0.064  -7.347  1.00  0.00    -0.275 OA
BRANCH  52  54
ATOM     54  N   UNL     1      -6.990  -0.309  -6.232  1.00  0.00    -0.311 N 
ATOM     55  C   UNL     1      -7.842   0.188  -5.143  1.00  0.00     0.153 C 
BRANCH  54  56
ATOM     56  C   UNL     1      -7.348  -1.526  -6.835  1.00  0.00     0.102 C 
ATOM     57  C   UNL     1      -7.121  -2.740  -6.308  1.00  0.00     0.043 C 
BRANCH  56  58
ATOM     58  C   UNL     1      -8.086  -1.551  -8.153  1.00  0.00     0.268 C 
ATOM     59  O   UNL     1      -8.578  -0.554  -8.663  1.00  0.00    -0.268 OA
ATOM     60  N   UNL     1      -8.089  -2.790  -8.747  1.00  0.00    -0.339 N 
ATOM     61  H   UNL     1      -7.668  -3.568  -8.254  1.00  0.00     0.164 HD
BRANCH  60  62
ATOM     62  C   UNL     1      -8.693  -3.024 -10.058  1.00  0.00     0.168 CG0
ATOM     63  C   UNL     1     -10.079  -3.642  -9.919  1.00  0.00     0.041 C 
ATOM     64  G   UNL     1      -7.772  -3.933 -10.897  1.00  0.00     0.000 G0
ENDBRANCH  60  62
ENDBRANCH  56  58
ENDBRANCH  54  56
ENDBRANCH  52  54
ENDBRANCH  51  52
ENDBRANCH  50  51
ENDBRANCH  49  50
BRANCH  49  65
ATOM     65  C   UNL     1      -3.031   2.080  -3.388  1.00  0.00     0.326 C 
ATOM     66  O   UNL     1      -2.188   2.807  -3.892  1.00  0.00    -0.250 OA
BRANCH  65  67
ATOM     67  O   UNL     1      -2.905   1.701  -2.097  1.00  0.00    -0.480 OA
ATOM     68  H   UNL     1      -1.934   1.679  -1.956  1.00  0.00     0.296 HD
ENDBRANCH  65  67
ENDBRANCH  49  65
ENDBRANCH  47  49
ENDBRANCH  43  45
ENDBRANCH   1  43
BRANCH   1  69
ATOM     69  C   UNL     1      -4.860  -3.640  -1.345  1.00  0.00    -0.001 C 
ATOM     70  C   UNL     1      -5.375  -3.065  -0.244  1.00  0.00     0.001 C 
BRANCH  70  71
ATOM     71  C   UNL     1      -6.332  -3.658   0.692  1.00  0.00    -0.055 C 
ATOM     72  C   UNL     1      -7.456  -2.963   0.964  1.00  0.00    -0.018 C 
ATOM     73  C   UNL     1      -5.999  -5.005   1.278  1.00  0.00     0.044 C 
BRANCH  72  74
ATOM     74  C   UNL     1      -8.615  -3.326   1.883  1.00  0.00     0.038 C 
ATOM     75  C   UNL     1      -9.821  -3.635   0.988  1.00  0.00     0.015 C 
BRANCH  74  76
ATOM     76  C   UNL     1      -8.833  -2.165   2.896  1.00  0.00     0.128 C 
BRANCH  76  77
ATOM     77  O   UNL     1      -9.613  -2.627   4.012  1.00  0.00    -0.381 OA
ATOM     78  C   UNL     1     -10.091  -1.582   4.848  1.00  0.00     0.195 C 
ENDBRANCH  76  77
BRANCH  76  79
ATOM     79  C   UNL     1      -7.527  -1.455   3.332  1.00  0.00     0.068 C 
BRANCH  79  80
ATOM     80  C   UNL     1      -7.240  -0.088   2.757  1.00  0.00    -0.045 A 
ATOM     81  C   UNL     1      -8.167   0.955   2.877  1.00  0.00     0.004 A 
ATOM     82  C   UNL     1      -6.042   0.151   2.066  1.00  0.00     0.004 A 
ATOM     83  C   UNL     1      -7.900   2.212   2.331  1.00  0.00     0.000 A 
ATOM     84  C   UNL     1      -5.776   1.408   1.519  1.00  0.00     0.000 A 
ATOM     85  C   UNL     1      -6.704   2.438   1.653  1.00  0.00     0.000 A 
ENDBRANCH  79  80
ENDBRANCH  76  79
ENDBRANCH  74  76
ENDBRANCH  72  74
ENDBRANCH  70  71
ENDBRANCH   1  69
TORSDOF 17
ENDMDL
MODEL 23
REMARK VINA RESULT:    -6.201      8.807     14.599
REMARK INTER + INTRA:         -26.142
REMARK INTER:                 -19.807
REMARK INTRA:                  -6.334
REMARK UNBOUND:                -7.614
REMARK SMILES C=C1C(=O)N[C@H](C)C(=O)N[C@@H](CC(C)C)C(=O)N[C@@H](C(=O)O)[C@H](C)C(=O)N[C@@H](CCCN=C(N)N)C(=O)N[C@@H](/C=C/C(C)=C/[C@H](C)[C@H](Cc2ccccc2)OC)[C@H](C)C(=O)N[C@@H](C(=O)O)CCC(=O)N1C
REMARK SMILES IDX 39 1 38 2 37 3 36 4 28 6 27 7 25 8 26 9 23 11 24 12 19 13
REMARK SMILES IDX 18 14 16 15 17 16 11 18 10 19 8 20 9 21 12 24 13 25 14 26
REMARK SMILES IDX 15 27 20 28 21 29 22 30 29 32 30 33 31 34 32 35 33 36 34 37
REMARK SMILES IDX 35 38 57 43 58 44 59 45 60 46 61 47 62 49 66 50 67 51 68 52
REMARK SMILES IDX 69 53 70 54 71 55 2 56 1 57 3 58 4 59 5 60 6 62 7 63 63 65
REMARK SMILES IDX 64 66 65 67 40 69 41 70 42 71 44 72 43 73 45 74 46 75 47 76
REMARK SMILES IDX 55 77 56 78 48 79 49 80 50 81 54 82 51 83 53 84 52 85
REMARK H PARENT 38 5 27 10 18 17 10 22 22 31 34 39 34 40 35 41 35 42 61 48
REMARK H PARENT 5 61 65 68
REMARK Flexibility Score:  369.900
ROOT
ATOM      1  C   UNL     1      -6.231   0.517   5.689  1.00  0.00     0.117 C 
ENDROOT
BRANCH   1   2
ATOM      2  N   UNL     1      -5.500   1.142   6.792  1.00  0.00    -0.347 N 
ATOM      3  O   UNL     1      -3.390   0.462   6.194  1.00  0.00    -0.273 OA
ATOM      4  C   UNL     1      -4.123   1.141   6.906  1.00  0.00     0.243 C 
ATOM      5  H   UNL     1      -6.010   1.653   7.497  1.00  0.00     0.164 HD
BRANCH   4   6
ATOM      6  C   UNL     1      -3.598   1.948   8.120  1.00  0.00     0.171 C 
BRANCH   6   7
ATOM      7  N   UNL     1      -2.390   2.704   7.752  1.00  0.00    -0.344 N 
ATOM      8  C   UNL     1      -1.242   2.605   8.508  1.00  0.00     0.226 C 
ATOM      9  O   UNL     1      -1.174   1.915   9.518  1.00  0.00    -0.275 OA
ATOM     10  H   UNL     1      -2.428   3.336   6.963  1.00  0.00     0.164 HD
BRANCH   8  11
ATOM     11  C   UNL     1      -0.067   3.401   7.968  1.00  0.00     0.109 C 
ATOM     12  C   UNL     1       0.115   4.685   8.778  1.00  0.00     0.021 C 
BRANCH  11  13
ATOM     13  C   UNL     1       1.182   2.501   7.892  1.00  0.00     0.204 C 
BRANCH  13  14
ATOM     14  N   UNL     1       1.526   1.922   9.194  1.00  0.00    -0.340 N 
ATOM     15  C   UNL     1       2.644   2.295   9.908  1.00  0.00     0.243 C 
ATOM     16  O   UNL     1       3.402   3.186   9.529  1.00  0.00    -0.273 OA
ATOM     17  H   UNL     1       1.028   1.078   9.491  1.00  0.00     0.164 HD
BRANCH  15  18
ATOM     18  C   UNL     1       2.913   1.406  11.147  1.00  0.00     0.171 C 
BRANCH  18  19
ATOM     19  N   UNL     1       4.121   1.928  11.782  1.00  0.00    -0.343 N 
ATOM     20  C   UNL     1       5.242   1.142  11.972  1.00  0.00     0.242 CG0
ATOM     21  O   UNL     1       5.230  -0.064  11.738  1.00  0.00    -0.273 OA
ATOM     22  H   UNL     1       4.140   2.890  12.100  1.00  0.00     0.164 HD
ATOM     23  G   UNL     1       6.445   1.888  12.586  1.00  0.00     0.000 G0
ENDBRANCH  18  19
BRANCH  18  24
ATOM     24  C   UNL     1       1.716   1.436  12.105  1.00  0.00     0.038 C 
BRANCH  24  25
ATOM     25  C   UNL     1       1.499   0.135  12.906  1.00  0.00    -0.015 C 
ATOM     26  C   UNL     1       0.026  -0.111  13.235  1.00  0.00     0.007 C 
ATOM     27  C   UNL     1       2.315   0.186  14.201  1.00  0.00     0.007 C 
ENDBRANCH  24  25
ENDBRANCH  18  24
ENDBRANCH  15  18
ENDBRANCH  13  14
BRANCH  13  28
ATOM     28  C   UNL     1       1.030   1.339   6.905  1.00  0.00     0.327 C 
ATOM     29  O   UNL     1       1.937   0.700   6.394  1.00  0.00    -0.250 OA
BRANCH  28  30
ATOM     30  O   UNL     1      -0.248   1.130   6.529  1.00  0.00    -0.480 OA
ATOM     31  H   UNL     1      -0.762   1.222   7.358  1.00  0.00     0.296 HD
ENDBRANCH  28  30
ENDBRANCH  13  28
ENDBRANCH  11  13
ENDBRANCH   8  11
ENDBRANCH   6   7
BRANCH   6  32
ATOM     32  C   UNL     1      -4.702   2.889   8.615  1.00  0.00     0.037 C 
BRANCH  32  33
ATOM     33  C   UNL     1      -5.300   2.428   9.951  1.00  0.00     0.026 C 
BRANCH  33  34
ATOM     34  C   UNL     1      -5.016   3.410  11.089  1.00  0.00     0.146 C 
BRANCH  34  35
ATOM     35  N   UNL     1      -3.671   3.169  11.593  1.00  0.00    -0.254 NA
ATOM     36  C   UNL     1      -2.804   4.107  11.503  1.00  0.00     0.185 C 
ATOM     37  N   UNL     1      -1.563   3.898  11.969  1.00  0.00    -0.370 N 
ATOM     38  N   UNL     1      -2.945   5.342  10.988  1.00  0.00    -0.370 N 
ATOM     39  H   UNL     1      -1.380   2.993  12.383  1.00  0.00     0.159 HD
ATOM     40  H   UNL     1      -0.885   4.630  12.093  1.00  0.00     0.159 HD
ATOM     41  H   UNL     1      -2.149   5.942  10.847  1.00  0.00     0.159 HD
ATOM     42  H   UNL     1      -3.823   5.632  10.586  1.00  0.00     0.159 HD
ENDBRANCH  34  35
ENDBRANCH  33  34
ENDBRANCH  32  33
ENDBRANCH   6  32
ENDBRANCH   4   6
ENDBRANCH   1   2
BRANCH   1  43
ATOM     43  C   UNL     1      -6.203   1.480   4.467  1.00  0.00     0.102 C 
ATOM     44  C   UNL     1      -7.566   2.125   4.165  1.00  0.00     0.020 C 
BRANCH  43  45
ATOM     45  C   UNL     1      -5.550   0.810   3.254  1.00  0.00     0.225 C 
ATOM     46  O   UNL     1      -5.514   1.327   2.141  1.00  0.00    -0.275 OA
ATOM     47  N   UNL     1      -5.079  -0.466   3.464  1.00  0.00    -0.342 N 
ATOM     48  H   UNL     1      -4.978  -0.813   4.407  1.00  0.00     0.164 HD
BRANCH  47  49
ATOM     49  C   UNL     1      -4.398  -1.215   2.404  1.00  0.00     0.192 C 
BRANCH  49  50
ATOM     50  C   UNL     1      -4.875  -2.670   2.415  1.00  0.00     0.047 C 
BRANCH  50  51
ATOM     51  C   UNL     1      -5.335  -3.142   1.029  1.00  0.00     0.103 C 
BRANCH  51  52
ATOM     52  C   UNL     1      -6.329  -4.298   1.117  1.00  0.00     0.226 C 
ATOM     53  O   UNL     1      -5.914  -5.449   1.274  1.00  0.00    -0.275 OA
BRANCH  52  54
ATOM     54  N   UNL     1      -7.693  -3.956   1.089  1.00  0.00    -0.311 N 
ATOM     55  C   UNL     1      -8.142  -2.687   0.500  1.00  0.00     0.153 C 
BRANCH  54  56
ATOM     56  C   UNL     1      -8.675  -4.812   1.614  1.00  0.00     0.102 C 
ATOM     57  C   UNL     1      -9.327  -4.614   2.772  1.00  0.00     0.043 C 
BRANCH  56  58
ATOM     58  C   UNL     1      -9.114  -6.044   0.859  1.00  0.00     0.268 C 
ATOM     59  O   UNL     1      -8.953  -6.183  -0.346  1.00  0.00    -0.268 OA
ATOM     60  N   UNL     1      -9.651  -7.014   1.671  1.00  0.00    -0.339 N 
ATOM     61  H   UNL     1      -9.760  -6.816   2.659  1.00  0.00     0.164 HD
BRANCH  60  62
ATOM     62  C   UNL     1     -10.083  -8.312   1.155  1.00  0.00     0.168 CG0
ATOM     63  C   UNL     1     -11.485  -8.656   1.644  1.00  0.00     0.041 C 
ATOM     64  G   UNL     1      -9.075  -9.399   1.579  1.00  0.00     0.000 G0
ENDBRANCH  60  62
ENDBRANCH  56  58
ENDBRANCH  54  56
ENDBRANCH  52  54
ENDBRANCH  51  52
ENDBRANCH  50  51
ENDBRANCH  49  50
BRANCH  49  65
ATOM     65  C   UNL     1      -2.871  -1.179   2.574  1.00  0.00     0.326 C 
ATOM     66  O   UNL     1      -2.271  -1.305   3.632  1.00  0.00    -0.250 OA
BRANCH  65  67
ATOM     67  O   UNL     1      -2.183  -0.929   1.439  1.00  0.00    -0.480 OA
ATOM     68  H   UNL     1      -2.809  -0.398   0.900  1.00  0.00     0.296 HD
ENDBRANCH  65  67
ENDBRANCH  49  65
ENDBRANCH  47  49
ENDBRANCH  43  45
ENDBRANCH   1  43
BRANCH   1  69
ATOM     69  C   UNL     1      -7.573   0.092   6.257  1.00  0.00    -0.001 C 
ATOM     70  C   UNL     1      -8.410  -0.838   5.765  1.00  0.00     0.001 C 
BRANCH  70  71
ATOM     71  C   UNL     1      -9.693  -1.255   6.334  1.00  0.00    -0.055 C 
ATOM     72  C   UNL     1     -10.261  -0.452   7.259  1.00  0.00    -0.018 C 
ATOM     73  C   UNL     1     -10.293  -2.547   5.842  1.00  0.00     0.044 C 
BRANCH  72  74
ATOM     74  C   UNL     1     -11.573  -0.625   8.010  1.00  0.00     0.038 C 
ATOM     75  C   UNL     1     -12.635   0.187   7.258  1.00  0.00     0.015 C 
BRANCH  74  76
ATOM     76  C   UNL     1     -11.360  -0.205   9.494  1.00  0.00     0.128 C 
BRANCH  76  77
ATOM     77  O   UNL     1     -12.384  -0.785  10.320  1.00  0.00    -0.381 OA
ATOM     78  C   UNL     1     -12.446  -2.203  10.243  1.00  0.00     0.195 C 
ENDBRANCH  76  77
BRANCH  76  79
ATOM     79  C   UNL     1      -9.932  -0.482  10.028  1.00  0.00     0.068 C 
BRANCH  79  80
ATOM     80  C   UNL     1      -9.322   0.526  10.972  1.00  0.00    -0.045 A 
ATOM     81  C   UNL     1      -8.229   0.188  11.781  1.00  0.00     0.004 A 
ATOM     82  C   UNL     1      -9.863   1.816  11.074  1.00  0.00     0.004 A 
ATOM     83  C   UNL     1      -7.680   1.122  12.662  1.00  0.00     0.000 A 
ATOM     84  C   UNL     1      -9.314   2.749  11.956  1.00  0.00     0.000 A 
ATOM     85  C   UNL     1      -8.222   2.402  12.749  1.00  0.00     0.000 A 
ENDBRANCH  79  80
ENDBRANCH  76  79
ENDBRANCH  74  76
ENDBRANCH  72  74
ENDBRANCH  70  71
ENDBRANCH   1  69
TORSDOF 17
ENDMDL
MODEL 24
REMARK VINA RESULT:    -6.185      3.061      5.258
REMARK INTER + INTRA:         -26.094
REMARK INTER:                 -19.366
REMARK INTRA:                  -6.728
REMARK UNBOUND:                -7.614
REMARK SMILES C=C1C(=O)N[C@H](C)C(=O)N[C@@H](CC(C)C)C(=O)N[C@@H](C(=O)O)[C@H](C)C(=O)N[C@@H](CCCN=C(N)N)C(=O)N[C@@H](/C=C/C(C)=C/[C@H](C)[C@H](Cc2ccccc2)OC)[C@H](C)C(=O)N[C@@H](C(=O)O)CCC(=O)N1C
REMARK SMILES IDX 39 1 38 2 37 3 36 4 28 6 27 7 25 8 26 9 23 11 24 12 19 13
REMARK SMILES IDX 18 14 16 15 17 16 11 18 10 19 8 20 9 21 12 24 13 25 14 26
REMARK SMILES IDX 15 27 20 28 21 29 22 30 29 32 30 33 31 34 32 35 33 36 34 37
REMARK SMILES IDX 35 38 57 43 58 44 59 45 60 46 61 47 62 49 66 50 67 51 68 52
REMARK SMILES IDX 69 53 70 54 71 55 2 56 1 57 3 58 4 59 5 60 6 62 7 63 63 65
REMARK SMILES IDX 64 66 65 67 40 69 41 70 42 71 44 72 43 73 45 74 46 75 47 76
REMARK SMILES IDX 55 77 56 78 48 79 49 80 50 81 54 82 51 83 53 84 52 85
REMARK H PARENT 38 5 27 10 18 17 10 22 22 31 34 39 34 40 35 41 35 42 61 48
REMARK H PARENT 5 61 65 68
REMARK Flexibility Score:  369.900
ROOT
ATOM      1  C   UNL     1      -2.478   0.628  -5.120  1.00  0.00     0.117 C 
ENDROOT
BRANCH   1   2
ATOM      2  N   UNL     1      -3.042   0.284  -3.815  1.00  0.00    -0.347 N 
ATOM      3  O   UNL     1      -1.064  -0.031  -2.693  1.00  0.00    -0.273 OA
ATOM      4  C   UNL     1      -2.286   0.070  -2.678  1.00  0.00     0.243 C 
ATOM      5  H   UNL     1      -4.044   0.243  -3.704  1.00  0.00     0.164 HD
BRANCH   4   6
ATOM      6  C   UNL     1      -3.133  -0.194  -1.407  1.00  0.00     0.171 C 
BRANCH   6   7
ATOM      7  N   UNL     1      -4.561  -0.289  -1.751  1.00  0.00    -0.344 N 
ATOM      8  C   UNL     1      -5.483   0.548  -1.161  1.00  0.00     0.226 C 
ATOM      9  O   UNL     1      -5.174   1.382  -0.319  1.00  0.00    -0.275 OA
ATOM     10  H   UNL     1      -4.864  -1.011  -2.393  1.00  0.00     0.164 HD
BRANCH   8  11
ATOM     11  C   UNL     1      -6.905   0.363  -1.661  1.00  0.00     0.109 C 
ATOM     12  C   UNL     1      -6.901  -0.381  -2.996  1.00  0.00     0.021 C 
BRANCH  11  13
ATOM     13  C   UNL     1      -7.765  -0.288  -0.559  1.00  0.00     0.204 C 
BRANCH  13  14
ATOM     14  N   UNL     1      -7.593   0.374   0.738  1.00  0.00    -0.340 N 
ATOM     15  C   UNL     1      -7.879  -0.243   1.937  1.00  0.00     0.243 C 
ATOM     16  O   UNL     1      -8.242  -1.416   2.006  1.00  0.00    -0.273 OA
ATOM     17  H   UNL     1      -7.442   1.386   0.745  1.00  0.00     0.164 HD
BRANCH  15  18
ATOM     18  C   UNL     1      -7.821   0.713   3.154  1.00  0.00     0.171 C 
BRANCH  18  19
ATOM     19  N   UNL     1      -9.187   1.174   3.389  1.00  0.00    -0.343 N 
ATOM     20  C   UNL     1      -9.695   2.298   2.765  1.00  0.00     0.242 CG0
ATOM     21  O   UNL     1      -8.982   3.035   2.089  1.00  0.00    -0.273 OA
ATOM     22  H   UNL     1      -9.781   0.663   4.032  1.00  0.00     0.164 HD
ATOM     23  G   UNL     1     -11.179   2.583   3.077  1.00  0.00     0.000 G0
ENDBRANCH  18  19
BRANCH  18  24
ATOM     24  C   UNL     1      -7.251  -0.008   4.382  1.00  0.00     0.038 C 
BRANCH  24  25
ATOM     25  C   UNL     1      -5.725   0.130   4.560  1.00  0.00    -0.015 C 
ATOM     26  C   UNL     1      -5.213  -0.594   5.805  1.00  0.00     0.007 C 
ATOM     27  C   UNL     1      -5.348   1.612   4.636  1.00  0.00     0.007 C 
ENDBRANCH  24  25
ENDBRANCH  18  24
ENDBRANCH  15  18
ENDBRANCH  13  14
BRANCH  13  28
ATOM     28  C   UNL     1      -9.263  -0.279  -0.878  1.00  0.00     0.327 C 
ATOM     29  O   UNL     1      -9.913  -1.211  -1.326  1.00  0.00    -0.250 OA
BRANCH  28  30
ATOM     30  O   UNL     1      -9.829   0.936  -0.725  1.00  0.00    -0.480 OA
ATOM     31  H   UNL     1     -10.362   0.853   0.093  1.00  0.00     0.296 HD
ENDBRANCH  28  30
ENDBRANCH  13  28
ENDBRANCH  11  13
ENDBRANCH   8  11
ENDBRANCH   6   7
BRANCH   6  32
ATOM     32  C   UNL     1      -2.645  -1.482  -0.736  1.00  0.00     0.037 C 
BRANCH  32  33
ATOM     33  C   UNL     1      -2.949  -2.727  -1.581  1.00  0.00     0.026 C 
BRANCH  33  34
ATOM     34  C   UNL     1      -3.858  -3.720  -0.855  1.00  0.00     0.146 C 
BRANCH  34  35
ATOM     35  N   UNL     1      -4.586  -3.012   0.190  1.00  0.00    -0.254 NA
ATOM     36  C   UNL     1      -5.168  -3.696   1.104  1.00  0.00     0.185 C 
ATOM     37  N   UNL     1      -5.837  -3.055   2.075  1.00  0.00    -0.370 N 
ATOM     38  N   UNL     1      -5.219  -5.031   1.257  1.00  0.00    -0.370 N 
ATOM     39  H   UNL     1      -5.836  -2.043   2.035  1.00  0.00     0.159 HD
ATOM     40  H   UNL     1      -6.167  -3.503   2.912  1.00  0.00     0.159 HD
ATOM     41  H   UNL     1      -5.826  -5.455   1.939  1.00  0.00     0.159 HD
ATOM     42  H   UNL     1      -4.772  -5.641   0.590  1.00  0.00     0.159 HD
ENDBRANCH  34  35
ENDBRANCH  33  34
ENDBRANCH  32  33
ENDBRANCH   6  32
ENDBRANCH   4   6
ENDBRANCH   1   2
BRANCH   1  43
ATOM     43  C   UNL     1      -2.621   2.163  -5.332  1.00  0.00     0.102 C 
ATOM     44  C   UNL     1      -3.665   2.539  -6.397  1.00  0.00     0.020 C 
BRANCH  43  45
ATOM     45  C   UNL     1      -1.253   2.819  -5.545  1.00  0.00     0.225 C 
ATOM     46  O   UNL     1      -0.710   3.527  -4.702  1.00  0.00    -0.275 OA
ATOM     47  N   UNL     1      -0.699   2.642  -6.792  1.00  0.00    -0.342 N 
ATOM     48  H   UNL     1      -1.078   1.942  -7.414  1.00  0.00     0.164 HD
BRANCH  47  49
ATOM     49  C   UNL     1       0.622   3.183  -7.127  1.00  0.00     0.192 C 
BRANCH  49  50
ATOM     50  C   UNL     1       0.650   3.595  -8.601  1.00  0.00     0.047 C 
BRANCH  50  51
ATOM     51  C   UNL     1       1.274   4.983  -8.806  1.00  0.00     0.103 C 
BRANCH  51  52
ATOM     52  C   UNL     1       1.229   5.422 -10.268  1.00  0.00     0.226 C 
ATOM     53  O   UNL     1       0.216   5.964 -10.712  1.00  0.00    -0.275 OA
BRANCH  52  54
ATOM     54  N   UNL     1       2.410   5.240 -11.013  1.00  0.00    -0.311 N 
ATOM     55  C   UNL     1       3.424   6.300 -11.093  1.00  0.00     0.153 C 
BRANCH  54  56
ATOM     56  C   UNL     1       2.664   4.042 -11.700  1.00  0.00     0.102 C 
ATOM     57  C   UNL     1       3.237   2.953 -11.161  1.00  0.00     0.043 C 
BRANCH  56  58
ATOM     58  C   UNL     1       2.253   3.874 -13.144  1.00  0.00     0.268 C 
ATOM     59  O   UNL     1       3.043   3.935 -14.077  1.00  0.00    -0.268 OA
ATOM     60  N   UNL     1       0.918   3.583 -13.295  1.00  0.00    -0.339 N 
ATOM     61  H   UNL     1       0.328   3.562 -12.472  1.00  0.00     0.164 HD
BRANCH  60  62
ATOM     62  C   UNL     1       0.321   3.321 -14.604  1.00  0.00     0.168 CG0
ATOM     63  C   UNL     1       0.385   1.837 -14.947  1.00  0.00     0.041 C 
ATOM     64  G   UNL     1       1.042   4.161 -15.679  1.00  0.00     0.000 G0
ENDBRANCH  60  62
ENDBRANCH  56  58
ENDBRANCH  54  56
ENDBRANCH  52  54
ENDBRANCH  51  52
ENDBRANCH  50  51
ENDBRANCH  49  50
BRANCH  49  65
ATOM     65  C   UNL     1       1.737   2.158  -6.864  1.00  0.00     0.326 C 
ATOM     66  O   UNL     1       1.996   1.653  -5.782  1.00  0.00    -0.250 OA
BRANCH  65  67
ATOM     67  O   UNL     1       2.500   1.867  -7.940  1.00  0.00    -0.480 OA
ATOM     68  H   UNL     1       1.844   1.680  -8.646  1.00  0.00     0.296 HD
ENDBRANCH  65  67
ENDBRANCH  49  65
ENDBRANCH  47  49
ENDBRANCH  43  45
ENDBRANCH   1  43
BRANCH   1  69
ATOM     69  C   UNL     1      -3.121  -0.314  -6.122  1.00  0.00    -0.001 C 
ATOM     70  C   UNL     1      -3.558  -1.566  -5.901  1.00  0.00     0.001 C 
BRANCH  70  71
ATOM     71  C   UNL     1      -4.197  -2.458  -6.871  1.00  0.00    -0.055 C 
ATOM     72  C   UNL     1      -4.844  -1.893  -7.912  1.00  0.00    -0.018 C 
ATOM     73  C   UNL     1      -4.080  -3.943  -6.643  1.00  0.00     0.044 C 
BRANCH  72  74
ATOM     74  C   UNL     1      -5.587  -2.560  -9.061  1.00  0.00     0.038 C 
ATOM     75  C   UNL     1      -4.696  -2.447 -10.303  1.00  0.00     0.015 C 
BRANCH  74  76
ATOM     76  C   UNL     1      -6.990  -1.899  -9.201  1.00  0.00     0.128 C 
BRANCH  76  77
ATOM     77  O   UNL     1      -7.978  -2.901  -9.496  1.00  0.00    -0.381 OA
ATOM     78  C   UNL     1      -8.950  -2.483 -10.445  1.00  0.00     0.195 C 
ENDBRANCH  76  77
BRANCH  76  79
ATOM     79  C   UNL     1      -7.386  -1.003  -8.000  1.00  0.00     0.068 C 
BRANCH  79  80
ATOM     80  C   UNL     1      -8.281  -1.596  -6.939  1.00  0.00    -0.045 A 
ATOM     81  C   UNL     1      -9.650  -1.297  -6.899  1.00  0.00     0.004 A 
ATOM     82  C   UNL     1      -7.747  -2.440  -5.954  1.00  0.00     0.004 A 
ATOM     83  C   UNL     1     -10.468  -1.839  -5.906  1.00  0.00     0.000 A 
ATOM     84  C   UNL     1      -8.566  -2.981  -4.961  1.00  0.00     0.000 A 
ATOM     85  C   UNL     1      -9.926  -2.682  -4.938  1.00  0.00     0.000 A 
ENDBRANCH  79  80
ENDBRANCH  76  79
ENDBRANCH  74  76
ENDBRANCH  72  74
ENDBRANCH  70  71
ENDBRANCH   1  69
TORSDOF 17
ENDMDL
MODEL 25
REMARK VINA RESULT:    -6.184      3.470     12.069
REMARK INTER + INTRA:         -26.089
REMARK INTER:                 -18.085
REMARK INTRA:                  -8.004
REMARK UNBOUND:                -7.614
REMARK SMILES C=C1C(=O)N[C@H](C)C(=O)N[C@@H](CC(C)C)C(=O)N[C@@H](C(=O)O)[C@H](C)C(=O)N[C@@H](CCCN=C(N)N)C(=O)N[C@@H](/C=C/C(C)=C/[C@H](C)[C@H](Cc2ccccc2)OC)[C@H](C)C(=O)N[C@@H](C(=O)O)CCC(=O)N1C
REMARK SMILES IDX 39 1 38 2 37 3 36 4 28 6 27 7 25 8 26 9 23 11 24 12 19 13
REMARK SMILES IDX 18 14 16 15 17 16 11 18 10 19 8 20 9 21 12 24 13 25 14 26
REMARK SMILES IDX 15 27 20 28 21 29 22 30 29 32 30 33 31 34 32 35 33 36 34 37
REMARK SMILES IDX 35 38 57 43 58 44 59 45 60 46 61 47 62 49 66 50 67 51 68 52
REMARK SMILES IDX 69 53 70 54 71 55 2 56 1 57 3 58 4 59 5 60 6 62 7 63 63 65
REMARK SMILES IDX 64 66 65 67 40 69 41 70 42 71 44 72 43 73 45 74 46 75 47 76
REMARK SMILES IDX 55 77 56 78 48 79 49 80 50 81 54 82 51 83 53 84 52 85
REMARK H PARENT 38 5 27 10 18 17 10 22 22 31 34 39 34 40 35 41 35 42 61 48
REMARK H PARENT 5 61 65 68
REMARK Flexibility Score:  369.900
ROOT
ATOM      1  C   UNL     1      -4.326  -0.126  -4.261  1.00  0.00     0.117 C 
ENDROOT
BRANCH   1   2
ATOM      2  N   UNL     1      -3.233  -0.289  -5.219  1.00  0.00    -0.347 N 
ATOM      3  O   UNL     1      -4.450  -1.219  -6.928  1.00  0.00    -0.273 OA
ATOM      4  C   UNL     1      -3.400  -0.739  -6.514  1.00  0.00     0.243 C 
ATOM      5  H   UNL     1      -2.299  -0.014  -4.955  1.00  0.00     0.164 HD
BRANCH   4   6
ATOM      6  C   UNL     1      -2.094  -0.736  -7.349  1.00  0.00     0.171 C 
BRANCH   6   7
ATOM      7  N   UNL     1      -1.007  -0.085  -6.601  1.00  0.00    -0.344 N 
ATOM      8  C   UNL     1      -0.041   0.646  -7.258  1.00  0.00     0.226 C 
ATOM      9  O   UNL     1      -0.024   0.772  -8.476  1.00  0.00    -0.275 OA
ATOM     10  H   UNL     1      -0.949  -0.223  -5.599  1.00  0.00     0.164 HD
BRANCH   8  11
ATOM     11  C   UNL     1       0.979   1.300  -6.342  1.00  0.00     0.109 C 
ATOM     12  C   UNL     1       1.132   0.485  -5.058  1.00  0.00     0.021 C 
BRANCH  11  13
ATOM     13  C   UNL     1       2.290   1.546  -7.115  1.00  0.00     0.204 C 
BRANCH  13  14
ATOM     14  N   UNL     1       2.064   2.266  -8.372  1.00  0.00    -0.340 N 
ATOM     15  C   UNL     1       3.001   2.326  -9.379  1.00  0.00     0.243 C 
ATOM     16  O   UNL     1       4.074   1.727  -9.320  1.00  0.00    -0.273 OA
ATOM     17  H   UNL     1       1.265   2.905  -8.422  1.00  0.00     0.164 HD
BRANCH  15  18
ATOM     18  C   UNL     1       2.627   3.310 -10.515  1.00  0.00     0.171 C 
BRANCH  18  19
ATOM     19  N   UNL     1       2.504   2.515 -11.735  1.00  0.00    -0.343 N 
ATOM     20  C   UNL     1       3.520   2.451 -12.669  1.00  0.00     0.242 CG0
ATOM     21  O   UNL     1       4.517   3.163 -12.584  1.00  0.00    -0.273 OA
ATOM     22  H   UNL     1       1.649   1.998 -11.907  1.00  0.00     0.164 HD
ATOM     23  G   UNL     1       3.239   1.499 -13.850  1.00  0.00     0.000 G0
ENDBRANCH  18  19
BRANCH  18  24
ATOM     24  C   UNL     1       1.320   4.043 -10.188  1.00  0.00     0.038 C 
BRANCH  24  25
ATOM     25  C   UNL     1       1.479   5.555  -9.922  1.00  0.00    -0.015 C 
ATOM     26  C   UNL     1       2.695   6.150 -10.631  1.00  0.00     0.007 C 
ATOM     27  C   UNL     1       1.588   5.805  -8.415  1.00  0.00     0.007 C 
ENDBRANCH  24  25
ENDBRANCH  18  24
ENDBRANCH  15  18
ENDBRANCH  13  14
BRANCH  13  28
ATOM     28  C   UNL     1       3.322   2.345  -6.313  1.00  0.00     0.327 C 
ATOM     29  O   UNL     1       3.202   3.498  -5.927  1.00  0.00    -0.250 OA
BRANCH  28  30
ATOM     30  O   UNL     1       4.489   1.689  -6.149  1.00  0.00    -0.480 OA
ATOM     31  H   UNL     1       5.173   2.358  -6.358  1.00  0.00     0.296 HD
ENDBRANCH  28  30
ENDBRANCH  13  28
ENDBRANCH  11  13
ENDBRANCH   8  11
ENDBRANCH   6   7
BRANCH   6  32
ATOM     32  C   UNL     1      -1.723  -2.179  -7.709  1.00  0.00     0.037 C 
BRANCH  32  33
ATOM     33  C   UNL     1      -0.974  -2.886  -6.570  1.00  0.00     0.026 C 
BRANCH  33  34
ATOM     34  C   UNL     1       0.313  -3.560  -7.047  1.00  0.00     0.146 C 
BRANCH  34  35
ATOM     35  N   UNL     1       1.225  -2.537  -7.539  1.00  0.00    -0.254 NA
ATOM     36  C   UNL     1       2.477  -2.661  -7.295  1.00  0.00     0.185 C 
ATOM     37  N   UNL     1       3.327  -1.726  -7.748  1.00  0.00    -0.370 N 
ATOM     38  N   UNL     1       3.114  -3.634  -6.620  1.00  0.00    -0.370 N 
ATOM     39  H   UNL     1       2.923  -0.963  -8.277  1.00  0.00     0.159 HD
ATOM     40  H   UNL     1       4.326  -1.838  -7.751  1.00  0.00     0.159 HD
ATOM     41  H   UNL     1       4.087  -3.547  -6.376  1.00  0.00     0.159 HD
ATOM     42  H   UNL     1       2.597  -4.395  -6.209  1.00  0.00     0.159 HD
ENDBRANCH  34  35
ENDBRANCH  33  34
ENDBRANCH  32  33
ENDBRANCH   6  32
ENDBRANCH   4   6
ENDBRANCH   1   2
BRANCH   1  43
ATOM     43  C   UNL     1      -4.833   1.343  -4.332  1.00  0.00     0.102 C 
ATOM     44  C   UNL     1      -4.618   2.128  -3.026  1.00  0.00     0.020 C 
BRANCH  43  45
ATOM     45  C   UNL     1      -6.267   1.406  -4.866  1.00  0.00     0.225 C 
ATOM     46  O   UNL     1      -6.999   2.378  -4.709  1.00  0.00    -0.275 OA
ATOM     47  N   UNL     1      -6.728   0.254  -5.461  1.00  0.00    -0.342 N 
ATOM     48  H   UNL     1      -6.075  -0.473  -5.716  1.00  0.00     0.164 HD
BRANCH  47  49
ATOM     49  C   UNL     1      -8.068   0.180  -6.050  1.00  0.00     0.192 C 
BRANCH  49  50
ATOM     50  C   UNL     1      -9.009  -0.559  -5.095  1.00  0.00     0.047 C 
BRANCH  50  51
ATOM     51  C   UNL     1      -8.255  -1.505  -4.150  1.00  0.00     0.103 C 
BRANCH  51  52
ATOM     52  C   UNL     1      -9.013  -2.811  -3.920  1.00  0.00     0.226 C 
ATOM     53  O   UNL     1     -10.093  -2.793  -3.326  1.00  0.00    -0.275 OA
BRANCH  52  54
ATOM     54  N   UNL     1      -8.448  -3.971  -4.482  1.00  0.00    -0.311 N 
ATOM     55  C   UNL     1      -7.105  -4.422  -4.095  1.00  0.00     0.153 C 
BRANCH  54  56
ATOM     56  C   UNL     1      -9.147  -4.741  -5.426  1.00  0.00     0.102 C 
ATOM     57  C   UNL     1      -9.090  -4.563  -6.756  1.00  0.00     0.043 C 
BRANCH  56  58
ATOM     58  C   UNL     1     -10.012  -5.901  -4.993  1.00  0.00     0.268 C 
ATOM     59  O   UNL     1      -9.663  -7.070  -5.090  1.00  0.00    -0.268 OA
ATOM     60  N   UNL     1     -11.197  -5.507  -4.419  1.00  0.00    -0.339 N 
ATOM     61  H   UNL     1     -11.417  -4.519  -4.386  1.00  0.00     0.164 HD
BRANCH  60  62
ATOM     62  C   UNL     1     -12.156  -6.467  -3.874  1.00  0.00     0.168 CG0
ATOM     63  C   UNL     1     -12.576  -6.077  -2.462  1.00  0.00     0.041 C 
ATOM     64  G   UNL     1     -11.538  -7.880  -3.889  1.00  0.00     0.000 G0
ENDBRANCH  60  62
ENDBRANCH  56  58
ENDBRANCH  54  56
ENDBRANCH  52  54
ENDBRANCH  51  52
ENDBRANCH  50  51
ENDBRANCH  49  50
BRANCH  49  65
ATOM     65  C   UNL     1      -8.052  -0.541  -7.407  1.00  0.00     0.326 C 
ATOM     66  O   UNL     1      -8.971  -1.199  -7.873  1.00  0.00    -0.250 OA
BRANCH  65  67
ATOM     67  O   UNL     1      -6.882  -0.455  -8.077  1.00  0.00    -0.480 OA
ATOM     68  H   UNL     1      -7.045  -0.972  -8.895  1.00  0.00     0.296 HD
ENDBRANCH  65  67
ENDBRANCH  49  65
ENDBRANCH  47  49
ENDBRANCH  43  45
ENDBRANCH   1  43
BRANCH   1  69
ATOM     69  C   UNL     1      -3.813  -0.662  -2.937  1.00  0.00    -0.001 C 
ATOM     70  C   UNL     1      -4.310  -1.687  -2.222  1.00  0.00     0.001 C 
BRANCH  70  71
ATOM     71  C   UNL     1      -3.792  -2.209  -0.956  1.00  0.00    -0.055 C 
ATOM     72  C   UNL     1      -2.898  -1.453  -0.284  1.00  0.00    -0.018 C 
ATOM     73  C   UNL     1      -4.300  -3.548  -0.488  1.00  0.00     0.044 C 
BRANCH  72  74
ATOM     74  C   UNL     1      -2.202  -1.734   1.040  1.00  0.00     0.038 C 
ATOM     75  C   UNL     1      -2.958  -0.955   2.123  1.00  0.00     0.015 C 
BRANCH  74  76
ATOM     76  C   UNL     1      -0.695  -1.365   0.902  1.00  0.00     0.128 C 
BRANCH  76  77
ATOM     77  O   UNL     1       0.115  -2.541   1.065  1.00  0.00    -0.381 OA
ATOM     78  C   UNL     1       0.807  -2.590   2.306  1.00  0.00     0.195 C 
ENDBRANCH  76  77
BRANCH  76  79
ATOM     79  C   UNL     1      -0.356  -0.577  -0.389  1.00  0.00     0.068 C 
BRANCH  79  80
ATOM     80  C   UNL     1       0.540  -1.240  -1.407  1.00  0.00    -0.045 A 
ATOM     81  C   UNL     1       0.019  -2.131  -2.355  1.00  0.00     0.004 A 
ATOM     82  C   UNL     1       1.921  -0.994  -1.401  1.00  0.00     0.004 A 
ATOM     83  C   UNL     1       0.857  -2.752  -3.284  1.00  0.00     0.000 A 
ATOM     84  C   UNL     1       2.758  -1.616  -2.330  1.00  0.00     0.000 A 
ATOM     85  C   UNL     1       2.225  -2.493  -3.272  1.00  0.00     0.000 A 
ENDBRANCH  79  80
ENDBRANCH  76  79
ENDBRANCH  74  76
ENDBRANCH  72  74
ENDBRANCH  70  71
ENDBRANCH   1  69
TORSDOF 17
ENDMDL
MODEL 26
REMARK VINA RESULT:    -6.178      4.906      7.883
REMARK INTER + INTRA:         -26.072
REMARK INTER:                 -16.913
REMARK INTRA:                  -9.160
REMARK UNBOUND:                -7.614
REMARK SMILES C=C1C(=O)N[C@H](C)C(=O)N[C@@H](CC(C)C)C(=O)N[C@@H](C(=O)O)[C@H](C)C(=O)N[C@@H](CCCN=C(N)N)C(=O)N[C@@H](/C=C/C(C)=C/[C@H](C)[C@H](Cc2ccccc2)OC)[C@H](C)C(=O)N[C@@H](C(=O)O)CCC(=O)N1C
REMARK SMILES IDX 39 1 38 2 37 3 36 4 28 6 27 7 25 8 26 9 23 11 24 12 19 13
REMARK SMILES IDX 18 14 16 15 17 16 11 18 10 19 8 20 9 21 12 24 13 25 14 26
REMARK SMILES IDX 15 27 20 28 21 29 22 30 29 32 30 33 31 34 32 35 33 36 34 37
REMARK SMILES IDX 35 38 57 43 58 44 59 45 60 46 61 47 62 49 66 50 67 51 68 52
REMARK SMILES IDX 69 53 70 54 71 55 2 56 1 57 3 58 4 59 5 60 6 62 7 63 63 65
REMARK SMILES IDX 64 66 65 67 40 69 41 70 42 71 44 72 43 73 45 74 46 75 47 76
REMARK SMILES IDX 55 77 56 78 48 79 49 80 50 81 54 82 51 83 53 84 52 85
REMARK H PARENT 38 5 27 10 18 17 10 22 22 31 34 39 34 40 35 41 35 42 61 48
REMARK H PARENT 5 61 65 68
REMARK Flexibility Score:  369.900
ROOT
ATOM      1  C   UNL     1      -2.395  -3.017  -1.704  1.00  0.00     0.117 C 
ENDROOT
BRANCH   1   2
ATOM      2  N   UNL     1      -3.736  -2.779  -1.170  1.00  0.00    -0.347 N 
ATOM      3  O   UNL     1      -4.389  -4.971  -0.972  1.00  0.00    -0.273 OA
ATOM      4  C   UNL     1      -4.595  -3.781  -0.759  1.00  0.00     0.243 C 
ATOM      5  H   UNL     1      -4.055  -1.831  -1.039  1.00  0.00     0.164 HD
BRANCH   4   6
ATOM      6  C   UNL     1      -5.920  -3.256  -0.152  1.00  0.00     0.171 C 
BRANCH   6   7
ATOM      7  N   UNL     1      -6.046  -1.805  -0.368  1.00  0.00    -0.344 N 
ATOM      8  C   UNL     1      -6.040  -0.933   0.699  1.00  0.00     0.226 C 
ATOM      9  O   UNL     1      -5.955  -1.312   1.861  1.00  0.00    -0.275 OA
ATOM     10  H   UNL     1      -6.186  -1.459  -1.309  1.00  0.00     0.164 HD
BRANCH   8  11
ATOM     11  C   UNL     1      -6.123   0.532   0.310  1.00  0.00     0.109 C 
ATOM     12  C   UNL     1      -6.161   0.671  -1.212  1.00  0.00     0.021 C 
BRANCH  11  13
ATOM     13  C   UNL     1      -7.296   1.203   1.052  1.00  0.00     0.204 C 
BRANCH  13  14
ATOM     14  N   UNL     1      -8.277   0.225   1.533  1.00  0.00    -0.340 N 
ATOM     15  C   UNL     1      -9.598   0.542   1.764  1.00  0.00     0.243 C 
ATOM     16  O   UNL     1     -10.062   1.655   1.525  1.00  0.00    -0.273 OA
ATOM     17  H   UNL     1      -7.928  -0.667   1.893  1.00  0.00     0.164 HD
BRANCH  15  18
ATOM     18  C   UNL     1     -10.391  -0.589   2.464  1.00  0.00     0.171 C 
BRANCH  18  19
ATOM     19  N   UNL     1     -11.363  -1.083   1.490  1.00  0.00    -0.343 N 
ATOM     20  C   UNL     1     -12.677  -0.655   1.491  1.00  0.00     0.242 CG0
ATOM     21  O   UNL     1     -13.122   0.057   2.388  1.00  0.00    -0.273 OA
ATOM     22  H   UNL     1     -11.072  -1.762   0.797  1.00  0.00     0.164 HD
ATOM     23  G   UNL     1     -13.533  -1.225   0.341  1.00  0.00     0.000 G0
ENDBRANCH  18  19
BRANCH  18  24
ATOM     24  C   UNL     1      -9.448  -1.704   2.930  1.00  0.00     0.038 C 
BRANCH  24  25
ATOM     25  C   UNL     1     -10.096  -2.750   3.862  1.00  0.00    -0.015 C 
ATOM     26  C   UNL     1      -9.702  -2.554   5.326  1.00  0.00     0.007 C 
ATOM     27  C   UNL     1      -9.705  -4.158   3.407  1.00  0.00     0.007 C 
ENDBRANCH  24  25
ENDBRANCH  18  24
ENDBRANCH  15  18
ENDBRANCH  13  14
BRANCH  13  28
ATOM     28  C   UNL     1      -6.851   2.032   2.261  1.00  0.00     0.327 C 
ATOM     29  O   UNL     1      -6.040   1.694   3.109  1.00  0.00    -0.250 OA
BRANCH  28  30
ATOM     30  O   UNL     1      -7.539   3.184   2.395  1.00  0.00    -0.480 OA
ATOM     31  H   UNL     1      -8.225   2.978   3.063  1.00  0.00     0.296 HD
ENDBRANCH  28  30
ENDBRANCH  13  28
ENDBRANCH  11  13
ENDBRANCH   8  11
ENDBRANCH   6   7
BRANCH   6  32
ATOM     32  C   UNL     1      -7.097  -4.007  -0.786  1.00  0.00     0.037 C 
BRANCH  32  33
ATOM     33  C   UNL     1      -8.377  -3.893   0.054  1.00  0.00     0.026 C 
BRANCH  33  34
ATOM     34  C   UNL     1      -9.520  -3.223  -0.709  1.00  0.00     0.146 C 
BRANCH  34  35
ATOM     35  N   UNL     1      -9.231  -1.801  -0.834  1.00  0.00    -0.254 NA
ATOM     36  C   UNL     1      -9.850  -1.125  -1.728  1.00  0.00     0.185 C 
ATOM     37  N   UNL     1      -9.595   0.187  -1.849  1.00  0.00    -0.370 N 
ATOM     38  N   UNL     1     -10.769  -1.542  -2.617  1.00  0.00    -0.370 N 
ATOM     39  H   UNL     1      -8.920   0.580  -1.205  1.00  0.00     0.159 HD
ATOM     40  H   UNL     1     -10.157   0.815  -2.399  1.00  0.00     0.159 HD
ATOM     41  H   UNL     1     -11.081  -0.942  -3.364  1.00  0.00     0.159 HD
ATOM     42  H   UNL     1     -11.046  -2.510  -2.652  1.00  0.00     0.159 HD
ENDBRANCH  34  35
ENDBRANCH  33  34
ENDBRANCH  32  33
ENDBRANCH   6  32
ENDBRANCH   4   6
ENDBRANCH   1   2
BRANCH   1  43
ATOM     43  C   UNL     1      -1.353  -2.472  -0.686  1.00  0.00     0.102 C 
ATOM     44  C   UNL     1      -1.970  -2.061   0.662  1.00  0.00     0.020 C 
BRANCH  43  45
ATOM     45  C   UNL     1      -0.475  -1.390  -1.323  1.00  0.00     0.225 C 
ATOM     46  O   UNL     1      -0.689  -0.188  -1.188  1.00  0.00    -0.275 OA
ATOM     47  N   UNL     1       0.528  -1.849  -2.145  1.00  0.00    -0.342 N 
ATOM     48  H   UNL     1       0.784  -2.826  -2.125  1.00  0.00     0.164 HD
BRANCH  47  49
ATOM     49  C   UNL     1       1.468  -0.929  -2.794  1.00  0.00     0.192 C 
BRANCH  49  50
ATOM     50  C   UNL     1       1.443  -1.153  -4.308  1.00  0.00     0.047 C 
BRANCH  50  51
ATOM     51  C   UNL     1       0.881  -2.531  -4.684  1.00  0.00     0.103 C 
BRANCH  51  52
ATOM     52  C   UNL     1       1.949  -3.440  -5.289  1.00  0.00     0.226 C 
ATOM     53  O   UNL     1       3.037  -3.563  -4.723  1.00  0.00    -0.275 OA
BRANCH  52  54
ATOM     54  N   UNL     1       1.582  -4.156  -6.444  1.00  0.00    -0.311 N 
ATOM     55  C   UNL     1       0.210  -4.649  -6.624  1.00  0.00     0.153 C 
BRANCH  54  56
ATOM     56  C   UNL     1       2.508  -4.420  -7.466  1.00  0.00     0.102 C 
ATOM     57  C   UNL     1       2.765  -3.603  -8.501  1.00  0.00     0.043 C 
BRANCH  56  58
ATOM     58  C   UNL     1       3.348  -5.675  -7.446  1.00  0.00     0.268 C 
ATOM     59  O   UNL     1       4.325  -5.816  -6.723  1.00  0.00    -0.268 OA
ATOM     60  N   UNL     1       2.864  -6.662  -8.271  1.00  0.00    -0.339 N 
ATOM     61  H   UNL     1       2.054  -6.463  -8.847  1.00  0.00     0.164 HD
BRANCH  60  62
ATOM     62  C   UNL     1       3.489  -7.982  -8.358  1.00  0.00     0.168 CG0
ATOM     63  C   UNL     1       4.546  -8.016  -9.454  1.00  0.00     0.041 C 
ATOM     64  G   UNL     1       2.406  -9.051  -8.610  1.00  0.00     0.000 G0
ENDBRANCH  60  62
ENDBRANCH  56  58
ENDBRANCH  54  56
ENDBRANCH  52  54
ENDBRANCH  51  52
ENDBRANCH  50  51
ENDBRANCH  49  50
BRANCH  49  65
ATOM     65  C   UNL     1       2.900  -1.123  -2.274  1.00  0.00     0.326 C 
ATOM     66  O   UNL     1       3.722  -0.233  -2.106  1.00  0.00    -0.250 OA
BRANCH  65  67
ATOM     67  O   UNL     1       3.251  -2.409  -2.052  1.00  0.00    -0.480 OA
ATOM     68  H   UNL     1       4.008  -2.339  -1.431  1.00  0.00     0.296 HD
ENDBRANCH  65  67
ENDBRANCH  49  65
ENDBRANCH  47  49
ENDBRANCH  43  45
ENDBRANCH   1  43
BRANCH   1  69
ATOM     69  C   UNL     1      -2.398  -2.465  -3.118  1.00  0.00    -0.001 C 
ATOM     70  C   UNL     1      -3.205  -1.516  -3.623  1.00  0.00     0.001 C 
BRANCH  70  71
ATOM     71  C   UNL     1      -3.184  -0.976  -4.984  1.00  0.00    -0.055 C 
ATOM     72  C   UNL     1      -1.986  -0.640  -5.507  1.00  0.00    -0.018 C 
ATOM     73  C   UNL     1      -4.499  -0.840  -5.706  1.00  0.00     0.044 C 
BRANCH  72  74
ATOM     74  C   UNL     1      -1.661  -0.067  -6.879  1.00  0.00     0.038 C 
ATOM     75  C   UNL     1      -1.147  -1.224  -7.743  1.00  0.00     0.015 C 
BRANCH  74  76
ATOM     76  C   UNL     1      -0.660   1.113  -6.704  1.00  0.00     0.128 C 
BRANCH  76  77
ATOM     77  O   UNL     1       0.404   1.000  -7.665  1.00  0.00    -0.381 OA
ATOM     78  C   UNL     1       1.678   1.365  -7.151  1.00  0.00     0.195 C 
ENDBRANCH  76  77
BRANCH  76  79
ATOM     79  C   UNL     1      -1.327   2.511  -6.711  1.00  0.00     0.068 C 
BRANCH  79  80
ATOM     80  C   UNL     1      -2.718   2.634  -6.136  1.00  0.00    -0.045 A 
ATOM     81  C   UNL     1      -3.844   2.654  -6.970  1.00  0.00     0.004 A 
ATOM     82  C   UNL     1      -2.903   2.757  -4.751  1.00  0.00     0.004 A 
ATOM     83  C   UNL     1      -5.126   2.782  -6.432  1.00  0.00     0.000 A 
ATOM     84  C   UNL     1      -4.185   2.886  -4.214  1.00  0.00     0.000 A 
ATOM     85  C   UNL     1      -5.297   2.896  -5.054  1.00  0.00     0.000 A 
ENDBRANCH  79  80
ENDBRANCH  76  79
ENDBRANCH  74  76
ENDBRANCH  72  74
ENDBRANCH  70  71
ENDBRANCH   1  69
TORSDOF 17
ENDMDL
MODEL 27
REMARK VINA RESULT:    -6.171      3.203     11.145
REMARK INTER + INTRA:         -26.051
REMARK INTER:                 -18.870
REMARK INTRA:                  -7.182
REMARK UNBOUND:                -7.614
REMARK SMILES C=C1C(=O)N[C@H](C)C(=O)N[C@@H](CC(C)C)C(=O)N[C@@H](C(=O)O)[C@H](C)C(=O)N[C@@H](CCCN=C(N)N)C(=O)N[C@@H](/C=C/C(C)=C/[C@H](C)[C@H](Cc2ccccc2)OC)[C@H](C)C(=O)N[C@@H](C(=O)O)CCC(=O)N1C
REMARK SMILES IDX 39 1 38 2 37 3 36 4 28 6 27 7 25 8 26 9 23 11 24 12 19 13
REMARK SMILES IDX 18 14 16 15 17 16 11 18 10 19 8 20 9 21 12 24 13 25 14 26
REMARK SMILES IDX 15 27 20 28 21 29 22 30 29 32 30 33 31 34 32 35 33 36 34 37
REMARK SMILES IDX 35 38 57 43 58 44 59 45 60 46 61 47 62 49 66 50 67 51 68 52
REMARK SMILES IDX 69 53 70 54 71 55 2 56 1 57 3 58 4 59 5 60 6 62 7 63 63 65
REMARK SMILES IDX 64 66 65 67 40 69 41 70 42 71 44 72 43 73 45 74 46 75 47 76
REMARK SMILES IDX 55 77 56 78 48 79 49 80 50 81 54 82 51 83 53 84 52 85
REMARK H PARENT 38 5 27 10 18 17 10 22 22 31 34 39 34 40 35 41 35 42 61 48
REMARK H PARENT 5 61 65 68
REMARK Flexibility Score:  369.900
ROOT
ATOM      1  C   UNL     1      -6.334   0.947  -5.531  1.00  0.00     0.117 C 
ENDROOT
BRANCH   1   2
ATOM      2  N   UNL     1      -4.992   0.421  -5.783  1.00  0.00    -0.347 N 
ATOM      3  O   UNL     1      -4.328   1.980  -7.331  1.00  0.00    -0.273 OA
ATOM      4  C   UNL     1      -4.060   1.035  -6.597  1.00  0.00     0.243 C 
ATOM      5  H   UNL     1      -4.690  -0.414  -5.303  1.00  0.00     0.164 HD
BRANCH   4   6
ATOM      6  C   UNL     1      -2.686   0.317  -6.624  1.00  0.00     0.171 C 
BRANCH   6   7
ATOM      7  N   UNL     1      -1.593   1.301  -6.663  1.00  0.00    -0.344 N 
ATOM      8  C   UNL     1      -0.441   1.044  -7.375  1.00  0.00     0.226 C 
ATOM      9  O   UNL     1      -0.260  -0.005  -7.982  1.00  0.00    -0.275 OA
ATOM     10  H   UNL     1      -1.677   2.151  -6.119  1.00  0.00     0.164 HD
BRANCH   8  11
ATOM     11  C   UNL     1       0.568   2.178  -7.363  1.00  0.00     0.109 C 
ATOM     12  C   UNL     1       0.612   2.829  -5.980  1.00  0.00     0.021 C 
BRANCH  11  13
ATOM     13  C   UNL     1       1.928   1.672  -7.884  1.00  0.00     0.204 C 
BRANCH  13  14
ATOM     14  N   UNL     1       2.350   2.377  -9.098  1.00  0.00    -0.340 N 
ATOM     15  C   UNL     1       2.150   1.871 -10.365  1.00  0.00     0.243 C 
ATOM     16  O   UNL     1       1.547   0.819 -10.568  1.00  0.00    -0.273 OA
ATOM     17  H   UNL     1       2.985   3.173  -8.996  1.00  0.00     0.164 HD
BRANCH  15  18
ATOM     18  C   UNL     1       2.861   2.683 -11.475  1.00  0.00     0.171 C 
BRANCH  18  19
ATOM     19  N   UNL     1       2.516   2.048 -12.745  1.00  0.00    -0.343 N 
ATOM     20  C   UNL     1       3.437   1.913 -13.766  1.00  0.00     0.242 CG0
ATOM     21  O   UNL     1       4.546   2.438 -13.706  1.00  0.00    -0.273 OA
ATOM     22  H   UNL     1       1.575   1.700 -12.887  1.00  0.00     0.164 HD
ATOM     23  G   UNL     1       2.914   1.146 -14.998  1.00  0.00     0.000 G0
ENDBRANCH  18  19
BRANCH  18  24
ATOM     24  C   UNL     1       2.415   4.151 -11.442  1.00  0.00     0.038 C 
BRANCH  24  25
ATOM     25  C   UNL     1       0.910   4.361 -11.171  1.00  0.00    -0.015 C 
ATOM     26  C   UNL     1       0.047   4.048 -12.393  1.00  0.00     0.007 C 
ATOM     27  C   UNL     1       0.665   5.804 -10.722  1.00  0.00     0.007 C 
ENDBRANCH  24  25
ENDBRANCH  18  24
ENDBRANCH  15  18
ENDBRANCH  13  14
BRANCH  13  28
ATOM     28  C   UNL     1       3.058   1.815  -6.860  1.00  0.00     0.327 C 
ATOM     29  O   UNL     1       3.737   2.813  -6.667  1.00  0.00    -0.250 OA
BRANCH  28  30
ATOM     30  O   UNL     1       3.346   0.661  -6.225  1.00  0.00    -0.480 OA
ATOM     31  H   UNL     1       3.676   0.945  -5.347  1.00  0.00     0.296 HD
ENDBRANCH  28  30
ENDBRANCH  13  28
ENDBRANCH  11  13
ENDBRANCH   8  11
ENDBRANCH   6   7
BRANCH   6  32
ATOM     32  C   UNL     1      -2.566  -0.586  -5.392  1.00  0.00     0.037 C 
BRANCH  32  33
ATOM     33  C   UNL     1      -1.771   0.081  -4.260  1.00  0.00     0.026 C 
BRANCH  33  34
ATOM     34  C   UNL     1      -0.813  -0.890  -3.568  1.00  0.00     0.146 C 
BRANCH  34  35
ATOM     35  N   UNL     1      -0.571  -0.422  -2.210  1.00  0.00    -0.254 NA
ATOM     36  C   UNL     1      -1.478  -0.610  -1.325  1.00  0.00     0.185 C 
ATOM     37  N   UNL     1      -1.264  -0.187  -0.069  1.00  0.00    -0.370 N 
ATOM     38  N   UNL     1      -2.681  -1.197  -1.458  1.00  0.00    -0.370 N 
ATOM     39  H   UNL     1      -0.373   0.258   0.115  1.00  0.00     0.159 HD
ATOM     40  H   UNL     1      -1.841  -0.448   0.712  1.00  0.00     0.159 HD
ATOM     41  H   UNL     1      -3.363  -1.160  -0.719  1.00  0.00     0.159 HD
ATOM     42  H   UNL     1      -2.983  -1.549  -2.353  1.00  0.00     0.159 HD
ENDBRANCH  34  35
ENDBRANCH  33  34
ENDBRANCH  32  33
ENDBRANCH   6  32
ENDBRANCH   4   6
ENDBRANCH   1   2
BRANCH   1  43
ATOM     43  C   UNL     1      -6.336   1.657  -4.147  1.00  0.00     0.102 C 
ATOM     44  C   UNL     1      -5.573   2.993  -4.143  1.00  0.00     0.020 C 
BRANCH  43  45
ATOM     45  C   UNL     1      -5.910   0.695  -3.034  1.00  0.00     0.225 C 
ATOM     46  O   UNL     1      -5.197  -0.285  -3.232  1.00  0.00    -0.275 OA
ATOM     47  N   UNL     1      -6.455   0.943  -1.796  1.00  0.00    -0.342 N 
ATOM     48  H   UNL     1      -6.909   1.828  -1.617  1.00  0.00     0.164 HD
BRANCH  47  49
ATOM     49  C   UNL     1      -6.109   0.126  -0.629  1.00  0.00     0.192 C 
BRANCH  49  50
ATOM     50  C   UNL     1      -7.389  -0.384   0.040  1.00  0.00     0.047 C 
BRANCH  50  51
ATOM     51  C   UNL     1      -7.108  -1.489   1.067  1.00  0.00     0.103 C 
BRANCH  51  52
ATOM     52  C   UNL     1      -6.163  -2.556   0.519  1.00  0.00     0.226 C 
ATOM     53  O   UNL     1      -5.032  -2.672   0.994  1.00  0.00    -0.275 OA
BRANCH  52  54
ATOM     54  N   UNL     1      -6.688  -3.409  -0.470  1.00  0.00    -0.311 N 
ATOM     55  C   UNL     1      -6.014  -3.568  -1.766  1.00  0.00     0.153 C 
BRANCH  54  56
ATOM     56  C   UNL     1      -7.867  -4.141  -0.255  1.00  0.00     0.102 C 
ATOM     57  C   UNL     1      -8.938  -4.128  -1.065  1.00  0.00     0.043 C 
BRANCH  56  58
ATOM     58  C   UNL     1      -7.998  -5.068   0.930  1.00  0.00     0.268 C 
ATOM     59  O   UNL     1      -7.092  -5.795   1.315  1.00  0.00    -0.268 OA
ATOM     60  N   UNL     1      -9.212  -4.963   1.566  1.00  0.00    -0.339 N 
ATOM     61  H   UNL     1      -9.914  -4.345   1.177  1.00  0.00     0.164 HD
BRANCH  60  62
ATOM     62  C   UNL     1      -9.527  -5.725   2.774  1.00  0.00     0.168 CG0
ATOM     63  C   UNL     1     -10.140  -7.076   2.424  1.00  0.00     0.041 C 
ATOM     64  G   UNL     1     -10.482  -4.907   3.667  1.00  0.00     0.000 G0
ENDBRANCH  60  62
ENDBRANCH  56  58
ENDBRANCH  54  56
ENDBRANCH  52  54
ENDBRANCH  51  52
ENDBRANCH  50  51
ENDBRANCH  49  50
BRANCH  49  65
ATOM     65  C   UNL     1      -5.282   0.920   0.394  1.00  0.00     0.326 C 
ATOM     66  O   UNL     1      -5.580   2.013   0.854  1.00  0.00    -0.250 OA
BRANCH  65  67
ATOM     67  O   UNL     1      -4.110   0.344   0.741  1.00  0.00    -0.480 OA
ATOM     68  H   UNL     1      -3.437   0.907   0.302  1.00  0.00     0.296 HD
ENDBRANCH  65  67
ENDBRANCH  49  65
ENDBRANCH  47  49
ENDBRANCH  43  45
ENDBRANCH   1  43
BRANCH   1  69
ATOM     69  C   UNL     1      -7.292  -0.206  -5.766  1.00  0.00    -0.001 C 
ATOM     70  C   UNL     1      -8.530  -0.147  -6.288  1.00  0.00     0.001 C 
BRANCH  70  71
ATOM     71  C   UNL     1      -9.438  -1.270  -6.529  1.00  0.00    -0.055 C 
ATOM     72  C   UNL     1      -9.312  -2.359  -5.742  1.00  0.00    -0.018 C 
ATOM     73  C   UNL     1     -10.453  -1.128  -7.633  1.00  0.00     0.044 C 
BRANCH  72  74
ATOM     74  C   UNL     1     -10.107  -3.656  -5.758  1.00  0.00     0.038 C 
ATOM     75  C   UNL     1     -10.757  -3.806  -4.377  1.00  0.00     0.015 C 
BRANCH  74  76
ATOM     76  C   UNL     1      -9.156  -4.821  -6.163  1.00  0.00     0.128 C 
BRANCH  76  77
ATOM     77  O   UNL     1      -9.652  -6.064  -5.637  1.00  0.00    -0.381 OA
ATOM     78  C   UNL     1     -10.118  -6.962  -6.636  1.00  0.00     0.195 C 
ENDBRANCH  76  77
BRANCH  76  79
ATOM     79  C   UNL     1      -8.856  -4.890  -7.681  1.00  0.00     0.068 C 
BRANCH  79  80
ATOM     80  C   UNL     1      -7.856  -3.912  -8.249  1.00  0.00    -0.045 A 
ATOM     81  C   UNL     1      -6.655  -3.637  -7.581  1.00  0.00     0.004 A 
ATOM     82  C   UNL     1      -8.130  -3.237  -9.448  1.00  0.00     0.004 A 
ATOM     83  C   UNL     1      -5.742  -2.720  -8.106  1.00  0.00     0.000 A 
ATOM     84  C   UNL     1      -7.216  -2.319  -9.971  1.00  0.00     0.000 A 
ATOM     85  C   UNL     1      -6.022  -2.063  -9.301  1.00  0.00     0.000 A 
ENDBRANCH  79  80
ENDBRANCH  76  79
ENDBRANCH  74  76
ENDBRANCH  72  74
ENDBRANCH  70  71
ENDBRANCH   1  69
TORSDOF 17
ENDMDL
MODEL 28
REMARK VINA RESULT:    -6.167      6.347     10.922
REMARK INTER + INTRA:         -26.039
REMARK INTER:                 -19.488
REMARK INTRA:                  -6.550
REMARK UNBOUND:                -7.614
REMARK SMILES C=C1C(=O)N[C@H](C)C(=O)N[C@@H](CC(C)C)C(=O)N[C@@H](C(=O)O)[C@H](C)C(=O)N[C@@H](CCCN=C(N)N)C(=O)N[C@@H](/C=C/C(C)=C/[C@H](C)[C@H](Cc2ccccc2)OC)[C@H](C)C(=O)N[C@@H](C(=O)O)CCC(=O)N1C
REMARK SMILES IDX 39 1 38 2 37 3 36 4 28 6 27 7 25 8 26 9 23 11 24 12 19 13
REMARK SMILES IDX 18 14 16 15 17 16 11 18 10 19 8 20 9 21 12 24 13 25 14 26
REMARK SMILES IDX 15 27 20 28 21 29 22 30 29 32 30 33 31 34 32 35 33 36 34 37
REMARK SMILES IDX 35 38 57 43 58 44 59 45 60 46 61 47 62 49 66 50 67 51 68 52
REMARK SMILES IDX 69 53 70 54 71 55 2 56 1 57 3 58 4 59 5 60 6 62 7 63 63 65
REMARK SMILES IDX 64 66 65 67 40 69 41 70 42 71 44 72 43 73 45 74 46 75 47 76
REMARK SMILES IDX 55 77 56 78 48 79 49 80 50 81 54 82 51 83 53 84 52 85
REMARK H PARENT 38 5 27 10 18 17 10 22 22 31 34 39 34 40 35 41 35 42 61 48
REMARK H PARENT 5 61 65 68
REMARK Flexibility Score:  369.900
ROOT
ATOM      1  C   UNL     1      -6.642  -3.261   0.588  1.00  0.00     0.117 C 
ENDROOT
BRANCH   1   2
ATOM      2  N   UNL     1      -7.395  -4.211   1.409  1.00  0.00    -0.347 N 
ATOM      3  O   UNL     1      -9.460  -3.230   1.208  1.00  0.00    -0.273 OA
ATOM      4  C   UNL     1      -8.765  -4.170   1.579  1.00  0.00     0.243 C 
ATOM      5  H   UNL     1      -6.909  -4.979   1.847  1.00  0.00     0.164 HD
BRANCH   4   6
ATOM      6  C   UNL     1      -9.323  -5.342   2.425  1.00  0.00     0.171 C 
BRANCH   6   7
ATOM      7  N   UNL     1     -10.677  -5.027   2.910  1.00  0.00    -0.344 N 
ATOM      8  C   UNL     1     -10.870  -4.524   4.178  1.00  0.00     0.226 C 
ATOM      9  O   UNL     1      -9.946  -4.337   4.962  1.00  0.00    -0.275 OA
ATOM     10  H   UNL     1     -11.471  -5.231   2.316  1.00  0.00     0.164 HD
BRANCH   8  11
ATOM     11  C   UNL     1     -12.316  -4.199   4.509  1.00  0.00     0.109 C 
ATOM     12  C   UNL     1     -13.254  -4.968   3.579  1.00  0.00     0.021 C 
BRANCH  11  13
ATOM     13  C   UNL     1     -12.569  -4.422   6.014  1.00  0.00     0.204 C 
BRANCH  13  14
ATOM     14  N   UNL     1     -12.568  -3.163   6.765  1.00  0.00    -0.340 N 
ATOM     15  C   UNL     1     -11.909  -3.009   7.966  1.00  0.00     0.243 C 
ATOM     16  O   UNL     1     -11.223  -3.901   8.462  1.00  0.00    -0.273 OA
ATOM     17  H   UNL     1     -13.235  -2.438   6.489  1.00  0.00     0.164 HD
BRANCH  15  18
ATOM     18  C   UNL     1     -12.219  -1.667   8.674  1.00  0.00     0.171 C 
BRANCH  18  19
ATOM     19  N   UNL     1     -13.610  -1.740   9.117  1.00  0.00    -0.343 N 
ATOM     20  C   UNL     1     -14.545  -0.794   8.742  1.00  0.00     0.242 CG0
ATOM     21  O   UNL     1     -14.222   0.222   8.130  1.00  0.00    -0.273 OA
ATOM     22  H   UNL     1     -13.901  -2.500   9.721  1.00  0.00     0.164 HD
ATOM     23  G   UNL     1     -15.976  -1.080   9.241  1.00  0.00     0.000 G0
ENDBRANCH  18  19
BRANCH  18  24
ATOM     24  C   UNL     1     -11.265  -1.444   9.854  1.00  0.00     0.038 C 
BRANCH  24  25
ATOM     25  C   UNL     1     -10.844   0.025  10.073  1.00  0.00    -0.015 C 
ATOM     26  C   UNL     1      -9.327   0.193  10.154  1.00  0.00     0.007 C 
ATOM     27  C   UNL     1     -11.491   0.559  11.354  1.00  0.00     0.007 C 
ENDBRANCH  24  25
ENDBRANCH  18  24
ENDBRANCH  15  18
ENDBRANCH  13  14
BRANCH  13  28
ATOM     28  C   UNL     1     -13.899  -5.123   6.305  1.00  0.00     0.327 C 
ATOM     29  O   UNL     1     -14.947  -4.581   6.624  1.00  0.00    -0.250 OA
BRANCH  28  30
ATOM     30  O   UNL     1     -13.802  -6.468   6.292  1.00  0.00    -0.480 OA
ATOM     31  H   UNL     1     -12.840  -6.640   6.360  1.00  0.00     0.296 HD
ENDBRANCH  28  30
ENDBRANCH  13  28
ENDBRANCH  11  13
ENDBRANCH   8  11
ENDBRANCH   6   7
BRANCH   6  32
ATOM     32  C   UNL     1      -9.329  -6.618   1.576  1.00  0.00     0.037 C 
BRANCH  32  33
ATOM     33  C   UNL     1      -9.707  -7.858   2.398  1.00  0.00     0.026 C 
BRANCH  33  34
ATOM     34  C   UNL     1     -10.228  -9.001   1.526  1.00  0.00     0.146 C 
BRANCH  34  35
ATOM     35  N   UNL     1     -11.580  -9.337   1.950  1.00  0.00    -0.254 NA
ATOM     36  C   UNL     1     -12.568  -8.877   1.277  1.00  0.00     0.185 C 
ATOM     37  N   UNL     1     -13.817  -9.185   1.657  1.00  0.00    -0.370 N 
ATOM     38  N   UNL     1     -12.553  -8.089   0.187  1.00  0.00    -0.370 N 
ATOM     39  H   UNL     1     -13.912  -9.785   2.466  1.00  0.00     0.159 HD
ATOM     40  H   UNL     1     -14.629  -9.011   1.090  1.00  0.00     0.159 HD
ATOM     41  H   UNL     1     -13.400  -7.679  -0.170  1.00  0.00     0.159 HD
ATOM     42  H   UNL     1     -11.680  -7.766  -0.200  1.00  0.00     0.159 HD
ENDBRANCH  34  35
ENDBRANCH  33  34
ENDBRANCH  32  33
ENDBRANCH   6  32
ENDBRANCH   4   6
ENDBRANCH   1   2
BRANCH   1  43
ATOM     43  C   UNL     1      -5.535  -4.039  -0.180  1.00  0.00     0.102 C 
ATOM     44  C   UNL     1      -4.913  -5.184   0.637  1.00  0.00     0.020 C 
BRANCH  43  45
ATOM     45  C   UNL     1      -4.507  -3.078  -0.785  1.00  0.00     0.225 C 
ATOM     46  O   UNL     1      -4.733  -2.395  -1.780  1.00  0.00    -0.275 OA
ATOM     47  N   UNL     1      -3.263  -3.093  -0.197  1.00  0.00    -0.342 N 
ATOM     48  H   UNL     1      -3.140  -3.540   0.701  1.00  0.00     0.164 HD
BRANCH  47  49
ATOM     49  C   UNL     1      -2.191  -2.201  -0.648  1.00  0.00     0.192 C 
BRANCH  49  50
ATOM     50  C   UNL     1      -0.995  -3.032  -1.119  1.00  0.00     0.047 C 
BRANCH  50  51
ATOM     51  C   UNL     1      -0.974  -3.212  -2.643  1.00  0.00     0.103 C 
BRANCH  51  52
ATOM     52  C   UNL     1       0.339  -2.734  -3.259  1.00  0.00     0.226 C 
ATOM     53  O   UNL     1       1.185  -3.560  -3.609  1.00  0.00    -0.275 OA
BRANCH  52  54
ATOM     54  N   UNL     1       0.469  -1.348  -3.462  1.00  0.00    -0.311 N 
ATOM     55  C   UNL     1      -0.715  -0.493  -3.623  1.00  0.00     0.153 C 
BRANCH  54  56
ATOM     56  C   UNL     1       1.729  -0.730  -3.511  1.00  0.00     0.102 C 
ATOM     57  C   UNL     1       2.547  -0.566  -2.458  1.00  0.00     0.043 C 
BRANCH  56  58
ATOM     58  C   UNL     1       2.294  -0.225  -4.818  1.00  0.00     0.268 C 
ATOM     59  O   UNL     1       2.141  -0.807  -5.883  1.00  0.00    -0.268 OA
ATOM     60  N   UNL     1       2.938   0.984  -4.698  1.00  0.00    -0.339 N 
ATOM     61  H   UNL     1       3.031   1.396  -3.777  1.00  0.00     0.164 HD
BRANCH  60  62
ATOM     62  C   UNL     1       3.504   1.683  -5.850  1.00  0.00     0.168 CG0
ATOM     63  C   UNL     1       4.502   2.746  -5.408  1.00  0.00     0.041 C 
ATOM     64  G   UNL     1       2.368   2.313  -6.683  1.00  0.00     0.000 G0
ENDBRANCH  60  62
ENDBRANCH  56  58
ENDBRANCH  54  56
ENDBRANCH  52  54
ENDBRANCH  51  52
ENDBRANCH  50  51
ENDBRANCH  49  50
BRANCH  49  65
ATOM     65  C   UNL     1      -1.741  -1.247   0.468  1.00  0.00     0.326 C 
ATOM     66  O   UNL     1      -2.048  -1.337   1.648  1.00  0.00    -0.250 OA
BRANCH  65  67
ATOM     67  O   UNL     1      -0.988  -0.205   0.050  1.00  0.00    -0.480 OA
ATOM     68  H   UNL     1      -1.189  -0.144  -0.908  1.00  0.00     0.296 HD
ENDBRANCH  65  67
ENDBRANCH  49  65
ENDBRANCH  47  49
ENDBRANCH  43  45
ENDBRANCH   1  43
BRANCH   1  69
ATOM     69  C   UNL     1      -6.235  -2.130   1.515  1.00  0.00    -0.001 C 
ATOM     70  C   UNL     1      -6.001  -0.847   1.184  1.00  0.00     0.001 C 
BRANCH  70  71
ATOM     71  C   UNL     1      -5.629   0.241   2.091  1.00  0.00    -0.055 C 
ATOM     72  C   UNL     1      -4.964  -0.082   3.220  1.00  0.00    -0.018 C 
ATOM     73  C   UNL     1      -6.008   1.644   1.696  1.00  0.00     0.044 C 
BRANCH  72  74
ATOM     74  C   UNL     1      -4.454   0.825   4.331  1.00  0.00     0.038 C 
ATOM     75  C   UNL     1      -3.048   0.339   4.703  1.00  0.00     0.015 C 
BRANCH  74  76
ATOM     76  C   UNL     1      -5.481   0.809   5.501  1.00  0.00     0.128 C 
BRANCH  76  77
ATOM     77  O   UNL     1      -6.368   1.935   5.391  1.00  0.00    -0.381 OA
ATOM     78  C   UNL     1      -5.991   3.041   6.200  1.00  0.00     0.195 C 
ENDBRANCH  76  77
BRANCH  76  79
ATOM     79  C   UNL     1      -6.235  -0.535   5.659  1.00  0.00     0.068 C 
BRANCH  79  80
ATOM     80  C   UNL     1      -7.734  -0.530   5.479  1.00  0.00    -0.045 A 
ATOM     81  C   UNL     1      -8.587  -0.166   6.529  1.00  0.00     0.004 A 
ATOM     82  C   UNL     1      -8.300  -0.921   4.255  1.00  0.00     0.004 A 
ATOM     83  C   UNL     1      -9.973  -0.178   6.358  1.00  0.00     0.000 A 
ATOM     84  C   UNL     1      -9.686  -0.933   4.086  1.00  0.00     0.000 A 
ATOM     85  C   UNL     1     -10.522  -0.560   5.136  1.00  0.00     0.000 A 
ENDBRANCH  79  80
ENDBRANCH  76  79
ENDBRANCH  74  76
ENDBRANCH  72  74
ENDBRANCH  70  71
ENDBRANCH   1  69
TORSDOF 17
ENDMDL
MODEL 29
REMARK VINA RESULT:    -6.164      2.989      5.451
REMARK INTER + INTRA:         -26.030
REMARK INTER:                 -18.803
REMARK INTRA:                  -7.227
REMARK UNBOUND:                -7.614
REMARK SMILES C=C1C(=O)N[C@H](C)C(=O)N[C@@H](CC(C)C)C(=O)N[C@@H](C(=O)O)[C@H](C)C(=O)N[C@@H](CCCN=C(N)N)C(=O)N[C@@H](/C=C/C(C)=C/[C@H](C)[C@H](Cc2ccccc2)OC)[C@H](C)C(=O)N[C@@H](C(=O)O)CCC(=O)N1C
REMARK SMILES IDX 39 1 38 2 37 3 36 4 28 6 27 7 25 8 26 9 23 11 24 12 19 13
REMARK SMILES IDX 18 14 16 15 17 16 11 18 10 19 8 20 9 21 12 24 13 25 14 26
REMARK SMILES IDX 15 27 20 28 21 29 22 30 29 32 30 33 31 34 32 35 33 36 34 37
REMARK SMILES IDX 35 38 57 43 58 44 59 45 60 46 61 47 62 49 66 50 67 51 68 52
REMARK SMILES IDX 69 53 70 54 71 55 2 56 1 57 3 58 4 59 5 60 6 62 7 63 63 65
REMARK SMILES IDX 64 66 65 67 40 69 41 70 42 71 44 72 43 73 45 74 46 75 47 76
REMARK SMILES IDX 55 77 56 78 48 79 49 80 50 81 54 82 51 83 53 84 52 85
REMARK H PARENT 38 5 27 10 18 17 10 22 22 31 34 39 34 40 35 41 35 42 61 48
REMARK H PARENT 5 61 65 68
REMARK Flexibility Score:  369.900
ROOT
ATOM      1  C   UNL     1      -4.052   0.339  -5.732  1.00  0.00     0.117 C 
ENDROOT
BRANCH   1   2
ATOM      2  N   UNL     1      -3.106  -0.327  -4.837  1.00  0.00    -0.347 N 
ATOM      3  O   UNL     1      -1.809  -1.330  -6.443  1.00  0.00    -0.273 OA
ATOM      4  C   UNL     1      -2.002  -1.036  -5.268  1.00  0.00     0.243 C 
ATOM      5  H   UNL     1      -3.220  -0.235  -3.839  1.00  0.00     0.164 HD
BRANCH   4   6
ATOM      6  C   UNL     1      -1.114  -1.569  -4.115  1.00  0.00     0.171 C 
BRANCH   6   7
ATOM      7  N   UNL     1      -1.723  -1.260  -2.812  1.00  0.00    -0.344 N 
ATOM      8  C   UNL     1      -1.019  -0.561  -1.855  1.00  0.00     0.226 C 
ATOM      9  O   UNL     1       0.135  -0.188  -2.026  1.00  0.00    -0.275 OA
ATOM     10  H   UNL     1      -2.650  -1.611  -2.608  1.00  0.00     0.164 HD
BRANCH   8  11
ATOM     11  C   UNL     1      -1.803  -0.275  -0.587  1.00  0.00     0.109 C 
ATOM     12  C   UNL     1      -3.260   0.040  -0.928  1.00  0.00     0.021 C 
BRANCH  11  13
ATOM     13  C   UNL     1      -1.607  -1.426   0.419  1.00  0.00     0.204 C 
BRANCH  13  14
ATOM     14  N   UNL     1      -1.466  -0.940   1.795  1.00  0.00    -0.340 N 
ATOM     15  C   UNL     1      -0.442  -1.335   2.627  1.00  0.00     0.243 C 
ATOM     16  O   UNL     1       0.463  -2.079   2.253  1.00  0.00    -0.273 OA
ATOM     17  H   UNL     1      -2.259  -0.445   2.213  1.00  0.00     0.164 HD
BRANCH  15  18
ATOM     18  C   UNL     1      -0.614  -0.857   4.090  1.00  0.00     0.171 C 
BRANCH  18  19
ATOM     19  N   UNL     1      -1.520  -1.805   4.736  1.00  0.00    -0.343 N 
ATOM     20  C   UNL     1      -2.344  -1.430   5.780  1.00  0.00     0.242 CG0
ATOM     21  O   UNL     1      -2.257  -0.321   6.302  1.00  0.00    -0.273 OA
ATOM     22  H   UNL     1      -1.545  -2.767   4.416  1.00  0.00     0.164 HD
ATOM     23  G   UNL     1      -3.286  -2.545   6.280  1.00  0.00     0.000 G0
ENDBRANCH  18  19
BRANCH  18  24
ATOM     24  C   UNL     1       0.742  -0.801   4.805  1.00  0.00     0.038 C 
BRANCH  24  25
ATOM     25  C   UNL     1       1.369   0.607   4.886  1.00  0.00    -0.015 C 
ATOM     26  C   UNL     1       2.891   0.562   5.029  1.00  0.00     0.007 C 
ATOM     27  C   UNL     1       0.764   1.373   6.066  1.00  0.00     0.007 C 
ENDBRANCH  24  25
ENDBRANCH  18  24
ENDBRANCH  15  18
ENDBRANCH  13  14
BRANCH  13  28
ATOM     28  C   UNL     1      -2.759  -2.437   0.411  1.00  0.00     0.327 C 
ATOM     29  O   UNL     1      -3.672  -2.499   1.220  1.00  0.00    -0.250 OA
BRANCH  28  30
ATOM     30  O   UNL     1      -2.627  -3.381  -0.543  1.00  0.00    -0.480 OA
ATOM     31  H   UNL     1      -2.121  -4.097  -0.105  1.00  0.00     0.296 HD
ENDBRANCH  28  30
ENDBRANCH  13  28
ENDBRANCH  11  13
ENDBRANCH   8  11
ENDBRANCH   6   7
BRANCH   6  32
ATOM     32  C   UNL     1      -0.922  -3.081  -4.285  1.00  0.00     0.037 C 
BRANCH  32  33
ATOM     33  C   UNL     1       0.424  -3.561  -3.723  1.00  0.00     0.026 C 
BRANCH  33  34
ATOM     34  C   UNL     1       1.566  -2.593  -4.034  1.00  0.00     0.146 C 
BRANCH  34  35
ATOM     35  N   UNL     1       2.420  -3.187  -5.054  1.00  0.00    -0.254 NA
ATOM     36  C   UNL     1       2.262  -2.828  -6.273  1.00  0.00     0.185 C 
ATOM     37  N   UNL     1       3.046  -3.365  -7.220  1.00  0.00    -0.370 N 
ATOM     38  N   UNL     1       1.385  -1.947  -6.787  1.00  0.00    -0.370 N 
ATOM     39  H   UNL     1       3.741  -4.032  -6.910  1.00  0.00     0.159 HD
ATOM     40  H   UNL     1       3.104  -3.013  -8.160  1.00  0.00     0.159 HD
ATOM     41  H   UNL     1       1.264  -1.854  -7.783  1.00  0.00     0.159 HD
ATOM     42  H   UNL     1       0.721  -1.478  -6.192  1.00  0.00     0.159 HD
ENDBRANCH  34  35
ENDBRANCH  33  34
ENDBRANCH  32  33
ENDBRANCH   6  32
ENDBRANCH   4   6
ENDBRANCH   1   2
BRANCH   1  43
ATOM     43  C   UNL     1      -3.906   1.878  -5.550  1.00  0.00     0.102 C 
ATOM     44  C   UNL     1      -4.664   2.694  -6.611  1.00  0.00     0.020 C 
BRANCH  43  45
ATOM     45  C   UNL     1      -2.435   2.276  -5.395  1.00  0.00     0.225 C 
ATOM     46  O   UNL     1      -1.933   2.581  -4.317  1.00  0.00    -0.275 OA
ATOM     47  N   UNL     1      -1.718   2.363  -6.566  1.00  0.00    -0.342 N 
ATOM     48  H   UNL     1      -2.096   1.966  -7.415  1.00  0.00     0.164 HD
BRANCH  47  49
ATOM     49  C   UNL     1      -0.290   2.698  -6.567  1.00  0.00     0.192 C 
BRANCH  49  50
ATOM     50  C   UNL     1       0.057   3.463  -7.847  1.00  0.00     0.047 C 
BRANCH  50  51
ATOM     51  C   UNL     1       1.377   4.237  -7.722  1.00  0.00     0.103 C 
BRANCH  51  52
ATOM     52  C   UNL     1       1.888   4.722  -9.078  1.00  0.00     0.226 C 
ATOM     53  O   UNL     1       2.195   5.906  -9.226  1.00  0.00    -0.275 OA
BRANCH  52  54
ATOM     54  N   UNL     1       2.049   3.741 -10.074  1.00  0.00    -0.311 N 
ATOM     55  C   UNL     1       2.869   2.546  -9.833  1.00  0.00     0.153 C 
BRANCH  54  56
ATOM     56  C   UNL     1       1.430   3.863 -11.329  1.00  0.00     0.102 C 
ATOM     57  C   UNL     1       0.105   3.956 -11.527  1.00  0.00     0.043 C 
BRANCH  56  58
ATOM     58  C   UNL     1       2.252   3.947 -12.594  1.00  0.00     0.268 C 
ATOM     59  O   UNL     1       3.420   4.314 -12.610  1.00  0.00    -0.268 OA
ATOM     60  N   UNL     1       1.577   3.508 -13.707  1.00  0.00    -0.339 N 
ATOM     61  H   UNL     1       0.608   3.230 -13.611  1.00  0.00     0.164 HD
BRANCH  60  62
ATOM     62  C   UNL     1       2.206   3.446 -15.026  1.00  0.00     0.168 CG0
ATOM     63  C   UNL     1       2.792   2.064 -15.287  1.00  0.00     0.041 C 
ATOM     64  G   UNL     1       3.299   4.530 -15.129  1.00  0.00     0.000 G0
ENDBRANCH  60  62
ENDBRANCH  56  58
ENDBRANCH  54  56
ENDBRANCH  52  54
ENDBRANCH  51  52
ENDBRANCH  50  51
ENDBRANCH  49  50
BRANCH  49  65
ATOM     65  C   UNL     1       0.587   1.440  -6.471  1.00  0.00     0.326 C 
ATOM     66  O   UNL     1       1.138   1.034  -5.459  1.00  0.00    -0.250 OA
BRANCH  65  67
ATOM     67  O   UNL     1       0.779   0.796  -7.644  1.00  0.00    -0.480 OA
ATOM     68  H   UNL     1       1.278   1.445  -8.185  1.00  0.00     0.296 HD
ENDBRANCH  65  67
ENDBRANCH  49  65
ENDBRANCH  47  49
ENDBRANCH  43  45
ENDBRANCH   1  43
BRANCH   1  69
ATOM     69  C   UNL     1      -5.403  -0.304  -5.475  1.00  0.00    -0.001 C 
ATOM     70  C   UNL     1      -6.230  -0.082  -4.439  1.00  0.00     0.001 C 
BRANCH  70  71
ATOM     71  C   UNL     1      -7.542  -0.693  -4.213  1.00  0.00    -0.055 C 
ATOM     72  C   UNL     1      -8.164  -0.430  -3.045  1.00  0.00    -0.018 C 
ATOM     73  C   UNL     1      -8.107  -1.565  -5.304  1.00  0.00     0.044 C 
BRANCH  72  74
ATOM     74  C   UNL     1      -9.516  -0.916  -2.543  1.00  0.00     0.038 C 
ATOM     75  C   UNL     1     -10.535   0.189  -2.846  1.00  0.00     0.015 C 
BRANCH  74  76
ATOM     76  C   UNL     1      -9.387  -1.291  -1.037  1.00  0.00     0.128 C 
BRANCH  76  77
ATOM     77  O   UNL     1     -10.006  -2.565  -0.793  1.00  0.00    -0.381 OA
ATOM     78  C   UNL     1     -10.248  -3.318  -1.974  1.00  0.00     0.195 C 
ENDBRANCH  76  77
BRANCH  76  79
ATOM     79  C   UNL     1      -7.938  -1.213  -0.491  1.00  0.00     0.068 C 
BRANCH  79  80
ATOM     80  C   UNL     1      -7.211  -2.510  -0.230  1.00  0.00    -0.045 A 
ATOM     81  C   UNL     1      -7.218  -3.099   1.041  1.00  0.00     0.004 A 
ATOM     82  C   UNL     1      -6.489  -3.135  -1.258  1.00  0.00     0.004 A 
ATOM     83  C   UNL     1      -6.531  -4.291   1.278  1.00  0.00     0.000 A 
ATOM     84  C   UNL     1      -5.801  -4.327  -1.020  1.00  0.00     0.000 A 
ATOM     85  C   UNL     1      -5.824  -4.906   0.247  1.00  0.00     0.000 A 
ENDBRANCH  79  80
ENDBRANCH  76  79
ENDBRANCH  74  76
ENDBRANCH  72  74
ENDBRANCH  70  71
ENDBRANCH   1  69
TORSDOF 17
ENDMDL
MODEL 30
REMARK VINA RESULT:    -6.160      4.950     10.926
REMARK INTER + INTRA:         -26.018
REMARK INTER:                 -17.182
REMARK INTRA:                  -8.836
REMARK UNBOUND:                -7.614
REMARK SMILES C=C1C(=O)N[C@H](C)C(=O)N[C@@H](CC(C)C)C(=O)N[C@@H](C(=O)O)[C@H](C)C(=O)N[C@@H](CCCN=C(N)N)C(=O)N[C@@H](/C=C/C(C)=C/[C@H](C)[C@H](Cc2ccccc2)OC)[C@H](C)C(=O)N[C@@H](C(=O)O)CCC(=O)N1C
REMARK SMILES IDX 39 1 38 2 37 3 36 4 28 6 27 7 25 8 26 9 23 11 24 12 19 13
REMARK SMILES IDX 18 14 16 15 17 16 11 18 10 19 8 20 9 21 12 24 13 25 14 26
REMARK SMILES IDX 15 27 20 28 21 29 22 30 29 32 30 33 31 34 32 35 33 36 34 37
REMARK SMILES IDX 35 38 57 43 58 44 59 45 60 46 61 47 62 49 66 50 67 51 68 52
REMARK SMILES IDX 69 53 70 54 71 55 2 56 1 57 3 58 4 59 5 60 6 62 7 63 63 65
REMARK SMILES IDX 64 66 65 67 40 69 41 70 42 71 44 72 43 73 45 74 46 75 47 76
REMARK SMILES IDX 55 77 56 78 48 79 49 80 50 81 54 82 51 83 53 84 52 85
REMARK H PARENT 38 5 27 10 18 17 10 22 22 31 34 39 34 40 35 41 35 42 61 48
REMARK H PARENT 5 61 65 68
REMARK Flexibility Score:  369.900
ROOT
ATOM      1  C   UNL     1       1.180  -1.209  -9.240  1.00  0.00     0.117 C 
ENDROOT
BRANCH   1   2
ATOM      2  N   UNL     1       0.822  -2.618  -9.408  1.00  0.00    -0.347 N 
ATOM      3  O   UNL     1       2.842  -3.528  -8.804  1.00  0.00    -0.273 OA
ATOM      4  C   UNL     1       1.657  -3.671  -9.088  1.00  0.00     0.243 C 
ATOM      5  H   UNL     1      -0.103  -2.858  -9.730  1.00  0.00     0.164 HD
BRANCH   4   6
ATOM      6  C   UNL     1       1.005  -5.064  -9.280  1.00  0.00     0.171 C 
BRANCH   6   7
ATOM      7  N   UNL     1       0.075  -5.044 -10.420  1.00  0.00    -0.344 N 
ATOM      8  C   UNL     1      -1.153  -5.664 -10.337  1.00  0.00     0.226 C 
ATOM      9  O   UNL     1      -1.519  -6.272  -9.338  1.00  0.00    -0.275 OA
ATOM     10  H   UNL     1       0.370  -4.610 -11.286  1.00  0.00     0.164 HD
BRANCH   8  11
ATOM     11  C   UNL     1      -2.018  -5.508 -11.576  1.00  0.00     0.109 C 
ATOM     12  C   UNL     1      -2.564  -6.868 -12.011  1.00  0.00     0.021 C 
BRANCH  11  13
ATOM     13  C   UNL     1      -3.089  -4.427 -11.330  1.00  0.00     0.204 C 
BRANCH  13  14
ATOM     14  N   UNL     1      -3.581  -4.441  -9.949  1.00  0.00    -0.340 N 
ATOM     15  C   UNL     1      -4.902  -4.664  -9.627  1.00  0.00     0.243 C 
ATOM     16  O   UNL     1      -5.752  -4.929 -10.474  1.00  0.00    -0.273 OA
ATOM     17  H   UNL     1      -2.963  -4.081  -9.216  1.00  0.00     0.164 HD
BRANCH  15  18
ATOM     18  C   UNL     1      -5.223  -4.426  -8.131  1.00  0.00     0.171 C 
BRANCH  18  19
ATOM     19  N   UNL     1      -5.216  -2.979  -7.927  1.00  0.00    -0.343 N 
ATOM     20  C   UNL     1      -4.549  -2.395  -6.867  1.00  0.00     0.242 CG0
ATOM     21  O   UNL     1      -4.043  -3.071  -5.975  1.00  0.00    -0.273 OA
ATOM     22  H   UNL     1      -5.719  -2.383  -8.575  1.00  0.00     0.164 HD
ATOM     23  G   UNL     1      -4.589  -0.853  -6.862  1.00  0.00     0.000 G0
ENDBRANCH  18  19
BRANCH  18  24
ATOM     24  C   UNL     1      -6.580  -5.039  -7.764  1.00  0.00     0.038 C 
BRANCH  24  25
ATOM     25  C   UNL     1      -6.529  -6.081  -6.627  1.00  0.00    -0.015 C 
ATOM     26  C   UNL     1      -6.557  -5.437  -5.240  1.00  0.00     0.007 C 
ATOM     27  C   UNL     1      -5.270  -6.940  -6.770  1.00  0.00     0.007 C 
ENDBRANCH  24  25
ENDBRANCH  18  24
ENDBRANCH  15  18
ENDBRANCH  13  14
BRANCH  13  28
ATOM     28  C   UNL     1      -2.592  -3.007 -11.621  1.00  0.00     0.327 C 
ATOM     29  O   UNL     1      -2.614  -2.441 -12.703  1.00  0.00    -0.250 OA
BRANCH  28  30
ATOM     30  O   UNL     1      -1.990  -2.430 -10.561  1.00  0.00    -0.480 OA
ATOM     31  H   UNL     1      -1.975  -3.134  -9.880  1.00  0.00     0.296 HD
ENDBRANCH  28  30
ENDBRANCH  13  28
ENDBRANCH  11  13
ENDBRANCH   8  11
ENDBRANCH   6   7
BRANCH   6  32
ATOM     32  C   UNL     1       2.105  -6.111  -9.488  1.00  0.00     0.037 C 
BRANCH  32  33
ATOM     33  C   UNL     1       1.865  -7.377  -8.655  1.00  0.00     0.026 C 
BRANCH  33  34
ATOM     34  C   UNL     1       3.024  -7.680  -7.703  1.00  0.00     0.146 C 
BRANCH  34  35
ATOM     35  N   UNL     1       3.670  -6.427  -7.337  1.00  0.00    -0.254 NA
ATOM     36  C   UNL     1       4.870  -6.217  -7.732  1.00  0.00     0.185 C 
ATOM     37  N   UNL     1       5.474  -5.064  -7.404  1.00  0.00    -0.370 N 
ATOM     38  N   UNL     1       5.670  -7.011  -8.465  1.00  0.00    -0.370 N 
ATOM     39  H   UNL     1       4.931  -4.406  -6.859  1.00  0.00     0.159 HD
ATOM     40  H   UNL     1       6.337  -4.751  -7.815  1.00  0.00     0.159 HD
ATOM     41  H   UNL     1       6.645  -6.794  -8.593  1.00  0.00     0.159 HD
ATOM     42  H   UNL     1       5.352  -7.918  -8.769  1.00  0.00     0.159 HD
ENDBRANCH  34  35
ENDBRANCH  33  34
ENDBRANCH  32  33
ENDBRANCH   6  32
ENDBRANCH   4   6
ENDBRANCH   1   2
BRANCH   1  43
ATOM     43  C   UNL     1       0.096  -0.525  -8.357  1.00  0.00     0.102 C 
ATOM     44  C   UNL     1       0.254   1.002  -8.267  1.00  0.00     0.020 C 
BRANCH  43  45
ATOM     45  C   UNL     1      -0.024  -1.219  -6.997  1.00  0.00     0.225 C 
ATOM     46  O   UNL     1      -0.966  -1.947  -6.696  1.00  0.00    -0.275 OA
ATOM     47  N   UNL     1       0.953  -0.901  -6.082  1.00  0.00    -0.342 N 
ATOM     48  H   UNL     1       1.792  -0.429  -6.389  1.00  0.00     0.164 HD
BRANCH  47  49
ATOM     49  C   UNL     1       0.986  -1.516  -4.751  1.00  0.00     0.192 C 
BRANCH  49  50
ATOM     50  C   UNL     1       0.991  -0.423  -3.679  1.00  0.00     0.047 C 
BRANCH  50  51
ATOM     51  C   UNL     1      -0.149  -0.596  -2.666  1.00  0.00     0.103 C 
BRANCH  51  52
ATOM     52  C   UNL     1      -1.509  -0.727  -3.349  1.00  0.00     0.226 C 
ATOM     53  O   UNL     1      -1.967  -1.847  -3.586  1.00  0.00    -0.275 OA
BRANCH  52  54
ATOM     54  N   UNL     1      -2.201   0.471  -3.603  1.00  0.00    -0.311 N 
ATOM     55  C   UNL     1      -3.083   1.064  -2.589  1.00  0.00     0.153 C 
BRANCH  54  56
ATOM     56  C   UNL     1      -2.071   1.147  -4.828  1.00  0.00     0.102 C 
ATOM     57  C   UNL     1      -1.126   2.061  -5.104  1.00  0.00     0.043 C 
BRANCH  56  58
ATOM     58  C   UNL     1      -2.997   0.845  -5.982  1.00  0.00     0.268 C 
ATOM     59  O   UNL     1      -3.088   1.558  -6.972  1.00  0.00    -0.268 OA
ATOM     60  N   UNL     1      -3.673  -0.343  -5.835  1.00  0.00    -0.339 N 
ATOM     61  H   UNL     1      -3.550  -0.871  -4.980  1.00  0.00     0.164 HD
BRANCH  60  62
ATOM     62  C   UNL     1      -4.575  -0.858  -6.865  1.00  0.00     0.168 CG0
ATOM     63  C   UNL     1      -5.995  -0.347  -6.654  1.00  0.00     0.041 C 
ATOM     64  G   UNL     1      -4.543  -2.400  -6.855  1.00  0.00     0.000 G0
ENDBRANCH  60  62
ENDBRANCH  56  58
ENDBRANCH  54  56
ENDBRANCH  52  54
ENDBRANCH  51  52
ENDBRANCH  50  51
ENDBRANCH  49  50
BRANCH  49  65
ATOM     65  C   UNL     1       2.222  -2.411  -4.571  1.00  0.00     0.326 C 
ATOM     66  O   UNL     1       2.665  -2.804  -3.502  1.00  0.00    -0.250 OA
BRANCH  65  67
ATOM     67  O   UNL     1       2.869  -2.715  -5.718  1.00  0.00    -0.480 OA
ATOM     68  H   UNL     1       3.728  -2.247  -5.630  1.00  0.00     0.296 HD
ENDBRANCH  65  67
ENDBRANCH  49  65
ENDBRANCH  47  49
ENDBRANCH  43  45
ENDBRANCH   1  43
BRANCH   1  69
ATOM     69  C   UNL     1       1.440  -0.668 -10.634  1.00  0.00    -0.001 C 
ATOM     70  C   UNL     1       1.042  -1.199 -11.803  1.00  0.00     0.001 C 
BRANCH  70  71
ATOM     71  C   UNL     1       1.280  -0.655 -13.142  1.00  0.00    -0.055 C 
ATOM     72  C   UNL     1       2.268   0.253 -13.284  1.00  0.00    -0.018 C 
ATOM     73  C   UNL     1       0.412  -1.154 -14.267  1.00  0.00     0.044 C 
BRANCH  72  74
ATOM     74  C   UNL     1       2.739   0.976 -14.538  1.00  0.00     0.038 C 
ATOM     75  C   UNL     1       3.931   0.188 -15.094  1.00  0.00     0.015 C 
BRANCH  74  76
ATOM     76  C   UNL     1       3.048   2.459 -14.175  1.00  0.00     0.128 C 
BRANCH  76  77
ATOM     77  O   UNL     1       1.937   3.295 -14.538  1.00  0.00    -0.381 OA
ATOM     78  C   UNL     1       2.243   4.244 -15.551  1.00  0.00     0.195 C 
ENDBRANCH  76  77
BRANCH  76  79
ATOM     79  C   UNL     1       3.500   2.666 -12.707  1.00  0.00     0.068 C 
BRANCH  79  80
ATOM     80  C   UNL     1       2.685   3.596 -11.841  1.00  0.00    -0.045 A 
ATOM     81  C   UNL     1       1.409   3.231 -11.393  1.00  0.00     0.004 A 
ATOM     82  C   UNL     1       3.186   4.860 -11.494  1.00  0.00     0.004 A 
ATOM     83  C   UNL     1       0.655   4.103 -10.604  1.00  0.00     0.000 A 
ATOM     84  C   UNL     1       2.431   5.731 -10.705  1.00  0.00     0.000 A 
ATOM     85  C   UNL     1       1.167   5.352 -10.259  1.00  0.00     0.000 A 
ENDBRANCH  79  80
ENDBRANCH  76  79
ENDBRANCH  74  76
ENDBRANCH  72  74
ENDBRANCH  70  71
ENDBRANCH   1  69
TORSDOF 17
ENDMDL
MODEL 31
REMARK VINA RESULT:    -6.147      4.325     12.702
REMARK INTER + INTRA:         -25.979
REMARK INTER:                 -21.993
REMARK INTRA:                  -3.986
REMARK UNBOUND:                -7.614
REMARK SMILES C=C1C(=O)N[C@H](C)C(=O)N[C@@H](CC(C)C)C(=O)N[C@@H](C(=O)O)[C@H](C)C(=O)N[C@@H](CCCN=C(N)N)C(=O)N[C@@H](/C=C/C(C)=C/[C@H](C)[C@H](Cc2ccccc2)OC)[C@H](C)C(=O)N[C@@H](C(=O)O)CCC(=O)N1C
REMARK SMILES IDX 39 1 38 2 37 3 36 4 28 6 27 7 25 8 26 9 23 11 24 12 19 13
REMARK SMILES IDX 18 14 16 15 17 16 11 18 10 19 8 20 9 21 12 24 13 25 14 26
REMARK SMILES IDX 15 27 20 28 21 29 22 30 29 32 30 33 31 34 32 35 33 36 34 37
REMARK SMILES IDX 35 38 57 43 58 44 59 45 60 46 61 47 62 49 66 50 67 51 68 52
REMARK SMILES IDX 69 53 70 54 71 55 2 56 1 57 3 58 4 59 5 60 6 62 7 63 63 65
REMARK SMILES IDX 64 66 65 67 40 69 41 70 42 71 44 72 43 73 45 74 46 75 47 76
REMARK SMILES IDX 55 77 56 78 48 79 49 80 50 81 54 82 51 83 53 84 52 85
REMARK H PARENT 38 5 27 10 18 17 10 22 22 31 34 39 34 40 35 41 35 42 61 48
REMARK H PARENT 5 61 65 68
REMARK Flexibility Score:  369.900
ROOT
ATOM      1  C   UNL     1      -0.518  -1.534  -0.712  1.00  0.00     0.117 C 
ENDROOT
BRANCH   1   2
ATOM      2  N   UNL     1       0.265  -1.659  -1.942  1.00  0.00    -0.347 N 
ATOM      3  O   UNL     1      -0.435   0.277  -2.958  1.00  0.00    -0.273 OA
ATOM      4  C   UNL     1       0.313  -0.695  -2.930  1.00  0.00     0.243 C 
ATOM      5  H   UNL     1       0.850  -2.470  -2.075  1.00  0.00     0.164 HD
BRANCH   4   6
ATOM      6  C   UNL     1       1.285  -1.037  -4.088  1.00  0.00     0.171 C 
BRANCH   6   7
ATOM      7  N   UNL     1       1.405   0.102  -5.012  1.00  0.00    -0.344 N 
ATOM      8  C   UNL     1       1.323  -0.087  -6.375  1.00  0.00     0.226 C 
ATOM      9  O   UNL     1       1.173  -1.193  -6.880  1.00  0.00    -0.275 OA
ATOM     10  H   UNL     1       1.597   1.022  -4.635  1.00  0.00     0.164 HD
BRANCH   8  11
ATOM     11  C   UNL     1       1.411   1.191  -7.190  1.00  0.00     0.109 C 
ATOM     12  C   UNL     1       1.507   2.402  -6.262  1.00  0.00     0.021 C 
BRANCH  11  13
ATOM     13  C   UNL     1       2.549   1.074  -8.223  1.00  0.00     0.204 C 
BRANCH  13  14
ATOM     14  N   UNL     1       2.372   1.998  -9.347  1.00  0.00    -0.340 N 
ATOM     15  C   UNL     1       2.287   1.576 -10.656  1.00  0.00     0.243 C 
ATOM     16  O   UNL     1       2.295   0.387 -10.969  1.00  0.00    -0.273 OA
ATOM     17  H   UNL     1       2.510   2.997  -9.174  1.00  0.00     0.164 HD
BRANCH  15  18
ATOM     18  C   UNL     1       2.312   2.736 -11.683  1.00  0.00     0.171 C 
BRANCH  18  19
ATOM     19  N   UNL     1       3.673   3.269 -11.679  1.00  0.00    -0.343 N 
ATOM     20  C   UNL     1       3.929   4.610 -11.471  1.00  0.00     0.242 CG0
ATOM     21  O   UNL     1       3.022   5.437 -11.411  1.00  0.00    -0.273 OA
ATOM     22  H   UNL     1       4.453   2.642 -11.840  1.00  0.00     0.164 HD
ATOM     23  G   UNL     1       5.428   4.972 -11.423  1.00  0.00     0.000 G0
ENDBRANCH  18  19
BRANCH  18  24
ATOM     24  C   UNL     1       1.908   2.235 -13.075  1.00  0.00     0.038 C 
BRANCH  24  25
ATOM     25  C   UNL     1       0.800   3.063 -13.761  1.00  0.00    -0.015 C 
ATOM     26  C   UNL     1       1.338   3.930 -14.899  1.00  0.00     0.007 C 
ATOM     27  C   UNL     1       0.102   3.947 -12.724  1.00  0.00     0.007 C 
ENDBRANCH  24  25
ENDBRANCH  18  24
ENDBRANCH  15  18
ENDBRANCH  13  14
BRANCH  13  28
ATOM     28  C   UNL     1       3.934   1.345  -7.628  1.00  0.00     0.327 C 
ATOM     29  O   UNL     1       4.462   2.438  -7.493  1.00  0.00    -0.250 OA
BRANCH  28  30
ATOM     30  O   UNL     1       4.619   0.217  -7.347  1.00  0.00    -0.480 OA
ATOM     31  H   UNL     1       4.356  -0.407  -8.055  1.00  0.00     0.296 HD
ENDBRANCH  28  30
ENDBRANCH  13  28
ENDBRANCH  11  13
ENDBRANCH   8  11
ENDBRANCH   6   7
BRANCH   6  32
ATOM     32  C   UNL     1       2.651  -1.413  -3.504  1.00  0.00     0.037 C 
BRANCH  32  33
ATOM     33  C   UNL     1       2.892  -0.770  -2.131  1.00  0.00     0.026 C 
BRANCH  33  34
ATOM     34  C   UNL     1       4.164   0.078  -2.097  1.00  0.00     0.146 C 
BRANCH  34  35
ATOM     35  N   UNL     1       4.174   0.957  -3.258  1.00  0.00    -0.254 NA
ATOM     36  C   UNL     1       4.912   2.004  -3.229  1.00  0.00     0.185 C 
ATOM     37  N   UNL     1       4.932   2.819  -4.295  1.00  0.00    -0.370 N 
ATOM     38  N   UNL     1       5.717   2.444  -2.246  1.00  0.00    -0.370 N 
ATOM     39  H   UNL     1       4.358   2.549  -5.084  1.00  0.00     0.159 HD
ATOM     40  H   UNL     1       5.607   3.554  -4.420  1.00  0.00     0.159 HD
ATOM     41  H   UNL     1       6.140   3.356  -2.288  1.00  0.00     0.159 HD
ATOM     42  H   UNL     1       5.788   1.938  -1.377  1.00  0.00     0.159 HD
ENDBRANCH  34  35
ENDBRANCH  33  34
ENDBRANCH  32  33
ENDBRANCH   6  32
ENDBRANCH   4   6
ENDBRANCH   1   2
BRANCH   1  43
ATOM     43  C   UNL     1       0.187  -2.351   0.409  1.00  0.00     0.102 C 
ATOM     44  C   UNL     1       0.080  -3.873   0.215  1.00  0.00     0.020 C 
BRANCH  43  45
ATOM     45  C   UNL     1      -0.247  -1.870   1.796  1.00  0.00     0.225 C 
ATOM     46  O   UNL     1      -1.316  -1.303   2.006  1.00  0.00    -0.275 OA
ATOM     47  N   UNL     1       0.685  -2.028   2.797  1.00  0.00    -0.342 N 
ATOM     48  H   UNL     1       1.485  -2.625   2.645  1.00  0.00     0.164 HD
BRANCH  47  49
ATOM     49  C   UNL     1       0.394  -1.646   4.182  1.00  0.00     0.192 C 
BRANCH  49  50
ATOM     50  C   UNL     1       1.180  -0.383   4.542  1.00  0.00     0.047 C 
BRANCH  50  51
ATOM     51  C   UNL     1       0.278   0.723   5.107  1.00  0.00     0.103 C 
BRANCH  51  52
ATOM     52  C   UNL     1       0.736   1.188   6.488  1.00  0.00     0.226 C 
ATOM     53  O   UNL     1       1.675   0.614   7.044  1.00  0.00    -0.275 OA
BRANCH  52  54
ATOM     54  N   UNL     1       0.086   2.318   7.017  1.00  0.00    -0.311 N 
ATOM     55  C   UNL     1      -0.706   3.206   6.156  1.00  0.00     0.153 C 
BRANCH  54  56
ATOM     56  C   UNL     1       0.165   2.637   8.383  1.00  0.00     0.102 C 
ATOM     57  C   UNL     1      -0.849   2.527   9.257  1.00  0.00     0.043 C 
BRANCH  56  58
ATOM     58  C   UNL     1       1.464   3.102   8.996  1.00  0.00     0.268 C 
ATOM     59  O   UNL     1       1.914   4.229   8.837  1.00  0.00    -0.268 OA
ATOM     60  N   UNL     1       2.052   2.155   9.800  1.00  0.00    -0.339 N 
ATOM     61  H   UNL     1       1.621   1.241   9.871  1.00  0.00     0.164 HD
BRANCH  60  62
ATOM     62  C   UNL     1       3.285   2.419  10.542  1.00  0.00     0.168 CG0
ATOM     63  C   UNL     1       4.497   1.866   9.802  1.00  0.00     0.041 C 
ATOM     64  G   UNL     1       3.180   1.805  11.953  1.00  0.00     0.000 G0
ENDBRANCH  60  62
ENDBRANCH  56  58
ENDBRANCH  54  56
ENDBRANCH  52  54
ENDBRANCH  51  52
ENDBRANCH  50  51
ENDBRANCH  49  50
BRANCH  49  65
ATOM     65  C   UNL     1       0.755  -2.768   5.167  1.00  0.00     0.326 C 
ATOM     66  O   UNL     1       0.431  -2.811   6.345  1.00  0.00    -0.250 OA
BRANCH  65  67
ATOM     67  O   UNL     1       1.543  -3.738   4.653  1.00  0.00    -0.480 OA
ATOM     68  H   UNL     1       2.195  -3.243   4.111  1.00  0.00     0.296 HD
ENDBRANCH  65  67
ENDBRANCH  49  65
ENDBRANCH  47  49
ENDBRANCH  43  45
ENDBRANCH   1  43
BRANCH   1  69
ATOM     69  C   UNL     1      -1.949  -1.878  -1.083  1.00  0.00    -0.001 C 
ATOM     70  C   UNL     1      -2.728  -2.828  -0.536  1.00  0.00     0.001 C 
BRANCH  70  71
ATOM     71  C   UNL     1      -4.115  -3.137  -0.888  1.00  0.00    -0.055 C 
ATOM     72  C   UNL     1      -4.566  -2.721  -2.090  1.00  0.00    -0.018 C 
ATOM     73  C   UNL     1      -4.939  -3.905   0.113  1.00  0.00     0.044 C 
BRANCH  72  74
ATOM     74  C   UNL     1      -5.941  -2.899  -2.717  1.00  0.00     0.038 C 
ATOM     75  C   UNL     1      -5.723  -3.367  -4.161  1.00  0.00     0.015 C 
BRANCH  74  76
ATOM     76  C   UNL     1      -6.732  -1.565  -2.576  1.00  0.00     0.128 C 
BRANCH  76  77
ATOM     77  O   UNL     1      -7.653  -1.422  -3.671  1.00  0.00    -0.381 OA
ATOM     78  C   UNL     1      -7.704  -0.106  -4.207  1.00  0.00     0.195 C 
ENDBRANCH  76  77
BRANCH  76  79
ATOM     79  C   UNL     1      -7.409  -1.377  -1.195  1.00  0.00     0.068 C 
BRANCH  79  80
ATOM     80  C   UNL     1      -6.958  -0.219  -0.338  1.00  0.00    -0.045 A 
ATOM     81  C   UNL     1      -5.615   0.180  -0.312  1.00  0.00     0.004 A 
ATOM     82  C   UNL     1      -7.880   0.463   0.471  1.00  0.00     0.004 A 
ATOM     83  C   UNL     1      -5.204   1.244   0.494  1.00  0.00     0.000 A 
ATOM     84  C   UNL     1      -7.467   1.526   1.277  1.00  0.00     0.000 A 
ATOM     85  C   UNL     1      -6.130   1.917   1.288  1.00  0.00     0.000 A 
ENDBRANCH  79  80
ENDBRANCH  76  79
ENDBRANCH  74  76
ENDBRANCH  72  74
ENDBRANCH  70  71
ENDBRANCH   1  69
TORSDOF 17
ENDMDL
MODEL 32
REMARK VINA RESULT:    -6.131      4.014     11.974
REMARK INTER + INTRA:         -25.930
REMARK INTER:                 -18.193
REMARK INTRA:                  -7.738
REMARK UNBOUND:                -7.614
REMARK SMILES C=C1C(=O)N[C@H](C)C(=O)N[C@@H](CC(C)C)C(=O)N[C@@H](C(=O)O)[C@H](C)C(=O)N[C@@H](CCCN=C(N)N)C(=O)N[C@@H](/C=C/C(C)=C/[C@H](C)[C@H](Cc2ccccc2)OC)[C@H](C)C(=O)N[C@@H](C(=O)O)CCC(=O)N1C
REMARK SMILES IDX 39 1 38 2 37 3 36 4 28 6 27 7 25 8 26 9 23 11 24 12 19 13
REMARK SMILES IDX 18 14 16 15 17 16 11 18 10 19 8 20 9 21 12 24 13 25 14 26
REMARK SMILES IDX 15 27 20 28 21 29 22 30 29 32 30 33 31 34 32 35 33 36 34 37
REMARK SMILES IDX 35 38 57 43 58 44 59 45 60 46 61 47 62 49 66 50 67 51 68 52
REMARK SMILES IDX 69 53 70 54 71 55 2 56 1 57 3 58 4 59 5 60 6 62 7 63 63 65
REMARK SMILES IDX 64 66 65 67 40 69 41 70 42 71 44 72 43 73 45 74 46 75 47 76
REMARK SMILES IDX 55 77 56 78 48 79 49 80 50 81 54 82 51 83 53 84 52 85
REMARK H PARENT 38 5 27 10 18 17 10 22 22 31 34 39 34 40 35 41 35 42 61 48
REMARK H PARENT 5 61 65 68
REMARK Flexibility Score:  369.900
ROOT
ATOM      1  C   UNL     1       0.919  -0.975  -5.302  1.00  0.00     0.117 C 
ENDROOT
BRANCH   1   2
ATOM      2  N   UNL     1       1.345  -0.795  -6.691  1.00  0.00    -0.347 N 
ATOM      3  O   UNL     1       2.643   1.072  -6.380  1.00  0.00    -0.273 OA
ATOM      4  C   UNL     1       2.249   0.164  -7.104  1.00  0.00     0.243 C 
ATOM      5  H   UNL     1       1.007  -1.430  -7.398  1.00  0.00     0.164 HD
BRANCH   4   6
ATOM      6  C   UNL     1       2.595   0.085  -8.613  1.00  0.00     0.171 C 
BRANCH   6   7
ATOM      7  N   UNL     1       1.605  -0.738  -9.325  1.00  0.00    -0.344 N 
ATOM      8  C   UNL     1       2.009  -1.721 -10.202  1.00  0.00     0.226 C 
ATOM      9  O   UNL     1       3.189  -1.942 -10.448  1.00  0.00    -0.275 OA
ATOM     10  H   UNL     1       0.620  -0.540  -9.199  1.00  0.00     0.164 HD
BRANCH   8  11
ATOM     11  C   UNL     1       0.872  -2.519 -10.815  1.00  0.00     0.109 C 
ATOM     12  C   UNL     1      -0.467  -2.044 -10.251  1.00  0.00     0.021 C 
BRANCH  11  13
ATOM     13  C   UNL     1       0.978  -2.482 -12.352  1.00  0.00     0.204 C 
BRANCH  13  14
ATOM     14  N   UNL     1       1.412  -1.170 -12.844  1.00  0.00    -0.340 N 
ATOM     15  C   UNL     1       0.859  -0.567 -13.953  1.00  0.00     0.243 C 
ATOM     16  O   UNL     1      -0.080  -1.060 -14.574  1.00  0.00    -0.273 OA
ATOM     17  H   UNL     1       2.281  -0.780 -12.470  1.00  0.00     0.164 HD
BRANCH  15  18
ATOM     18  C   UNL     1       1.614   0.708 -14.403  1.00  0.00     0.171 C 
BRANCH  18  19
ATOM     19  N   UNL     1       2.602   0.283 -15.393  1.00  0.00    -0.343 N 
ATOM     20  C   UNL     1       3.812  -0.270 -15.022  1.00  0.00     0.242 CG0
ATOM     21  O   UNL     1       4.170  -0.307 -13.848  1.00  0.00    -0.273 OA
ATOM     22  H   UNL     1       2.400   0.400 -16.379  1.00  0.00     0.164 HD
ATOM     23  G   UNL     1       4.690  -0.730 -16.205  1.00  0.00     0.000 G0
ENDBRANCH  18  19
BRANCH  18  24
ATOM     24  C   UNL     1       0.638   1.736 -14.990  1.00  0.00     0.038 C 
BRANCH  24  25
ATOM     25  C   UNL     1       0.934   3.200 -14.602  1.00  0.00    -0.015 C 
ATOM     26  C   UNL     1       0.485   3.531 -13.178  1.00  0.00     0.007 C 
ATOM     27  C   UNL     1       0.246   4.144 -15.591  1.00  0.00     0.007 C 
ENDBRANCH  24  25
ENDBRANCH  18  24
ENDBRANCH  15  18
ENDBRANCH  13  14
BRANCH  13  28
ATOM     28  C   UNL     1       1.951  -3.522 -12.916  1.00  0.00     0.327 C 
ATOM     29  O   UNL     1       2.405  -3.548 -14.049  1.00  0.00    -0.250 OA
BRANCH  28  30
ATOM     30  O   UNL     1       2.201  -4.531 -12.057  1.00  0.00    -0.480 OA
ATOM     31  H   UNL     1       1.913  -5.334 -12.538  1.00  0.00     0.296 HD
ENDBRANCH  28  30
ENDBRANCH  13  28
ENDBRANCH  11  13
ENDBRANCH   8  11
ENDBRANCH   6   7
BRANCH   6  32
ATOM     32  C   UNL     1       2.646   1.504  -9.192  1.00  0.00     0.037 C 
BRANCH  32  33
ATOM     33  C   UNL     1       1.246   2.110  -9.362  1.00  0.00     0.026 C 
BRANCH  33  34
ATOM     34  C   UNL     1       1.101   3.457  -8.653  1.00  0.00     0.146 C 
BRANCH  34  35
ATOM     35  N   UNL     1       2.087   4.382  -9.196  1.00  0.00    -0.254 NA
ATOM     36  C   UNL     1       1.685   5.336  -9.949  1.00  0.00     0.185 C 
ATOM     37  N   UNL     1       2.584   6.197 -10.450  1.00  0.00    -0.370 N 
ATOM     38  N   UNL     1       0.433   5.633 -10.341  1.00  0.00    -0.370 N 
ATOM     39  H   UNL     1       3.551   6.046 -10.191  1.00  0.00     0.159 HD
ATOM     40  H   UNL     1       2.336   7.062 -10.899  1.00  0.00     0.159 HD
ATOM     41  H   UNL     1       0.260   6.328 -11.049  1.00  0.00     0.159 HD
ATOM     42  H   UNL     1      -0.344   5.060 -10.052  1.00  0.00     0.159 HD
ENDBRANCH  34  35
ENDBRANCH  33  34
ENDBRANCH  32  33
ENDBRANCH   6  32
ENDBRANCH   4   6
ENDBRANCH   1   2
BRANCH   1  43
ATOM     43  C   UNL     1       1.775  -2.108  -4.665  1.00  0.00     0.102 C 
ATOM     44  C   UNL     1       2.310  -3.121  -5.691  1.00  0.00     0.020 C 
BRANCH  43  45
ATOM     45  C   UNL     1       1.045  -2.748  -3.481  1.00  0.00     0.225 C 
ATOM     46  O   UNL     1       0.803  -3.950  -3.412  1.00  0.00    -0.275 OA
ATOM     47  N   UNL     1       0.584  -1.873  -2.524  1.00  0.00    -0.342 N 
ATOM     48  H   UNL     1       0.919  -0.919  -2.517  1.00  0.00     0.164 HD
BRANCH  47  49
ATOM     49  C   UNL     1      -0.101  -2.346  -1.318  1.00  0.00     0.192 C 
BRANCH  49  50
ATOM     50  C   UNL     1      -1.595  -2.510  -1.606  1.00  0.00     0.047 C 
BRANCH  50  51
ATOM     51  C   UNL     1      -2.165  -3.803  -1.007  1.00  0.00     0.103 C 
BRANCH  51  52
ATOM     52  C   UNL     1      -3.688  -3.758  -0.890  1.00  0.00     0.226 C 
ATOM     53  O   UNL     1      -4.362  -4.684  -1.345  1.00  0.00    -0.275 OA
BRANCH  52  54
ATOM     54  N   UNL     1      -4.230  -2.668  -0.184  1.00  0.00    -0.311 N 
ATOM     55  C   UNL     1      -3.805  -2.369   1.189  1.00  0.00     0.153 C 
BRANCH  54  56
ATOM     56  C   UNL     1      -5.191  -1.824  -0.766  1.00  0.00     0.102 C 
ATOM     57  C   UNL     1      -4.922  -0.839  -1.638  1.00  0.00     0.043 C 
BRANCH  56  58
ATOM     58  C   UNL     1      -6.662  -2.005  -0.471  1.00  0.00     0.268 C 
ATOM     59  O   UNL     1      -7.383  -1.097  -0.080  1.00  0.00    -0.268 OA
ATOM     60  N   UNL     1      -7.117  -3.272  -0.749  1.00  0.00    -0.339 N 
ATOM     61  H   UNL     1      -6.452  -3.971  -1.060  1.00  0.00     0.164 HD
BRANCH  60  62
ATOM     62  C   UNL     1      -8.522  -3.647  -0.595  1.00  0.00     0.168 CG0
ATOM     63  C   UNL     1      -9.260  -3.561  -1.925  1.00  0.00     0.041 C 
ATOM     64  G   UNL     1      -9.187  -2.737   0.458  1.00  0.00     0.000 G0
ENDBRANCH  60  62
ENDBRANCH  56  58
ENDBRANCH  54  56
ENDBRANCH  52  54
ENDBRANCH  51  52
ENDBRANCH  50  51
ENDBRANCH  49  50
BRANCH  49  65
ATOM     65  C   UNL     1       0.088  -1.376  -0.141  1.00  0.00     0.326 C 
ATOM     66  O   UNL     1       0.297  -0.176  -0.236  1.00  0.00    -0.250 OA
BRANCH  65  67
ATOM     67  O   UNL     1       0.067  -1.958   1.078  1.00  0.00    -0.480 OA
ATOM     68  H   UNL     1      -0.754  -2.496   1.064  1.00  0.00     0.296 HD
ENDBRANCH  65  67
ENDBRANCH  49  65
ENDBRANCH  47  49
ENDBRANCH  43  45
ENDBRANCH   1  43
BRANCH   1  69
ATOM     69  C   UNL     1      -0.591  -1.128  -5.338  1.00  0.00    -0.001 C 
ATOM     70  C   UNL     1      -1.300  -2.080  -5.970  1.00  0.00     0.001 C 
BRANCH  70  71
ATOM     71  C   UNL     1      -2.757  -2.229  -5.979  1.00  0.00    -0.055 C 
ATOM     72  C   UNL     1      -3.415  -1.892  -7.109  1.00  0.00    -0.018 C 
ATOM     73  C   UNL     1      -3.417  -2.757  -4.732  1.00  0.00     0.044 C 
BRANCH  72  74
ATOM     74  C   UNL     1      -4.907  -1.945  -7.406  1.00  0.00     0.038 C 
ATOM     75  C   UNL     1      -5.075  -2.664  -8.750  1.00  0.00     0.015 C 
BRANCH  74  76
ATOM     76  C   UNL     1      -5.478  -0.497  -7.365  1.00  0.00     0.128 C 
BRANCH  76  77
ATOM     77  O   UNL     1      -6.809  -0.479  -7.906  1.00  0.00    -0.381 OA
ATOM     78  C   UNL     1      -7.755   0.179  -7.074  1.00  0.00     0.195 C 
ENDBRANCH  76  77
BRANCH  76  79
ATOM     79  C   UNL     1      -5.388   0.175  -5.972  1.00  0.00     0.068 C 
BRANCH  79  80
ATOM     80  C   UNL     1      -4.201   1.065  -5.692  1.00  0.00    -0.045 A 
ATOM     81  C   UNL     1      -3.464   1.636  -6.738  1.00  0.00     0.004 A 
ATOM     82  C   UNL     1      -3.800   1.314  -4.370  1.00  0.00     0.004 A 
ATOM     83  C   UNL     1      -2.359   2.447  -6.470  1.00  0.00     0.000 A 
ATOM     84  C   UNL     1      -2.694   2.124  -4.104  1.00  0.00     0.000 A 
ATOM     85  C   UNL     1      -1.975   2.692  -5.154  1.00  0.00     0.000 A 
ENDBRANCH  79  80
ENDBRANCH  76  79
ENDBRANCH  74  76
ENDBRANCH  72  74
ENDBRANCH  70  71
ENDBRANCH   1  69
TORSDOF 17
ENDMDL
MODEL 33
REMARK VINA RESULT:    -6.129      4.725     12.942
REMARK INTER + INTRA:         -25.924
REMARK INTER:                 -22.574
REMARK INTRA:                  -3.350
REMARK UNBOUND:                -7.614
REMARK SMILES C=C1C(=O)N[C@H](C)C(=O)N[C@@H](CC(C)C)C(=O)N[C@@H](C(=O)O)[C@H](C)C(=O)N[C@@H](CCCN=C(N)N)C(=O)N[C@@H](/C=C/C(C)=C/[C@H](C)[C@H](Cc2ccccc2)OC)[C@H](C)C(=O)N[C@@H](C(=O)O)CCC(=O)N1C
REMARK SMILES IDX 39 1 38 2 37 3 36 4 28 6 27 7 25 8 26 9 23 11 24 12 19 13
REMARK SMILES IDX 18 14 16 15 17 16 11 18 10 19 8 20 9 21 12 24 13 25 14 26
REMARK SMILES IDX 15 27 20 28 21 29 22 30 29 32 30 33 31 34 32 35 33 36 34 37
REMARK SMILES IDX 35 38 57 43 58 44 59 45 60 46 61 47 62 49 66 50 67 51 68 52
REMARK SMILES IDX 69 53 70 54 71 55 2 56 1 57 3 58 4 59 5 60 6 62 7 63 63 65
REMARK SMILES IDX 64 66 65 67 40 69 41 70 42 71 44 72 43 73 45 74 46 75 47 76
REMARK SMILES IDX 55 77 56 78 48 79 49 80 50 81 54 82 51 83 53 84 52 85
REMARK H PARENT 38 5 27 10 18 17 10 22 22 31 34 39 34 40 35 41 35 42 61 48
REMARK H PARENT 5 61 65 68
REMARK Flexibility Score:  369.900
ROOT
ATOM      1  C   UNL     1      -0.573  -1.055  -0.447  1.00  0.00     0.117 C 
ENDROOT
BRANCH   1   2
ATOM      2  N   UNL     1       0.063  -1.226  -1.753  1.00  0.00    -0.347 N 
ATOM      3  O   UNL     1      -0.919   0.556  -2.816  1.00  0.00    -0.273 OA
ATOM      4  C   UNL     1      -0.092  -0.350  -2.810  1.00  0.00     0.243 C 
ATOM      5  H   UNL     1       0.696  -1.998  -1.898  1.00  0.00     0.164 HD
BRANCH   4   6
ATOM      6  C   UNL     1       0.759  -0.715  -4.053  1.00  0.00     0.171 C 
BRANCH   6   7
ATOM      7  N   UNL     1       0.828   0.424  -4.982  1.00  0.00    -0.344 N 
ATOM      8  C   UNL     1       0.052   0.450  -6.120  1.00  0.00     0.226 C 
ATOM      9  O   UNL     1      -0.703  -0.465  -6.426  1.00  0.00    -0.275 OA
ATOM     10  H   UNL     1       1.490   1.168  -4.798  1.00  0.00     0.164 HD
BRANCH   8  11
ATOM     11  C   UNL     1       0.196   1.717  -6.947  1.00  0.00     0.109 C 
ATOM     12  C   UNL     1       0.206   2.942  -6.033  1.00  0.00     0.021 C 
BRANCH  11  13
ATOM     13  C   UNL     1       1.417   1.594  -7.880  1.00  0.00     0.204 C 
BRANCH  13  14
ATOM     14  N   UNL     1       1.334   2.513  -9.020  1.00  0.00    -0.340 N 
ATOM     15  C   UNL     1       1.999   2.294 -10.207  1.00  0.00     0.243 C 
ATOM     16  O   UNL     1       2.662   1.280 -10.416  1.00  0.00    -0.273 OA
ATOM     17  H   UNL     1       0.929   3.439  -8.862  1.00  0.00     0.164 HD
BRANCH  15  18
ATOM     18  C   UNL     1       1.932   3.494 -11.184  1.00  0.00     0.171 C 
BRANCH  18  19
ATOM     19  N   UNL     1       2.615   4.607 -10.527  1.00  0.00    -0.343 N 
ATOM     20  C   UNL     1       1.934   5.732 -10.103  1.00  0.00     0.242 CG0
ATOM     21  O   UNL     1       0.749   5.907 -10.375  1.00  0.00    -0.273 OA
ATOM     22  H   UNL     1       3.617   4.559 -10.383  1.00  0.00     0.164 HD
ATOM     23  G   UNL     1       2.809   6.764  -9.361  1.00  0.00     0.000 G0
ENDBRANCH  18  19
BRANCH  18  24
ATOM     24  C   UNL     1       2.591   3.141 -12.522  1.00  0.00     0.038 C 
BRANCH  24  25
ATOM     25  C   UNL     1       1.955   3.819 -13.754  1.00  0.00    -0.015 C 
ATOM     26  C   UNL     1       0.451   3.561 -13.852  1.00  0.00     0.007 C 
ATOM     27  C   UNL     1       2.647   3.327 -15.028  1.00  0.00     0.007 C 
ENDBRANCH  24  25
ENDBRANCH  18  24
ENDBRANCH  15  18
ENDBRANCH  13  14
BRANCH  13  28
ATOM     28  C   UNL     1       2.748   1.867  -7.173  1.00  0.00     0.327 C 
ATOM     29  O   UNL     1       3.454   1.040  -6.617  1.00  0.00    -0.250 OA
BRANCH  28  30
ATOM     30  O   UNL     1       3.051   3.179  -7.105  1.00  0.00    -0.480 OA
ATOM     31  H   UNL     1       2.839   3.428  -6.181  1.00  0.00     0.296 HD
ENDBRANCH  28  30
ENDBRANCH  13  28
ENDBRANCH  11  13
ENDBRANCH   8  11
ENDBRANCH   6   7
BRANCH   6  32
ATOM     32  C   UNL     1       2.161  -1.135  -3.597  1.00  0.00     0.037 C 
BRANCH  32  33
ATOM     33  C   UNL     1       2.498  -0.605  -2.196  1.00  0.00     0.026 C 
BRANCH  33  34
ATOM     34  C   UNL     1       3.843   0.120  -2.152  1.00  0.00     0.146 C 
BRANCH  34  35
ATOM     35  N   UNL     1       3.926   1.025  -3.291  1.00  0.00    -0.254 NA
ATOM     36  C   UNL     1       4.817   1.945  -3.280  1.00  0.00     0.185 C 
ATOM     37  N   UNL     1       4.906   2.782  -4.326  1.00  0.00    -0.370 N 
ATOM     38  N   UNL     1       5.732   2.224  -2.335  1.00  0.00    -0.370 N 
ATOM     39  H   UNL     1       4.255   2.629  -5.086  1.00  0.00     0.159 HD
ATOM     40  H   UNL     1       5.678   3.409  -4.472  1.00  0.00     0.159 HD
ATOM     41  H   UNL     1       6.288   3.063  -2.380  1.00  0.00     0.159 HD
ATOM     42  H   UNL     1       5.771   1.685  -1.484  1.00  0.00     0.159 HD
ENDBRANCH  34  35
ENDBRANCH  33  34
ENDBRANCH  32  33
ENDBRANCH   6  32
ENDBRANCH   4   6
ENDBRANCH   1   2
BRANCH   1  43
ATOM     43  C   UNL     1       0.143  -1.981   0.578  1.00  0.00     0.102 C 
ATOM     44  C   UNL     1       0.059  -3.474   0.217  1.00  0.00     0.020 C 
BRANCH  43  45
ATOM     45  C   UNL     1      -0.298  -1.662   2.010  1.00  0.00     0.225 C 
ATOM     46  O   UNL     1      -1.443  -1.327   2.300  1.00  0.00    -0.275 OA
ATOM     47  N   UNL     1       0.701  -1.682   2.956  1.00  0.00    -0.342 N 
ATOM     48  H   UNL     1       1.593  -2.102   2.733  1.00  0.00     0.164 HD
BRANCH  47  49
ATOM     49  C   UNL     1       0.420  -1.431   4.372  1.00  0.00     0.192 C 
BRANCH  49  50
ATOM     50  C   UNL     1       1.226  -0.221   4.851  1.00  0.00     0.047 C 
BRANCH  50  51
ATOM     51  C   UNL     1       0.333   0.872   5.453  1.00  0.00     0.103 C 
BRANCH  51  52
ATOM     52  C   UNL     1       0.937   1.472   6.721  1.00  0.00     0.226 C 
ATOM     53  O   UNL     1       1.923   0.942   7.237  1.00  0.00    -0.275 OA
BRANCH  52  54
ATOM     54  N   UNL     1       0.356   2.666   7.188  1.00  0.00    -0.311 N 
ATOM     55  C   UNL     1      -0.685   3.354   6.413  1.00  0.00     0.153 C 
BRANCH  54  56
ATOM     56  C   UNL     1       0.745   3.241   8.409  1.00  0.00     0.102 C 
ATOM     57  C   UNL     1       1.167   4.506   8.563  1.00  0.00     0.043 C 
BRANCH  56  58
ATOM     58  C   UNL     1       0.668   2.453   9.696  1.00  0.00     0.268 C 
ATOM     59  O   UNL     1      -0.385   2.053  10.174  1.00  0.00    -0.268 OA
ATOM     60  N   UNL     1       1.901   2.176  10.234  1.00  0.00    -0.339 N 
ATOM     61  H   UNL     1       2.726   2.552   9.782  1.00  0.00     0.164 HD
BRANCH  60  62
ATOM     62  C   UNL     1       2.060   1.371  11.445  1.00  0.00     0.168 CG0
ATOM     63  C   UNL     1       3.300   0.491  11.358  1.00  0.00     0.041 C 
ATOM     64  G   UNL     1       0.796   0.514  11.665  1.00  0.00     0.000 G0
ENDBRANCH  60  62
ENDBRANCH  56  58
ENDBRANCH  54  56
ENDBRANCH  52  54
ENDBRANCH  51  52
ENDBRANCH  50  51
ENDBRANCH  49  50
BRANCH  49  65
ATOM     65  C   UNL     1       0.767  -2.650   5.243  1.00  0.00     0.326 C 
ATOM     66  O   UNL     1       0.423  -2.814   6.405  1.00  0.00    -0.250 OA
BRANCH  65  67
ATOM     67  O   UNL     1       1.565  -3.561   4.645  1.00  0.00    -0.480 OA
ATOM     68  H   UNL     1       2.454  -3.146   4.678  1.00  0.00     0.296 HD
ENDBRANCH  65  67
ENDBRANCH  49  65
ENDBRANCH  47  49
ENDBRANCH  43  45
ENDBRANCH   1  43
BRANCH   1  69
ATOM     69  C   UNL     1      -2.064  -1.229  -0.675  1.00  0.00    -0.001 C 
ATOM     70  C   UNL     1      -2.706  -2.343  -1.068  1.00  0.00     0.001 C 
BRANCH  70  71
ATOM     71  C   UNL     1      -4.148  -2.504  -1.264  1.00  0.00    -0.055 C 
ATOM     72  C   UNL     1      -4.972  -1.708  -0.550  1.00  0.00    -0.018 C 
ATOM     73  C   UNL     1      -4.610  -3.541  -2.255  1.00  0.00     0.044 C 
BRANCH  72  74
ATOM     74  C   UNL     1      -6.492  -1.650  -0.549  1.00  0.00     0.038 C 
ATOM     75  C   UNL     1      -6.889  -0.178  -0.715  1.00  0.00     0.015 C 
BRANCH  74  76
ATOM     76  C   UNL     1      -7.019  -2.325   0.752  1.00  0.00     0.128 C 
BRANCH  76  77
ATOM     77  O   UNL     1      -7.322  -3.707   0.500  1.00  0.00    -0.381 OA
ATOM     78  C   UNL     1      -6.509  -4.614   1.232  1.00  0.00     0.195 C 
ENDBRANCH  76  77
BRANCH  76  79
ATOM     79  C   UNL     1      -6.095  -2.129   1.981  1.00  0.00     0.068 C 
BRANCH  79  80
ATOM     80  C   UNL     1      -6.220  -0.843   2.761  1.00  0.00    -0.045 A 
ATOM     81  C   UNL     1      -5.108  -0.020   2.980  1.00  0.00     0.004 A 
ATOM     82  C   UNL     1      -7.456  -0.464   3.307  1.00  0.00     0.004 A 
ATOM     83  C   UNL     1      -5.229   1.162   3.715  1.00  0.00     0.000 A 
ATOM     84  C   UNL     1      -7.576   0.717   4.043  1.00  0.00     0.000 A 
ATOM     85  C   UNL     1      -6.463   1.530   4.245  1.00  0.00     0.000 A 
ENDBRANCH  79  80
ENDBRANCH  76  79
ENDBRANCH  74  76
ENDBRANCH  72  74
ENDBRANCH  70  71
ENDBRANCH   1  69
TORSDOF 17
ENDMDL
MODEL 34
REMARK VINA RESULT:    -6.124      7.689     14.328
REMARK INTER + INTRA:         -25.909
REMARK INTER:                 -17.871
REMARK INTRA:                  -8.038
REMARK UNBOUND:                -7.614
REMARK SMILES C=C1C(=O)N[C@H](C)C(=O)N[C@@H](CC(C)C)C(=O)N[C@@H](C(=O)O)[C@H](C)C(=O)N[C@@H](CCCN=C(N)N)C(=O)N[C@@H](/C=C/C(C)=C/[C@H](C)[C@H](Cc2ccccc2)OC)[C@H](C)C(=O)N[C@@H](C(=O)O)CCC(=O)N1C
REMARK SMILES IDX 39 1 38 2 37 3 36 4 28 6 27 7 25 8 26 9 23 11 24 12 19 13
REMARK SMILES IDX 18 14 16 15 17 16 11 18 10 19 8 20 9 21 12 24 13 25 14 26
REMARK SMILES IDX 15 27 20 28 21 29 22 30 29 32 30 33 31 34 32 35 33 36 34 37
REMARK SMILES IDX 35 38 57 43 58 44 59 45 60 46 61 47 62 49 66 50 67 51 68 52
REMARK SMILES IDX 69 53 70 54 71 55 2 56 1 57 3 58 4 59 5 60 6 62 7 63 63 65
REMARK SMILES IDX 64 66 65 67 40 69 41 70 42 71 44 72 43 73 45 74 46 75 47 76
REMARK SMILES IDX 55 77 56 78 48 79 49 80 50 81 54 82 51 83 53 84 52 85
REMARK H PARENT 38 5 27 10 18 17 10 22 22 31 34 39 34 40 35 41 35 42 61 48
REMARK H PARENT 5 61 65 68
REMARK Flexibility Score:  369.900
ROOT
ATOM      1  C   UNL     1      -9.798  -1.362   5.597  1.00  0.00     0.117 C 
ENDROOT
BRANCH   1   2
ATOM      2  N   UNL     1      -8.427  -1.038   5.992  1.00  0.00    -0.347 N 
ATOM      3  O   UNL     1      -8.516   1.223   5.608  1.00  0.00    -0.273 OA
ATOM      4  C   UNL     1      -7.923   0.246   6.054  1.00  0.00     0.243 C 
ATOM      5  H   UNL     1      -7.810  -1.779   6.290  1.00  0.00     0.164 HD
BRANCH   4   6
ATOM      6  C   UNL     1      -6.469   0.321   6.586  1.00  0.00     0.171 C 
BRANCH   6   7
ATOM      7  N   UNL     1      -5.512  -0.006   5.517  1.00  0.00    -0.344 N 
ATOM      8  C   UNL     1      -4.383  -0.748   5.787  1.00  0.00     0.226 C 
ATOM      9  O   UNL     1      -4.110  -1.149   6.912  1.00  0.00    -0.275 OA
ATOM     10  H   UNL     1      -5.669   0.365   4.588  1.00  0.00     0.164 HD
BRANCH   8  11
ATOM     11  C   UNL     1      -3.525  -1.047   4.570  1.00  0.00     0.109 C 
ATOM     12  C   UNL     1      -4.196  -0.505   3.308  1.00  0.00     0.021 C 
BRANCH  11  13
ATOM     13  C   UNL     1      -2.088  -0.542   4.809  1.00  0.00     0.204 C 
BRANCH  13  14
ATOM     14  N   UNL     1      -2.026   0.460   5.877  1.00  0.00    -0.340 N 
ATOM     15  C   UNL     1      -1.070   1.452   5.918  1.00  0.00     0.243 C 
ATOM     16  O   UNL     1      -0.237   1.603   5.026  1.00  0.00    -0.273 OA
ATOM     17  H   UNL     1      -2.587   0.301   6.718  1.00  0.00     0.164 HD
BRANCH  15  18
ATOM     18  C   UNL     1      -1.073   2.260   7.239  1.00  0.00     0.171 C 
BRANCH  18  19
ATOM     19  N   UNL     1       0.196   2.984   7.289  1.00  0.00    -0.343 N 
ATOM     20  C   UNL     1       1.230   2.587   8.114  1.00  0.00     0.242 CG0
ATOM     21  O   UNL     1       1.085   1.688   8.940  1.00  0.00    -0.273 OA
ATOM     22  H   UNL     1       0.323   3.806   6.708  1.00  0.00     0.164 HD
ATOM     23  G   UNL     1       2.516   3.426   7.972  1.00  0.00     0.000 G0
ENDBRANCH  18  19
BRANCH  18  24
ATOM     24  C   UNL     1      -2.270   3.218   7.285  1.00  0.00     0.038 C 
BRANCH  24  25
ATOM     25  C   UNL     1      -2.739   3.594   8.706  1.00  0.00    -0.015 C 
ATOM     26  C   UNL     1      -2.221   4.963   9.150  1.00  0.00     0.007 C 
ATOM     27  C   UNL     1      -2.281   2.523   9.700  1.00  0.00     0.007 C 
ENDBRANCH  24  25
ENDBRANCH  18  24
ENDBRANCH  15  18
ENDBRANCH  13  14
BRANCH  13  28
ATOM     28  C   UNL     1      -1.109  -1.661   5.178  1.00  0.00     0.327 C 
ATOM     29  O   UNL     1      -0.089  -1.957   4.575  1.00  0.00    -0.250 OA
BRANCH  28  30
ATOM     30  O   UNL     1      -1.533  -2.414   6.212  1.00  0.00    -0.480 OA
ATOM     31  H   UNL     1      -2.454  -2.651   5.977  1.00  0.00     0.296 HD
ENDBRANCH  28  30
ENDBRANCH  13  28
ENDBRANCH  11  13
ENDBRANCH   8  11
ENDBRANCH   6   7
BRANCH   6  32
ATOM     32  C   UNL     1      -6.209   1.725   7.144  1.00  0.00     0.037 C 
BRANCH  32  33
ATOM     33  C   UNL     1      -5.754   1.690   8.610  1.00  0.00     0.026 C 
BRANCH  33  34
ATOM     34  C   UNL     1      -6.364   2.821   9.438  1.00  0.00     0.146 C 
BRANCH  34  35
ATOM     35  N   UNL     1      -5.715   2.852  10.742  1.00  0.00    -0.254 NA
ATOM     36  C   UNL     1      -6.350   2.393  11.755  1.00  0.00     0.185 C 
ATOM     37  N   UNL     1      -5.759   2.411  12.960  1.00  0.00    -0.370 N 
ATOM     38  N   UNL     1      -7.585   1.863  11.810  1.00  0.00    -0.370 N 
ATOM     39  H   UNL     1      -4.820   2.787  13.000  1.00  0.00     0.159 HD
ATOM     40  H   UNL     1      -6.114   1.918  13.761  1.00  0.00     0.159 HD
ATOM     41  H   UNL     1      -8.028   1.665  12.692  1.00  0.00     0.159 HD
ATOM     42  H   UNL     1      -8.153   1.800  10.979  1.00  0.00     0.159 HD
ENDBRANCH  34  35
ENDBRANCH  33  34
ENDBRANCH  32  33
ENDBRANCH   6  32
ENDBRANCH   4   6
ENDBRANCH   1   2
BRANCH   1  43
ATOM     43  C   UNL     1     -10.270  -2.600   6.414  1.00  0.00     0.102 C 
ATOM     44  C   UNL     1     -11.321  -3.451   5.682  1.00  0.00     0.020 C 
BRANCH  43  45
ATOM     45  C   UNL     1     -10.675  -2.198   7.835  1.00  0.00     0.225 C 
ATOM     46  O   UNL     1     -10.829  -3.009   8.743  1.00  0.00    -0.275 OA
ATOM     47  N   UNL     1     -10.953  -0.862   8.017  1.00  0.00    -0.342 N 
ATOM     48  H   UNL     1     -10.678  -0.194   7.311  1.00  0.00     0.164 HD
BRANCH  47  49
ATOM     49  C   UNL     1     -11.318  -0.328   9.332  1.00  0.00     0.192 C 
BRANCH  49  50
ATOM     50  C   UNL     1     -12.621   0.468   9.220  1.00  0.00     0.047 C 
BRANCH  50  51
ATOM     51  C   UNL     1     -12.896   0.935   7.784  1.00  0.00     0.103 C 
BRANCH  51  52
ATOM     52  C   UNL     1     -14.204   0.367   7.236  1.00  0.00     0.226 C 
ATOM     53  O   UNL     1     -15.008  -0.162   8.005  1.00  0.00    -0.275 OA
BRANCH  52  54
ATOM     54  N   UNL     1     -14.444   0.558   5.863  1.00  0.00    -0.311 N 
ATOM     55  C   UNL     1     -13.789  -0.288   4.856  1.00  0.00     0.153 C 
BRANCH  54  56
ATOM     56  C   UNL     1     -15.319   1.557   5.404  1.00  0.00     0.102 C 
ATOM     57  C   UNL     1     -14.947   2.792   5.031  1.00  0.00     0.043 C 
BRANCH  56  58
ATOM     58  C   UNL     1     -16.796   1.282   5.251  1.00  0.00     0.268 C 
ATOM     59  O   UNL     1     -17.348   1.175   4.164  1.00  0.00    -0.268 OA
ATOM     60  N   UNL     1     -17.440   1.099   6.451  1.00  0.00    -0.339 N 
ATOM     61  H   UNL     1     -16.913   1.215   7.309  1.00  0.00     0.164 HD
BRANCH  60  62
ATOM     62  C   UNL     1     -18.860   0.761   6.531  1.00  0.00     0.168 CG0
ATOM     63  C   UNL     1     -19.698   1.991   6.855  1.00  0.00     0.041 C 
ATOM     64  G   UNL     1     -19.071  -0.339   7.592  1.00  0.00     0.000 G0
ENDBRANCH  60  62
ENDBRANCH  56  58
ENDBRANCH  54  56
ENDBRANCH  52  54
ENDBRANCH  51  52
ENDBRANCH  50  51
ENDBRANCH  49  50
BRANCH  49  65
ATOM     65  C   UNL     1     -10.216   0.578   9.902  1.00  0.00     0.326 C 
ATOM     66  O   UNL     1     -10.397   1.557  10.612  1.00  0.00    -0.250 OA
BRANCH  65  67
ATOM     67  O   UNL     1      -8.963   0.255   9.512  1.00  0.00    -0.480 OA
ATOM     68  H   UNL     1      -8.609   1.097   9.153  1.00  0.00     0.296 HD
ENDBRANCH  65  67
ENDBRANCH  49  65
ENDBRANCH  47  49
ENDBRANCH  43  45
ENDBRANCH   1  43
BRANCH   1  69
ATOM     69  C   UNL     1      -9.794  -1.443   4.081  1.00  0.00    -0.001 C 
ATOM     70  C   UNL     1      -8.958  -2.153   3.303  1.00  0.00     0.001 C 
BRANCH  70  71
ATOM     71  C   UNL     1      -8.977  -2.239   1.841  1.00  0.00    -0.055 C 
ATOM     72  C   UNL     1      -7.793  -2.355   1.203  1.00  0.00    -0.018 C 
ATOM     73  C   UNL     1     -10.317  -2.201   1.153  1.00  0.00     0.044 C 
BRANCH  72  74
ATOM     74  C   UNL     1      -7.509  -2.466  -0.288  1.00  0.00     0.038 C 
ATOM     75  C   UNL     1      -6.595  -3.681  -0.485  1.00  0.00     0.015 C 
BRANCH  74  76
ATOM     76  C   UNL     1      -6.917  -1.115  -0.787  1.00  0.00     0.128 C 
BRANCH  76  77
ATOM     77  O   UNL     1      -6.271  -1.302  -2.057  1.00  0.00    -0.381 OA
ATOM     78  C   UNL     1      -5.144  -0.459  -2.254  1.00  0.00     0.195 C 
ENDBRANCH  76  77
BRANCH  76  79
ATOM     79  C   UNL     1      -7.935   0.053  -0.798  1.00  0.00     0.068 C 
BRANCH  79  80
ATOM     80  C   UNL     1      -8.009   0.938   0.423  1.00  0.00    -0.045 A 
ATOM     81  C   UNL     1      -6.849   1.313   1.114  1.00  0.00     0.004 A 
ATOM     82  C   UNL     1      -9.251   1.379   0.903  1.00  0.00     0.004 A 
ATOM     83  C   UNL     1      -6.927   2.120   2.251  1.00  0.00     0.000 A 
ATOM     84  C   UNL     1      -9.328   2.186   2.040  1.00  0.00     0.000 A 
ATOM     85  C   UNL     1      -8.166   2.557   2.713  1.00  0.00     0.000 A 
ENDBRANCH  79  80
ENDBRANCH  76  79
ENDBRANCH  74  76
ENDBRANCH  72  74
ENDBRANCH  70  71
ENDBRANCH   1  69
TORSDOF 17
ENDMDL
MODEL 35
REMARK VINA RESULT:    -6.095      3.682     11.280
REMARK INTER + INTRA:         -25.822
REMARK INTER:                 -18.179
REMARK INTRA:                  -7.643
REMARK UNBOUND:                -7.614
REMARK SMILES C=C1C(=O)N[C@H](C)C(=O)N[C@@H](CC(C)C)C(=O)N[C@@H](C(=O)O)[C@H](C)C(=O)N[C@@H](CCCN=C(N)N)C(=O)N[C@@H](/C=C/C(C)=C/[C@H](C)[C@H](Cc2ccccc2)OC)[C@H](C)C(=O)N[C@@H](C(=O)O)CCC(=O)N1C
REMARK SMILES IDX 39 1 38 2 37 3 36 4 28 6 27 7 25 8 26 9 23 11 24 12 19 13
REMARK SMILES IDX 18 14 16 15 17 16 11 18 10 19 8 20 9 21 12 24 13 25 14 26
REMARK SMILES IDX 15 27 20 28 21 29 22 30 29 32 30 33 31 34 32 35 33 36 34 37
REMARK SMILES IDX 35 38 57 43 58 44 59 45 60 46 61 47 62 49 66 50 67 51 68 52
REMARK SMILES IDX 69 53 70 54 71 55 2 56 1 57 3 58 4 59 5 60 6 62 7 63 63 65
REMARK SMILES IDX 64 66 65 67 40 69 41 70 42 71 44 72 43 73 45 74 46 75 47 76
REMARK SMILES IDX 55 77 56 78 48 79 49 80 50 81 54 82 51 83 53 84 52 85
REMARK H PARENT 38 5 27 10 18 17 10 22 22 31 34 39 34 40 35 41 35 42 61 48
REMARK H PARENT 5 61 65 68
REMARK Flexibility Score:  369.900
ROOT
ATOM      1  C   UNL     1      -2.577  -0.292  -6.133  1.00  0.00     0.117 C 
ENDROOT
BRANCH   1   2
ATOM      2  N   UNL     1      -1.377   0.091  -6.879  1.00  0.00    -0.347 N 
ATOM      3  O   UNL     1      -1.762   2.353  -6.950  1.00  0.00    -0.273 OA
ATOM      4  C   UNL     1      -1.019   1.398  -7.149  1.00  0.00     0.243 C 
ATOM      5  H   UNL     1      -0.733  -0.624  -7.181  1.00  0.00     0.164 HD
BRANCH   4   6
ATOM      6  C   UNL     1       0.341   1.533  -7.878  1.00  0.00     0.171 C 
BRANCH   6   7
ATOM      7  N   UNL     1       0.492   0.472  -8.887  1.00  0.00    -0.344 N 
ATOM      8  C   UNL     1       1.712   0.237  -9.483  1.00  0.00     0.226 C 
ATOM      9  O   UNL     1       2.711   0.900  -9.227  1.00  0.00    -0.275 OA
ATOM     10  H   UNL     1      -0.325  -0.052  -9.174  1.00  0.00     0.164 HD
BRANCH   8  11
ATOM     11  C   UNL     1       1.717  -0.925 -10.460  1.00  0.00     0.109 C 
ATOM     12  C   UNL     1       0.742  -2.006  -9.997  1.00  0.00     0.021 C 
BRANCH  11  13
ATOM     13  C   UNL     1       1.476  -0.404 -11.891  1.00  0.00     0.204 C 
BRANCH  13  14
ATOM     14  N   UNL     1       1.829   1.013 -12.029  1.00  0.00    -0.340 N 
ATOM     15  C   UNL     1       1.501   1.761 -13.139  1.00  0.00     0.243 C 
ATOM     16  O   UNL     1       0.835   1.307 -14.068  1.00  0.00    -0.273 OA
ATOM     17  H   UNL     1       2.506   1.406 -11.370  1.00  0.00     0.164 HD
BRANCH  15  18
ATOM     18  C   UNL     1       2.154   3.165 -13.154  1.00  0.00     0.171 C 
BRANCH  18  19
ATOM     19  N   UNL     1       1.721   3.815 -14.389  1.00  0.00    -0.343 N 
ATOM     20  C   UNL     1       2.545   3.905 -15.494  1.00  0.00     0.242 CG0
ATOM     21  O   UNL     1       3.724   3.562 -15.446  1.00  0.00    -0.273 OA
ATOM     22  H   UNL     1       0.792   4.218 -14.439  1.00  0.00     0.164 HD
ATOM     23  G   UNL     1       1.887   4.555 -16.728  1.00  0.00     0.000 G0
ENDBRANCH  18  19
BRANCH  18  24
ATOM     24  C   UNL     1       1.736   3.970 -11.918  1.00  0.00     0.038 C 
BRANCH  24  25
ATOM     25  C   UNL     1       2.898   4.365 -10.982  1.00  0.00    -0.015 C 
ATOM     26  C   UNL     1       3.037   5.880 -10.829  1.00  0.00     0.007 C 
ATOM     27  C   UNL     1       4.208   3.778 -11.513  1.00  0.00     0.007 C 
ENDBRANCH  24  25
ENDBRANCH  18  24
ENDBRANCH  15  18
ENDBRANCH  13  14
BRANCH  13  28
ATOM     28  C   UNL     1       2.265  -1.173 -12.955  1.00  0.00     0.327 C 
ATOM     29  O   UNL     1       3.481  -1.252 -13.037  1.00  0.00    -0.250 OA
BRANCH  28  30
ATOM     30  O   UNL     1       1.480  -1.698 -13.918  1.00  0.00    -0.480 OA
ATOM     31  H   UNL     1       0.667  -1.153 -13.891  1.00  0.00     0.296 HD
ENDBRANCH  28  30
ENDBRANCH  13  28
ENDBRANCH  11  13
ENDBRANCH   8  11
ENDBRANCH   6   7
BRANCH   6  32
ATOM     32  C   UNL     1       0.430   2.920  -8.525  1.00  0.00     0.037 C 
BRANCH  32  33
ATOM     33  C   UNL     1       1.429   3.833  -7.802  1.00  0.00     0.026 C 
BRANCH  33  34
ATOM     34  C   UNL     1       1.960   3.213  -6.509  1.00  0.00     0.146 C 
BRANCH  34  35
ATOM     35  N   UNL     1       3.416   3.201  -6.557  1.00  0.00    -0.254 NA
ATOM     36  C   UNL     1       4.026   2.086  -6.395  1.00  0.00     0.185 C 
ATOM     37  N   UNL     1       5.367   2.062  -6.442  1.00  0.00    -0.370 N 
ATOM     38  N   UNL     1       3.510   0.864  -6.174  1.00  0.00    -0.370 N 
ATOM     39  H   UNL     1       5.831   2.945  -6.616  1.00  0.00     0.159 HD
ATOM     40  H   UNL     1       5.907   1.216  -6.499  1.00  0.00     0.159 HD
ATOM     41  H   UNL     1       4.099   0.087  -5.924  1.00  0.00     0.159 HD
ATOM     42  H   UNL     1       2.513   0.735  -6.098  1.00  0.00     0.159 HD
ENDBRANCH  34  35
ENDBRANCH  33  34
ENDBRANCH  32  33
ENDBRANCH   6  32
ENDBRANCH   4   6
ENDBRANCH   1   2
BRANCH   1  43
ATOM     43  C   UNL     1      -2.290  -0.122  -4.613  1.00  0.00     0.102 C 
ATOM     44  C   UNL     1      -1.806  -1.414  -3.934  1.00  0.00     0.020 C 
BRANCH  43  45
ATOM     45  C   UNL     1      -3.470   0.549  -3.903  1.00  0.00     0.225 C 
ATOM     46  O   UNL     1      -3.496   0.753  -2.693  1.00  0.00    -0.275 OA
ATOM     47  N   UNL     1      -4.558   0.830  -4.698  1.00  0.00    -0.342 N 
ATOM     48  H   UNL     1      -4.464   0.798  -5.703  1.00  0.00     0.164 HD
BRANCH  47  49
ATOM     49  C   UNL     1      -5.744   1.504  -4.162  1.00  0.00     0.192 C 
BRANCH  49  50
ATOM     50  C   UNL     1      -6.995   0.691  -4.503  1.00  0.00     0.047 C 
BRANCH  50  51
ATOM     51  C   UNL     1      -7.877   0.436  -3.273  1.00  0.00     0.103 C 
BRANCH  51  52
ATOM     52  C   UNL     1      -7.979  -1.051  -2.939  1.00  0.00     0.226 C 
ATOM     53  O   UNL     1      -8.995  -1.678  -3.247  1.00  0.00    -0.275 OA
BRANCH  52  54
ATOM     54  N   UNL     1      -6.844  -1.641  -2.353  1.00  0.00    -0.311 N 
ATOM     55  C   UNL     1      -6.201  -1.039  -1.177  1.00  0.00     0.153 C 
BRANCH  54  56
ATOM     56  C   UNL     1      -6.288  -2.826  -2.863  1.00  0.00     0.102 C 
ATOM     57  C   UNL     1      -5.360  -2.884  -3.832  1.00  0.00     0.043 C 
BRANCH  56  58
ATOM     58  C   UNL     1      -6.680  -4.172  -2.300  1.00  0.00     0.268 C 
ATOM     59  O   UNL     1      -5.875  -5.066  -2.079  1.00  0.00    -0.268 OA
ATOM     60  N   UNL     1      -8.019  -4.263  -2.002  1.00  0.00    -0.339 N 
ATOM     61  H   UNL     1      -8.622  -3.480  -2.226  1.00  0.00     0.164 HD
BRANCH  60  62
ATOM     62  C   UNL     1      -8.601  -5.456  -1.390  1.00  0.00     0.168 CG0
ATOM     63  C   UNL     1      -9.536  -6.168  -2.360  1.00  0.00     0.041 C 
ATOM     64  G   UNL     1      -9.351  -5.062  -0.100  1.00  0.00     0.000 G0
ENDBRANCH  60  62
ENDBRANCH  56  58
ENDBRANCH  54  56
ENDBRANCH  52  54
ENDBRANCH  51  52
ENDBRANCH  50  51
ENDBRANCH  49  50
BRANCH  49  65
ATOM     65  C   UNL     1      -5.891   2.926  -4.726  1.00  0.00     0.326 C 
ATOM     66  O   UNL     1      -5.065   3.506  -5.415  1.00  0.00    -0.250 OA
BRANCH  65  67
ATOM     67  O   UNL     1      -7.022   3.565  -4.355  1.00  0.00    -0.480 OA
ATOM     68  H   UNL     1      -7.304   4.031  -5.172  1.00  0.00     0.296 HD
ENDBRANCH  65  67
ENDBRANCH  49  65
ENDBRANCH  47  49
ENDBRANCH  43  45
ENDBRANCH   1  43
BRANCH   1  69
ATOM     69  C   UNL     1      -2.981  -1.659  -6.655  1.00  0.00    -0.001 C 
ATOM     70  C   UNL     1      -4.082  -1.971  -7.362  1.00  0.00     0.001 C 
BRANCH  70  71
ATOM     71  C   UNL     1      -4.452  -3.290  -7.878  1.00  0.00    -0.055 C 
ATOM     72  C   UNL     1      -4.928  -3.359  -9.139  1.00  0.00    -0.018 C 
ATOM     73  C   UNL     1      -4.267  -4.477  -6.969  1.00  0.00     0.044 C 
BRANCH  72  74
ATOM     74  C   UNL     1      -5.382  -4.577  -9.932  1.00  0.00     0.038 C 
ATOM     75  C   UNL     1      -4.412  -4.739 -11.108  1.00  0.00     0.015 C 
BRANCH  74  76
ATOM     76  C   UNL     1      -6.873  -4.383 -10.337  1.00  0.00     0.128 C 
BRANCH  76  77
ATOM     77  O   UNL     1      -7.666  -5.465  -9.821  1.00  0.00    -0.381 OA
ATOM     78  C   UNL     1      -6.973  -6.292  -8.896  1.00  0.00     0.195 C 
ENDBRANCH  76  77
BRANCH  76  79
ATOM     79  C   UNL     1      -7.448  -2.991  -9.972  1.00  0.00     0.068 C 
BRANCH  79  80
ATOM     80  C   UNL     1      -8.498  -2.921  -8.889  1.00  0.00    -0.045 A 
ATOM     81  C   UNL     1      -8.136  -2.836  -7.538  1.00  0.00     0.004 A 
ATOM     82  C   UNL     1      -9.860  -2.970  -9.220  1.00  0.00     0.004 A 
ATOM     83  C   UNL     1      -9.112  -2.786  -6.541  1.00  0.00     0.000 A 
ATOM     84  C   UNL     1     -10.836  -2.920  -8.222  1.00  0.00     0.000 A 
ATOM     85  C   UNL     1     -10.462  -2.827  -6.884  1.00  0.00     0.000 A 
ENDBRANCH  79  80
ENDBRANCH  76  79
ENDBRANCH  74  76
ENDBRANCH  72  74
ENDBRANCH  70  71
ENDBRANCH   1  69
TORSDOF 17
ENDMDL
MODEL 36
REMARK VINA RESULT:    -6.090      4.942     13.243
REMARK INTER + INTRA:         -25.808
REMARK INTER:                 -19.602
REMARK INTRA:                  -6.206
REMARK UNBOUND:                -7.614
REMARK SMILES C=C1C(=O)N[C@H](C)C(=O)N[C@@H](CC(C)C)C(=O)N[C@@H](C(=O)O)[C@H](C)C(=O)N[C@@H](CCCN=C(N)N)C(=O)N[C@@H](/C=C/C(C)=C/[C@H](C)[C@H](Cc2ccccc2)OC)[C@H](C)C(=O)N[C@@H](C(=O)O)CCC(=O)N1C
REMARK SMILES IDX 39 1 38 2 37 3 36 4 28 6 27 7 25 8 26 9 23 11 24 12 19 13
REMARK SMILES IDX 18 14 16 15 17 16 11 18 10 19 8 20 9 21 12 24 13 25 14 26
REMARK SMILES IDX 15 27 20 28 21 29 22 30 29 32 30 33 31 34 32 35 33 36 34 37
REMARK SMILES IDX 35 38 57 43 58 44 59 45 60 46 61 47 62 49 66 50 67 51 68 52
REMARK SMILES IDX 69 53 70 54 71 55 2 56 1 57 3 58 4 59 5 60 6 62 7 63 63 65
REMARK SMILES IDX 64 66 65 67 40 69 41 70 42 71 44 72 43 73 45 74 46 75 47 76
REMARK SMILES IDX 55 77 56 78 48 79 49 80 50 81 54 82 51 83 53 84 52 85
REMARK H PARENT 38 5 27 10 18 17 10 22 22 31 34 39 34 40 35 41 35 42 61 48
REMARK H PARENT 5 61 65 68
REMARK Flexibility Score:  369.900
ROOT
ATOM      1  C   UNL     1      -4.934  -2.776   1.616  1.00  0.00     0.117 C 
ENDROOT
BRANCH   1   2
ATOM      2  N   UNL     1      -4.243  -2.139   0.494  1.00  0.00    -0.347 N 
ATOM      3  O   UNL     1      -3.588  -4.051  -0.596  1.00  0.00    -0.273 OA
ATOM      4  C   UNL     1      -3.702  -2.830  -0.574  1.00  0.00     0.243 C 
ATOM      5  H   UNL     1      -4.190  -1.133   0.453  1.00  0.00     0.164 HD
BRANCH   4   6
ATOM      6  C   UNL     1      -3.103  -1.913  -1.670  1.00  0.00     0.171 C 
BRANCH   6   7
ATOM      7  N   UNL     1      -1.640  -1.833  -1.531  1.00  0.00    -0.344 N 
ATOM      8  C   UNL     1      -0.946  -0.749  -2.021  1.00  0.00     0.226 C 
ATOM      9  O   UNL     1      -1.495   0.177  -2.607  1.00  0.00    -0.275 OA
ATOM     10  H   UNL     1      -1.144  -2.610  -1.113  1.00  0.00     0.164 HD
BRANCH   8  11
ATOM     11  C   UNL     1       0.548  -0.789  -1.752  1.00  0.00     0.109 C 
ATOM     12  C   UNL     1       0.850  -1.753  -0.605  1.00  0.00     0.021 C 
BRANCH  11  13
ATOM     13  C   UNL     1       1.307  -1.082  -3.062  1.00  0.00     0.204 C 
BRANCH  13  14
ATOM     14  N   UNL     1       1.439   0.112  -3.902  1.00  0.00    -0.340 N 
ATOM     15  C   UNL     1       1.059   0.142  -5.226  1.00  0.00     0.243 C 
ATOM     16  O   UNL     1       0.525  -0.817  -5.781  1.00  0.00    -0.273 OA
ATOM     17  H   UNL     1       2.009   0.886  -3.550  1.00  0.00     0.164 HD
BRANCH  15  18
ATOM     18  C   UNL     1       1.484   1.436  -5.963  1.00  0.00     0.171 C 
BRANCH  18  19
ATOM     19  N   UNL     1       2.814   1.186  -6.516  1.00  0.00    -0.343 N 
ATOM     20  C   UNL     1       3.852   2.082  -6.349  1.00  0.00     0.242 CG0
ATOM     21  O   UNL     1       3.673   3.188  -5.846  1.00  0.00    -0.273 OA
ATOM     22  H   UNL     1       2.982   0.336  -7.041  1.00  0.00     0.164 HD
ATOM     23  G   UNL     1       5.199   1.610  -6.934  1.00  0.00     0.000 G0
ENDBRANCH  18  19
BRANCH  18  24
ATOM     24  C   UNL     1       0.475   1.788  -7.064  1.00  0.00     0.038 C 
BRANCH  24  25
ATOM     25  C   UNL     1      -0.162   3.187  -6.930  1.00  0.00    -0.015 C 
ATOM     26  C   UNL     1       0.793   4.307  -7.346  1.00  0.00     0.007 C 
ATOM     27  C   UNL     1      -0.618   3.410  -5.486  1.00  0.00     0.007 C 
ENDBRANCH  24  25
ENDBRANCH  18  24
ENDBRANCH  15  18
ENDBRANCH  13  14
BRANCH  13  28
ATOM     28  C   UNL     1       2.717  -1.634  -2.832  1.00  0.00     0.327 C 
ATOM     29  O   UNL     1       3.045  -2.810  -2.851  1.00  0.00    -0.250 OA
BRANCH  28  30
ATOM     30  O   UNL     1       3.605  -0.684  -2.475  1.00  0.00    -0.480 OA
ATOM     31  H   UNL     1       3.413  -0.518  -1.529  1.00  0.00     0.296 HD
ENDBRANCH  28  30
ENDBRANCH  13  28
ENDBRANCH  11  13
ENDBRANCH   8  11
ENDBRANCH   6   7
BRANCH   6  32
ATOM     32  C   UNL     1      -3.493  -2.456  -3.049  1.00  0.00     0.037 C 
BRANCH  32  33
ATOM     33  C   UNL     1      -4.737  -1.757  -3.616  1.00  0.00     0.026 C 
BRANCH  33  34
ATOM     34  C   UNL     1      -4.384  -0.639  -4.597  1.00  0.00     0.146 C 
BRANCH  34  35
ATOM     35  N   UNL     1      -5.360   0.433  -4.459  1.00  0.00    -0.254 NA
ATOM     36  C   UNL     1      -5.064   1.444  -3.731  1.00  0.00     0.185 C 
ATOM     37  N   UNL     1      -5.954   2.440  -3.601  1.00  0.00    -0.370 N 
ATOM     38  N   UNL     1      -3.938   1.683  -3.035  1.00  0.00    -0.370 N 
ATOM     39  H   UNL     1      -6.826   2.338  -4.105  1.00  0.00     0.159 HD
ATOM     40  H   UNL     1      -5.734   3.334  -3.196  1.00  0.00     0.159 HD
ATOM     41  H   UNL     1      -3.880   2.451  -2.386  1.00  0.00     0.159 HD
ATOM     42  H   UNL     1      -3.187   1.011  -3.028  1.00  0.00     0.159 HD
ENDBRANCH  34  35
ENDBRANCH  33  34
ENDBRANCH  32  33
ENDBRANCH   6  32
ENDBRANCH   4   6
ENDBRANCH   1   2
BRANCH   1  43
ATOM     43  C   UNL     1      -6.459  -2.802   1.308  1.00  0.00     0.102 C 
ATOM     44  C   UNL     1      -7.281  -1.865   2.208  1.00  0.00     0.020 C 
BRANCH  43  45
ATOM     45  C   UNL     1      -6.986  -4.240   1.261  1.00  0.00     0.225 C 
ATOM     46  O   UNL     1      -6.303  -5.193   0.898  1.00  0.00    -0.275 OA
ATOM     47  N   UNL     1      -8.319  -4.392   1.567  1.00  0.00    -0.342 N 
ATOM     48  H   UNL     1      -8.821  -3.633   2.006  1.00  0.00     0.164 HD
BRANCH  47  49
ATOM     49  C   UNL     1      -8.952  -5.714   1.598  1.00  0.00     0.192 C 
BRANCH  49  50
ATOM     50  C   UNL     1      -9.929  -5.844   0.427  1.00  0.00     0.047 C 
BRANCH  50  51
ATOM     51  C   UNL     1     -10.232  -7.308   0.081  1.00  0.00     0.103 C 
BRANCH  51  52
ATOM     52  C   UNL     1     -11.720  -7.543  -0.170  1.00  0.00     0.226 C 
ATOM     53  O   UNL     1     -12.208  -7.250  -1.263  1.00  0.00    -0.275 OA
BRANCH  52  54
ATOM     54  N   UNL     1     -12.441  -8.163   0.867  1.00  0.00    -0.311 N 
ATOM     55  C   UNL     1     -12.146  -9.544   1.272  1.00  0.00     0.153 C 
BRANCH  54  56
ATOM     56  C   UNL     1     -13.461  -7.487   1.556  1.00  0.00     0.102 C 
ATOM     57  C   UNL     1     -14.344  -8.068   2.385  1.00  0.00     0.043 C 
BRANCH  56  58
ATOM     58  C   UNL     1     -13.613  -5.989   1.441  1.00  0.00     0.268 C 
ATOM     59  O   UNL     1     -14.268  -5.448   0.560  1.00  0.00    -0.268 OA
ATOM     60  N   UNL     1     -12.998  -5.304   2.462  1.00  0.00    -0.339 N 
ATOM     61  H   UNL     1     -12.466  -5.826   3.148  1.00  0.00     0.164 HD
BRANCH  60  62
ATOM     62  C   UNL     1     -13.073  -3.848   2.579  1.00  0.00     0.168 CG0
ATOM     63  C   UNL     1     -11.961  -3.177   1.781  1.00  0.00     0.041 C 
ATOM     64  G   UNL     1     -12.998  -3.444   4.066  1.00  0.00     0.000 G0
ENDBRANCH  60  62
ENDBRANCH  56  58
ENDBRANCH  54  56
ENDBRANCH  52  54
ENDBRANCH  51  52
ENDBRANCH  50  51
ENDBRANCH  49  50
BRANCH  49  65
ATOM     65  C   UNL     1      -9.703  -5.952   2.917  1.00  0.00     0.326 C 
ATOM     66  O   UNL     1     -10.368  -6.941   3.188  1.00  0.00    -0.250 OA
BRANCH  65  67
ATOM     67  O   UNL     1      -9.638  -4.927   3.796  1.00  0.00    -0.480 OA
ATOM     68  H   UNL     1     -10.041  -4.177   3.307  1.00  0.00     0.296 HD
ENDBRANCH  65  67
ENDBRANCH  49  65
ENDBRANCH  47  49
ENDBRANCH  43  45
ENDBRANCH   1  43
BRANCH   1  69
ATOM     69  C   UNL     1      -4.451  -2.068   2.868  1.00  0.00    -0.001 C 
ATOM     70  C   UNL     1      -3.348  -1.311   3.005  1.00  0.00     0.001 C 
BRANCH  70  71
ATOM     71  C   UNL     1      -2.903  -0.615   4.214  1.00  0.00    -0.055 C 
ATOM     72  C   UNL     1      -3.848  -0.062   5.003  1.00  0.00    -0.018 C 
ATOM     73  C   UNL     1      -1.424  -0.572   4.495  1.00  0.00     0.044 C 
BRANCH  72  74
ATOM     74  C   UNL     1      -3.685   0.710   6.305  1.00  0.00     0.038 C 
ATOM     75  C   UNL     1      -3.703  -0.316   7.444  1.00  0.00     0.015 C 
BRANCH  74  76
ATOM     76  C   UNL     1      -4.797   1.796   6.386  1.00  0.00     0.128 C 
BRANCH  76  77
ATOM     77  O   UNL     1      -4.278   2.985   7.005  1.00  0.00    -0.381 OA
ATOM     78  C   UNL     1      -2.993   3.362   6.529  1.00  0.00     0.195 C 
ENDBRANCH  76  77
BRANCH  76  79
ATOM     79  C   UNL     1      -5.498   2.081   5.034  1.00  0.00     0.068 C 
BRANCH  79  80
ATOM     80  C   UNL     1      -6.895   1.544   4.835  1.00  0.00    -0.045 A 
ATOM     81  C   UNL     1      -7.646   1.889   3.704  1.00  0.00     0.004 A 
ATOM     82  C   UNL     1      -7.476   0.708   5.801  1.00  0.00     0.004 A 
ATOM     83  C   UNL     1      -8.943   1.399   3.534  1.00  0.00     0.000 A 
ATOM     84  C   UNL     1      -8.773   0.219   5.630  1.00  0.00     0.000 A 
ATOM     85  C   UNL     1      -9.505   0.563   4.496  1.00  0.00     0.000 A 
ENDBRANCH  79  80
ENDBRANCH  76  79
ENDBRANCH  74  76
ENDBRANCH  72  74
ENDBRANCH  70  71
ENDBRANCH   1  69
TORSDOF 17
ENDMDL
MODEL 37
REMARK VINA RESULT:    -6.049      4.010      8.750
REMARK INTER + INTRA:         -25.686
REMARK INTER:                 -18.740
REMARK INTRA:                  -6.946
REMARK UNBOUND:                -7.614
REMARK SMILES C=C1C(=O)N[C@H](C)C(=O)N[C@@H](CC(C)C)C(=O)N[C@@H](C(=O)O)[C@H](C)C(=O)N[C@@H](CCCN=C(N)N)C(=O)N[C@@H](/C=C/C(C)=C/[C@H](C)[C@H](Cc2ccccc2)OC)[C@H](C)C(=O)N[C@@H](C(=O)O)CCC(=O)N1C
REMARK SMILES IDX 39 1 38 2 37 3 36 4 28 6 27 7 25 8 26 9 23 11 24 12 19 13
REMARK SMILES IDX 18 14 16 15 17 16 11 18 10 19 8 20 9 21 12 24 13 25 14 26
REMARK SMILES IDX 15 27 20 28 21 29 22 30 29 32 30 33 31 34 32 35 33 36 34 37
REMARK SMILES IDX 35 38 57 43 58 44 59 45 60 46 61 47 62 49 66 50 67 51 68 52
REMARK SMILES IDX 69 53 70 54 71 55 2 56 1 57 3 58 4 59 5 60 6 62 7 63 63 65
REMARK SMILES IDX 64 66 65 67 40 69 41 70 42 71 44 72 43 73 45 74 46 75 47 76
REMARK SMILES IDX 55 77 56 78 48 79 49 80 50 81 54 82 51 83 53 84 52 85
REMARK H PARENT 38 5 27 10 18 17 10 22 22 31 34 39 34 40 35 41 35 42 61 48
REMARK H PARENT 5 61 65 68
REMARK Flexibility Score:  369.900
ROOT
ATOM      1  C   UNL     1      -0.979  -1.197  -0.383  1.00  0.00     0.117 C 
ENDROOT
BRANCH   1   2
ATOM      2  N   UNL     1      -1.920  -1.163  -1.503  1.00  0.00    -0.347 N 
ATOM      3  O   UNL     1      -2.187  -3.429  -1.756  1.00  0.00    -0.273 OA
ATOM      4  C   UNL     1      -2.521  -2.284  -2.042  1.00  0.00     0.243 C 
ATOM      5  H   UNL     1      -2.198  -0.274  -1.889  1.00  0.00     0.164 HD
BRANCH   4   6
ATOM      6  C   UNL     1      -3.542  -1.966  -3.164  1.00  0.00     0.171 C 
BRANCH   6   7
ATOM      7  N   UNL     1      -4.587  -1.059  -2.665  1.00  0.00    -0.344 N 
ATOM      8  C   UNL     1      -5.558  -1.514  -1.798  1.00  0.00     0.226 C 
ATOM      9  O   UNL     1      -5.613  -2.679  -1.423  1.00  0.00    -0.275 OA
ATOM     10  H   UNL     1      -4.614  -0.106  -3.006  1.00  0.00     0.164 HD
BRANCH   8  11
ATOM     11  C   UNL     1      -6.531  -0.445  -1.332  1.00  0.00     0.109 C 
ATOM     12  C   UNL     1      -6.558   0.712  -2.330  1.00  0.00     0.021 C 
BRANCH  11  13
ATOM     13  C   UNL     1      -7.904  -1.083  -1.041  1.00  0.00     0.204 C 
BRANCH  13  14
ATOM     14  N   UNL     1      -8.299  -0.925   0.362  1.00  0.00    -0.340 N 
ATOM     15  C   UNL     1      -8.348  -1.979   1.249  1.00  0.00     0.243 C 
ATOM     16  O   UNL     1      -8.005  -3.118   0.940  1.00  0.00    -0.273 OA
ATOM     17  H   UNL     1      -8.737  -0.043   0.642  1.00  0.00     0.164 HD
BRANCH  15  18
ATOM     18  C   UNL     1      -8.989  -1.612   2.610  1.00  0.00     0.171 C 
BRANCH  18  19
ATOM     19  N   UNL     1      -9.254  -2.873   3.301  1.00  0.00    -0.343 N 
ATOM     20  C   UNL     1     -10.539  -3.285   3.598  1.00  0.00     0.242 CG0
ATOM     21  O   UNL     1     -11.508  -2.552   3.416  1.00  0.00    -0.273 OA
ATOM     22  H   UNL     1      -8.477  -3.462   3.577  1.00  0.00     0.164 HD
ATOM     23  G   UNL     1     -10.625  -4.677   4.257  1.00  0.00     0.000 G0
ENDBRANCH  18  19
BRANCH  18  24
ATOM     24  C   UNL     1      -8.053  -0.711   3.425  1.00  0.00     0.038 C 
BRANCH  24  25
ATOM     25  C   UNL     1      -8.648   0.662   3.803  1.00  0.00    -0.015 C 
ATOM     26  C   UNL     1      -8.584   0.933   5.306  1.00  0.00     0.007 C 
ATOM     27  C   UNL     1     -10.100   0.743   3.325  1.00  0.00     0.007 C 
ENDBRANCH  24  25
ENDBRANCH  18  24
ENDBRANCH  15  18
ENDBRANCH  13  14
BRANCH  13  28
ATOM     28  C   UNL     1      -9.033  -0.502  -1.898  1.00  0.00     0.327 C 
ATOM     29  O   UNL     1      -9.334  -0.851  -3.029  1.00  0.00    -0.250 OA
BRANCH  28  30
ATOM     30  O   UNL     1      -9.637   0.560  -1.327  1.00  0.00    -0.480 OA
ATOM     31  H   UNL     1     -10.427   0.717  -1.885  1.00  0.00     0.296 HD
ENDBRANCH  28  30
ENDBRANCH  13  28
ENDBRANCH  11  13
ENDBRANCH   8  11
ENDBRANCH   6   7
BRANCH   6  32
ATOM     32  C   UNL     1      -2.803  -1.347  -4.356  1.00  0.00     0.037 C 
BRANCH  32  33
ATOM     33  C   UNL     1      -3.295   0.073  -4.668  1.00  0.00     0.026 C 
BRANCH  33  34
ATOM     34  C   UNL     1      -2.351   1.151  -4.132  1.00  0.00     0.146 C 
BRANCH  34  35
ATOM     35  N   UNL     1      -2.903   1.686  -2.895  1.00  0.00    -0.254 NA
ATOM     36  C   UNL     1      -3.562   2.783  -2.940  1.00  0.00     0.185 C 
ATOM     37  N   UNL     1      -4.079   3.283  -1.807  1.00  0.00    -0.370 N 
ATOM     38  N   UNL     1      -3.836   3.561  -4.003  1.00  0.00    -0.370 N 
ATOM     39  H   UNL     1      -3.924   2.747  -0.963  1.00  0.00     0.159 HD
ATOM     40  H   UNL     1      -4.747   4.034  -1.784  1.00  0.00     0.159 HD
ATOM     41  H   UNL     1      -4.245   4.474  -3.888  1.00  0.00     0.159 HD
ATOM     42  H   UNL     1      -3.495   3.315  -4.919  1.00  0.00     0.159 HD
ENDBRANCH  34  35
ENDBRANCH  33  34
ENDBRANCH  32  33
ENDBRANCH   6  32
ENDBRANCH   4   6
ENDBRANCH   1   2
BRANCH   1  43
ATOM     43  C   UNL     1       0.089  -2.292  -0.666  1.00  0.00     0.102 C 
ATOM     44  C   UNL     1       0.782  -2.813   0.605  1.00  0.00     0.020 C 
BRANCH  43  45
ATOM     45  C   UNL     1       1.059  -1.843  -1.763  1.00  0.00     0.225 C 
ATOM     46  O   UNL     1       2.002  -1.085  -1.556  1.00  0.00    -0.275 OA
ATOM     47  N   UNL     1       0.754  -2.272  -3.034  1.00  0.00    -0.342 N 
ATOM     48  H   UNL     1       0.075  -3.008  -3.165  1.00  0.00     0.164 HD
BRANCH  47  49
ATOM     49  C   UNL     1       1.613  -1.949  -4.178  1.00  0.00     0.192 C 
BRANCH  49  50
ATOM     50  C   UNL     1       0.939  -0.880  -5.042  1.00  0.00     0.047 C 
BRANCH  50  51
ATOM     51  C   UNL     1       1.381   0.539  -4.661  1.00  0.00     0.103 C 
BRANCH  51  52
ATOM     52  C   UNL     1       2.055   1.263  -5.825  1.00  0.00     0.226 C 
ATOM     53  O   UNL     1       3.285   1.280  -5.902  1.00  0.00    -0.275 OA
BRANCH  52  54
ATOM     54  N   UNL     1       1.202   1.813  -6.800  1.00  0.00    -0.311 N 
ATOM     55  C   UNL     1       0.069   2.666  -6.418  1.00  0.00     0.153 C 
BRANCH  54  56
ATOM     56  C   UNL     1       1.403   1.573  -8.169  1.00  0.00     0.102 C 
ATOM     57  C   UNL     1       0.939   0.505  -8.839  1.00  0.00     0.043 C 
BRANCH  56  58
ATOM     58  C   UNL     1       2.151   2.565  -9.028  1.00  0.00     0.268 C 
ATOM     59  O   UNL     1       2.665   3.582  -8.583  1.00  0.00    -0.268 OA
ATOM     60  N   UNL     1       2.251   2.175 -10.342  1.00  0.00    -0.339 N 
ATOM     61  H   UNL     1       1.789   1.322 -10.633  1.00  0.00     0.164 HD
BRANCH  60  62
ATOM     62  C   UNL     1       2.988   2.957 -11.333  1.00  0.00     0.168 CG0
ATOM     63  C   UNL     1       2.065   3.925 -12.063  1.00  0.00     0.041 C 
ATOM     64  G   UNL     1       3.681   2.007 -12.331  1.00  0.00     0.000 G0
ENDBRANCH  60  62
ENDBRANCH  56  58
ENDBRANCH  54  56
ENDBRANCH  52  54
ENDBRANCH  51  52
ENDBRANCH  50  51
ENDBRANCH  49  50
BRANCH  49  65
ATOM     65  C   UNL     1       1.902  -3.190  -5.037  1.00  0.00     0.326 C 
ATOM     66  O   UNL     1       2.668  -3.233  -5.989  1.00  0.00    -0.250 OA
BRANCH  65  67
ATOM     67  O   UNL     1       1.182  -4.285  -4.706  1.00  0.00    -0.480 OA
ATOM     68  H   UNL     1       1.130  -4.240  -3.727  1.00  0.00     0.296 HD
ENDBRANCH  65  67
ENDBRANCH  49  65
ENDBRANCH  47  49
ENDBRANCH  43  45
ENDBRANCH   1  43
BRANCH   1  69
ATOM     69  C   UNL     1      -1.822  -1.302   0.875  1.00  0.00    -0.001 C 
ATOM     70  C   UNL     1      -3.124  -0.995   1.014  1.00  0.00     0.001 C 
BRANCH  70  71
ATOM     71  C   UNL     1      -3.933  -1.122   2.228  1.00  0.00    -0.055 C 
ATOM     72  C   UNL     1      -3.844  -0.137   3.147  1.00  0.00    -0.018 C 
ATOM     73  C   UNL     1      -4.813  -2.337   2.363  1.00  0.00     0.044 C 
BRANCH  72  74
ATOM     74  C   UNL     1      -4.558   0.001   4.484  1.00  0.00     0.038 C 
ATOM     75  C   UNL     1      -5.150   1.414   4.537  1.00  0.00     0.015 C 
BRANCH  74  76
ATOM     76  C   UNL     1      -3.552  -0.329   5.626  1.00  0.00     0.128 C 
BRANCH  76  77
ATOM     77  O   UNL     1      -4.257  -0.853   6.764  1.00  0.00    -0.381 OA
ATOM     78  C   UNL     1      -3.705  -2.061   7.271  1.00  0.00     0.195 C 
ENDBRANCH  76  77
BRANCH  76  79
ATOM     79  C   UNL     1      -2.372  -1.230   5.184  1.00  0.00     0.068 C 
BRANCH  79  80
ATOM     80  C   UNL     1      -0.997  -0.612   5.116  1.00  0.00    -0.045 A 
ATOM     81  C   UNL     1      -0.800   0.745   5.408  1.00  0.00     0.004 A 
ATOM     82  C   UNL     1       0.109  -1.385   4.731  1.00  0.00     0.004 A 
ATOM     83  C   UNL     1       0.473   1.313   5.329  1.00  0.00     0.000 A 
ATOM     84  C   UNL     1       1.381  -0.816   4.652  1.00  0.00     0.000 A 
ATOM     85  C   UNL     1       1.564   0.532   4.952  1.00  0.00     0.000 A 
ENDBRANCH  79  80
ENDBRANCH  76  79
ENDBRANCH  74  76
ENDBRANCH  72  74
ENDBRANCH  70  71
ENDBRANCH   1  69
TORSDOF 17
ENDMDL
MODEL 38
REMARK VINA RESULT:    -6.033      3.284      5.933
REMARK INTER + INTRA:         -25.639
REMARK INTER:                 -17.985
REMARK INTRA:                  -7.654
REMARK UNBOUND:                -7.614
REMARK SMILES C=C1C(=O)N[C@H](C)C(=O)N[C@@H](CC(C)C)C(=O)N[C@@H](C(=O)O)[C@H](C)C(=O)N[C@@H](CCCN=C(N)N)C(=O)N[C@@H](/C=C/C(C)=C/[C@H](C)[C@H](Cc2ccccc2)OC)[C@H](C)C(=O)N[C@@H](C(=O)O)CCC(=O)N1C
REMARK SMILES IDX 39 1 38 2 37 3 36 4 28 6 27 7 25 8 26 9 23 11 24 12 19 13
REMARK SMILES IDX 18 14 16 15 17 16 11 18 10 19 8 20 9 21 12 24 13 25 14 26
REMARK SMILES IDX 15 27 20 28 21 29 22 30 29 32 30 33 31 34 32 35 33 36 34 37
REMARK SMILES IDX 35 38 57 43 58 44 59 45 60 46 61 47 62 49 66 50 67 51 68 52
REMARK SMILES IDX 69 53 70 54 71 55 2 56 1 57 3 58 4 59 5 60 6 62 7 63 63 65
REMARK SMILES IDX 64 66 65 67 40 69 41 70 42 71 44 72 43 73 45 74 46 75 47 76
REMARK SMILES IDX 55 77 56 78 48 79 49 80 50 81 54 82 51 83 53 84 52 85
REMARK H PARENT 38 5 27 10 18 17 10 22 22 31 34 39 34 40 35 41 35 42 61 48
REMARK H PARENT 5 61 65 68
REMARK Flexibility Score:  369.900
ROOT
ATOM      1  C   UNL     1      -2.059   0.635  -5.488  1.00  0.00     0.117 C 
ENDROOT
BRANCH   1   2
ATOM      2  N   UNL     1      -2.697   0.219  -4.240  1.00  0.00    -0.347 N 
ATOM      3  O   UNL     1      -0.816   0.177  -2.925  1.00  0.00    -0.273 OA
ATOM      4  C   UNL     1      -2.036   0.111  -3.031  1.00  0.00     0.243 C 
ATOM      5  H   UNL     1      -3.690   0.042  -4.227  1.00  0.00     0.164 HD
BRANCH   4   6
ATOM      6  C   UNL     1      -2.961  -0.265  -1.846  1.00  0.00     0.171 C 
BRANCH   6   7
ATOM      7  N   UNL     1      -4.150  -0.985  -2.329  1.00  0.00    -0.344 N 
ATOM      8  C   UNL     1      -5.410  -0.452  -2.162  1.00  0.00     0.226 C 
ATOM      9  O   UNL     1      -5.605   0.616  -1.594  1.00  0.00    -0.275 OA
ATOM     10  H   UNL     1      -4.034  -1.901  -2.744  1.00  0.00     0.164 HD
BRANCH   8  11
ATOM     11  C   UNL     1      -6.527  -1.287  -2.763  1.00  0.00     0.109 C 
ATOM     12  C   UNL     1      -5.947  -2.337  -3.711  1.00  0.00     0.021 C 
BRANCH  11  13
ATOM     13  C   UNL     1      -7.418  -1.851  -1.639  1.00  0.00     0.204 C 
BRANCH  13  14
ATOM     14  N   UNL     1      -8.157  -0.796  -0.939  1.00  0.00    -0.340 N 
ATOM     15  C   UNL     1      -8.232  -0.721   0.435  1.00  0.00     0.243 C 
ATOM     16  O   UNL     1      -7.633  -1.501   1.173  1.00  0.00    -0.273 OA
ATOM     17  H   UNL     1      -8.795  -0.212  -1.486  1.00  0.00     0.164 HD
BRANCH  15  18
ATOM     18  C   UNL     1      -9.232   0.347   0.943  1.00  0.00     0.171 C 
BRANCH  18  19
ATOM     19  N   UNL     1      -8.491   1.604   1.035  1.00  0.00    -0.343 N 
ATOM     20  C   UNL     1      -8.758   2.536   2.019  1.00  0.00     0.242 CG0
ATOM     21  O   UNL     1      -9.715   2.414   2.779  1.00  0.00    -0.273 OA
ATOM     22  H   UNL     1      -7.765   1.804   0.356  1.00  0.00     0.164 HD
ATOM     23  G   UNL     1      -7.822   3.763   2.004  1.00  0.00     0.000 G0
ENDBRANCH  18  19
BRANCH  18  24
ATOM     24  C   UNL     1     -10.426   0.468  -0.012  1.00  0.00     0.038 C 
BRANCH  24  25
ATOM     25  C   UNL     1     -11.502  -0.626   0.161  1.00  0.00    -0.015 C 
ATOM     26  C   UNL     1     -12.236  -0.936  -1.144  1.00  0.00     0.007 C 
ATOM     27  C   UNL     1     -12.510  -0.192   1.229  1.00  0.00     0.007 C 
ENDBRANCH  24  25
ENDBRANCH  18  24
ENDBRANCH  15  18
ENDBRANCH  13  14
BRANCH  13  28
ATOM     28  C   UNL     1      -8.447  -2.870  -2.139  1.00  0.00     0.327 C 
ATOM     29  O   UNL     1      -9.485  -2.618  -2.732  1.00  0.00    -0.250 OA
BRANCH  28  30
ATOM     30  O   UNL     1      -8.169  -4.133  -1.757  1.00  0.00    -0.480 OA
ATOM     31  H   UNL     1      -7.416  -4.397  -2.327  1.00  0.00     0.296 HD
ENDBRANCH  28  30
ENDBRANCH  13  28
ENDBRANCH  11  13
ENDBRANCH   8  11
ENDBRANCH   6   7
BRANCH   6  32
ATOM     32  C   UNL     1      -2.174  -1.118  -0.845  1.00  0.00     0.037 C 
BRANCH  32  33
ATOM     33  C   UNL     1      -2.680  -0.937   0.594  1.00  0.00     0.026 C 
BRANCH  33  34
ATOM     34  C   UNL     1      -3.392  -2.182   1.124  1.00  0.00     0.146 C 
BRANCH  34  35
ATOM     35  N   UNL     1      -3.753  -3.032  -0.001  1.00  0.00    -0.254 NA
ATOM     36  C   UNL     1      -4.809  -3.752   0.086  1.00  0.00     0.185 C 
ATOM     37  N   UNL     1      -5.153  -4.536  -0.947  1.00  0.00    -0.370 N 
ATOM     38  N   UNL     1      -5.679  -3.855   1.106  1.00  0.00    -0.370 N 
ATOM     39  H   UNL     1      -4.551  -4.507  -1.760  1.00  0.00     0.159 HD
ATOM     40  H   UNL     1      -6.047  -4.991  -1.026  1.00  0.00     0.159 HD
ATOM     41  H   UNL     1      -6.396  -4.561   1.110  1.00  0.00     0.159 HD
ATOM     42  H   UNL     1      -5.536  -3.333   1.957  1.00  0.00     0.159 HD
ENDBRANCH  34  35
ENDBRANCH  33  34
ENDBRANCH  32  33
ENDBRANCH   6  32
ENDBRANCH   4   6
ENDBRANCH   1   2
BRANCH   1  43
ATOM     43  C   UNL     1      -2.367   2.142  -5.724  1.00  0.00     0.102 C 
ATOM     44  C   UNL     1      -3.213   2.405  -6.981  1.00  0.00     0.020 C 
BRANCH  43  45
ATOM     45  C   UNL     1      -1.090   2.984  -5.647  1.00  0.00     0.225 C 
ATOM     46  O   UNL     1      -0.818   3.704  -4.691  1.00  0.00    -0.275 OA
ATOM     47  N   UNL     1      -0.295   2.958  -6.770  1.00  0.00    -0.342 N 
ATOM     48  H   UNL     1      -0.450   2.253  -7.477  1.00  0.00     0.164 HD
BRANCH  47  49
ATOM     49  C   UNL     1       0.976   3.686  -6.826  1.00  0.00     0.192 C 
BRANCH  49  50
ATOM     50  C   UNL     1       1.236   4.157  -8.260  1.00  0.00     0.047 C 
BRANCH  50  51
ATOM     51  C   UNL     1       1.626   3.000  -9.190  1.00  0.00     0.103 C 
BRANCH  51  52
ATOM     52  C   UNL     1       2.819   3.353 -10.076  1.00  0.00     0.226 C 
ATOM     53  O   UNL     1       3.909   2.814  -9.873  1.00  0.00    -0.275 OA
BRANCH  52  54
ATOM     54  N   UNL     1       2.569   4.238 -11.140  1.00  0.00    -0.311 N 
ATOM     55  C   UNL     1       3.046   5.627 -11.097  1.00  0.00     0.153 C 
BRANCH  54  56
ATOM     56  C   UNL     1       1.863   3.828 -12.284  1.00  0.00     0.102 C 
ATOM     57  C   UNL     1       0.535   3.939 -12.447  1.00  0.00     0.043 C 
BRANCH  56  58
ATOM     58  C   UNL     1       2.588   3.250 -13.476  1.00  0.00     0.268 C 
ATOM     59  O   UNL     1       3.046   3.938 -14.379  1.00  0.00    -0.268 OA
ATOM     60  N   UNL     1       2.736   1.885 -13.410  1.00  0.00    -0.339 N 
ATOM     61  H   UNL     1       2.317   1.387 -12.633  1.00  0.00     0.164 HD
BRANCH  60  62
ATOM     62  C   UNL     1       3.462   1.130 -14.430  1.00  0.00     0.168 CG0
ATOM     63  C   UNL     1       2.508   0.573 -15.480  1.00  0.00     0.041 C 
ATOM     64  G   UNL     1       4.260  -0.007 -13.760  1.00  0.00     0.000 G0
ENDBRANCH  60  62
ENDBRANCH  56  58
ENDBRANCH  54  56
ENDBRANCH  52  54
ENDBRANCH  51  52
ENDBRANCH  50  51
ENDBRANCH  49  50
BRANCH  49  65
ATOM     65  C   UNL     1       2.150   2.815  -6.355  1.00  0.00     0.326 C 
ATOM     66  O   UNL     1       3.308   3.188  -6.231  1.00  0.00    -0.250 OA
BRANCH  65  67
ATOM     67  O   UNL     1       1.835   1.521  -6.125  1.00  0.00    -0.480 OA
ATOM     68  H   UNL     1       1.484   1.528  -5.209  1.00  0.00     0.296 HD
ENDBRANCH  65  67
ENDBRANCH  49  65
ENDBRANCH  47  49
ENDBRANCH  43  45
ENDBRANCH   1  43
BRANCH   1  69
ATOM     69  C   UNL     1      -2.485  -0.373  -6.540  1.00  0.00    -0.001 C 
ATOM     70  C   UNL     1      -1.690  -1.156  -7.291  1.00  0.00     0.001 C 
BRANCH  70  71
ATOM     71  C   UNL     1      -2.114  -2.142  -8.287  1.00  0.00    -0.055 C 
ATOM     72  C   UNL     1      -3.417  -2.160  -8.637  1.00  0.00    -0.018 C 
ATOM     73  C   UNL     1      -1.064  -3.059  -8.858  1.00  0.00     0.044 C 
BRANCH  72  74
ATOM     74  C   UNL     1      -4.135  -3.059  -9.634  1.00  0.00     0.038 C 
ATOM     75  C   UNL     1      -3.944  -2.437 -11.022  1.00  0.00     0.015 C 
BRANCH  74  76
ATOM     76  C   UNL     1      -5.618  -3.218  -9.188  1.00  0.00     0.128 C 
BRANCH  76  77
ATOM     77  O   UNL     1      -6.173  -4.419  -9.750  1.00  0.00    -0.381 OA
ATOM     78  C   UNL     1      -6.593  -5.365  -8.775  1.00  0.00     0.195 C 
ENDBRANCH  76  77
BRANCH  76  79
ATOM     79  C   UNL     1      -5.829  -3.120  -7.656  1.00  0.00     0.068 C 
BRANCH  79  80
ATOM     80  C   UNL     1      -6.817  -2.101  -7.142  1.00  0.00    -0.045 A 
ATOM     81  C   UNL     1      -8.101  -2.483  -6.733  1.00  0.00     0.004 A 
ATOM     82  C   UNL     1      -6.471  -0.742  -7.093  1.00  0.00     0.004 A 
ATOM     83  C   UNL     1      -9.015  -1.532  -6.273  1.00  0.00     0.000 A 
ATOM     84  C   UNL     1      -7.385   0.208  -6.633  1.00  0.00     0.000 A 
ATOM     85  C   UNL     1      -8.656  -0.187  -6.221  1.00  0.00     0.000 A 
ENDBRANCH  79  80
ENDBRANCH  76  79
ENDBRANCH  74  76
ENDBRANCH  72  74
ENDBRANCH  70  71
ENDBRANCH   1  69
TORSDOF 17
ENDMDL
MODEL 39
REMARK VINA RESULT:    -6.023      3.402     12.173
REMARK INTER + INTRA:         -25.607
REMARK INTER:                 -18.613
REMARK INTRA:                  -6.994
REMARK UNBOUND:                -7.614
REMARK SMILES C=C1C(=O)N[C@H](C)C(=O)N[C@@H](CC(C)C)C(=O)N[C@@H](C(=O)O)[C@H](C)C(=O)N[C@@H](CCCN=C(N)N)C(=O)N[C@@H](/C=C/C(C)=C/[C@H](C)[C@H](Cc2ccccc2)OC)[C@H](C)C(=O)N[C@@H](C(=O)O)CCC(=O)N1C
REMARK SMILES IDX 39 1 38 2 37 3 36 4 28 6 27 7 25 8 26 9 23 11 24 12 19 13
REMARK SMILES IDX 18 14 16 15 17 16 11 18 10 19 8 20 9 21 12 24 13 25 14 26
REMARK SMILES IDX 15 27 20 28 21 29 22 30 29 32 30 33 31 34 32 35 33 36 34 37
REMARK SMILES IDX 35 38 57 43 58 44 59 45 60 46 61 47 62 49 66 50 67 51 68 52
REMARK SMILES IDX 69 53 70 54 71 55 2 56 1 57 3 58 4 59 5 60 6 62 7 63 63 65
REMARK SMILES IDX 64 66 65 67 40 69 41 70 42 71 44 72 43 73 45 74 46 75 47 76
REMARK SMILES IDX 55 77 56 78 48 79 49 80 50 81 54 82 51 83 53 84 52 85
REMARK H PARENT 38 5 27 10 18 17 10 22 22 31 34 39 34 40 35 41 35 42 61 48
REMARK H PARENT 5 61 65 68
REMARK Flexibility Score:  369.900
ROOT
ATOM      1  C   UNL     1      -4.671  -0.874  -4.080  1.00  0.00     0.117 C 
ENDROOT
BRANCH   1   2
ATOM      2  N   UNL     1      -3.274  -0.816  -4.512  1.00  0.00    -0.347 N 
ATOM      3  O   UNL     1      -3.600  -1.412  -6.705  1.00  0.00    -0.273 OA
ATOM      4  C   UNL     1      -2.860  -1.001  -5.817  1.00  0.00     0.243 C 
ATOM      5  H   UNL     1      -2.558  -0.578  -3.842  1.00  0.00     0.164 HD
BRANCH   4   6
ATOM      6  C   UNL     1      -1.337  -0.801  -6.022  1.00  0.00     0.171 C 
BRANCH   6   7
ATOM      7  N   UNL     1      -1.053   0.575  -6.460  1.00  0.00    -0.344 N 
ATOM      8  C   UNL     1      -0.330   0.811  -7.609  1.00  0.00     0.226 C 
ATOM      9  O   UNL     1       0.126  -0.093  -8.300  1.00  0.00    -0.275 OA
ATOM     10  H   UNL     1      -1.355   1.347  -5.880  1.00  0.00     0.164 HD
BRANCH   8  11
ATOM     11  C   UNL     1      -0.169   2.280  -7.956  1.00  0.00     0.109 C 
ATOM     12  C   UNL     1      -0.710   3.151  -6.822  1.00  0.00     0.021 C 
BRANCH  11  13
ATOM     13  C   UNL     1       1.294   2.566  -8.351  1.00  0.00     0.204 C 
BRANCH  13  14
ATOM     14  N   UNL     1       1.396   3.194  -9.672  1.00  0.00    -0.340 N 
ATOM     15  C   UNL     1       2.412   2.911 -10.559  1.00  0.00     0.243 C 
ATOM     16  O   UNL     1       3.273   2.063 -10.328  1.00  0.00    -0.273 OA
ATOM     17  H   UNL     1       0.808   4.009  -9.863  1.00  0.00     0.164 HD
BRANCH  15  18
ATOM     18  C   UNL     1       2.432   3.842 -11.796  1.00  0.00     0.171 C 
BRANCH  18  19
ATOM     19  N   UNL     1       3.387   4.908 -11.502  1.00  0.00    -0.343 N 
ATOM     20  C   UNL     1       3.047   5.998 -10.723  1.00  0.00     0.242 CG0
ATOM     21  O   UNL     1       1.891   6.188 -10.352  1.00  0.00    -0.273 OA
ATOM     22  H   UNL     1       4.325   4.855 -11.883  1.00  0.00     0.164 HD
ATOM     23  G   UNL     1       4.208   6.978 -10.457  1.00  0.00     0.000 G0
ENDBRANCH  18  19
BRANCH  18  24
ATOM     24  C   UNL     1       2.829   3.062 -13.055  1.00  0.00     0.038 C 
BRANCH  24  25
ATOM     25  C   UNL     1       1.653   2.699 -13.986  1.00  0.00    -0.015 C 
ATOM     26  C   UNL     1       0.418   3.564 -13.734  1.00  0.00     0.007 C 
ATOM     27  C   UNL     1       1.293   1.222 -13.808  1.00  0.00     0.007 C 
ENDBRANCH  24  25
ENDBRANCH  18  24
ENDBRANCH  15  18
ENDBRANCH  13  14
BRANCH  13  28
ATOM     28  C   UNL     1       2.021   3.477  -7.358  1.00  0.00     0.327 C 
ATOM     29  O   UNL     1       2.557   3.129  -6.316  1.00  0.00    -0.250 OA
BRANCH  28  30
ATOM     30  O   UNL     1       1.927   4.785  -7.673  1.00  0.00    -0.480 OA
ATOM     31  H   UNL     1       2.660   4.934  -8.306  1.00  0.00     0.296 HD
ENDBRANCH  28  30
ENDBRANCH  13  28
ENDBRANCH  11  13
ENDBRANCH   8  11
ENDBRANCH   6   7
BRANCH   6  32
ATOM     32  C   UNL     1      -0.607  -1.120  -4.712  1.00  0.00     0.037 C 
BRANCH  32  33
ATOM     33  C   UNL     1       0.578  -0.175  -4.465  1.00  0.00     0.026 C 
BRANCH  33  34
ATOM     34  C   UNL     1       1.924  -0.829  -4.782  1.00  0.00     0.146 C 
BRANCH  34  35
ATOM     35  N   UNL     1       2.295  -1.700  -3.675  1.00  0.00    -0.254 NA
ATOM     36  C   UNL     1       3.046  -1.231  -2.749  1.00  0.00     0.185 C 
ATOM     37  N   UNL     1       3.390  -2.024  -1.722  1.00  0.00    -0.370 N 
ATOM     38  N   UNL     1       3.576  -0.001  -2.633  1.00  0.00    -0.370 N 
ATOM     39  H   UNL     1       3.020  -2.966  -1.732  1.00  0.00     0.159 HD
ATOM     40  H   UNL     1       3.825  -1.687  -0.881  1.00  0.00     0.159 HD
ATOM     41  H   UNL     1       4.266   0.205  -1.930  1.00  0.00     0.159 HD
ATOM     42  H   UNL     1       3.414   0.696  -3.343  1.00  0.00     0.159 HD
ENDBRANCH  34  35
ENDBRANCH  33  34
ENDBRANCH  32  33
ENDBRANCH   6  32
ENDBRANCH   4   6
ENDBRANCH   1   2
BRANCH   1  43
ATOM     43  C   UNL     1      -5.373   0.452  -4.494  1.00  0.00     0.102 C 
ATOM     44  C   UNL     1      -5.680   1.379  -3.306  1.00  0.00     0.020 C 
BRANCH  43  45
ATOM     45  C   UNL     1      -6.580   0.176  -5.395  1.00  0.00     0.225 C 
ATOM     46  O   UNL     1      -7.477   0.993  -5.584  1.00  0.00    -0.275 OA
ATOM     47  N   UNL     1      -6.652  -1.095  -5.917  1.00  0.00    -0.342 N 
ATOM     48  H   UNL     1      -5.842  -1.698  -5.879  1.00  0.00     0.164 HD
BRANCH  47  49
ATOM     49  C   UNL     1      -7.733  -1.491  -6.825  1.00  0.00     0.192 C 
BRANCH  49  50
ATOM     50  C   UNL     1      -8.081  -2.965  -6.599  1.00  0.00     0.047 C 
BRANCH  50  51
ATOM     51  C   UNL     1      -8.911  -3.179  -5.326  1.00  0.00     0.103 C 
BRANCH  51  52
ATOM     52  C   UNL     1      -8.034  -3.295  -4.082  1.00  0.00     0.226 C 
ATOM     53  O   UNL     1      -6.889  -3.742  -4.182  1.00  0.00    -0.275 OA
BRANCH  52  54
ATOM     54  N   UNL     1      -8.579  -2.802  -2.882  1.00  0.00    -0.311 N 
ATOM     55  C   UNL     1      -8.250  -1.453  -2.400  1.00  0.00     0.153 C 
BRANCH  54  56
ATOM     56  C   UNL     1      -9.458  -3.574  -2.105  1.00  0.00     0.102 C 
ATOM     57  C   UNL     1     -10.758  -3.297  -1.912  1.00  0.00     0.043 C 
BRANCH  56  58
ATOM     58  C   UNL     1      -8.991  -4.848  -1.441  1.00  0.00     0.268 C 
ATOM     59  O   UNL     1      -7.819  -5.070  -1.170  1.00  0.00    -0.268 OA
ATOM     60  N   UNL     1     -10.022  -5.696  -1.115  1.00  0.00    -0.339 N 
ATOM     61  H   UNL     1     -10.965  -5.443  -1.384  1.00  0.00     0.164 HD
BRANCH  60  62
ATOM     62  C   UNL     1      -9.799  -6.958  -0.410  1.00  0.00     0.168 CG0
ATOM     63  C   UNL     1      -9.953  -6.777   1.096  1.00  0.00     0.041 C 
ATOM     64  G   UNL     1      -8.397  -7.502  -0.754  1.00  0.00     0.000 G0
ENDBRANCH  60  62
ENDBRANCH  56  58
ENDBRANCH  54  56
ENDBRANCH  52  54
ENDBRANCH  51  52
ENDBRANCH  50  51
ENDBRANCH  49  50
BRANCH  49  65
ATOM     65  C   UNL     1      -7.343  -1.280  -8.296  1.00  0.00     0.326 C 
ATOM     66  O   UNL     1      -6.206  -1.313  -8.742  1.00  0.00    -0.250 OA
BRANCH  65  67
ATOM     67  O   UNL     1      -8.375  -0.980  -9.115  1.00  0.00    -0.480 OA
ATOM     68  H   UNL     1      -8.494  -1.796  -9.647  1.00  0.00     0.296 HD
ENDBRANCH  65  67
ENDBRANCH  49  65
ENDBRANCH  47  49
ENDBRANCH  43  45
ENDBRANCH   1  43
BRANCH   1  69
ATOM     69  C   UNL     1      -4.645  -1.262  -2.613  1.00  0.00    -0.001 C 
ATOM     70  C   UNL     1      -3.642  -1.857  -1.943  1.00  0.00     0.001 C 
BRANCH  70  71
ATOM     71  C   UNL     1      -3.620  -2.208  -0.521  1.00  0.00    -0.055 C 
ATOM     72  C   UNL     1      -4.672  -2.896  -0.028  1.00  0.00    -0.018 C 
ATOM     73  C   UNL     1      -2.423  -1.784   0.288  1.00  0.00     0.044 C 
BRANCH  72  74
ATOM     74  C   UNL     1      -4.919  -3.393   1.389  1.00  0.00     0.038 C 
ATOM     75  C   UNL     1      -5.272  -4.882   1.291  1.00  0.00     0.015 C 
BRANCH  74  76
ATOM     76  C   UNL     1      -6.015  -2.504   2.047  1.00  0.00     0.128 C 
BRANCH  76  77
ATOM     77  O   UNL     1      -5.437  -1.706   3.094  1.00  0.00    -0.381 OA
ATOM     78  C   UNL     1      -4.114  -2.092   3.441  1.00  0.00     0.195 C 
ENDBRANCH  76  77
BRANCH  76  79
ATOM     79  C   UNL     1      -6.835  -1.663   1.036  1.00  0.00     0.068 C 
BRANCH  79  80
ATOM     80  C   UNL     1      -6.892  -0.169   1.242  1.00  0.00    -0.045 A 
ATOM     81  C   UNL     1      -5.900   0.670   0.718  1.00  0.00     0.004 A 
ATOM     82  C   UNL     1      -7.933   0.403   1.989  1.00  0.00     0.004 A 
ATOM     83  C   UNL     1      -5.952   2.050   0.925  1.00  0.00     0.000 A 
ATOM     84  C   UNL     1      -7.984   1.783   2.195  1.00  0.00     0.000 A 
ATOM     85  C   UNL     1      -6.995   2.607   1.662  1.00  0.00     0.000 A 
ENDBRANCH  79  80
ENDBRANCH  76  79
ENDBRANCH  74  76
ENDBRANCH  72  74
ENDBRANCH  70  71
ENDBRANCH   1  69
TORSDOF 17
ENDMDL
MODEL 40
REMARK VINA RESULT:    -6.023      4.015      8.378
REMARK INTER + INTRA:         -25.607
REMARK INTER:                 -16.905
REMARK INTRA:                  -8.702
REMARK UNBOUND:                -7.614
REMARK SMILES C=C1C(=O)N[C@H](C)C(=O)N[C@@H](CC(C)C)C(=O)N[C@@H](C(=O)O)[C@H](C)C(=O)N[C@@H](CCCN=C(N)N)C(=O)N[C@@H](/C=C/C(C)=C/[C@H](C)[C@H](Cc2ccccc2)OC)[C@H](C)C(=O)N[C@@H](C(=O)O)CCC(=O)N1C
REMARK SMILES IDX 39 1 38 2 37 3 36 4 28 6 27 7 25 8 26 9 23 11 24 12 19 13
REMARK SMILES IDX 18 14 16 15 17 16 11 18 10 19 8 20 9 21 12 24 13 25 14 26
REMARK SMILES IDX 15 27 20 28 21 29 22 30 29 32 30 33 31 34 32 35 33 36 34 37
REMARK SMILES IDX 35 38 57 43 58 44 59 45 60 46 61 47 62 49 66 50 67 51 68 52
REMARK SMILES IDX 69 53 70 54 71 55 2 56 1 57 3 58 4 59 5 60 6 62 7 63 63 65
REMARK SMILES IDX 64 66 65 67 40 69 41 70 42 71 44 72 43 73 45 74 46 75 47 76
REMARK SMILES IDX 55 77 56 78 48 79 49 80 50 81 54 82 51 83 53 84 52 85
REMARK H PARENT 38 5 27 10 18 17 10 22 22 31 34 39 34 40 35 41 35 42 61 48
REMARK H PARENT 5 61 65 68
REMARK Flexibility Score:  369.900
ROOT
ATOM      1  C   UNL     1      -4.839   1.619  -2.681  1.00  0.00     0.117 C 
ENDROOT
BRANCH   1   2
ATOM      2  N   UNL     1      -5.487   0.694  -3.612  1.00  0.00    -0.347 N 
ATOM      3  O   UNL     1      -7.405   1.902  -3.971  1.00  0.00    -0.273 OA
ATOM      4  C   UNL     1      -6.681   0.954  -4.255  1.00  0.00     0.243 C 
ATOM      5  H   UNL     1      -5.025  -0.171  -3.851  1.00  0.00     0.164 HD
BRANCH   4   6
ATOM      6  C   UNL     1      -7.105  -0.152  -5.255  1.00  0.00     0.171 C 
BRANCH   6   7
ATOM      7  N   UNL     1      -8.532  -0.473  -5.093  1.00  0.00    -0.344 N 
ATOM      8  C   UNL     1      -8.937  -1.442  -4.200  1.00  0.00     0.226 C 
ATOM      9  O   UNL     1      -8.146  -2.089  -3.524  1.00  0.00    -0.275 OA
ATOM     10  H   UNL     1      -9.210  -0.007  -5.682  1.00  0.00     0.164 HD
BRANCH   8  11
ATOM     11  C   UNL     1     -10.443  -1.618  -4.109  1.00  0.00     0.109 C 
ATOM     12  C   UNL     1     -10.829  -3.047  -4.489  1.00  0.00     0.021 C 
BRANCH  11  13
ATOM     13  C   UNL     1     -10.938  -1.159  -2.723  1.00  0.00     0.204 C 
BRANCH  13  14
ATOM     14  N   UNL     1     -10.626  -2.135  -1.674  1.00  0.00    -0.340 N 
ATOM     15  C   UNL     1     -11.595  -2.740  -0.903  1.00  0.00     0.243 C 
ATOM     16  O   UNL     1     -12.796  -2.548  -1.082  1.00  0.00    -0.273 OA
ATOM     17  H   UNL     1      -9.652  -2.224  -1.375  1.00  0.00     0.164 HD
BRANCH  15  18
ATOM     18  C   UNL     1     -11.021  -3.570   0.272  1.00  0.00     0.171 C 
BRANCH  18  19
ATOM     19  N   UNL     1     -11.629  -4.896   0.183  1.00  0.00    -0.343 N 
ATOM     20  C   UNL     1     -12.365  -5.432   1.223  1.00  0.00     0.242 CG0
ATOM     21  O   UNL     1     -12.431  -4.876   2.317  1.00  0.00    -0.273 OA
ATOM     22  H   UNL     1     -11.505  -5.445  -0.660  1.00  0.00     0.164 HD
ATOM     23  G   UNL     1     -12.993  -6.807   0.916  1.00  0.00     0.000 G0
ENDBRANCH  18  19
BRANCH  18  24
ATOM     24  C   UNL     1      -9.492  -3.646   0.185  1.00  0.00     0.038 C 
BRANCH  24  25
ATOM     25  C   UNL     1      -8.777  -3.810   1.543  1.00  0.00    -0.015 C 
ATOM     26  C   UNL     1      -8.637  -5.275   1.958  1.00  0.00     0.007 C 
ATOM     27  C   UNL     1      -9.541  -3.040   2.623  1.00  0.00     0.007 C 
ENDBRANCH  24  25
ENDBRANCH  18  24
ENDBRANCH  15  18
ENDBRANCH  13  14
BRANCH  13  28
ATOM     28  C   UNL     1     -10.345   0.184  -2.284  1.00  0.00     0.327 C 
ATOM     29  O   UNL     1      -9.906   0.452  -1.176  1.00  0.00    -0.250 OA
BRANCH  28  30
ATOM     30  O   UNL     1     -10.449   1.142  -3.227  1.00  0.00    -0.480 OA
ATOM     31  H   UNL     1      -9.950   1.899  -2.858  1.00  0.00     0.296 HD
ENDBRANCH  28  30
ENDBRANCH  13  28
ENDBRANCH  11  13
ENDBRANCH   8  11
ENDBRANCH   6   7
BRANCH   6  32
ATOM     32  C   UNL     1      -6.809   0.320  -6.683  1.00  0.00     0.037 C 
BRANCH  32  33
ATOM     33  C   UNL     1      -7.913  -0.088  -7.668  1.00  0.00     0.026 C 
BRANCH  33  34
ATOM     34  C   UNL     1      -7.539  -1.322  -8.489  1.00  0.00     0.146 C 
BRANCH  34  35
ATOM     35  N   UNL     1      -6.087  -1.428  -8.544  1.00  0.00    -0.254 NA
ATOM     36  C   UNL     1      -5.566  -2.397  -9.199  1.00  0.00     0.185 C 
ATOM     37  N   UNL     1      -4.229  -2.501  -9.261  1.00  0.00    -0.370 N 
ATOM     38  N   UNL     1      -6.178  -3.385  -9.876  1.00  0.00    -0.370 N 
ATOM     39  H   UNL     1      -3.696  -1.785  -8.783  1.00  0.00     0.159 HD
ATOM     40  H   UNL     1      -3.748  -3.120  -9.889  1.00  0.00     0.159 HD
ATOM     41  H   UNL     1      -5.659  -4.170 -10.235  1.00  0.00     0.159 HD
ATOM     42  H   UNL     1      -7.184  -3.442  -9.902  1.00  0.00     0.159 HD
ENDBRANCH  34  35
ENDBRANCH  33  34
ENDBRANCH  32  33
ENDBRANCH   6  32
ENDBRANCH   4   6
ENDBRANCH   1   2
BRANCH   1  43
ATOM     43  C   UNL     1      -3.411   1.935  -3.211  1.00  0.00     0.102 C 
ATOM     44  C   UNL     1      -3.387   3.028  -4.293  1.00  0.00     0.020 C 
BRANCH  43  45
ATOM     45  C   UNL     1      -2.674   0.652  -3.607  1.00  0.00     0.225 C 
ATOM     46  O   UNL     1      -2.407  -0.242  -2.809  1.00  0.00    -0.275 OA
ATOM     47  N   UNL     1      -2.239   0.598  -4.911  1.00  0.00    -0.342 N 
ATOM     48  H   UNL     1      -2.593   1.261  -5.585  1.00  0.00     0.164 HD
BRANCH  47  49
ATOM     49  C   UNL     1      -1.551  -0.584  -5.441  1.00  0.00     0.192 C 
BRANCH  49  50
ATOM     50  C   UNL     1      -0.241  -0.160  -6.110  1.00  0.00     0.047 C 
BRANCH  50  51
ATOM     51  C   UNL     1       0.384   1.071  -5.440  1.00  0.00     0.103 C 
BRANCH  51  52
ATOM     52  C   UNL     1       1.884   1.172  -5.710  1.00  0.00     0.226 C 
ATOM     53  O   UNL     1       2.676   0.566  -4.986  1.00  0.00    -0.275 OA
BRANCH  52  54
ATOM     54  N   UNL     1       2.268   1.910  -6.844  1.00  0.00    -0.311 N 
ATOM     55  C   UNL     1       1.937   3.336  -6.966  1.00  0.00     0.153 C 
BRANCH  54  56
ATOM     56  C   UNL     1       2.985   1.316  -7.896  1.00  0.00     0.102 C 
ATOM     57  C   UNL     1       2.451   0.519  -8.836  1.00  0.00     0.043 C 
BRANCH  56  58
ATOM     58  C   UNL     1       4.461   1.581  -8.075  1.00  0.00     0.268 C 
ATOM     59  O   UNL     1       4.920   2.204  -9.023  1.00  0.00    -0.268 OA
ATOM     60  N   UNL     1       5.225   1.109  -7.034  1.00  0.00    -0.339 N 
ATOM     61  H   UNL     1       4.769   0.593  -6.291  1.00  0.00     0.164 HD
BRANCH  60  62
ATOM     62  C   UNL     1       6.671   1.313  -6.974  1.00  0.00     0.168 CG0
ATOM     63  C   UNL     1       7.066   2.062  -5.707  1.00  0.00     0.041 C 
ATOM     64  G   UNL     1       7.138   2.079  -8.229  1.00  0.00     0.000 G0
ENDBRANCH  60  62
ENDBRANCH  56  58
ENDBRANCH  54  56
ENDBRANCH  52  54
ENDBRANCH  51  52
ENDBRANCH  50  51
ENDBRANCH  49  50
BRANCH  49  65
ATOM     65  C   UNL     1      -2.422  -1.339  -6.457  1.00  0.00     0.326 C 
ATOM     66  O   UNL     1      -3.172  -2.268  -6.199  1.00  0.00    -0.250 OA
BRANCH  65  67
ATOM     67  O   UNL     1      -2.266  -0.939  -7.739  1.00  0.00    -0.480 OA
ATOM     68  H   UNL     1      -2.436   0.027  -7.702  1.00  0.00     0.296 HD
ENDBRANCH  65  67
ENDBRANCH  49  65
ENDBRANCH  47  49
ENDBRANCH  43  45
ENDBRANCH   1  43
BRANCH   1  69
ATOM     69  C   UNL     1      -4.991   1.007  -1.301  1.00  0.00    -0.001 C 
ATOM     70  C   UNL     1      -6.033   1.133  -0.461  1.00  0.00     0.001 C 
BRANCH  70  71
ATOM     71  C   UNL     1      -6.177   0.520   0.861  1.00  0.00    -0.055 C 
ATOM     72  C   UNL     1      -5.337   0.925   1.836  1.00  0.00    -0.018 C 
ATOM     73  C   UNL     1      -7.258  -0.514   1.041  1.00  0.00     0.044 C 
BRANCH  72  74
ATOM     74  C   UNL     1      -5.256   0.473   3.287  1.00  0.00     0.038 C 
ATOM     75  C   UNL     1      -5.592   1.689   4.160  1.00  0.00     0.015 C 
BRANCH  74  76
ATOM     76  C   UNL     1      -3.849  -0.144   3.541  1.00  0.00     0.128 C 
BRANCH  76  77
ATOM     77  O   UNL     1      -3.332   0.315   4.802  1.00  0.00    -0.381 OA
ATOM     78  C   UNL     1      -1.952   0.034   4.989  1.00  0.00     0.195 C 
ENDBRANCH  76  77
BRANCH  76  79
ATOM     79  C   UNL     1      -3.804  -1.686   3.401  1.00  0.00     0.068 C 
BRANCH  79  80
ATOM     80  C   UNL     1      -4.042  -2.279   2.034  1.00  0.00    -0.045 A 
ATOM     81  C   UNL     1      -3.274  -1.883   0.931  1.00  0.00     0.004 A 
ATOM     82  C   UNL     1      -5.063  -3.222   1.840  1.00  0.00     0.004 A 
ATOM     83  C   UNL     1      -3.510  -2.426  -0.334  1.00  0.00     0.000 A 
ATOM     84  C   UNL     1      -5.299  -3.764   0.575  1.00  0.00     0.000 A 
ATOM     85  C   UNL     1      -4.522  -3.367  -0.511  1.00  0.00     0.000 A 
ENDBRANCH  79  80
ENDBRANCH  76  79
ENDBRANCH  74  76
ENDBRANCH  72  74
ENDBRANCH  70  71
ENDBRANCH   1  69
TORSDOF 17
ENDMDL
MODEL 41
REMARK VINA RESULT:    -6.021      3.946     10.345
REMARK INTER + INTRA:         -25.603
REMARK INTER:                 -19.153
REMARK INTRA:                  -6.450
REMARK UNBOUND:                -7.614
REMARK SMILES C=C1C(=O)N[C@H](C)C(=O)N[C@@H](CC(C)C)C(=O)N[C@@H](C(=O)O)[C@H](C)C(=O)N[C@@H](CCCN=C(N)N)C(=O)N[C@@H](/C=C/C(C)=C/[C@H](C)[C@H](Cc2ccccc2)OC)[C@H](C)C(=O)N[C@@H](C(=O)O)CCC(=O)N1C
REMARK SMILES IDX 39 1 38 2 37 3 36 4 28 6 27 7 25 8 26 9 23 11 24 12 19 13
REMARK SMILES IDX 18 14 16 15 17 16 11 18 10 19 8 20 9 21 12 24 13 25 14 26
REMARK SMILES IDX 15 27 20 28 21 29 22 30 29 32 30 33 31 34 32 35 33 36 34 37
REMARK SMILES IDX 35 38 57 43 58 44 59 45 60 46 61 47 62 49 66 50 67 51 68 52
REMARK SMILES IDX 69 53 70 54 71 55 2 56 1 57 3 58 4 59 5 60 6 62 7 63 63 65
REMARK SMILES IDX 64 66 65 67 40 69 41 70 42 71 44 72 43 73 45 74 46 75 47 76
REMARK SMILES IDX 55 77 56 78 48 79 49 80 50 81 54 82 51 83 53 84 52 85
REMARK H PARENT 38 5 27 10 18 17 10 22 22 31 34 39 34 40 35 41 35 42 61 48
REMARK H PARENT 5 61 65 68
REMARK Flexibility Score:  369.900
ROOT
ATOM      1  C   UNL     1      -4.261   0.373  -5.465  1.00  0.00     0.117 C 
ENDROOT
BRANCH   1   2
ATOM      2  N   UNL     1      -2.806   0.504  -5.377  1.00  0.00    -0.347 N 
ATOM      3  O   UNL     1      -2.579   2.369  -6.697  1.00  0.00    -0.273 OA
ATOM      4  C   UNL     1      -2.089   1.549  -5.927  1.00  0.00     0.243 C 
ATOM      5  H   UNL     1      -2.280  -0.172  -4.844  1.00  0.00     0.164 HD
BRANCH   4   6
ATOM      6  C   UNL     1      -0.571   1.496  -5.615  1.00  0.00     0.171 C 
BRANCH   6   7
ATOM      7  N   UNL     1       0.135   0.698  -6.630  1.00  0.00    -0.344 N 
ATOM      8  C   UNL     1       0.239  -0.670  -6.500  1.00  0.00     0.226 C 
ATOM      9  O   UNL     1      -0.220  -1.280  -5.542  1.00  0.00    -0.275 OA
ATOM     10  H   UNL     1       0.586   1.173  -7.402  1.00  0.00     0.164 HD
BRANCH   8  11
ATOM     11  C   UNL     1       0.948  -1.356  -7.655  1.00  0.00     0.109 C 
ATOM     12  C   UNL     1       0.768  -0.545  -8.939  1.00  0.00     0.021 C 
BRANCH  11  13
ATOM     13  C   UNL     1       2.414  -1.643  -7.271  1.00  0.00     0.204 C 
BRANCH  13  14
ATOM     14  N   UNL     1       2.989  -2.731  -8.067  1.00  0.00    -0.340 N 
ATOM     15  C   UNL     1       3.311  -3.960  -7.532  1.00  0.00     0.243 C 
ATOM     16  O   UNL     1       3.080  -4.251  -6.360  1.00  0.00    -0.273 OA
ATOM     17  H   UNL     1       3.344  -2.508  -9.001  1.00  0.00     0.164 HD
BRANCH  15  18
ATOM     18  C   UNL     1       4.094  -4.873  -8.508  1.00  0.00     0.171 C 
BRANCH  18  19
ATOM     19  N   UNL     1       5.406  -4.257  -8.696  1.00  0.00    -0.343 N 
ATOM     20  C   UNL     1       5.605  -3.228  -9.597  1.00  0.00     0.242 CG0
ATOM     21  O   UNL     1       4.723  -2.875 -10.376  1.00  0.00    -0.273 OA
ATOM     22  H   UNL     1       6.196  -4.593  -8.157  1.00  0.00     0.164 HD
ATOM     23  G   UNL     1       7.037  -2.653  -9.600  1.00  0.00     0.000 G0
ENDBRANCH  18  19
BRANCH  18  24
ATOM     24  C   UNL     1       4.217  -6.293  -7.940  1.00  0.00     0.038 C 
BRANCH  24  25
ATOM     25  C   UNL     1       3.207  -7.307  -8.518  1.00  0.00    -0.015 C 
ATOM     26  C   UNL     1       2.285  -7.891  -7.447  1.00  0.00     0.007 C 
ATOM     27  C   UNL     1       3.961  -8.439  -9.222  1.00  0.00     0.007 C 
ENDBRANCH  24  25
ENDBRANCH  18  24
ENDBRANCH  15  18
ENDBRANCH  13  14
BRANCH  13  28
ATOM     28  C   UNL     1       3.330  -0.427  -7.435  1.00  0.00     0.327 C 
ATOM     29  O   UNL     1       3.274   0.612  -6.795  1.00  0.00    -0.250 OA
BRANCH  28  30
ATOM     30  O   UNL     1       4.184  -0.544  -8.472  1.00  0.00    -0.480 OA
ATOM     31  H   UNL     1       4.724  -1.332  -8.251  1.00  0.00     0.296 HD
ENDBRANCH  28  30
ENDBRANCH  13  28
ENDBRANCH  11  13
ENDBRANCH   8  11
ENDBRANCH   6   7
BRANCH   6  32
ATOM     32  C   UNL     1      -0.018   2.924  -5.560  1.00  0.00     0.037 C 
BRANCH  32  33
ATOM     33  C   UNL     1       1.070   3.165  -6.616  1.00  0.00     0.026 C 
BRANCH  33  34
ATOM     34  C   UNL     1       0.796   4.406  -7.466  1.00  0.00     0.146 C 
BRANCH  34  35
ATOM     35  N   UNL     1       0.626   3.996  -8.854  1.00  0.00    -0.254 NA
ATOM     36  C   UNL     1       1.176   4.699  -9.773  1.00  0.00     0.185 C 
ATOM     37  N   UNL     1       1.030   4.328 -11.055  1.00  0.00    -0.370 N 
ATOM     38  N   UNL     1       1.919   5.813  -9.655  1.00  0.00    -0.370 N 
ATOM     39  H   UNL     1       0.490   3.489 -11.226  1.00  0.00     0.159 HD
ATOM     40  H   UNL     1       1.566   4.718 -11.811  1.00  0.00     0.159 HD
ATOM     41  H   UNL     1       2.180   6.354 -10.463  1.00  0.00     0.159 HD
ATOM     42  H   UNL     1       2.098   6.216  -8.748  1.00  0.00     0.159 HD
ENDBRANCH  34  35
ENDBRANCH  33  34
ENDBRANCH  32  33
ENDBRANCH   6  32
ENDBRANCH   4   6
ENDBRANCH   1   2
BRANCH   1  43
ATOM     43  C   UNL     1      -4.788  -0.211  -4.123  1.00  0.00     0.102 C 
ATOM     44  C   UNL     1      -5.518   0.823  -3.250  1.00  0.00     0.020 C 
BRANCH  43  45
ATOM     45  C   UNL     1      -3.685  -0.979  -3.387  1.00  0.00     0.225 C 
ATOM     46  O   UNL     1      -3.179  -2.009  -3.823  1.00  0.00    -0.275 OA
ATOM     47  N   UNL     1      -3.354  -0.492  -2.143  1.00  0.00    -0.342 N 
ATOM     48  H   UNL     1      -3.664   0.430  -1.868  1.00  0.00     0.164 HD
BRANCH  47  49
ATOM     49  C   UNL     1      -2.291  -1.103  -1.339  1.00  0.00     0.192 C 
BRANCH  49  50
ATOM     50  C   UNL     1      -2.722  -1.154   0.129  1.00  0.00     0.047 C 
BRANCH  50  51
ATOM     51  C   UNL     1      -4.084  -0.484   0.360  1.00  0.00     0.103 C 
BRANCH  51  52
ATOM     52  C   UNL     1      -5.216  -1.505   0.455  1.00  0.00     0.226 C 
ATOM     53  O   UNL     1      -5.991  -1.647  -0.492  1.00  0.00    -0.275 OA
BRANCH  52  54
ATOM     54  N   UNL     1      -5.255  -2.290   1.622  1.00  0.00    -0.311 N 
ATOM     55  C   UNL     1      -5.208  -3.757   1.549  1.00  0.00     0.153 C 
BRANCH  54  56
ATOM     56  C   UNL     1      -5.334  -1.705   2.897  1.00  0.00     0.102 C 
ATOM     57  C   UNL     1      -4.338  -1.688   3.798  1.00  0.00     0.043 C 
BRANCH  56  58
ATOM     58  C   UNL     1      -6.584  -0.983   3.342  1.00  0.00     0.268 C 
ATOM     59  O   UNL     1      -7.708  -1.306   2.981  1.00  0.00    -0.268 OA
ATOM     60  N   UNL     1      -6.334   0.025   4.242  1.00  0.00    -0.339 N 
ATOM     61  H   UNL     1      -5.373   0.237   4.482  1.00  0.00     0.164 HD
BRANCH  60  62
ATOM     62  C   UNL     1      -7.408   0.811   4.849  1.00  0.00     0.168 CG0
ATOM     63  C   UNL     1      -7.795   0.248   6.211  1.00  0.00     0.041 C 
ATOM     64  G   UNL     1      -8.626   0.839   3.903  1.00  0.00     0.000 G0
ENDBRANCH  60  62
ENDBRANCH  56  58
ENDBRANCH  54  56
ENDBRANCH  52  54
ENDBRANCH  51  52
ENDBRANCH  50  51
ENDBRANCH  49  50
BRANCH  49  65
ATOM     65  C   UNL     1      -0.972  -0.324  -1.456  1.00  0.00     0.326 C 
ATOM     66  O   UNL     1      -0.316  -0.188  -2.479  1.00  0.00    -0.250 OA
BRANCH  65  67
ATOM     67  O   UNL     1      -0.514   0.187  -0.292  1.00  0.00    -0.480 OA
ATOM     68  H   UNL     1      -0.574  -0.568   0.332  1.00  0.00     0.296 HD
ENDBRANCH  65  67
ENDBRANCH  49  65
ENDBRANCH  47  49
ENDBRANCH  43  45
ENDBRANCH   1  43
BRANCH   1  69
ATOM     69  C   UNL     1      -4.541  -0.379  -6.753  1.00  0.00    -0.001 C 
ATOM     70  C   UNL     1      -5.706  -0.924  -7.144  1.00  0.00     0.001 C 
BRANCH  70  71
ATOM     71  C   UNL     1      -5.970  -1.630  -8.399  1.00  0.00    -0.055 C 
ATOM     72  C   UNL     1      -7.259  -1.841  -8.742  1.00  0.00    -0.018 C 
ATOM     73  C   UNL     1      -4.786  -2.063  -9.224  1.00  0.00     0.044 C 
BRANCH  72  74
ATOM     74  C   UNL     1      -7.827  -2.533  -9.972  1.00  0.00     0.038 C 
ATOM     75  C   UNL     1      -8.880  -1.594 -10.574  1.00  0.00     0.015 C 
BRANCH  74  76
ATOM     76  C   UNL     1      -8.364  -3.934  -9.555  1.00  0.00     0.128 C 
BRANCH  76  77
ATOM     77  O   UNL     1      -9.787  -3.993  -9.752  1.00  0.00    -0.381 OA
ATOM     78  C   UNL     1     -10.521  -4.197  -8.552  1.00  0.00     0.195 C 
ENDBRANCH  76  77
BRANCH  76  79
ATOM     79  C   UNL     1      -7.618  -5.118 -10.221  1.00  0.00     0.068 C 
BRANCH  79  80
ATOM     80  C   UNL     1      -6.159  -5.312  -9.885  1.00  0.00    -0.045 A 
ATOM     81  C   UNL     1      -5.183  -5.334 -10.891  1.00  0.00     0.004 A 
ATOM     82  C   UNL     1      -5.758  -5.502  -8.554  1.00  0.00     0.004 A 
ATOM     83  C   UNL     1      -3.837  -5.528 -10.574  1.00  0.00     0.000 A 
ATOM     84  C   UNL     1      -4.412  -5.696  -8.238  1.00  0.00     0.000 A 
ATOM     85  C   UNL     1      -3.452  -5.708  -9.247  1.00  0.00     0.000 A 
ENDBRANCH  79  80
ENDBRANCH  76  79
ENDBRANCH  74  76
ENDBRANCH  72  74
ENDBRANCH  70  71
ENDBRANCH   1  69
TORSDOF 17
ENDMDL
MODEL 42
REMARK VINA RESULT:    -6.012      4.819     12.599
REMARK INTER + INTRA:         -25.576
REMARK INTER:                 -16.499
REMARK INTRA:                  -9.077
REMARK UNBOUND:                -7.614
REMARK SMILES C=C1C(=O)N[C@H](C)C(=O)N[C@@H](CC(C)C)C(=O)N[C@@H](C(=O)O)[C@H](C)C(=O)N[C@@H](CCCN=C(N)N)C(=O)N[C@@H](/C=C/C(C)=C/[C@H](C)[C@H](Cc2ccccc2)OC)[C@H](C)C(=O)N[C@@H](C(=O)O)CCC(=O)N1C
REMARK SMILES IDX 39 1 38 2 37 3 36 4 28 6 27 7 25 8 26 9 23 11 24 12 19 13
REMARK SMILES IDX 18 14 16 15 17 16 11 18 10 19 8 20 9 21 12 24 13 25 14 26
REMARK SMILES IDX 15 27 20 28 21 29 22 30 29 32 30 33 31 34 32 35 33 36 34 37
REMARK SMILES IDX 35 38 57 43 58 44 59 45 60 46 61 47 62 49 66 50 67 51 68 52
REMARK SMILES IDX 69 53 70 54 71 55 2 56 1 57 3 58 4 59 5 60 6 62 7 63 63 65
REMARK SMILES IDX 64 66 65 67 40 69 41 70 42 71 44 72 43 73 45 74 46 75 47 76
REMARK SMILES IDX 55 77 56 78 48 79 49 80 50 81 54 82 51 83 53 84 52 85
REMARK H PARENT 38 5 27 10 18 17 10 22 22 31 34 39 34 40 35 41 35 42 61 48
REMARK H PARENT 5 61 65 68
REMARK Flexibility Score:  369.900
ROOT
ATOM      1  C   UNL     1     -10.685  -1.779  -1.106  1.00  0.00     0.117 C 
ENDROOT
BRANCH   1   2
ATOM      2  N   UNL     1      -9.234  -1.592  -1.069  1.00  0.00    -0.347 N 
ATOM      3  O   UNL     1      -9.174   0.550  -1.893  1.00  0.00    -0.273 OA
ATOM      4  C   UNL     1      -8.600  -0.405  -1.381  1.00  0.00     0.243 C 
ATOM      5  H   UNL     1      -8.646  -2.348  -0.753  1.00  0.00     0.164 HD
BRANCH   4   6
ATOM      6  C   UNL     1      -7.064  -0.447  -1.177  1.00  0.00     0.171 C 
BRANCH   6   7
ATOM      7  N   UNL     1      -6.436   0.756  -1.747  1.00  0.00    -0.344 N 
ATOM      8  C   UNL     1      -5.327   0.653  -2.558  1.00  0.00     0.226 C 
ATOM      9  O   UNL     1      -4.801  -0.422  -2.823  1.00  0.00    -0.275 OA
ATOM     10  H   UNL     1      -6.801   1.666  -1.496  1.00  0.00     0.164 HD
BRANCH   8  11
ATOM     11  C   UNL     1      -4.830   1.977  -3.110  1.00  0.00     0.109 C 
ATOM     12  C   UNL     1      -3.304   2.033  -3.052  1.00  0.00     0.021 C 
BRANCH  11  13
ATOM     13  C   UNL     1      -5.435   2.218  -4.508  1.00  0.00     0.204 C 
BRANCH  13  14
ATOM     14  N   UNL     1      -5.577   0.974  -5.270  1.00  0.00    -0.340 N 
ATOM     15  C   UNL     1      -5.901   0.949  -6.609  1.00  0.00     0.243 C 
ATOM     16  O   UNL     1      -6.034   1.973  -7.276  1.00  0.00    -0.273 OA
ATOM     17  H   UNL     1      -5.629   0.095  -4.748  1.00  0.00     0.164 HD
BRANCH  15  18
ATOM     18  C   UNL     1      -6.200  -0.472  -7.147  1.00  0.00     0.171 C 
BRANCH  18  19
ATOM     19  N   UNL     1      -4.912  -1.152  -7.272  1.00  0.00    -0.343 N 
ATOM     20  C   UNL     1      -4.487  -1.692  -8.471  1.00  0.00     0.242 CG0
ATOM     21  O   UNL     1      -5.226  -1.744  -9.451  1.00  0.00    -0.273 OA
ATOM     22  H   UNL     1      -4.313  -1.237  -6.459  1.00  0.00     0.164 HD
ATOM     23  G   UNL     1      -3.069  -2.299  -8.429  1.00  0.00     0.000 G0
ENDBRANCH  18  19
BRANCH  18  24
ATOM     24  C   UNL     1      -7.141  -1.223  -6.198  1.00  0.00     0.038 C 
BRANCH  24  25
ATOM     25  C   UNL     1      -6.536  -2.492  -5.559  1.00  0.00    -0.015 C 
ATOM     26  C   UNL     1      -6.835  -3.754  -6.369  1.00  0.00     0.007 C 
ATOM     27  C   UNL     1      -7.069  -2.655  -4.134  1.00  0.00     0.007 C 
ENDBRANCH  24  25
ENDBRANCH  18  24
ENDBRANCH  15  18
ENDBRANCH  13  14
BRANCH  13  28
ATOM     28  C   UNL     1      -6.814   2.883  -4.463  1.00  0.00     0.327 C 
ATOM     29  O   UNL     1      -7.064   4.048  -4.730  1.00  0.00    -0.250 OA
BRANCH  28  30
ATOM     30  O   UNL     1      -7.775   2.074  -3.972  1.00  0.00    -0.480 OA
ATOM     31  H   UNL     1      -7.293   1.266  -3.698  1.00  0.00     0.296 HD
ENDBRANCH  28  30
ENDBRANCH  13  28
ENDBRANCH  11  13
ENDBRANCH   8  11
ENDBRANCH   6   7
BRANCH   6  32
ATOM     32  C   UNL     1      -6.758  -0.567   0.320  1.00  0.00     0.037 C 
BRANCH  32  33
ATOM     33  C   UNL     1      -5.314  -1.019   0.581  1.00  0.00     0.026 C 
BRANCH  33  34
ATOM     34  C   UNL     1      -4.493   0.042   1.317  1.00  0.00     0.146 C 
BRANCH  34  35
ATOM     35  N   UNL     1      -4.611  -0.185   2.751  1.00  0.00    -0.254 NA
ATOM     36  C   UNL     1      -5.299   0.640   3.449  1.00  0.00     0.185 C 
ATOM     37  N   UNL     1      -5.418   0.438   4.770  1.00  0.00    -0.370 N 
ATOM     38  N   UNL     1      -5.961   1.740   3.047  1.00  0.00    -0.370 N 
ATOM     39  H   UNL     1      -4.955  -0.378   5.148  1.00  0.00     0.159 HD
ATOM     40  H   UNL     1      -6.074   0.932   5.351  1.00  0.00     0.159 HD
ATOM     41  H   UNL     1      -6.350   2.386   3.714  1.00  0.00     0.159 HD
ATOM     42  H   UNL     1      -5.945   2.023   2.079  1.00  0.00     0.159 HD
ENDBRANCH  34  35
ENDBRANCH  33  34
ENDBRANCH  32  33
ENDBRANCH   6  32
ENDBRANCH   4   6
ENDBRANCH   1   2
BRANCH   1  43
ATOM     43  C   UNL     1     -11.217  -1.818   0.356  1.00  0.00     0.102 C 
ATOM     44  C   UNL     1     -11.817  -0.481   0.824  1.00  0.00     0.020 C 
BRANCH  43  45
ATOM     45  C   UNL     1     -10.165  -2.394   1.308  1.00  0.00     0.225 C 
ATOM     46  O   UNL     1      -9.551  -3.433   1.081  1.00  0.00    -0.275 OA
ATOM     47  N   UNL     1     -10.011  -1.720   2.498  1.00  0.00    -0.342 N 
ATOM     48  H   UNL     1     -10.405  -0.796   2.604  1.00  0.00     0.164 HD
BRANCH  47  49
ATOM     49  C   UNL     1      -9.016  -2.136   3.491  1.00  0.00     0.192 C 
BRANCH  49  50
ATOM     50  C   UNL     1      -9.608  -3.229   4.385  1.00  0.00     0.047 C 
BRANCH  50  51
ATOM     51  C   UNL     1     -11.052  -2.921   4.803  1.00  0.00     0.103 C 
BRANCH  51  52
ATOM     52  C   UNL     1     -11.169  -2.640   6.299  1.00  0.00     0.226 C 
ATOM     53  O   UNL     1     -10.962  -3.546   7.109  1.00  0.00    -0.275 OA
BRANCH  52  54
ATOM     54  N   UNL     1     -11.438  -1.309   6.668  1.00  0.00    -0.311 N 
ATOM     55  C   UNL     1     -12.073  -0.377   5.726  1.00  0.00     0.153 C 
BRANCH  54  56
ATOM     56  C   UNL     1     -11.117  -0.823   7.946  1.00  0.00     0.102 C 
ATOM     57  C   UNL     1      -9.970  -0.204   8.267  1.00  0.00     0.043 C 
BRANCH  56  58
ATOM     58  C   UNL     1     -12.103  -0.930   9.086  1.00  0.00     0.268 C 
ATOM     59  O   UNL     1     -12.788   0.009   9.469  1.00  0.00    -0.268 OA
ATOM     60  N   UNL     1     -12.199  -2.201   9.600  1.00  0.00    -0.339 N 
ATOM     61  H   UNL     1     -11.589  -2.922   9.234  1.00  0.00     0.164 HD
BRANCH  60  62
ATOM     62  C   UNL     1     -13.139  -2.541  10.668  1.00  0.00     0.168 CG0
ATOM     63  C   UNL     1     -14.397  -3.188  10.103  1.00  0.00     0.041 C 
ATOM     64  G   UNL     1     -13.491  -1.271  11.470  1.00  0.00     0.000 G0
ENDBRANCH  60  62
ENDBRANCH  56  58
ENDBRANCH  54  56
ENDBRANCH  52  54
ENDBRANCH  51  52
ENDBRANCH  50  51
ENDBRANCH  49  50
BRANCH  49  65
ATOM     65  C   UNL     1      -8.559  -0.957   4.364  1.00  0.00     0.326 C 
ATOM     66  O   UNL     1      -8.654   0.225   4.068  1.00  0.00    -0.250 OA
BRANCH  65  67
ATOM     67  O   UNL     1      -7.959  -1.312   5.522  1.00  0.00    -0.480 OA
ATOM     68  H   UNL     1      -7.056  -1.577   5.242  1.00  0.00     0.296 HD
ENDBRANCH  65  67
ENDBRANCH  49  65
ENDBRANCH  47  49
ENDBRANCH  43  45
ENDBRANCH   1  43
BRANCH   1  69
ATOM     69  C   UNL     1     -10.935  -2.973  -2.009  1.00  0.00    -0.001 C 
ATOM     70  C   UNL     1     -10.064  -3.941  -2.345  1.00  0.00     0.001 C 
BRANCH  70  71
ATOM     71  C   UNL     1     -10.323  -5.100  -3.201  1.00  0.00    -0.055 C 
ATOM     72  C   UNL     1      -9.700  -5.149  -4.397  1.00  0.00    -0.018 C 
ATOM     73  C   UNL     1     -11.261  -6.160  -2.683  1.00  0.00     0.044 C 
BRANCH  72  74
ATOM     74  C   UNL     1      -9.775  -6.217  -5.479  1.00  0.00     0.038 C 
ATOM     75  C   UNL     1      -8.363  -6.790  -5.647  1.00  0.00     0.015 C 
BRANCH  74  76
ATOM     76  C   UNL     1     -10.381  -5.585  -6.766  1.00  0.00     0.128 C 
BRANCH  76  77
ATOM     77  O   UNL     1     -11.477  -6.387  -7.238  1.00  0.00    -0.381 OA
ATOM     78  C   UNL     1     -12.753  -5.807  -7.002  1.00  0.00     0.195 C 
ENDBRANCH  76  77
BRANCH  76  79
ATOM     79  C   UNL     1     -10.755  -4.089  -6.616  1.00  0.00     0.068 C 
BRANCH  79  80
ATOM     80  C   UNL     1     -10.237  -3.124  -7.656  1.00  0.00    -0.045 A 
ATOM     81  C   UNL     1      -9.511  -3.578  -8.764  1.00  0.00     0.004 A 
ATOM     82  C   UNL     1     -10.455  -1.745  -7.511  1.00  0.00     0.004 A 
ATOM     83  C   UNL     1      -9.023  -2.677  -9.713  1.00  0.00     0.000 A 
ATOM     84  C   UNL     1      -9.966  -0.845  -8.460  1.00  0.00     0.000 A 
ATOM     85  C   UNL     1      -9.252  -1.311  -9.562  1.00  0.00     0.000 A 
ENDBRANCH  79  80
ENDBRANCH  76  79
ENDBRANCH  74  76
ENDBRANCH  72  74
ENDBRANCH  70  71
ENDBRANCH   1  69
TORSDOF 17
ENDMDL
MODEL 43
REMARK VINA RESULT:    -5.991      3.997     11.491
REMARK INTER + INTRA:         -25.513
REMARK INTER:                 -17.092
REMARK INTRA:                  -8.422
REMARK UNBOUND:                -7.614
REMARK SMILES C=C1C(=O)N[C@H](C)C(=O)N[C@@H](CC(C)C)C(=O)N[C@@H](C(=O)O)[C@H](C)C(=O)N[C@@H](CCCN=C(N)N)C(=O)N[C@@H](/C=C/C(C)=C/[C@H](C)[C@H](Cc2ccccc2)OC)[C@H](C)C(=O)N[C@@H](C(=O)O)CCC(=O)N1C
REMARK SMILES IDX 39 1 38 2 37 3 36 4 28 6 27 7 25 8 26 9 23 11 24 12 19 13
REMARK SMILES IDX 18 14 16 15 17 16 11 18 10 19 8 20 9 21 12 24 13 25 14 26
REMARK SMILES IDX 15 27 20 28 21 29 22 30 29 32 30 33 31 34 32 35 33 36 34 37
REMARK SMILES IDX 35 38 57 43 58 44 59 45 60 46 61 47 62 49 66 50 67 51 68 52
REMARK SMILES IDX 69 53 70 54 71 55 2 56 1 57 3 58 4 59 5 60 6 62 7 63 63 65
REMARK SMILES IDX 64 66 65 67 40 69 41 70 42 71 44 72 43 73 45 74 46 75 47 76
REMARK SMILES IDX 55 77 56 78 48 79 49 80 50 81 54 82 51 83 53 84 52 85
REMARK H PARENT 38 5 27 10 18 17 10 22 22 31 34 39 34 40 35 41 35 42 61 48
REMARK H PARENT 5 61 65 68
REMARK Flexibility Score:  369.900
ROOT
ATOM      1  C   UNL     1      -4.375  -1.433   0.212  1.00  0.00     0.117 C 
ENDROOT
BRANCH   1   2
ATOM      2  N   UNL     1      -3.630  -2.168  -0.810  1.00  0.00    -0.347 N 
ATOM      3  O   UNL     1      -2.164  -0.499  -1.389  1.00  0.00    -0.273 OA
ATOM      4  C   UNL     1      -2.521  -1.669  -1.467  1.00  0.00     0.243 C 
ATOM      5  H   UNL     1      -3.895  -3.116  -1.030  1.00  0.00     0.164 HD
BRANCH   4   6
ATOM      6  C   UNL     1      -1.866  -2.682  -2.440  1.00  0.00     0.171 C 
BRANCH   6   7
ATOM      7  N   UNL     1      -1.237  -1.978  -3.569  1.00  0.00    -0.344 N 
ATOM      8  C   UNL     1      -1.671  -2.191  -4.859  1.00  0.00     0.226 C 
ATOM      9  O   UNL     1      -2.568  -2.979  -5.133  1.00  0.00    -0.275 OA
ATOM     10  H   UNL     1      -0.448  -1.370  -3.389  1.00  0.00     0.164 HD
BRANCH   8  11
ATOM     11  C   UNL     1      -0.959  -1.350  -5.905  1.00  0.00     0.109 C 
ATOM     12  C   UNL     1      -0.840  -2.129  -7.215  1.00  0.00     0.021 C 
BRANCH  11  13
ATOM     13  C   UNL     1      -1.650   0.023  -6.028  1.00  0.00     0.204 C 
BRANCH  13  14
ATOM     14  N   UNL     1      -3.053  -0.026  -5.606  1.00  0.00    -0.340 N 
ATOM     15  C   UNL     1      -4.092  -0.240  -6.485  1.00  0.00     0.243 C 
ATOM     16  O   UNL     1      -3.910  -0.467  -7.680  1.00  0.00    -0.273 OA
ATOM     17  H   UNL     1      -3.283   0.303  -4.664  1.00  0.00     0.164 HD
BRANCH  15  18
ATOM     18  C   UNL     1      -5.491  -0.042  -5.850  1.00  0.00     0.171 C 
BRANCH  18  19
ATOM     19  N   UNL     1      -6.383  -1.002  -6.497  1.00  0.00    -0.343 N 
ATOM     20  C   UNL     1      -7.295  -0.615  -7.460  1.00  0.00     0.242 CG0
ATOM     21  O   UNL     1      -7.490   0.569  -7.723  1.00  0.00    -0.273 OA
ATOM     22  H   UNL     1      -6.341  -1.979  -6.230  1.00  0.00     0.164 HD
ATOM     23  G   UNL     1      -8.094  -1.778  -8.084  1.00  0.00     0.000 G0
ENDBRANCH  18  19
BRANCH  18  24
ATOM     24  C   UNL     1      -5.433  -0.261  -4.334  1.00  0.00     0.038 C 
BRANCH  24  25
ATOM     25  C   UNL     1      -5.958   0.920  -3.491  1.00  0.00    -0.015 C 
ATOM     26  C   UNL     1      -6.551   2.036  -4.353  1.00  0.00     0.007 C 
ATOM     27  C   UNL     1      -4.825   1.482  -2.629  1.00  0.00     0.007 C 
ENDBRANCH  24  25
ENDBRANCH  18  24
ENDBRANCH  15  18
ENDBRANCH  13  14
BRANCH  13  28
ATOM     28  C   UNL     1      -0.966   1.119  -5.205  1.00  0.00     0.327 C 
ATOM     29  O   UNL     1      -0.100   1.884  -5.599  1.00  0.00    -0.250 OA
BRANCH  28  30
ATOM     30  O   UNL     1      -1.327   1.107  -3.905  1.00  0.00    -0.480 OA
ATOM     31  H   UNL     1      -1.153   2.021  -3.598  1.00  0.00     0.296 HD
ENDBRANCH  28  30
ENDBRANCH  13  28
ENDBRANCH  11  13
ENDBRANCH   8  11
ENDBRANCH   6   7
BRANCH   6  32
ATOM     32  C   UNL     1      -0.835  -3.520  -1.675  1.00  0.00     0.037 C 
BRANCH  32  33
ATOM     33  C   UNL     1      -0.061  -2.686  -0.645  1.00  0.00     0.026 C 
BRANCH  33  34
ATOM     34  C   UNL     1       1.389  -2.437  -1.065  1.00  0.00     0.146 C 
BRANCH  34  35
ATOM     35  N   UNL     1       1.534  -2.776  -2.474  1.00  0.00    -0.254 NA
ATOM     36  C   UNL     1       2.312  -2.063  -3.200  1.00  0.00     0.185 C 
ATOM     37  N   UNL     1       2.458  -2.369  -4.498  1.00  0.00    -0.370 N 
ATOM     38  N   UNL     1       3.051  -0.994  -2.850  1.00  0.00    -0.370 N 
ATOM     39  H   UNL     1       1.941  -3.170  -4.836  1.00  0.00     0.159 HD
ATOM     40  H   UNL     1       3.172  -1.974  -5.086  1.00  0.00     0.159 HD
ATOM     41  H   UNL     1       3.515  -0.432  -3.544  1.00  0.00     0.159 HD
ATOM     42  H   UNL     1       3.026  -0.641  -1.906  1.00  0.00     0.159 HD
ENDBRANCH  34  35
ENDBRANCH  33  34
ENDBRANCH  32  33
ENDBRANCH   6  32
ENDBRANCH   4   6
ENDBRANCH   1   2
BRANCH   1  43
ATOM     43  C   UNL     1      -4.074  -2.071   1.599  1.00  0.00     0.102 C 
ATOM     44  C   UNL     1      -4.835  -3.385   1.846  1.00  0.00     0.020 C 
BRANCH  43  45
ATOM     45  C   UNL     1      -4.229  -1.043   2.723  1.00  0.00     0.225 C 
ATOM     46  O   UNL     1      -4.754   0.055   2.561  1.00  0.00    -0.275 OA
ATOM     47  N   UNL     1      -3.653  -1.388   3.925  1.00  0.00    -0.342 N 
ATOM     48  H   UNL     1      -3.365  -2.343   4.085  1.00  0.00     0.164 HD
BRANCH  47  49
ATOM     49  C   UNL     1      -3.753  -0.517   5.100  1.00  0.00     0.192 C 
BRANCH  49  50
ATOM     50  C   UNL     1      -2.404  -0.471   5.822  1.00  0.00     0.047 C 
BRANCH  50  51
ATOM     51  C   UNL     1      -1.765   0.923   5.773  1.00  0.00     0.103 C 
BRANCH  51  52
ATOM     52  C   UNL     1      -1.958   1.689   7.080  1.00  0.00     0.226 C 
ATOM     53  O   UNL     1      -0.982   1.948   7.786  1.00  0.00    -0.275 OA
BRANCH  52  54
ATOM     54  N   UNL     1      -3.266   2.126   7.362  1.00  0.00    -0.311 N 
ATOM     55  C   UNL     1      -3.921   3.142   6.527  1.00  0.00     0.153 C 
BRANCH  54  56
ATOM     56  C   UNL     1      -3.993   1.607   8.446  1.00  0.00     0.102 C 
ATOM     57  C   UNL     1      -5.305   1.807   8.657  1.00  0.00     0.043 C 
BRANCH  56  58
ATOM     58  C   UNL     1      -3.331   0.712   9.466  1.00  0.00     0.268 C 
ATOM     59  O   UNL     1      -3.329  -0.509   9.386  1.00  0.00    -0.268 OA
ATOM     60  N   UNL     1      -2.677   1.410  10.454  1.00  0.00    -0.339 N 
ATOM     61  H   UNL     1      -2.735   2.421  10.455  1.00  0.00     0.164 HD
BRANCH  60  62
ATOM     62  C   UNL     1      -1.916   0.740  11.508  1.00  0.00     0.168 CG0
ATOM     63  C   UNL     1      -2.575   0.939  12.868  1.00  0.00     0.041 C 
ATOM     64  G   UNL     1      -0.469   1.273  11.519  1.00  0.00     0.000 G0
ENDBRANCH  60  62
ENDBRANCH  56  58
ENDBRANCH  54  56
ENDBRANCH  52  54
ENDBRANCH  51  52
ENDBRANCH  50  51
ENDBRANCH  49  50
BRANCH  49  65
ATOM     65  C   UNL     1      -4.836  -1.004   6.076  1.00  0.00     0.326 C 
ATOM     66  O   UNL     1      -5.973  -0.562   6.153  1.00  0.00    -0.250 OA
BRANCH  65  67
ATOM     67  O   UNL     1      -4.430  -1.963   6.936  1.00  0.00    -0.480 OA
ATOM     68  H   UNL     1      -5.245  -2.484   7.104  1.00  0.00     0.296 HD
ENDBRANCH  65  67
ENDBRANCH  49  65
ENDBRANCH  47  49
ENDBRANCH  43  45
ENDBRANCH   1  43
BRANCH   1  69
ATOM     69  C   UNL     1      -5.813  -1.373  -0.271  1.00  0.00    -0.001 C 
ATOM     70  C   UNL     1      -6.356  -2.042  -1.304  1.00  0.00     0.001 C 
BRANCH  70  71
ATOM     71  C   UNL     1      -7.750  -1.993  -1.748  1.00  0.00    -0.055 C 
ATOM     72  C   UNL     1      -8.450  -0.867  -1.494  1.00  0.00    -0.018 C 
ATOM     73  C   UNL     1      -8.302  -3.198  -2.464  1.00  0.00     0.044 C 
BRANCH  72  74
ATOM     74  C   UNL     1      -9.896  -0.534  -1.836  1.00  0.00     0.038 C 
ATOM     75  C   UNL     1      -9.887   0.186  -3.189  1.00  0.00     0.015 C 
BRANCH  74  76
ATOM     76  C   UNL     1     -10.511   0.286  -0.664  1.00  0.00     0.128 C 
BRANCH  76  77
ATOM     77  O   UNL     1     -11.465  -0.519   0.050  1.00  0.00    -0.381 OA
ATOM     78  C   UNL     1     -11.588  -1.841  -0.455  1.00  0.00     0.195 C 
ENDBRANCH  76  77
BRANCH  76  79
ATOM     79  C   UNL     1      -9.460   0.938   0.269  1.00  0.00     0.068 C 
BRANCH  79  80
ATOM     80  C   UNL     1      -9.360   0.430   1.686  1.00  0.00    -0.045 A 
ATOM     81  C   UNL     1     -10.091   1.027   2.721  1.00  0.00     0.004 A 
ATOM     82  C   UNL     1      -8.504  -0.639   1.996  1.00  0.00     0.004 A 
ATOM     83  C   UNL     1      -9.982   0.560   4.032  1.00  0.00     0.000 A 
ATOM     84  C   UNL     1      -8.395  -1.105   3.308  1.00  0.00     0.000 A 
ATOM     85  C   UNL     1      -9.135  -0.507   4.325  1.00  0.00     0.000 A 
ENDBRANCH  79  80
ENDBRANCH  76  79
ENDBRANCH  74  76
ENDBRANCH  72  74
ENDBRANCH  70  71
ENDBRANCH   1  69
TORSDOF 17
ENDMDL
MODEL 44
REMARK VINA RESULT:    -5.974      5.643     13.537
REMARK INTER + INTRA:         -25.463
REMARK INTER:                 -18.110
REMARK INTRA:                  -7.352
REMARK UNBOUND:                -7.614
REMARK SMILES C=C1C(=O)N[C@H](C)C(=O)N[C@@H](CC(C)C)C(=O)N[C@@H](C(=O)O)[C@H](C)C(=O)N[C@@H](CCCN=C(N)N)C(=O)N[C@@H](/C=C/C(C)=C/[C@H](C)[C@H](Cc2ccccc2)OC)[C@H](C)C(=O)N[C@@H](C(=O)O)CCC(=O)N1C
REMARK SMILES IDX 39 1 38 2 37 3 36 4 28 6 27 7 25 8 26 9 23 11 24 12 19 13
REMARK SMILES IDX 18 14 16 15 17 16 11 18 10 19 8 20 9 21 12 24 13 25 14 26
REMARK SMILES IDX 15 27 20 28 21 29 22 30 29 32 30 33 31 34 32 35 33 36 34 37
REMARK SMILES IDX 35 38 57 43 58 44 59 45 60 46 61 47 62 49 66 50 67 51 68 52
REMARK SMILES IDX 69 53 70 54 71 55 2 56 1 57 3 58 4 59 5 60 6 62 7 63 63 65
REMARK SMILES IDX 64 66 65 67 40 69 41 70 42 71 44 72 43 73 45 74 46 75 47 76
REMARK SMILES IDX 55 77 56 78 48 79 49 80 50 81 54 82 51 83 53 84 52 85
REMARK H PARENT 38 5 27 10 18 17 10 22 22 31 34 39 34 40 35 41 35 42 61 48
REMARK H PARENT 5 61 65 68
REMARK Flexibility Score:  369.900
ROOT
ATOM      1  C   UNL     1      -9.731   0.642   1.530  1.00  0.00     0.117 C 
ENDROOT
BRANCH   1   2
ATOM      2  N   UNL     1      -8.552   0.226   0.770  1.00  0.00    -0.347 N 
ATOM      3  O   UNL     1      -9.402   0.563  -1.335  1.00  0.00    -0.273 OA
ATOM      4  C   UNL     1      -8.450   0.307  -0.605  1.00  0.00     0.243 C 
ATOM      5  H   UNL     1      -7.734  -0.097   1.265  1.00  0.00     0.164 HD
BRANCH   4   6
ATOM      6  C   UNL     1      -7.064  -0.116  -1.153  1.00  0.00     0.171 C 
BRANCH   6   7
ATOM      7  N   UNL     1      -6.433   1.001  -1.875  1.00  0.00    -0.344 N 
ATOM      8  C   UNL     1      -5.575   0.763  -2.926  1.00  0.00     0.226 C 
ATOM      9  O   UNL     1      -5.279  -0.368  -3.294  1.00  0.00    -0.275 OA
ATOM     10  H   UNL     1      -6.601   1.947  -1.557  1.00  0.00     0.164 HD
BRANCH   8  11
ATOM     11  C   UNL     1      -5.050   2.017  -3.602  1.00  0.00     0.109 C 
ATOM     12  C   UNL     1      -3.522   2.037  -3.561  1.00  0.00     0.021 C 
BRANCH  11  13
ATOM     13  C   UNL     1      -5.662   2.146  -5.011  1.00  0.00     0.204 C 
BRANCH  13  14
ATOM     14  N   UNL     1      -6.673   1.116  -5.269  1.00  0.00    -0.340 N 
ATOM     15  C   UNL     1      -6.735   0.407  -6.449  1.00  0.00     0.243 C 
ATOM     16  O   UNL     1      -5.907   0.546  -7.348  1.00  0.00    -0.273 OA
ATOM     17  H   UNL     1      -7.474   1.059  -4.634  1.00  0.00     0.164 HD
BRANCH  15  18
ATOM     18  C   UNL     1      -8.004  -0.472  -6.577  1.00  0.00     0.171 C 
BRANCH  18  19
ATOM     19  N   UNL     1      -8.103  -0.861  -7.983  1.00  0.00    -0.343 N 
ATOM     20  C   UNL     1      -9.320  -0.937  -8.633  1.00  0.00     0.242 CG0
ATOM     21  O   UNL     1     -10.382  -0.811  -8.029  1.00  0.00    -0.273 OA
ATOM     22  H   UNL     1      -7.260  -1.089  -8.497  1.00  0.00     0.164 HD
ATOM     23  G   UNL     1      -9.219  -1.287 -10.132  1.00  0.00     0.000 G0
ENDBRANCH  18  19
BRANCH  18  24
ATOM     24  C   UNL     1      -7.908  -1.698  -5.660  1.00  0.00     0.038 C 
BRANCH  24  25
ATOM     25  C   UNL     1      -9.131  -1.913  -4.743  1.00  0.00    -0.015 C 
ATOM     26  C   UNL     1     -10.082  -2.983  -5.279  1.00  0.00     0.007 C 
ATOM     27  C   UNL     1      -9.885  -0.592  -4.572  1.00  0.00     0.007 C 
ENDBRANCH  24  25
ENDBRANCH  18  24
ENDBRANCH  15  18
ENDBRANCH  13  14
BRANCH  13  28
ATOM     28  C   UNL     1      -6.324   3.504  -5.260  1.00  0.00     0.327 C 
ATOM     29  O   UNL     1      -6.004   4.319  -6.113  1.00  0.00    -0.250 OA
BRANCH  28  30
ATOM     30  O   UNL     1      -7.269   3.807  -4.348  1.00  0.00    -0.480 OA
ATOM     31  H   UNL     1      -7.168   3.119  -3.658  1.00  0.00     0.296 HD
ENDBRANCH  28  30
ENDBRANCH  13  28
ENDBRANCH  11  13
ENDBRANCH   8  11
ENDBRANCH   6   7
BRANCH   6  32
ATOM     32  C   UNL     1      -6.183  -0.582   0.011  1.00  0.00     0.037 C 
BRANCH  32  33
ATOM     33  C   UNL     1      -5.864  -2.081  -0.067  1.00  0.00     0.026 C 
BRANCH  33  34
ATOM     34  C   UNL     1      -4.424  -2.396   0.341  1.00  0.00     0.146 C 
BRANCH  34  35
ATOM     35  N   UNL     1      -3.521  -1.568  -0.448  1.00  0.00    -0.254 NA
ATOM     36  C   UNL     1      -2.574  -0.948   0.152  1.00  0.00     0.185 C 
ATOM     37  N   UNL     1      -1.734  -0.187  -0.565  1.00  0.00    -0.370 N 
ATOM     38  N   UNL     1      -2.268  -0.938   1.462  1.00  0.00    -0.370 N 
ATOM     39  H   UNL     1      -1.893  -0.152  -1.564  1.00  0.00     0.159 HD
ATOM     40  H   UNL     1      -0.873   0.186  -0.201  1.00  0.00     0.159 HD
ATOM     41  H   UNL     1      -1.583  -0.299   1.832  1.00  0.00     0.159 HD
ATOM     42  H   UNL     1      -2.827  -1.455   2.123  1.00  0.00     0.159 HD
ENDBRANCH  34  35
ENDBRANCH  33  34
ENDBRANCH  32  33
ENDBRANCH   6  32
ENDBRANCH   4   6
ENDBRANCH   1   2
BRANCH   1  43
ATOM     43  C   UNL     1      -9.264   1.509   2.735  1.00  0.00     0.102 C 
ATOM     44  C   UNL     1      -8.565   2.813   2.315  1.00  0.00     0.020 C 
BRANCH  43  45
ATOM     45  C   UNL     1      -8.466   0.672   3.739  1.00  0.00     0.225 C 
ATOM     46  O   UNL     1      -7.487   0.002   3.425  1.00  0.00    -0.275 OA
ATOM     47  N   UNL     1      -8.974   0.639   5.018  1.00  0.00    -0.342 N 
ATOM     48  H   UNL     1      -9.681   1.306   5.293  1.00  0.00     0.164 HD
BRANCH  47  49
ATOM     49  C   UNL     1      -8.296  -0.093   6.092  1.00  0.00     0.192 C 
BRANCH  49  50
ATOM     50  C   UNL     1      -9.330  -0.598   7.102  1.00  0.00     0.047 C 
BRANCH  50  51
ATOM     51  C   UNL     1     -10.130  -1.794   6.566  1.00  0.00     0.103 C 
BRANCH  51  52
ATOM     52  C   UNL     1     -11.037  -2.401   7.634  1.00  0.00     0.226 C 
ATOM     53  O   UNL     1     -10.807  -3.535   8.058  1.00  0.00    -0.275 OA
BRANCH  52  54
ATOM     54  N   UNL     1     -12.061  -1.573   8.132  1.00  0.00    -0.311 N 
ATOM     55  C   UNL     1     -13.031  -0.943   7.226  1.00  0.00     0.153 C 
BRANCH  54  56
ATOM     56  C   UNL     1     -12.197  -1.323   9.507  1.00  0.00     0.102 C 
ATOM     57  C   UNL     1     -12.705  -2.190  10.399  1.00  0.00     0.043 C 
BRANCH  56  58
ATOM     58  C   UNL     1     -11.720  -0.023  10.110  1.00  0.00     0.268 C 
ATOM     59  O   UNL     1     -12.226   1.061   9.850  1.00  0.00    -0.268 OA
ATOM     60  N   UNL     1     -10.708  -0.190  11.025  1.00  0.00    -0.339 N 
ATOM     61  H   UNL     1     -10.337  -1.121  11.176  1.00  0.00     0.164 HD
BRANCH  60  62
ATOM     62  C   UNL     1     -10.141   0.931  11.773  1.00  0.00     0.168 CG0
ATOM     63  C   UNL     1      -8.928   1.509  11.055  1.00  0.00     0.041 C 
ATOM     64  G   UNL     1      -9.764   0.466  13.194  1.00  0.00     0.000 G0
ENDBRANCH  60  62
ENDBRANCH  56  58
ENDBRANCH  54  56
ENDBRANCH  52  54
ENDBRANCH  51  52
ENDBRANCH  50  51
ENDBRANCH  49  50
BRANCH  49  65
ATOM     65  C   UNL     1      -7.267   0.789   6.816  1.00  0.00     0.326 C 
ATOM     66  O   UNL     1      -7.253   1.026   8.015  1.00  0.00    -0.250 OA
BRANCH  65  67
ATOM     67  O   UNL     1      -6.355   1.371   6.007  1.00  0.00    -0.480 OA
ATOM     68  H   UNL     1      -5.612   0.729   5.996  1.00  0.00     0.296 HD
ENDBRANCH  65  67
ENDBRANCH  49  65
ENDBRANCH  47  49
ENDBRANCH  43  45
ENDBRANCH   1  43
BRANCH   1  69
ATOM     69  C   UNL     1     -10.528  -0.621   1.802  1.00  0.00    -0.001 C 
ATOM     70  C   UNL     1     -10.114  -1.893   1.665  1.00  0.00     0.001 C 
BRANCH  70  71
ATOM     71  C   UNL     1     -10.885  -3.105   1.950  1.00  0.00    -0.055 C 
ATOM     72  C   UNL     1     -10.244  -4.290   1.875  1.00  0.00    -0.018 C 
ATOM     73  C   UNL     1     -12.338  -2.943   2.316  1.00  0.00     0.044 C 
BRANCH  72  74
ATOM     74  C   UNL     1     -10.781  -5.693   2.118  1.00  0.00     0.038 C 
ATOM     75  C   UNL     1     -10.341  -6.108   3.527  1.00  0.00     0.015 C 
BRANCH  74  76
ATOM     76  C   UNL     1     -10.279  -6.626   0.976  1.00  0.00     0.128 C 
BRANCH  76  77
ATOM     77  O   UNL     1      -9.925  -7.912   1.513  1.00  0.00    -0.381 OA
ATOM     78  C   UNL     1     -10.613  -8.995   0.903  1.00  0.00     0.195 C 
ENDBRANCH  76  77
BRANCH  76  79
ATOM     79  C   UNL     1     -11.250  -6.726  -0.227  1.00  0.00     0.068 C 
BRANCH  79  80
ATOM     80  C   UNL     1     -11.878  -5.451  -0.736  1.00  0.00    -0.045 A 
ATOM     81  C   UNL     1     -13.228  -5.165  -0.495  1.00  0.00     0.004 A 
ATOM     82  C   UNL     1     -11.121  -4.542  -1.489  1.00  0.00     0.004 A 
ATOM     83  C   UNL     1     -13.805  -3.990  -0.982  1.00  0.00     0.000 A 
ATOM     84  C   UNL     1     -11.699  -3.367  -1.976  1.00  0.00     0.000 A 
ATOM     85  C   UNL     1     -13.040  -3.091  -1.721  1.00  0.00     0.000 A 
ENDBRANCH  79  80
ENDBRANCH  76  79
ENDBRANCH  74  76
ENDBRANCH  72  74
ENDBRANCH  70  71
ENDBRANCH   1  69
TORSDOF 17
ENDMDL
MODEL 45
REMARK VINA RESULT:    -5.964      7.444     12.083
REMARK INTER + INTRA:         -25.431
REMARK INTER:                 -18.036
REMARK INTRA:                  -7.395
REMARK UNBOUND:                -7.614
REMARK SMILES C=C1C(=O)N[C@H](C)C(=O)N[C@@H](CC(C)C)C(=O)N[C@@H](C(=O)O)[C@H](C)C(=O)N[C@@H](CCCN=C(N)N)C(=O)N[C@@H](/C=C/C(C)=C/[C@H](C)[C@H](Cc2ccccc2)OC)[C@H](C)C(=O)N[C@@H](C(=O)O)CCC(=O)N1C
REMARK SMILES IDX 39 1 38 2 37 3 36 4 28 6 27 7 25 8 26 9 23 11 24 12 19 13
REMARK SMILES IDX 18 14 16 15 17 16 11 18 10 19 8 20 9 21 12 24 13 25 14 26
REMARK SMILES IDX 15 27 20 28 21 29 22 30 29 32 30 33 31 34 32 35 33 36 34 37
REMARK SMILES IDX 35 38 57 43 58 44 59 45 60 46 61 47 62 49 66 50 67 51 68 52
REMARK SMILES IDX 69 53 70 54 71 55 2 56 1 57 3 58 4 59 5 60 6 62 7 63 63 65
REMARK SMILES IDX 64 66 65 67 40 69 41 70 42 71 44 72 43 73 45 74 46 75 47 76
REMARK SMILES IDX 55 77 56 78 48 79 49 80 50 81 54 82 51 83 53 84 52 85
REMARK H PARENT 38 5 27 10 18 17 10 22 22 31 34 39 34 40 35 41 35 42 61 48
REMARK H PARENT 5 61 65 68
REMARK Flexibility Score:  369.900
ROOT
ATOM      1  C   UNL     1      -9.021  -2.540   1.314  1.00  0.00     0.117 C 
ENDROOT
BRANCH   1   2
ATOM      2  N   UNL     1     -10.234  -2.292   2.094  1.00  0.00    -0.347 N 
ATOM      3  O   UNL     1     -11.348  -1.019   0.543  1.00  0.00    -0.273 OA
ATOM      4  C   UNL     1     -11.342  -1.626   1.609  1.00  0.00     0.243 C 
ATOM      5  H   UNL     1     -10.305  -2.665   3.029  1.00  0.00     0.164 HD
BRANCH   4   6
ATOM      6  C   UNL     1     -12.525  -1.574   2.609  1.00  0.00     0.171 C 
BRANCH   6   7
ATOM      7  N   UNL     1     -12.048  -1.800   3.983  1.00  0.00    -0.344 N 
ATOM      8  C   UNL     1     -11.914  -3.078   4.479  1.00  0.00     0.226 C 
ATOM      9  O   UNL     1     -12.200  -4.074   3.824  1.00  0.00    -0.275 OA
ATOM     10  H   UNL     1     -11.866  -1.000   4.576  1.00  0.00     0.164 HD
BRANCH   8  11
ATOM     11  C   UNL     1     -11.359  -3.146   5.891  1.00  0.00     0.109 C 
ATOM     12  C   UNL     1     -10.648  -1.838   6.240  1.00  0.00     0.021 C 
BRANCH  11  13
ATOM     13  C   UNL     1     -12.476  -3.558   6.870  1.00  0.00     0.204 C 
BRANCH  13  14
ATOM     14  N   UNL     1     -12.968  -4.914   6.607  1.00  0.00    -0.340 N 
ATOM     15  C   UNL     1     -14.306  -5.209   6.460  1.00  0.00     0.243 C 
ATOM     16  O   UNL     1     -15.180  -4.343   6.479  1.00  0.00    -0.273 OA
ATOM     17  H   UNL     1     -12.317  -5.694   6.729  1.00  0.00     0.164 HD
BRANCH  15  18
ATOM     18  C   UNL     1     -14.602  -6.728   6.398  1.00  0.00     0.171 C 
BRANCH  18  19
ATOM     19  N   UNL     1     -15.076  -7.117   7.725  1.00  0.00    -0.343 N 
ATOM     20  C   UNL     1     -14.206  -7.318   8.779  1.00  0.00     0.242 CG0
ATOM     21  O   UNL     1     -12.988  -7.310   8.619  1.00  0.00    -0.273 OA
ATOM     22  H   UNL     1     -16.069  -7.250   7.879  1.00  0.00     0.164 HD
ATOM     23  G   UNL     1     -14.895  -7.646  10.119  1.00  0.00     0.000 G0
ENDBRANCH  18  19
BRANCH  18  24
ATOM     24  C   UNL     1     -15.646  -7.033   5.317  1.00  0.00     0.038 C 
BRANCH  24  25
ATOM     25  C   UNL     1     -17.049  -7.383   5.856  1.00  0.00    -0.015 C 
ATOM     26  C   UNL     1     -17.469  -8.811   5.510  1.00  0.00     0.007 C 
ATOM     27  C   UNL     1     -18.076  -6.394   5.298  1.00  0.00     0.007 C 
ENDBRANCH  24  25
ENDBRANCH  18  24
ENDBRANCH  15  18
ENDBRANCH  13  14
BRANCH  13  28
ATOM     28  C   UNL     1     -12.040  -3.511   8.338  1.00  0.00     0.327 C 
ATOM     29  O   UNL     1     -12.023  -2.523   9.056  1.00  0.00    -0.250 OA
BRANCH  28  30
ATOM     30  O   UNL     1     -11.539  -4.684   8.779  1.00  0.00    -0.480 OA
ATOM     31  H   UNL     1     -11.963  -5.357   8.206  1.00  0.00     0.296 HD
ENDBRANCH  28  30
ENDBRANCH  13  28
ENDBRANCH  11  13
ENDBRANCH   8  11
ENDBRANCH   6   7
BRANCH   6  32
ATOM     32  C   UNL     1     -13.227  -0.217   2.489  1.00  0.00     0.037 C 
BRANCH  32  33
ATOM     33  C   UNL     1     -13.568   0.382   3.861  1.00  0.00     0.026 C 
BRANCH  33  34
ATOM     34  C   UNL     1     -14.699   1.409   3.786  1.00  0.00     0.146 C 
BRANCH  34  35
ATOM     35  N   UNL     1     -15.143   1.717   5.138  1.00  0.00    -0.254 NA
ATOM     36  C   UNL     1     -16.118   2.534   5.294  1.00  0.00     0.185 C 
ATOM     37  N   UNL     1     -16.539   2.821   6.535  1.00  0.00    -0.370 N 
ATOM     38  N   UNL     1     -16.830   3.187   4.358  1.00  0.00    -0.370 N 
ATOM     39  H   UNL     1     -16.058   2.358   7.296  1.00  0.00     0.159 HD
ATOM     40  H   UNL     1     -17.396   3.308   6.733  1.00  0.00     0.159 HD
ATOM     41  H   UNL     1     -17.482   3.911   4.612  1.00  0.00     0.159 HD
ATOM     42  H   UNL     1     -16.612   3.079   3.380  1.00  0.00     0.159 HD
ENDBRANCH  34  35
ENDBRANCH  33  34
ENDBRANCH  32  33
ENDBRANCH   6  32
ENDBRANCH   4   6
ENDBRANCH   1   2
BRANCH   1  43
ATOM     43  C   UNL     1      -8.874  -4.075   1.101  1.00  0.00     0.102 C 
ATOM     44  C   UNL     1      -9.027  -4.890   2.396  1.00  0.00     0.020 C 
BRANCH  43  45
ATOM     45  C   UNL     1      -7.606  -4.401   0.307  1.00  0.00     0.225 C 
ATOM     46  O   UNL     1      -6.679  -5.064   0.765  1.00  0.00    -0.275 OA
ATOM     47  N   UNL     1      -7.521  -3.821  -0.938  1.00  0.00    -0.342 N 
ATOM     48  H   UNL     1      -8.344  -3.411  -1.357  1.00  0.00     0.164 HD
BRANCH  47  49
ATOM     49  C   UNL     1      -6.381  -4.073  -1.825  1.00  0.00     0.192 C 
BRANCH  49  50
ATOM     50  C   UNL     1      -5.893  -2.752  -2.424  1.00  0.00     0.047 C 
BRANCH  50  51
ATOM     51  C   UNL     1      -4.513  -2.886  -3.084  1.00  0.00     0.103 C 
BRANCH  51  52
ATOM     52  C   UNL     1      -3.877  -1.526  -3.364  1.00  0.00     0.226 C 
ATOM     53  O   UNL     1      -2.697  -1.331  -3.068  1.00  0.00    -0.275 OA
BRANCH  52  54
ATOM     54  N   UNL     1      -4.683  -0.582  -4.029  1.00  0.00    -0.311 N 
ATOM     55  C   UNL     1      -5.168  -0.831  -5.393  1.00  0.00     0.153 C 
BRANCH  54  56
ATOM     56  C   UNL     1      -5.056   0.625  -3.415  1.00  0.00     0.102 C 
ATOM     57  C   UNL     1      -5.817   0.723  -2.313  1.00  0.00     0.043 C 
BRANCH  56  58
ATOM     58  C   UNL     1      -4.569   1.950  -3.951  1.00  0.00     0.268 C 
ATOM     59  O   UNL     1      -3.479   2.095  -4.488  1.00  0.00    -0.268 OA
ATOM     60  N   UNL     1      -5.498   2.955  -3.833  1.00  0.00    -0.339 N 
ATOM     61  H   UNL     1      -6.375   2.756  -3.366  1.00  0.00     0.164 HD
BRANCH  60  62
ATOM     62  C   UNL     1      -5.257   4.304  -4.344  1.00  0.00     0.168 CG0
ATOM     63  C   UNL     1      -5.952   4.514  -5.683  1.00  0.00     0.041 C 
ATOM     64  G   UNL     1      -3.738   4.543  -4.474  1.00  0.00     0.000 G0
ENDBRANCH  60  62
ENDBRANCH  56  58
ENDBRANCH  54  56
ENDBRANCH  52  54
ENDBRANCH  51  52
ENDBRANCH  50  51
ENDBRANCH  49  50
BRANCH  49  65
ATOM     65  C   UNL     1      -6.748  -5.042  -2.960  1.00  0.00     0.326 C 
ATOM     66  O   UNL     1      -6.329  -6.183  -3.083  1.00  0.00    -0.250 OA
BRANCH  65  67
ATOM     67  O   UNL     1      -7.563  -4.521  -3.904  1.00  0.00    -0.480 OA
ATOM     68  H   UNL     1      -8.098  -5.290  -4.197  1.00  0.00     0.296 HD
ENDBRANCH  65  67
ENDBRANCH  49  65
ENDBRANCH  47  49
ENDBRANCH  43  45
ENDBRANCH   1  43
BRANCH   1  69
ATOM     69  C   UNL     1      -7.905  -1.788   2.016  1.00  0.00    -0.001 C 
ATOM     70  C   UNL     1      -6.914  -1.078   1.446  1.00  0.00     0.001 C 
BRANCH  70  71
ATOM     71  C   UNL     1      -5.854  -0.338   2.134  1.00  0.00    -0.055 C 
ATOM     72  C   UNL     1      -5.729  -0.515   3.466  1.00  0.00    -0.018 C 
ATOM     73  C   UNL     1      -4.975   0.561   1.306  1.00  0.00     0.044 C 
BRANCH  72  74
ATOM     74  C   UNL     1      -4.732   0.111   4.431  1.00  0.00     0.038 C 
ATOM     75  C   UNL     1      -3.798  -1.009   4.907  1.00  0.00     0.015 C 
BRANCH  74  76
ATOM     76  C   UNL     1      -5.517   0.832   5.566  1.00  0.00     0.128 C 
BRANCH  76  77
ATOM     77  O   UNL     1      -4.649   1.078   6.685  1.00  0.00    -0.381 OA
ATOM     78  C   UNL     1      -5.301   1.688   7.790  1.00  0.00     0.195 C 
ENDBRANCH  76  77
BRANCH  76  79
ATOM     79  C   UNL     1      -6.269   2.104   5.100  1.00  0.00     0.068 C 
BRANCH  79  80
ATOM     80  C   UNL     1      -7.536   1.923   4.299  1.00  0.00    -0.045 A 
ATOM     81  C   UNL     1      -8.532   1.031   4.716  1.00  0.00     0.004 A 
ATOM     82  C   UNL     1      -7.723   2.631   3.102  1.00  0.00     0.004 A 
ATOM     83  C   UNL     1      -9.695   0.858   3.962  1.00  0.00     0.000 A 
ATOM     84  C   UNL     1      -8.886   2.458   2.349  1.00  0.00     0.000 A 
ATOM     85  C   UNL     1      -9.872   1.573   2.779  1.00  0.00     0.000 A 
ENDBRANCH  79  80
ENDBRANCH  76  79
ENDBRANCH  74  76
ENDBRANCH  72  74
ENDBRANCH  70  71
ENDBRANCH   1  69
TORSDOF 17
ENDMDL
MODEL 46
REMARK VINA RESULT:    -5.957      3.001     10.958
REMARK INTER + INTRA:         -25.411
REMARK INTER:                 -17.602
REMARK INTRA:                  -7.808
REMARK UNBOUND:                -7.614
REMARK SMILES C=C1C(=O)N[C@H](C)C(=O)N[C@@H](CC(C)C)C(=O)N[C@@H](C(=O)O)[C@H](C)C(=O)N[C@@H](CCCN=C(N)N)C(=O)N[C@@H](/C=C/C(C)=C/[C@H](C)[C@H](Cc2ccccc2)OC)[C@H](C)C(=O)N[C@@H](C(=O)O)CCC(=O)N1C
REMARK SMILES IDX 39 1 38 2 37 3 36 4 28 6 27 7 25 8 26 9 23 11 24 12 19 13
REMARK SMILES IDX 18 14 16 15 17 16 11 18 10 19 8 20 9 21 12 24 13 25 14 26
REMARK SMILES IDX 15 27 20 28 21 29 22 30 29 32 30 33 31 34 32 35 33 36 34 37
REMARK SMILES IDX 35 38 57 43 58 44 59 45 60 46 61 47 62 49 66 50 67 51 68 52
REMARK SMILES IDX 69 53 70 54 71 55 2 56 1 57 3 58 4 59 5 60 6 62 7 63 63 65
REMARK SMILES IDX 64 66 65 67 40 69 41 70 42 71 44 72 43 73 45 74 46 75 47 76
REMARK SMILES IDX 55 77 56 78 48 79 49 80 50 81 54 82 51 83 53 84 52 85
REMARK H PARENT 38 5 27 10 18 17 10 22 22 31 34 39 34 40 35 41 35 42 61 48
REMARK H PARENT 5 61 65 68
REMARK Flexibility Score:  369.900
ROOT
ATOM      1  C   UNL     1      -5.692   1.561  -5.453  1.00  0.00     0.117 C 
ENDROOT
BRANCH   1   2
ATOM      2  N   UNL     1      -4.520   0.752  -5.788  1.00  0.00    -0.347 N 
ATOM      3  O   UNL     1      -3.509   2.242  -7.212  1.00  0.00    -0.273 OA
ATOM      4  C   UNL     1      -3.473   1.196  -6.573  1.00  0.00     0.243 C 
ATOM      5  H   UNL     1      -4.427  -0.171  -5.393  1.00  0.00     0.164 HD
BRANCH   4   6
ATOM      6  C   UNL     1      -2.314   0.175  -6.702  1.00  0.00     0.171 C 
BRANCH   6   7
ATOM      7  N   UNL     1      -1.056   0.759  -6.211  1.00  0.00    -0.344 N 
ATOM      8  C   UNL     1       0.103   0.653  -6.948  1.00  0.00     0.226 C 
ATOM      9  O   UNL     1       0.153   0.058  -8.018  1.00  0.00    -0.275 OA
ATOM     10  H   UNL     1      -1.042   1.199  -5.299  1.00  0.00     0.164 HD
BRANCH   8  11
ATOM     11  C   UNL     1       1.302   1.354  -6.333  1.00  0.00     0.109 C 
ATOM     12  C   UNL     1       1.830   0.549  -5.145  1.00  0.00     0.021 C 
BRANCH  11  13
ATOM     13  C   UNL     1       2.346   1.657  -7.426  1.00  0.00     0.204 C 
BRANCH  13  14
ATOM     14  N   UNL     1       1.767   2.395  -8.553  1.00  0.00    -0.340 N 
ATOM     15  C   UNL     1       2.156   2.193  -9.859  1.00  0.00     0.243 C 
ATOM     16  O   UNL     1       2.975   1.333 -10.179  1.00  0.00    -0.273 OA
ATOM     17  H   UNL     1       1.199   3.220  -8.345  1.00  0.00     0.164 HD
BRANCH  15  18
ATOM     18  C   UNL     1       1.562   3.225 -10.849  1.00  0.00     0.171 C 
BRANCH  18  19
ATOM     19  N   UNL     1       2.434   4.397 -10.804  1.00  0.00    -0.343 N 
ATOM     20  C   UNL     1       1.985   5.623 -10.349  1.00  0.00     0.242 CG0
ATOM     21  O   UNL     1       0.801   5.817 -10.087  1.00  0.00    -0.273 OA
ATOM     22  H   UNL     1       3.394   4.316 -11.119  1.00  0.00     0.164 HD
ATOM     23  G   UNL     1       3.069   6.719 -10.300  1.00  0.00     0.000 G0
ENDBRANCH  18  19
BRANCH  18  24
ATOM     24  C   UNL     1       1.483   2.638 -12.263  1.00  0.00     0.038 C 
BRANCH  24  25
ATOM     25  C   UNL     1       1.353   3.684 -13.390  1.00  0.00    -0.015 C 
ATOM     26  C   UNL     1       0.048   3.542 -14.173  1.00  0.00     0.007 C 
ATOM     27  C   UNL     1       2.544   3.563 -14.345  1.00  0.00     0.007 C 
ENDBRANCH  24  25
ENDBRANCH  18  24
ENDBRANCH  15  18
ENDBRANCH  13  14
BRANCH  13  28
ATOM     28  C   UNL     1       3.537   2.472  -6.914  1.00  0.00     0.327 C 
ATOM     29  O   UNL     1       4.716   2.166  -7.007  1.00  0.00    -0.250 OA
BRANCH  28  30
ATOM     30  O   UNL     1       3.169   3.562  -6.212  1.00  0.00    -0.480 OA
ATOM     31  H   UNL     1       3.699   3.510  -5.389  1.00  0.00     0.296 HD
ENDBRANCH  28  30
ENDBRANCH  13  28
ENDBRANCH  11  13
ENDBRANCH   8  11
ENDBRANCH   6   7
BRANCH   6  32
ATOM     32  C   UNL     1      -2.671  -1.093  -5.919  1.00  0.00     0.037 C 
BRANCH  32  33
ATOM     33  C   UNL     1      -1.880  -1.206  -4.608  1.00  0.00     0.026 C 
BRANCH  33  34
ATOM     34  C   UNL     1      -1.323  -2.612  -4.380  1.00  0.00     0.146 C 
BRANCH  34  35
ATOM     35  N   UNL     1      -1.957  -3.184  -3.201  1.00  0.00    -0.254 NA
ATOM     36  C   UNL     1      -1.436  -2.960  -2.053  1.00  0.00     0.185 C 
ATOM     37  N   UNL     1      -2.015  -3.478  -0.959  1.00  0.00    -0.370 N 
ATOM     38  N   UNL     1      -0.337  -2.246  -1.749  1.00  0.00    -0.370 N 
ATOM     39  H   UNL     1      -2.856  -4.021  -1.105  1.00  0.00     0.159 HD
ATOM     40  H   UNL     1      -1.773  -3.208  -0.021  1.00  0.00     0.159 HD
ATOM     41  H   UNL     1       0.052  -2.259  -0.820  1.00  0.00     0.159 HD
ATOM     42  H   UNL     1       0.210  -1.812  -2.476  1.00  0.00     0.159 HD
ENDBRANCH  34  35
ENDBRANCH  33  34
ENDBRANCH  32  33
ENDBRANCH   6  32
ENDBRANCH   4   6
ENDBRANCH   1   2
BRANCH   1  43
ATOM     43  C   UNL     1      -5.549   2.056  -3.985  1.00  0.00     0.102 C 
ATOM     44  C   UNL     1      -5.197   3.549  -3.875  1.00  0.00     0.020 C 
BRANCH  43  45
ATOM     45  C   UNL     1      -4.622   1.138  -3.183  1.00  0.00     0.225 C 
ATOM     46  O   UNL     1      -3.412   1.321  -3.093  1.00  0.00    -0.275 OA
ATOM     47  N   UNL     1      -5.219   0.026  -2.636  1.00  0.00    -0.342 N 
ATOM     48  H   UNL     1      -6.227  -0.030  -2.589  1.00  0.00     0.164 HD
BRANCH  47  49
ATOM     49  C   UNL     1      -4.462  -0.923  -1.812  1.00  0.00     0.192 C 
BRANCH  49  50
ATOM     50  C   UNL     1      -5.364  -2.095  -1.418  1.00  0.00     0.047 C 
BRANCH  50  51
ATOM     51  C   UNL     1      -5.823  -2.912  -2.633  1.00  0.00     0.103 C 
BRANCH  51  52
ATOM     52  C   UNL     1      -6.218  -4.337  -2.251  1.00  0.00     0.226 C 
ATOM     53  O   UNL     1      -5.411  -5.055  -1.656  1.00  0.00    -0.275 OA
BRANCH  52  54
ATOM     54  N   UNL     1      -7.539  -4.721  -2.545  1.00  0.00    -0.311 N 
ATOM     55  C   UNL     1      -7.870  -5.383  -3.814  1.00  0.00     0.153 C 
BRANCH  54  56
ATOM     56  C   UNL     1      -8.587  -4.493  -1.637  1.00  0.00     0.102 C 
ATOM     57  C   UNL     1      -9.418  -3.438  -1.672  1.00  0.00     0.043 C 
BRANCH  56  58
ATOM     58  C   UNL     1      -8.892  -5.486  -0.540  1.00  0.00     0.268 C 
ATOM     59  O   UNL     1      -8.207  -5.602   0.467  1.00  0.00    -0.268 OA
ATOM     60  N   UNL     1     -10.050  -6.194  -0.759  1.00  0.00    -0.339 N 
ATOM     61  H   UNL     1     -10.555  -6.046  -1.625  1.00  0.00     0.164 HD
BRANCH  60  62
ATOM     62  C   UNL     1     -10.564  -7.163   0.208  1.00  0.00     0.168 CG0
ATOM     63  C   UNL     1     -11.619  -6.531   1.107  1.00  0.00     0.041 C 
ATOM     64  G   UNL     1      -9.398  -7.726   1.046  1.00  0.00     0.000 G0
ENDBRANCH  60  62
ENDBRANCH  56  58
ENDBRANCH  54  56
ENDBRANCH  52  54
ENDBRANCH  51  52
ENDBRANCH  50  51
ENDBRANCH  49  50
BRANCH  49  65
ATOM     65  C   UNL     1      -3.910  -0.256  -0.543  1.00  0.00     0.326 C 
ATOM     66  O   UNL     1      -4.582   0.237   0.351  1.00  0.00    -0.250 OA
BRANCH  65  67
ATOM     67  O   UNL     1      -2.562  -0.185  -0.485  1.00  0.00    -0.480 OA
ATOM     68  H   UNL     1      -2.387   0.766  -0.312  1.00  0.00     0.296 HD
ENDBRANCH  65  67
ENDBRANCH  49  65
ENDBRANCH  47  49
ENDBRANCH  43  45
ENDBRANCH   1  43
BRANCH   1  69
ATOM     69  C   UNL     1      -6.904   0.728  -5.832  1.00  0.00    -0.001 C 
ATOM     70  C   UNL     1      -7.124   0.087  -6.993  1.00  0.00     0.001 C 
BRANCH  70  71
ATOM     71  C   UNL     1      -8.288  -0.732  -7.339  1.00  0.00    -0.055 C 
ATOM     72  C   UNL     1      -8.570  -1.788  -6.547  1.00  0.00    -0.018 C 
ATOM     73  C   UNL     1      -9.092  -0.334  -8.548  1.00  0.00     0.044 C 
BRANCH  72  74
ATOM     74  C   UNL     1      -9.702  -2.799  -6.657  1.00  0.00     0.038 C 
ATOM     75  C   UNL     1     -10.425  -2.819  -5.306  1.00  0.00     0.015 C 
BRANCH  74  76
ATOM     76  C   UNL     1      -9.107  -4.169  -7.100  1.00  0.00     0.128 C 
BRANCH  76  77
ATOM     77  O   UNL     1     -10.070  -5.215  -6.883  1.00  0.00    -0.381 OA
ATOM     78  C   UNL     1      -9.543  -6.522  -7.064  1.00  0.00     0.195 C 
ENDBRANCH  76  77
BRANCH  76  79
ATOM     79  C   UNL     1      -8.534  -4.171  -8.540  1.00  0.00     0.068 C 
BRANCH  79  80
ATOM     80  C   UNL     1      -7.135  -3.643  -8.744  1.00  0.00    -0.045 A 
ATOM     81  C   UNL     1      -6.800  -2.908  -9.889  1.00  0.00     0.004 A 
ATOM     82  C   UNL     1      -6.134  -3.908  -7.797  1.00  0.00     0.004 A 
ATOM     83  C   UNL     1      -5.500  -2.436 -10.077  1.00  0.00     0.000 A 
ATOM     84  C   UNL     1      -4.834  -3.435  -7.986  1.00  0.00     0.000 A 
ATOM     85  C   UNL     1      -4.517  -2.698  -9.125  1.00  0.00     0.000 A 
ENDBRANCH  79  80
ENDBRANCH  76  79
ENDBRANCH  74  76
ENDBRANCH  72  74
ENDBRANCH  70  71
ENDBRANCH   1  69
TORSDOF 17
ENDMDL
MODEL 47
REMARK VINA RESULT:    -5.956      4.569     12.592
REMARK INTER + INTRA:         -25.409
REMARK INTER:                 -17.509
REMARK INTRA:                  -7.900
REMARK UNBOUND:                -7.614
REMARK SMILES C=C1C(=O)N[C@H](C)C(=O)N[C@@H](CC(C)C)C(=O)N[C@@H](C(=O)O)[C@H](C)C(=O)N[C@@H](CCCN=C(N)N)C(=O)N[C@@H](/C=C/C(C)=C/[C@H](C)[C@H](Cc2ccccc2)OC)[C@H](C)C(=O)N[C@@H](C(=O)O)CCC(=O)N1C
REMARK SMILES IDX 39 1 38 2 37 3 36 4 28 6 27 7 25 8 26 9 23 11 24 12 19 13
REMARK SMILES IDX 18 14 16 15 17 16 11 18 10 19 8 20 9 21 12 24 13 25 14 26
REMARK SMILES IDX 15 27 20 28 21 29 22 30 29 32 30 33 31 34 32 35 33 36 34 37
REMARK SMILES IDX 35 38 57 43 58 44 59 45 60 46 61 47 62 49 66 50 67 51 68 52
REMARK SMILES IDX 69 53 70 54 71 55 2 56 1 57 3 58 4 59 5 60 6 62 7 63 63 65
REMARK SMILES IDX 64 66 65 67 40 69 41 70 42 71 44 72 43 73 45 74 46 75 47 76
REMARK SMILES IDX 55 77 56 78 48 79 49 80 50 81 54 82 51 83 53 84 52 85
REMARK H PARENT 38 5 27 10 18 17 10 22 22 31 34 39 34 40 35 41 35 42 61 48
REMARK H PARENT 5 61 65 68
REMARK Flexibility Score:  369.900
ROOT
ATOM      1  C   UNL     1      -4.342  -0.044   2.151  1.00  0.00     0.117 C 
ENDROOT
BRANCH   1   2
ATOM      2  N   UNL     1      -4.959  -0.182   0.831  1.00  0.00    -0.347 N 
ATOM      3  O   UNL     1      -5.205   2.052   0.365  1.00  0.00    -0.273 OA
ATOM      4  C   UNL     1      -5.258   0.882   0.002  1.00  0.00     0.243 C 
ATOM      5  H   UNL     1      -5.139  -1.104   0.463  1.00  0.00     0.164 HD
BRANCH   4   6
ATOM      6  C   UNL     1      -5.825   0.458  -1.377  1.00  0.00     0.171 C 
BRANCH   6   7
ATOM      7  N   UNL     1      -4.905   0.854  -2.455  1.00  0.00    -0.344 N 
ATOM      8  C   UNL     1      -5.337   1.659  -3.487  1.00  0.00     0.226 C 
ATOM      9  O   UNL     1      -6.491   2.060  -3.573  1.00  0.00    -0.275 OA
ATOM     10  H   UNL     1      -3.961   0.487  -2.455  1.00  0.00     0.164 HD
BRANCH   8  11
ATOM     11  C   UNL     1      -4.256   2.023  -4.490  1.00  0.00     0.109 C 
ATOM     12  C   UNL     1      -2.902   1.494  -4.020  1.00  0.00     0.021 C 
BRANCH  11  13
ATOM     13  C   UNL     1      -4.678   1.564  -5.900  1.00  0.00     0.204 C 
BRANCH  13  14
ATOM     14  N   UNL     1      -5.796   0.616  -5.861  1.00  0.00    -0.340 N 
ATOM     15  C   UNL     1      -5.966  -0.380  -6.797  1.00  0.00     0.243 C 
ATOM     16  O   UNL     1      -5.155  -0.584  -7.700  1.00  0.00    -0.273 OA
ATOM     17  H   UNL     1      -6.578   0.822  -5.234  1.00  0.00     0.164 HD
BRANCH  15  18
ATOM     18  C   UNL     1      -7.320  -1.121  -6.674  1.00  0.00     0.171 C 
BRANCH  18  19
ATOM     19  N   UNL     1      -7.008  -2.519  -6.386  1.00  0.00    -0.343 N 
ATOM     20  C   UNL     1      -7.312  -3.532  -7.275  1.00  0.00     0.242 CG0
ATOM     21  O   UNL     1      -7.976  -3.322  -8.287  1.00  0.00    -0.273 OA
ATOM     22  H   UNL     1      -6.562  -2.758  -5.507  1.00  0.00     0.164 HD
ATOM     23  G   UNL     1      -6.836  -4.931  -6.832  1.00  0.00     0.000 G0
ENDBRANCH  18  19
BRANCH  18  24
ATOM     24  C   UNL     1      -8.180  -0.497  -5.568  1.00  0.00     0.038 C 
BRANCH  24  25
ATOM     25  C   UNL     1      -9.527  -1.208  -5.320  1.00  0.00    -0.015 C 
ATOM     26  C   UNL     1     -10.454  -1.145  -6.535  1.00  0.00     0.007 C 
ATOM     27  C   UNL     1     -10.223  -0.583  -4.108  1.00  0.00     0.007 C 
ENDBRANCH  24  25
ENDBRANCH  18  24
ENDBRANCH  15  18
ENDBRANCH  13  14
BRANCH  13  28
ATOM     28  C   UNL     1      -5.096   2.722  -6.812  1.00  0.00     0.327 C 
ATOM     29  O   UNL     1      -4.439   3.196  -7.726  1.00  0.00    -0.250 OA
BRANCH  28  30
ATOM     30  O   UNL     1      -6.263   3.289  -6.445  1.00  0.00    -0.480 OA
ATOM     31  H   UNL     1      -6.931   2.860  -7.018  1.00  0.00     0.296 HD
ENDBRANCH  28  30
ENDBRANCH  13  28
ENDBRANCH  11  13
ENDBRANCH   8  11
ENDBRANCH   6   7
BRANCH   6  32
ATOM     32  C   UNL     1      -6.054  -1.057  -1.382  1.00  0.00     0.037 C 
BRANCH  32  33
ATOM     33  C   UNL     1      -6.246  -1.609  -2.802  1.00  0.00     0.026 C 
BRANCH  33  34
ATOM     34  C   UNL     1      -5.078  -2.488  -3.251  1.00  0.00     0.146 C 
BRANCH  34  35
ATOM     35  N   UNL     1      -4.503  -1.922  -4.464  1.00  0.00    -0.254 NA
ATOM     36  C   UNL     1      -3.262  -2.126  -4.708  1.00  0.00     0.185 C 
ATOM     37  N   UNL     1      -2.723  -1.613  -5.825  1.00  0.00    -0.370 N 
ATOM     38  N   UNL     1      -2.360  -2.812  -3.985  1.00  0.00    -0.370 N 
ATOM     39  H   UNL     1      -3.344  -1.090  -6.430  1.00  0.00     0.159 HD
ATOM     40  H   UNL     1      -1.816  -1.870  -6.174  1.00  0.00     0.159 HD
ATOM     41  H   UNL     1      -1.379  -2.783  -4.212  1.00  0.00     0.159 HD
ATOM     42  H   UNL     1      -2.622  -3.239  -3.110  1.00  0.00     0.159 HD
ENDBRANCH  34  35
ENDBRANCH  33  34
ENDBRANCH  32  33
ENDBRANCH   6  32
ENDBRANCH   4   6
ENDBRANCH   1   2
BRANCH   1  43
ATOM     43  C   UNL     1      -3.689  -1.403   2.536  1.00  0.00     0.102 C 
ATOM     44  C   UNL     1      -4.636  -2.604   2.377  1.00  0.00     0.020 C 
BRANCH  43  45
ATOM     45  C   UNL     1      -3.016  -1.319   3.910  1.00  0.00     0.225 C 
ATOM     46  O   UNL     1      -3.395  -1.966   4.883  1.00  0.00    -0.275 OA
ATOM     47  N   UNL     1      -2.005  -0.393   4.019  1.00  0.00    -0.342 N 
ATOM     48  H   UNL     1      -1.608   0.015   3.184  1.00  0.00     0.164 HD
BRANCH  47  49
ATOM     49  C   UNL     1      -1.247  -0.228   5.263  1.00  0.00     0.192 C 
BRANCH  49  50
ATOM     50  C   UNL     1      -1.470   1.181   5.818  1.00  0.00     0.047 C 
BRANCH  50  51
ATOM     51  C   UNL     1      -2.944   1.605   5.756  1.00  0.00     0.103 C 
BRANCH  51  52
ATOM     52  C   UNL     1      -3.201   2.900   6.524  1.00  0.00     0.226 C 
ATOM     53  O   UNL     1      -2.642   3.940   6.171  1.00  0.00    -0.275 OA
BRANCH  52  54
ATOM     54  N   UNL     1      -4.144   2.834   7.566  1.00  0.00    -0.311 N 
ATOM     55  C   UNL     1      -4.426   1.565   8.252  1.00  0.00     0.153 C 
BRANCH  54  56
ATOM     56  C   UNL     1      -4.845   3.974   7.994  1.00  0.00     0.102 C 
ATOM     57  C   UNL     1      -5.955   4.456   7.412  1.00  0.00     0.043 C 
BRANCH  56  58
ATOM     58  C   UNL     1      -4.403   4.742   9.217  1.00  0.00     0.268 C 
ATOM     59  O   UNL     1      -3.488   5.554   9.203  1.00  0.00    -0.268 OA
ATOM     60  N   UNL     1      -5.174   4.483  10.325  1.00  0.00    -0.339 N 
ATOM     61  H   UNL     1      -5.908   3.788  10.257  1.00  0.00     0.164 HD
BRANCH  60  62
ATOM     62  C   UNL     1      -4.960   5.166  11.600  1.00  0.00     0.168 CG0
ATOM     63  C   UNL     1      -6.248   5.805  12.102  1.00  0.00     0.041 C 
ATOM     64  G   UNL     1      -3.851   6.227  11.438  1.00  0.00     0.000 G0
ENDBRANCH  60  62
ENDBRANCH  56  58
ENDBRANCH  54  56
ENDBRANCH  52  54
ENDBRANCH  51  52
ENDBRANCH  50  51
ENDBRANCH  49  50
BRANCH  49  65
ATOM     65  C   UNL     1       0.256  -0.458   5.046  1.00  0.00     0.326 C 
ATOM     66  O   UNL     1       0.770  -0.876   4.019  1.00  0.00    -0.250 OA
BRANCH  65  67
ATOM     67  O   UNL     1       1.026  -0.215   6.130  1.00  0.00    -0.480 OA
ATOM     68  H   UNL     1       0.728  -0.886   6.781  1.00  0.00     0.296 HD
ENDBRANCH  65  67
ENDBRANCH  49  65
ENDBRANCH  47  49
ENDBRANCH  43  45
ENDBRANCH   1  43
BRANCH   1  69
ATOM     69  C   UNL     1      -5.410   0.540   3.058  1.00  0.00    -0.001 C 
ATOM     70  C   UNL     1      -6.414  -0.116   3.666  1.00  0.00     0.001 C 
BRANCH  70  71
ATOM     71  C   UNL     1      -7.426   0.455   4.557  1.00  0.00    -0.055 C 
ATOM     72  C   UNL     1      -8.467  -0.328   4.908  1.00  0.00    -0.018 C 
ATOM     73  C   UNL     1      -7.230   1.874   5.024  1.00  0.00     0.044 C 
BRANCH  72  74
ATOM     74  C   UNL     1      -9.651  -0.010   5.810  1.00  0.00     0.038 C 
ATOM     75  C   UNL     1      -9.320  -0.561   7.203  1.00  0.00     0.015 C 
BRANCH  74  76
ATOM     76  C   UNL     1     -10.943  -0.594   5.167  1.00  0.00     0.128 C 
BRANCH  76  77
ATOM     77  O   UNL     1     -11.921  -0.861   6.185  1.00  0.00    -0.381 OA
ATOM     78  C   UNL     1     -13.229  -1.085   5.676  1.00  0.00     0.195 C 
ENDBRANCH  76  77
BRANCH  76  79
ATOM     79  C   UNL     1     -11.506   0.258   4.002  1.00  0.00     0.068 C 
BRANCH  79  80
ATOM     80  C   UNL     1     -10.568   0.631   2.880  1.00  0.00    -0.045 A 
ATOM     81  C   UNL     1     -10.106   1.945   2.732  1.00  0.00     0.004 A 
ATOM     82  C   UNL     1     -10.164  -0.335   1.945  1.00  0.00     0.004 A 
ATOM     83  C   UNL     1      -9.249   2.285   1.683  1.00  0.00     0.000 A 
ATOM     84  C   UNL     1      -9.307   0.006   0.896  1.00  0.00     0.000 A 
ATOM     85  C   UNL     1      -8.849   1.315   0.766  1.00  0.00     0.000 A 
ENDBRANCH  79  80
ENDBRANCH  76  79
ENDBRANCH  74  76
ENDBRANCH  72  74
ENDBRANCH  70  71
ENDBRANCH   1  69
TORSDOF 17
ENDMDL
MODEL 48
REMARK VINA RESULT:    -5.943     10.047     16.287
REMARK INTER + INTRA:         -25.370
REMARK INTER:                 -18.835
REMARK INTRA:                  -6.535
REMARK UNBOUND:                -7.614
REMARK SMILES C=C1C(=O)N[C@H](C)C(=O)N[C@@H](CC(C)C)C(=O)N[C@@H](C(=O)O)[C@H](C)C(=O)N[C@@H](CCCN=C(N)N)C(=O)N[C@@H](/C=C/C(C)=C/[C@H](C)[C@H](Cc2ccccc2)OC)[C@H](C)C(=O)N[C@@H](C(=O)O)CCC(=O)N1C
REMARK SMILES IDX 39 1 38 2 37 3 36 4 28 6 27 7 25 8 26 9 23 11 24 12 19 13
REMARK SMILES IDX 18 14 16 15 17 16 11 18 10 19 8 20 9 21 12 24 13 25 14 26
REMARK SMILES IDX 15 27 20 28 21 29 22 30 29 32 30 33 31 34 32 35 33 36 34 37
REMARK SMILES IDX 35 38 57 43 58 44 59 45 60 46 61 47 62 49 66 50 67 51 68 52
REMARK SMILES IDX 69 53 70 54 71 55 2 56 1 57 3 58 4 59 5 60 6 62 7 63 63 65
REMARK SMILES IDX 64 66 65 67 40 69 41 70 42 71 44 72 43 73 45 74 46 75 47 76
REMARK SMILES IDX 55 77 56 78 48 79 49 80 50 81 54 82 51 83 53 84 52 85
REMARK H PARENT 38 5 27 10 18 17 10 22 22 31 34 39 34 40 35 41 35 42 61 48
REMARK H PARENT 5 61 65 68
REMARK Flexibility Score:  369.900
ROOT
ATOM      1  C   UNL     1     -11.545  -1.778   7.887  1.00  0.00     0.117 C 
ENDROOT
BRANCH   1   2
ATOM      2  N   UNL     1     -12.271  -3.006   7.558  1.00  0.00    -0.347 N 
ATOM      3  O   UNL     1     -11.559  -4.275   9.334  1.00  0.00    -0.273 OA
ATOM      4  C   UNL     1     -12.292  -4.130   8.361  1.00  0.00     0.243 C 
ATOM      5  H   UNL     1     -12.836  -3.037   6.724  1.00  0.00     0.164 HD
BRANCH   4   6
ATOM      6  C   UNL     1     -13.206  -5.261   7.825  1.00  0.00     0.171 C 
BRANCH   6   7
ATOM      7  N   UNL     1     -12.839  -5.607   6.442  1.00  0.00    -0.344 N 
ATOM      8  C   UNL     1     -13.549  -5.095   5.378  1.00  0.00     0.226 C 
ATOM      9  O   UNL     1     -14.517  -4.358   5.523  1.00  0.00    -0.275 OA
ATOM     10  H   UNL     1     -12.088  -6.267   6.285  1.00  0.00     0.164 HD
BRANCH   8  11
ATOM     11  C   UNL     1     -13.014  -5.502   4.016  1.00  0.00     0.109 C 
ATOM     12  C   UNL     1     -14.110  -6.196   3.207  1.00  0.00     0.021 C 
BRANCH  11  13
ATOM     13  C   UNL     1     -12.370  -4.284   3.324  1.00  0.00     0.204 C 
BRANCH  13  14
ATOM     14  N   UNL     1     -13.222  -3.094   3.395  1.00  0.00    -0.340 N 
ATOM     15  C   UNL     1     -13.328  -2.186   2.364  1.00  0.00     0.243 C 
ATOM     16  O   UNL     1     -12.759  -2.342   1.285  1.00  0.00    -0.273 OA
ATOM     17  H   UNL     1     -13.599  -2.826   4.309  1.00  0.00     0.164 HD
BRANCH  15  18
ATOM     18  C   UNL     1     -14.117  -0.908   2.743  1.00  0.00     0.171 C 
BRANCH  18  19
ATOM     19  N   UNL     1     -15.434  -1.031   2.122  1.00  0.00    -0.343 N 
ATOM     20  C   UNL     1     -15.780  -0.307   0.997  1.00  0.00     0.242 CG0
ATOM     21  O   UNL     1     -15.046   0.570   0.545  1.00  0.00    -0.273 OA
ATOM     22  H   UNL     1     -16.119  -1.659   2.527  1.00  0.00     0.164 HD
ATOM     23  G   UNL     1     -17.182  -0.628   0.439  1.00  0.00     0.000 G0
ENDBRANCH  18  19
BRANCH  18  24
ATOM     24  C   UNL     1     -14.225  -0.770   4.266  1.00  0.00     0.038 C 
BRANCH  24  25
ATOM     25  C   UNL     1     -14.335   0.683   4.776  1.00  0.00    -0.015 C 
ATOM     26  C   UNL     1     -15.764   1.058   5.167  1.00  0.00     0.007 C 
ATOM     27  C   UNL     1     -13.826   1.645   3.700  1.00  0.00     0.007 C 
ENDBRANCH  24  25
ENDBRANCH  18  24
ENDBRANCH  15  18
ENDBRANCH  13  14
BRANCH  13  28
ATOM     28  C   UNL     1     -11.009  -3.904   3.916  1.00  0.00     0.327 C 
ATOM     29  O   UNL     1     -10.618  -4.151   5.046  1.00  0.00    -0.250 OA
BRANCH  28  30
ATOM     30  O   UNL     1     -10.270  -3.134   3.091  1.00  0.00    -0.480 OA
ATOM     31  H   UNL     1      -9.935  -2.416   3.667  1.00  0.00     0.296 HD
ENDBRANCH  28  30
ENDBRANCH  13  28
ENDBRANCH  11  13
ENDBRANCH   8  11
ENDBRANCH   6   7
BRANCH   6  32
ATOM     32  C   UNL     1     -13.088  -6.482   8.744  1.00  0.00     0.037 C 
BRANCH  32  33
ATOM     33  C   UNL     1     -14.458  -7.092   9.076  1.00  0.00     0.026 C 
BRANCH  33  34
ATOM     34  C   UNL     1     -15.604  -6.382   8.354  1.00  0.00     0.146 C 
BRANCH  34  35
ATOM     35  N   UNL     1     -15.966  -7.156   7.174  1.00  0.00    -0.254 NA
ATOM     36  C   UNL     1     -16.869  -8.057   7.284  1.00  0.00     0.185 C 
ATOM     37  N   UNL     1     -17.214  -8.772   6.201  1.00  0.00    -0.370 N 
ATOM     38  N   UNL     1     -17.569  -8.424   8.372  1.00  0.00    -0.370 N 
ATOM     39  H   UNL     1     -16.737  -8.547   5.338  1.00  0.00     0.159 HD
ATOM     40  H   UNL     1     -18.023  -9.368   6.163  1.00  0.00     0.159 HD
ATOM     41  H   UNL     1     -18.154  -9.243   8.363  1.00  0.00     0.159 HD
ATOM     42  H   UNL     1     -17.402  -7.981   9.262  1.00  0.00     0.159 HD
ENDBRANCH  34  35
ENDBRANCH  33  34
ENDBRANCH  32  33
ENDBRANCH   6  32
ENDBRANCH   4   6
ENDBRANCH   1   2
BRANCH   1  43
ATOM     43  C   UNL     1     -12.465  -0.879   8.763  1.00  0.00     0.102 C 
ATOM     44  C   UNL     1     -13.706  -0.362   8.015  1.00  0.00     0.020 C 
BRANCH  43  45
ATOM     45  C   UNL     1     -11.657   0.220   9.461  1.00  0.00     0.225 C 
ATOM     46  O   UNL     1     -11.668   1.393   9.099  1.00  0.00    -0.275 OA
ATOM     47  N   UNL     1     -10.833  -0.206  10.477  1.00  0.00    -0.342 N 
ATOM     48  H   UNL     1     -10.948  -1.135  10.859  1.00  0.00     0.164 HD
BRANCH  47  49
ATOM     49  C   UNL     1     -10.028   0.738  11.257  1.00  0.00     0.192 C 
BRANCH  49  50
ATOM     50  C   UNL     1      -8.599   0.205  11.395  1.00  0.00     0.047 C 
BRANCH  50  51
ATOM     51  C   UNL     1      -7.547   1.307  11.213  1.00  0.00     0.103 C 
BRANCH  51  52
ATOM     52  C   UNL     1      -6.127   0.784  11.420  1.00  0.00     0.226 C 
ATOM     53  O   UNL     1      -5.953  -0.317  11.946  1.00  0.00    -0.275 OA
BRANCH  52  54
ATOM     54  N   UNL     1      -5.085   1.583  10.914  1.00  0.00    -0.311 N 
ATOM     55  C   UNL     1      -5.165   2.168   9.569  1.00  0.00     0.153 C 
BRANCH  54  56
ATOM     56  C   UNL     1      -3.935   1.855  11.675  1.00  0.00     0.102 C 
ATOM     57  C   UNL     1      -3.821   2.855  12.564  1.00  0.00     0.043 C 
BRANCH  56  58
ATOM     58  C   UNL     1      -2.711   0.976  11.572  1.00  0.00     0.268 C 
ATOM     59  O   UNL     1      -2.529   0.187  10.654  1.00  0.00    -0.268 OA
ATOM     60  N   UNL     1      -1.799   1.200  12.575  1.00  0.00    -0.339 N 
ATOM     61  H   UNL     1      -2.030   1.863  13.304  1.00  0.00     0.164 HD
BRANCH  60  62
ATOM     62  C   UNL     1      -0.516   0.501  12.631  1.00  0.00     0.168 CG0
ATOM     63  C   UNL     1      -0.602  -0.729  13.526  1.00  0.00     0.041 C 
ATOM     64  G   UNL     1       0.577   1.466  13.133  1.00  0.00     0.000 G0
ENDBRANCH  60  62
ENDBRANCH  56  58
ENDBRANCH  54  56
ENDBRANCH  52  54
ENDBRANCH  51  52
ENDBRANCH  50  51
ENDBRANCH  49  50
BRANCH  49  65
ATOM     65  C   UNL     1     -10.622   0.969  12.655  1.00  0.00     0.326 C 
ATOM     66  O   UNL     1     -10.001   0.927  13.707  1.00  0.00    -0.250 OA
BRANCH  65  67
ATOM     67  O   UNL     1     -11.957   1.177  12.673  1.00  0.00    -0.480 OA
ATOM     68  H   UNL     1     -12.225   1.043  11.738  1.00  0.00     0.296 HD
ENDBRANCH  65  67
ENDBRANCH  49  65
ENDBRANCH  47  49
ENDBRANCH  43  45
ENDBRANCH   1  43
BRANCH   1  69
ATOM     69  C   UNL     1     -11.020  -1.231   6.573  1.00  0.00    -0.001 C 
ATOM     70  C   UNL     1     -10.085  -0.280   6.399  1.00  0.00     0.001 C 
BRANCH  70  71
ATOM     71  C   UNL     1      -9.571   0.225   5.124  1.00  0.00    -0.055 C 
ATOM     72  C   UNL     1      -8.309   0.704   5.102  1.00  0.00    -0.018 C 
ATOM     73  C   UNL     1     -10.484   0.168   3.927  1.00  0.00     0.044 C 
BRANCH  72  74
ATOM     74  C   UNL     1      -7.519   1.282   3.937  1.00  0.00     0.038 C 
ATOM     75  C   UNL     1      -8.342   2.441   3.363  1.00  0.00     0.015 C 
BRANCH  74  76
ATOM     76  C   UNL     1      -7.208   0.139   2.926  1.00  0.00     0.128 C 
BRANCH  76  77
ATOM     77  O   UNL     1      -6.614   0.685   1.736  1.00  0.00    -0.381 OA
ATOM     78  C   UNL     1      -7.305   0.338   0.543  1.00  0.00     0.195 C 
ENDBRANCH  76  77
BRANCH  76  79
ATOM     79  C   UNL     1      -6.382  -1.026   3.528  1.00  0.00     0.068 C 
BRANCH  79  80
ATOM     80  C   UNL     1      -5.187  -0.677   4.382  1.00  0.00    -0.045 A 
ATOM     81  C   UNL     1      -4.033  -0.119   3.816  1.00  0.00     0.004 A 
ATOM     82  C   UNL     1      -5.204  -0.936   5.761  1.00  0.00     0.004 A 
ATOM     83  C   UNL     1      -2.927   0.187   4.611  1.00  0.00     0.000 A 
ATOM     84  C   UNL     1      -4.096  -0.630   6.555  1.00  0.00     0.000 A 
ATOM     85  C   UNL     1      -2.959  -0.067   5.981  1.00  0.00     0.000 A 
ENDBRANCH  79  80
ENDBRANCH  76  79
ENDBRANCH  74  76
ENDBRANCH  72  74
ENDBRANCH  70  71
ENDBRANCH   1  69
TORSDOF 17
ENDMDL
MODEL 49
REMARK VINA RESULT:    -5.940      3.712      8.927
REMARK INTER + INTRA:         -25.361
REMARK INTER:                 -19.507
REMARK INTRA:                  -5.854
REMARK UNBOUND:                -7.614
REMARK SMILES C=C1C(=O)N[C@H](C)C(=O)N[C@@H](CC(C)C)C(=O)N[C@@H](C(=O)O)[C@H](C)C(=O)N[C@@H](CCCN=C(N)N)C(=O)N[C@@H](/C=C/C(C)=C/[C@H](C)[C@H](Cc2ccccc2)OC)[C@H](C)C(=O)N[C@@H](C(=O)O)CCC(=O)N1C
REMARK SMILES IDX 39 1 38 2 37 3 36 4 28 6 27 7 25 8 26 9 23 11 24 12 19 13
REMARK SMILES IDX 18 14 16 15 17 16 11 18 10 19 8 20 9 21 12 24 13 25 14 26
REMARK SMILES IDX 15 27 20 28 21 29 22 30 29 32 30 33 31 34 32 35 33 36 34 37
REMARK SMILES IDX 35 38 57 43 58 44 59 45 60 46 61 47 62 49 66 50 67 51 68 52
REMARK SMILES IDX 69 53 70 54 71 55 2 56 1 57 3 58 4 59 5 60 6 62 7 63 63 65
REMARK SMILES IDX 64 66 65 67 40 69 41 70 42 71 44 72 43 73 45 74 46 75 47 76
REMARK SMILES IDX 55 77 56 78 48 79 49 80 50 81 54 82 51 83 53 84 52 85
REMARK H PARENT 38 5 27 10 18 17 10 22 22 31 34 39 34 40 35 41 35 42 61 48
REMARK H PARENT 5 61 65 68
REMARK Flexibility Score:  369.900
ROOT
ATOM      1  C   UNL     1      -1.142  -1.496  -0.218  1.00  0.00     0.117 C 
ENDROOT
BRANCH   1   2
ATOM      2  N   UNL     1      -1.990  -1.559  -1.409  1.00  0.00    -0.347 N 
ATOM      3  O   UNL     1      -2.041  -3.842  -1.637  1.00  0.00    -0.273 OA
ATOM      4  C   UNL     1      -2.448  -2.734  -1.971  1.00  0.00     0.243 C 
ATOM      5  H   UNL     1      -2.312  -0.701  -1.832  1.00  0.00     0.164 HD
BRANCH   4   6
ATOM      6  C   UNL     1      -3.401  -2.520  -3.175  1.00  0.00     0.171 C 
BRANCH   6   7
ATOM      7  N   UNL     1      -4.782  -2.316  -2.708  1.00  0.00    -0.344 N 
ATOM      8  C   UNL     1      -5.581  -3.391  -2.386  1.00  0.00     0.226 C 
ATOM      9  O   UNL     1      -5.200  -4.551  -2.489  1.00  0.00    -0.275 OA
ATOM     10  H   UNL     1      -5.154  -1.375  -2.674  1.00  0.00     0.164 HD
BRANCH   8  11
ATOM     11  C   UNL     1      -6.958  -3.014  -1.869  1.00  0.00     0.109 C 
ATOM     12  C   UNL     1      -7.468  -1.767  -2.592  1.00  0.00     0.021 C 
BRANCH  11  13
ATOM     13  C   UNL     1      -7.895  -4.236  -1.944  1.00  0.00     0.204 C 
BRANCH  13  14
ATOM     14  N   UNL     1      -8.833  -4.282  -0.817  1.00  0.00    -0.340 N 
ATOM     15  C   UNL     1      -8.540  -4.910   0.374  1.00  0.00     0.243 C 
ATOM     16  O   UNL     1      -7.446  -5.425   0.598  1.00  0.00    -0.273 OA
ATOM     17  H   UNL     1      -9.804  -4.009  -0.989  1.00  0.00     0.164 HD
BRANCH  15  18
ATOM     18  C   UNL     1      -9.751  -5.010   1.334  1.00  0.00     0.171 C 
BRANCH  18  19
ATOM     19  N   UNL     1      -9.365  -5.931   2.401  1.00  0.00    -0.343 N 
ATOM     20  C   UNL     1      -9.757  -7.256   2.398  1.00  0.00     0.242 CG0
ATOM     21  O   UNL     1     -10.558  -7.688   1.571  1.00  0.00    -0.273 OA
ATOM     22  H   UNL     1      -8.798  -5.592   3.170  1.00  0.00     0.164 HD
ATOM     23  G   UNL     1      -9.188  -8.092   3.563  1.00  0.00     0.000 G0
ENDBRANCH  18  19
BRANCH  18  24
ATOM     24  C   UNL     1     -10.118  -3.629   1.890  1.00  0.00     0.038 C 
BRANCH  24  25
ATOM     25  C   UNL     1      -8.928  -2.827   2.459  1.00  0.00    -0.015 C 
ATOM     26  C   UNL     1      -9.122  -2.455   3.929  1.00  0.00     0.007 C 
ATOM     27  C   UNL     1      -8.720  -1.557   1.629  1.00  0.00     0.007 C 
ENDBRANCH  24  25
ENDBRANCH  18  24
ENDBRANCH  15  18
ENDBRANCH  13  14
BRANCH  13  28
ATOM     28  C   UNL     1      -8.728  -4.280  -3.229  1.00  0.00     0.327 C 
ATOM     29  O   UNL     1      -8.305  -4.480  -4.357  1.00  0.00    -0.250 OA
BRANCH  28  30
ATOM     30  O   UNL     1     -10.021  -3.952  -3.032  1.00  0.00    -0.480 OA
ATOM     31  H   UNL     1     -10.075  -3.744  -2.076  1.00  0.00     0.296 HD
ENDBRANCH  28  30
ENDBRANCH  13  28
ENDBRANCH  11  13
ENDBRANCH   8  11
ENDBRANCH   6   7
BRANCH   6  32
ATOM     32  C   UNL     1      -2.916  -1.318  -3.993  1.00  0.00     0.037 C 
BRANCH  32  33
ATOM     33  C   UNL     1      -3.938  -0.172  -4.000  1.00  0.00     0.026 C 
BRANCH  33  34
ATOM     34  C   UNL     1      -3.309   1.170  -4.375  1.00  0.00     0.146 C 
BRANCH  34  35
ATOM     35  N   UNL     1      -3.210   1.993  -3.177  1.00  0.00    -0.254 NA
ATOM     36  C   UNL     1      -4.169   2.796  -2.902  1.00  0.00     0.185 C 
ATOM     37  N   UNL     1      -4.090   3.555  -1.798  1.00  0.00    -0.370 N 
ATOM     38  N   UNL     1      -5.310   3.013  -3.580  1.00  0.00    -0.370 N 
ATOM     39  H   UNL     1      -3.263   3.441  -1.227  1.00  0.00     0.159 HD
ATOM     40  H   UNL     1      -4.866   4.074  -1.423  1.00  0.00     0.159 HD
ATOM     41  H   UNL     1      -5.924   3.773  -3.337  1.00  0.00     0.159 HD
ATOM     42  H   UNL     1      -5.496   2.522  -4.441  1.00  0.00     0.159 HD
ENDBRANCH  34  35
ENDBRANCH  33  34
ENDBRANCH  32  33
ENDBRANCH   6  32
ENDBRANCH   4   6
ENDBRANCH   1   2
BRANCH   1  43
ATOM     43  C   UNL     1       0.046  -2.483  -0.404  1.00  0.00     0.102 C 
ATOM     44  C   UNL     1       0.750  -2.848   0.914  1.00  0.00     0.020 C 
BRANCH  43  45
ATOM     45  C   UNL     1       0.997  -1.999  -1.503  1.00  0.00     0.225 C 
ATOM     46  O   UNL     1       1.791  -1.076  -1.344  1.00  0.00    -0.275 OA
ATOM     47  N   UNL     1       0.843  -2.606  -2.728  1.00  0.00    -0.342 N 
ATOM     48  H   UNL     1       0.301  -3.455  -2.802  1.00  0.00     0.164 HD
BRANCH  47  49
ATOM     49  C   UNL     1       1.708  -2.268  -3.864  1.00  0.00     0.192 C 
BRANCH  49  50
ATOM     50  C   UNL     1       1.125  -1.069  -4.615  1.00  0.00     0.047 C 
BRANCH  50  51
ATOM     51  C   UNL     1       2.059   0.149  -4.579  1.00  0.00     0.103 C 
BRANCH  51  52
ATOM     52  C   UNL     1       2.602   0.496  -5.964  1.00  0.00     0.226 C 
ATOM     53  O   UNL     1       2.698  -0.385  -6.820  1.00  0.00    -0.275 OA
BRANCH  52  54
ATOM     54  N   UNL     1       2.897   1.852  -6.200  1.00  0.00    -0.311 N 
ATOM     55  C   UNL     1       4.005   2.518  -5.503  1.00  0.00     0.153 C 
BRANCH  54  56
ATOM     56  C   UNL     1       2.149   2.615  -7.112  1.00  0.00     0.102 C 
ATOM     57  C   UNL     1       0.949   3.161  -6.855  1.00  0.00     0.043 C 
BRANCH  56  58
ATOM     58  C   UNL     1       2.688   2.924  -8.489  1.00  0.00     0.268 C 
ATOM     59  O   UNL     1       3.713   2.425  -8.935  1.00  0.00    -0.268 OA
ATOM     60  N   UNL     1       1.878   3.769  -9.209  1.00  0.00    -0.339 N 
ATOM     61  H   UNL     1       1.052   4.149  -8.764  1.00  0.00     0.164 HD
BRANCH  60  62
ATOM     62  C   UNL     1       2.180   4.150 -10.589  1.00  0.00     0.168 CG0
ATOM     63  C   UNL     1       2.655   5.596 -10.665  1.00  0.00     0.041 C 
ATOM     64  G   UNL     1       0.931   3.938 -11.468  1.00  0.00     0.000 G0
ENDBRANCH  60  62
ENDBRANCH  56  58
ENDBRANCH  54  56
ENDBRANCH  52  54
ENDBRANCH  51  52
ENDBRANCH  50  51
ENDBRANCH  49  50
BRANCH  49  65
ATOM     65  C   UNL     1       1.858  -3.452  -4.832  1.00  0.00     0.326 C 
ATOM     66  O   UNL     1       2.673  -3.528  -5.741  1.00  0.00    -0.250 OA
BRANCH  65  67
ATOM     67  O   UNL     1       0.953  -4.441  -4.659  1.00  0.00    -0.480 OA
ATOM     68  H   UNL     1       0.484  -4.183  -3.836  1.00  0.00     0.296 HD
ENDBRANCH  65  67
ENDBRANCH  49  65
ENDBRANCH  47  49
ENDBRANCH  43  45
ENDBRANCH   1  43
BRANCH   1  69
ATOM     69  C   UNL     1      -2.068  -1.678   0.971  1.00  0.00    -0.001 C 
ATOM     70  C   UNL     1      -3.401  -1.855   0.950  1.00  0.00     0.001 C 
BRANCH  70  71
ATOM     71  C   UNL     1      -4.281  -2.051   2.104  1.00  0.00    -0.055 C 
ATOM     72  C   UNL     1      -4.119  -1.230   3.163  1.00  0.00    -0.018 C 
ATOM     73  C   UNL     1      -5.310  -3.148   2.024  1.00  0.00     0.044 C 
BRANCH  72  74
ATOM     74  C   UNL     1      -4.879  -1.197   4.481  1.00  0.00     0.038 C 
ATOM     75  C   UNL     1      -6.092  -0.281   4.281  1.00  0.00     0.015 C 
BRANCH  74  76
ATOM     76  C   UNL     1      -3.904  -0.753   5.611  1.00  0.00     0.128 C 
BRANCH  76  77
ATOM     77  O   UNL     1      -4.621  -0.610   6.849  1.00  0.00    -0.381 OA
ATOM     78  C   UNL     1      -4.148   0.455   7.663  1.00  0.00     0.195 C 
ENDBRANCH  76  77
BRANCH  76  79
ATOM     79  C   UNL     1      -2.647  -1.647   5.746  1.00  0.00     0.068 C 
BRANCH  79  80
ATOM     80  C   UNL     1      -1.322  -1.077   5.299  1.00  0.00    -0.045 A 
ATOM     81  C   UNL     1      -1.028   0.282   5.467  1.00  0.00     0.004 A 
ATOM     82  C   UNL     1      -0.371  -1.901   4.678  1.00  0.00     0.004 A 
ATOM     83  C   UNL     1       0.194   0.805   5.038  1.00  0.00     0.000 A 
ATOM     84  C   UNL     1       0.850  -1.377   4.249  1.00  0.00     0.000 A 
ATOM     85  C   UNL     1       1.133  -0.025   4.430  1.00  0.00     0.000 A 
ENDBRANCH  79  80
ENDBRANCH  76  79
ENDBRANCH  74  76
ENDBRANCH  72  74
ENDBRANCH  70  71
ENDBRANCH   1  69
TORSDOF 17
ENDMDL
MODEL 50
REMARK VINA RESULT:    -5.939      8.393     13.499
REMARK INTER + INTRA:         -25.357
REMARK INTER:                 -18.699
REMARK INTRA:                  -6.658
REMARK UNBOUND:                -7.614
REMARK SMILES C=C1C(=O)N[C@H](C)C(=O)N[C@@H](CC(C)C)C(=O)N[C@@H](C(=O)O)[C@H](C)C(=O)N[C@@H](CCCN=C(N)N)C(=O)N[C@@H](/C=C/C(C)=C/[C@H](C)[C@H](Cc2ccccc2)OC)[C@H](C)C(=O)N[C@@H](C(=O)O)CCC(=O)N1C
REMARK SMILES IDX 39 1 38 2 37 3 36 4 28 6 27 7 25 8 26 9 23 11 24 12 19 13
REMARK SMILES IDX 18 14 16 15 17 16 11 18 10 19 8 20 9 21 12 24 13 25 14 26
REMARK SMILES IDX 15 27 20 28 21 29 22 30 29 32 30 33 31 34 32 35 33 36 34 37
REMARK SMILES IDX 35 38 57 43 58 44 59 45 60 46 61 47 62 49 66 50 67 51 68 52
REMARK SMILES IDX 69 53 70 54 71 55 2 56 1 57 3 58 4 59 5 60 6 62 7 63 63 65
REMARK SMILES IDX 64 66 65 67 40 69 41 70 42 71 44 72 43 73 45 74 46 75 47 76
REMARK SMILES IDX 55 77 56 78 48 79 49 80 50 81 54 82 51 83 53 84 52 85
REMARK H PARENT 38 5 27 10 18 17 10 22 22 31 34 39 34 40 35 41 35 42 61 48
REMARK H PARENT 5 61 65 68
REMARK Flexibility Score:  369.900
ROOT
ATOM      1  C   UNL     1     -10.351  -3.679   2.788  1.00  0.00     0.117 C 
ENDROOT
BRANCH   1   2
ATOM      2  N   UNL     1     -10.613  -2.388   3.425  1.00  0.00    -0.347 N 
ATOM      3  O   UNL     1     -10.193  -3.019   5.592  1.00  0.00    -0.273 OA
ATOM      4  C   UNL     1     -10.423  -2.138   4.771  1.00  0.00     0.243 C 
ATOM      5  H   UNL     1     -10.903  -1.606   2.858  1.00  0.00     0.164 HD
BRANCH   4   6
ATOM      6  C   UNL     1     -10.690  -0.665   5.174  1.00  0.00     0.171 C 
BRANCH   6   7
ATOM      7  N   UNL     1     -12.136  -0.420   5.298  1.00  0.00    -0.344 N 
ATOM      8  C   UNL     1     -12.838   0.178   4.274  1.00  0.00     0.226 C 
ATOM      9  O   UNL     1     -12.302   0.551   3.237  1.00  0.00    -0.275 OA
ATOM     10  H   UNL     1     -12.601  -0.653   6.166  1.00  0.00     0.164 HD
BRANCH   8  11
ATOM     11  C   UNL     1     -14.328   0.311   4.531  1.00  0.00     0.109 C 
ATOM     12  C   UNL     1     -14.573   1.162   5.777  1.00  0.00     0.021 C 
BRANCH  11  13
ATOM     13  C   UNL     1     -15.035   0.813   3.255  1.00  0.00     0.204 C 
BRANCH  13  14
ATOM     14  N   UNL     1     -15.070  -0.211   2.206  1.00  0.00    -0.340 N 
ATOM     15  C   UNL     1     -15.414   0.067   0.901  1.00  0.00     0.243 C 
ATOM     16  O   UNL     1     -15.657   1.208   0.510  1.00  0.00    -0.273 OA
ATOM     17  H   UNL     1     -15.028  -1.193   2.491  1.00  0.00     0.164 HD
BRANCH  15  18
ATOM     18  C   UNL     1     -15.584  -1.197   0.023  1.00  0.00     0.171 C 
BRANCH  18  19
ATOM     19  N   UNL     1     -16.869  -1.061  -0.661  1.00  0.00    -0.343 N 
ATOM     20  C   UNL     1     -17.845  -2.036  -0.579  1.00  0.00     0.242 CG0
ATOM     21  O   UNL     1     -17.629  -3.119  -0.039  1.00  0.00    -0.273 OA
ATOM     22  H   UNL     1     -17.051  -0.234  -1.217  1.00  0.00     0.164 HD
ATOM     23  G   UNL     1     -19.161  -1.682  -1.301  1.00  0.00     0.000 G0
ENDBRANCH  18  19
BRANCH  18  24
ATOM     24  C   UNL     1     -14.427  -1.324  -0.975  1.00  0.00     0.038 C 
BRANCH  24  25
ATOM     25  C   UNL     1     -13.909  -2.763  -1.182  1.00  0.00    -0.015 C 
ATOM     26  C   UNL     1     -14.015  -3.611   0.086  1.00  0.00     0.007 C 
ATOM     27  C   UNL     1     -12.453  -2.723  -1.654  1.00  0.00     0.007 C 
ENDBRANCH  24  25
ENDBRANCH  18  24
ENDBRANCH  15  18
ENDBRANCH  13  14
BRANCH  13  28
ATOM     28  C   UNL     1     -16.479   1.260   3.501  1.00  0.00     0.327 C 
ATOM     29  O   UNL     1     -17.406   0.548   3.855  1.00  0.00    -0.250 OA
BRANCH  28  30
ATOM     30  O   UNL     1     -16.695   2.550   3.173  1.00  0.00    -0.480 OA
ATOM     31  H   UNL     1     -17.262   2.504   2.375  1.00  0.00     0.296 HD
ENDBRANCH  28  30
ENDBRANCH  13  28
ENDBRANCH  11  13
ENDBRANCH   8  11
ENDBRANCH   6   7
BRANCH   6  32
ATOM     32  C   UNL     1      -9.970  -0.366   6.494  1.00  0.00     0.037 C 
BRANCH  32  33
ATOM     33  C   UNL     1     -10.951  -0.179   7.660  1.00  0.00     0.026 C 
BRANCH  33  34
ATOM     34  C   UNL     1     -10.238   0.011   8.999  1.00  0.00     0.146 C 
BRANCH  34  35
ATOM     35  N   UNL     1     -11.200   0.497   9.979  1.00  0.00    -0.254 NA
ATOM     36  C   UNL     1     -10.853   0.542  11.211  1.00  0.00     0.185 C 
ATOM     37  N   UNL     1     -11.730   0.992  12.121  1.00  0.00    -0.370 N 
ATOM     38  N   UNL     1      -9.682   0.191  11.772  1.00  0.00    -0.370 N 
ATOM     39  H   UNL     1     -12.634   1.287  11.774  1.00  0.00     0.159 HD
ATOM     40  H   UNL     1     -11.480   1.220  13.068  1.00  0.00     0.159 HD
ATOM     41  H   UNL     1      -9.578   0.141  12.772  1.00  0.00     0.159 HD
ATOM     42  H   UNL     1      -8.934  -0.181  11.208  1.00  0.00     0.159 HD
ENDBRANCH  34  35
ENDBRANCH  33  34
ENDBRANCH  32  33
ENDBRANCH   6  32
ENDBRANCH   4   6
ENDBRANCH   1   2
BRANCH   1  43
ATOM     43  C   UNL     1      -9.675  -3.423   1.410  1.00  0.00     0.102 C 
ATOM     44  C   UNL     1     -10.000  -4.498   0.359  1.00  0.00     0.020 C 
BRANCH  43  45
ATOM     45  C   UNL     1      -8.177  -3.148   1.575  1.00  0.00     0.225 C 
ATOM     46  O   UNL     1      -7.722  -2.412   2.445  1.00  0.00    -0.275 OA
ATOM     47  N   UNL     1      -7.363  -3.710   0.618  1.00  0.00    -0.342 N 
ATOM     48  H   UNL     1      -7.729  -4.427   0.008  1.00  0.00     0.164 HD
BRANCH  47  49
ATOM     49  C   UNL     1      -5.905  -3.561   0.669  1.00  0.00     0.192 C 
BRANCH  49  50
ATOM     50  C   UNL     1      -5.466  -2.459  -0.299  1.00  0.00     0.047 C 
BRANCH  50  51
ATOM     51  C   UNL     1      -4.173  -1.768   0.154  1.00  0.00     0.103 C 
BRANCH  51  52
ATOM     52  C   UNL     1      -3.392  -1.186  -1.022  1.00  0.00     0.226 C 
ATOM     53  O   UNL     1      -3.535   0.001  -1.322  1.00  0.00    -0.275 OA
BRANCH  52  54
ATOM     54  N   UNL     1      -2.478  -2.049  -1.656  1.00  0.00    -0.311 N 
ATOM     55  C   UNL     1      -2.847  -2.773  -2.880  1.00  0.00     0.153 C 
BRANCH  54  56
ATOM     56  C   UNL     1      -1.183  -2.245  -1.149  1.00  0.00     0.102 C 
ATOM     57  C   UNL     1      -0.740  -3.385  -0.593  1.00  0.00     0.043 C 
BRANCH  56  58
ATOM     58  C   UNL     1      -0.142  -1.155  -1.240  1.00  0.00     0.268 C 
ATOM     59  O   UNL     1      -0.199  -0.118  -0.592  1.00  0.00    -0.268 OA
ATOM     60  N   UNL     1       0.905  -1.475  -2.071  1.00  0.00    -0.339 N 
ATOM     61  H   UNL     1       0.872  -2.350  -2.580  1.00  0.00     0.164 HD
BRANCH  60  62
ATOM     62  C   UNL     1       2.053  -0.588  -2.255  1.00  0.00     0.168 CG0
ATOM     63  C   UNL     1       3.363  -1.349  -2.096  1.00  0.00     0.041 C 
ATOM     64  G   UNL     1       1.973   0.577  -1.247  1.00  0.00     0.000 G0
ENDBRANCH  60  62
ENDBRANCH  56  58
ENDBRANCH  54  56
ENDBRANCH  52  54
ENDBRANCH  51  52
ENDBRANCH  50  51
ENDBRANCH  49  50
BRANCH  49  65
ATOM     65  C   UNL     1      -5.189  -4.872   0.306  1.00  0.00     0.326 C 
ATOM     66  O   UNL     1      -4.670  -5.123  -0.771  1.00  0.00    -0.250 OA
BRANCH  65  67
ATOM     67  O   UNL     1      -5.211  -5.813   1.275  1.00  0.00    -0.480 OA
ATOM     68  H   UNL     1      -4.826  -6.603   0.839  1.00  0.00     0.296 HD
ENDBRANCH  65  67
ENDBRANCH  49  65
ENDBRANCH  47  49
ENDBRANCH  43  45
ENDBRANCH   1  43
BRANCH   1  69
ATOM     69  C   UNL     1     -11.660  -4.446   2.831  1.00  0.00    -0.001 C 
ATOM     70  C   UNL     1     -11.928  -5.566   3.526  1.00  0.00     0.001 C 
BRANCH  70  71
ATOM     71  C   UNL     1     -13.202  -6.285   3.577  1.00  0.00    -0.055 C 
ATOM     72  C   UNL     1     -14.016  -6.048   4.627  1.00  0.00    -0.018 C 
ATOM     73  C   UNL     1     -13.519  -7.233   2.449  1.00  0.00     0.044 C 
BRANCH  72  74
ATOM     74  C   UNL     1     -15.383  -6.640   4.940  1.00  0.00     0.038 C 
ATOM     75  C   UNL     1     -16.430  -5.730   4.287  1.00  0.00     0.015 C 
BRANCH  74  76
ATOM     76  C   UNL     1     -15.522  -6.793   6.483  1.00  0.00     0.128 C 
BRANCH  76  77
ATOM     77  O   UNL     1     -16.301  -7.960   6.793  1.00  0.00    -0.381 OA
ATOM     78  C   UNL     1     -17.239  -7.759   7.842  1.00  0.00     0.195 C 
ENDBRANCH  76  77
BRANCH  76  79
ATOM     79  C   UNL     1     -14.172  -6.754   7.243  1.00  0.00     0.068 C 
BRANCH  79  80
ATOM     80  C   UNL     1     -13.827  -5.499   8.008  1.00  0.00    -0.045 A 
ATOM     81  C   UNL     1     -12.746  -4.694   7.625  1.00  0.00     0.004 A 
ATOM     82  C   UNL     1     -14.572  -5.134   9.140  1.00  0.00     0.004 A 
ATOM     83  C   UNL     1     -12.425  -3.543   8.346  1.00  0.00     0.000 A 
ATOM     84  C   UNL     1     -14.249  -3.982   9.861  1.00  0.00     0.000 A 
ATOM     85  C   UNL     1     -13.177  -3.186   9.463  1.00  0.00     0.000 A 
ENDBRANCH  79  80
ENDBRANCH  76  79
ENDBRANCH  74  76
ENDBRANCH  72  74
ENDBRANCH  70  71
ENDBRANCH   1  69
TORSDOF 17
ENDMDL
