MODEL 1
REMARK VINA RESULT:    -7.912      0.000      0.000
REMARK INTER + INTRA:         -24.370
REMARK INTER:                 -19.705
REMARK INTRA:                  -4.665
REMARK UNBOUND:                -4.665
REMARK SMILES CCCCCCC[C@H](N)[C@H](O)C(=O)N[C@H](C)C(=O)N(C)[C@H](CC(C)C)C(=O)N[C@@H](Cc1ccc(O)cc1)C(=O)N[C@@H](Cc1ccc(O)cc1)C(=O)O
REMARK SMILES IDX 18 1 17 2 15 3 16 4 14 5 12 6 13 7 10 9 11 10 8 12 9 13 7 16
REMARK SMILES IDX 6 17 5 18 4 19 3 20 2 21 1 22 19 23 20 24 21 25 22 26 23 27
REMARK SMILES IDX 24 28 25 29 26 30 27 31 28 32 29 34 30 35 31 36 32 37 37 38
REMARK SMILES IDX 33 39 36 40 34 41 35 42 38 44 39 45 40 46 41 48 42 49 43 50
REMARK SMILES IDX 44 51 49 52 45 53 48 54 46 55 47 56 50 58 51 59 52 60
REMARK H PARENT 14 8 11 11 9 14 9 15 28 33 35 43 40 47 47 57 52 61
ROOT
ATOM      1  O   UNL     1     -16.726 -11.377   0.194  1.00  0.00    -0.272 OA
ATOM      2  C   UNL     1     -15.534 -11.525   0.502  1.00  0.00     0.245 C 
ENDROOT
BRANCH   2   3
ATOM      3  C   UNL     1     -14.642 -10.266   0.638  1.00  0.00     0.168 C 
ATOM      4  C   UNL     1     -13.664 -10.167  -0.528  1.00  0.00     0.041 C 
BRANCH   3   5
ATOM      5  N   UNL     1     -15.367  -9.022   0.844  1.00  0.00    -0.342 N 
ATOM      6  C   UNL     1     -15.669  -8.556   2.107  1.00  0.00     0.251 C 
ATOM      7  O   UNL     1     -15.392  -9.163   3.136  1.00  0.00    -0.272 OA
ATOM      8  H   UNL     1     -15.681  -8.448   0.065  1.00  0.00     0.164 HD
BRANCH   6   9
ATOM      9  C   UNL     1     -16.310  -7.159   2.087  1.00  0.00     0.219 C 
BRANCH   9  10
ATOM     10  O   UNL     1     -15.600  -6.214   2.896  1.00  0.00    -0.382 OA
ATOM     11  H   UNL     1     -15.184  -6.771   3.591  1.00  0.00     0.211 HD
ENDBRANCH   9  10
BRANCH   9  12
ATOM     12  C   UNL     1     -16.523  -6.607   0.653  1.00  0.00     0.089 C 
BRANCH  12  13
ATOM     13  N   UNL     1     -17.613  -7.378   0.013  1.00  0.00    -0.325 NA
ATOM     14  H   UNL     1     -17.442  -8.376   0.147  1.00  0.00     0.119 HD
ATOM     15  H   UNL     1     -17.570  -7.234  -0.999  1.00  0.00     0.119 HD
ENDBRANCH  12  13
BRANCH  12  16
ATOM     16  C   UNL     1     -16.811  -5.090   0.547  1.00  0.00     0.022 C 
BRANCH  16  17
ATOM     17  C   UNL     1     -18.189  -4.560   0.969  1.00  0.00     0.002 C 
BRANCH  17  18
ATOM     18  C   UNL     1     -18.238  -3.065   1.273  1.00  0.00     0.000 C 
BRANCH  18  19
ATOM     19  C   UNL     1     -16.858  -2.405   1.390  1.00  0.00    -0.000 C 
BRANCH  19  20
ATOM     20  C   UNL     1     -16.309  -2.295   2.815  1.00  0.00    -0.000 C 
BRANCH  20  21
ATOM     21  C   UNL     1     -17.036  -3.203   3.810  1.00  0.00    -0.003 C 
ATOM     22  C   UNL     1     -17.518  -2.423   5.023  1.00  0.00     0.004 C 
ENDBRANCH  20  21
ENDBRANCH  19  20
ENDBRANCH  18  19
ENDBRANCH  17  18
ENDBRANCH  16  17
ENDBRANCH  12  16
ENDBRANCH   9  12
ENDBRANCH   6   9
ENDBRANCH   3   5
ENDBRANCH   2   3
BRANCH   2  23
ATOM     23  N   UNL     1     -15.054 -12.786   0.837  1.00  0.00    -0.332 N 
ATOM     24  C   UNL     1     -14.610 -13.783  -0.126  1.00  0.00     0.147 C 
BRANCH  23  25
ATOM     25  C   UNL     1     -14.841 -13.155   2.264  1.00  0.00     0.174 C 
BRANCH  25  26
ATOM     26  C   UNL     1     -15.968 -12.646   3.192  1.00  0.00     0.038 C 
BRANCH  26  27
ATOM     27  C   UNL     1     -16.736 -13.709   4.009  1.00  0.00    -0.015 C 
ATOM     28  C   UNL     1     -15.988 -15.040   4.085  1.00  0.00     0.007 C 
ATOM     29  C   UNL     1     -17.131 -13.234   5.405  1.00  0.00     0.007 C 
ENDBRANCH  26  27
ENDBRANCH  25  26
BRANCH  25  30
ATOM     30  C   UNL     1     -13.424 -12.732   2.717  1.00  0.00     0.243 C 
ATOM     31  O   UNL     1     -12.419 -13.351   2.371  1.00  0.00    -0.273 OA
ATOM     32  N   UNL     1     -13.366 -11.630   3.530  1.00  0.00    -0.342 N 
ATOM     33  H   UNL     1     -14.226 -11.088   3.657  1.00  0.00     0.164 HD
BRANCH  32  34
ATOM     34  C   UNL     1     -12.114 -11.102   4.077  1.00  0.00     0.175 C 
BRANCH  34  35
ATOM     35  C   UNL     1     -11.435 -10.139   3.091  1.00  0.00     0.070 C 
BRANCH  35  36
ATOM     36  C   UNL     1     -10.114 -10.665   2.576  1.00  0.00    -0.045 A 
ATOM     37  C   UNL     1      -9.959 -10.961   1.213  1.00  0.00     0.007 A 
ATOM     38  C   UNL     1      -9.039 -10.885   3.448  1.00  0.00     0.007 A 
ATOM     39  C   UNL     1      -8.748 -11.460   0.732  1.00  0.00     0.046 A 
ATOM     40  C   UNL     1      -7.827 -11.386   2.966  1.00  0.00     0.046 A 
ATOM     41  C   UNL     1      -7.692 -11.668   1.611  1.00  0.00     0.115 A 
BRANCH  41  42
ATOM     42  O   UNL     1      -6.528 -12.159   1.100  1.00  0.00    -0.508 OA
ATOM     43  H   UNL     1      -6.187 -11.522   0.450  1.00  0.00     0.293 HD
ENDBRANCH  41  42
ENDBRANCH  35  36
ENDBRANCH  34  35
BRANCH  34  44
ATOM     44  C   UNL     1     -12.431 -10.417   5.426  1.00  0.00     0.243 C 
ATOM     45  O   UNL     1     -11.747 -10.530   6.439  1.00  0.00    -0.273 OA
ATOM     46  N   UNL     1     -13.642  -9.758   5.435  1.00  0.00    -0.341 N 
ATOM     47  H   UNL     1     -14.228  -9.790   4.605  1.00  0.00     0.164 HD
BRANCH  46  48
ATOM     48  C   UNL     1     -14.187  -9.091   6.620  1.00  0.00     0.196 C 
BRANCH  48  49
ATOM     49  C   UNL     1     -15.128  -7.938   6.230  1.00  0.00     0.072 C 
BRANCH  49  50
ATOM     50  C   UNL     1     -14.696  -6.613   6.815  1.00  0.00    -0.045 A 
ATOM     51  C   UNL     1     -13.853  -6.584   7.936  1.00  0.00     0.007 A 
ATOM     52  C   UNL     1     -15.142  -5.403   6.267  1.00  0.00     0.007 A 
ATOM     53  C   UNL     1     -13.458  -5.368   8.492  1.00  0.00     0.046 A 
ATOM     54  C   UNL     1     -14.748  -4.185   6.825  1.00  0.00     0.046 A 
ATOM     55  C   UNL     1     -13.908  -4.178   7.933  1.00  0.00     0.115 A 
BRANCH  55  56
ATOM     56  O   UNL     1     -13.501  -3.010   8.508  1.00  0.00    -0.508 OA
ATOM     57  H   UNL     1     -14.208  -2.694   9.093  1.00  0.00     0.293 HD
ENDBRANCH  55  56
ENDBRANCH  49  50
ENDBRANCH  48  49
BRANCH  48  58
ATOM     58  C   UNL     1     -14.955 -10.120   7.462  1.00  0.00     0.326 C 
ATOM     59  O   UNL     1     -14.960 -11.332   7.324  1.00  0.00    -0.250 OA
BRANCH  58  60
ATOM     60  O   UNL     1     -15.682  -9.565   8.464  1.00  0.00    -0.480 OA
ATOM     61  H   UNL     1     -15.592 -10.214   9.195  1.00  0.00     0.296 HD
ENDBRANCH  58  60
ENDBRANCH  48  58
ENDBRANCH  46  48
ENDBRANCH  34  44
ENDBRANCH  32  34
ENDBRANCH  25  30
ENDBRANCH  23  25
ENDBRANCH   2  23
TORSDOF 28
ENDMDL
MODEL 2
REMARK VINA RESULT:    -7.596      2.430      5.674
REMARK INTER + INTRA:         -23.585
REMARK INTER:                 -19.023
REMARK INTRA:                  -4.562
REMARK UNBOUND:                -4.665
REMARK SMILES CCCCCCC[C@H](N)[C@H](O)C(=O)N[C@H](C)C(=O)N(C)[C@H](CC(C)C)C(=O)N[C@@H](Cc1ccc(O)cc1)C(=O)N[C@@H](Cc1ccc(O)cc1)C(=O)O
REMARK SMILES IDX 18 1 17 2 15 3 16 4 14 5 12 6 13 7 10 9 11 10 8 12 9 13 7 16
REMARK SMILES IDX 6 17 5 18 4 19 3 20 2 21 1 22 19 23 20 24 21 25 22 26 23 27
REMARK SMILES IDX 24 28 25 29 26 30 27 31 28 32 29 34 30 35 31 36 32 37 37 38
REMARK SMILES IDX 33 39 36 40 34 41 35 42 38 44 39 45 40 46 41 48 42 49 43 50
REMARK SMILES IDX 44 51 49 52 45 53 48 54 46 55 47 56 50 58 51 59 52 60
REMARK H PARENT 14 8 11 11 9 14 9 15 28 33 35 43 40 47 47 57 52 61
ROOT
ATOM      1  O   UNL     1     -17.068 -11.091   1.452  1.00  0.00    -0.272 OA
ATOM      2  C   UNL     1     -16.081 -10.799   2.143  1.00  0.00     0.245 C 
ENDROOT
BRANCH   2   3
ATOM      3  C   UNL     1     -15.252  -9.548   1.759  1.00  0.00     0.168 C 
ATOM      4  C   UNL     1     -15.426  -8.444   2.797  1.00  0.00     0.041 C 
BRANCH   3   5
ATOM      5  N   UNL     1     -13.850  -9.807   1.474  1.00  0.00    -0.342 N 
ATOM      6  C   UNL     1     -13.429 -10.256   0.240  1.00  0.00     0.251 C 
ATOM      7  O   UNL     1     -14.194 -10.508  -0.685  1.00  0.00    -0.272 OA
ATOM      8  H   UNL     1     -13.125  -9.668   2.174  1.00  0.00     0.164 HD
BRANCH   6   9
ATOM      9  C   UNL     1     -11.898 -10.324   0.122  1.00  0.00     0.219 C 
BRANCH   9  10
ATOM     10  O   UNL     1     -11.236  -9.385   0.978  1.00  0.00    -0.382 OA
ATOM     11  H   UNL     1     -10.909  -9.939   1.721  1.00  0.00     0.211 HD
ENDBRANCH   9  10
BRANCH   9  12
ATOM     12  C   UNL     1     -11.333 -11.753   0.333  1.00  0.00     0.089 C 
BRANCH  12  13
ATOM     13  N   UNL     1     -12.387 -12.584   0.959  1.00  0.00    -0.325 NA
ATOM     14  H   UNL     1     -12.035 -13.535   1.084  1.00  0.00     0.119 HD
ATOM     15  H   UNL     1     -13.170 -12.672   0.308  1.00  0.00     0.119 HD
ENDBRANCH  12  13
BRANCH  12  16
ATOM     16  C   UNL     1     -10.782 -12.457  -0.930  1.00  0.00     0.022 C 
BRANCH  16  17
ATOM     17  C   UNL     1      -9.655 -11.787  -1.728  1.00  0.00     0.002 C 
BRANCH  17  18
ATOM     18  C   UNL     1      -9.022 -12.660  -2.809  1.00  0.00     0.000 C 
BRANCH  18  19
ATOM     19  C   UNL     1      -9.494 -12.333  -4.232  1.00  0.00    -0.000 C 
BRANCH  19  20
ATOM     20  C   UNL     1      -9.046 -10.971  -4.768  1.00  0.00    -0.000 C 
BRANCH  20  21
ATOM     21  C   UNL     1      -8.543 -11.032  -6.213  1.00  0.00    -0.003 C 
ATOM     22  C   UNL     1      -9.662 -11.404  -7.174  1.00  0.00     0.004 C 
ENDBRANCH  20  21
ENDBRANCH  19  20
ENDBRANCH  18  19
ENDBRANCH  17  18
ENDBRANCH  16  17
ENDBRANCH  12  16
ENDBRANCH   9  12
ENDBRANCH   6   9
ENDBRANCH   3   5
ENDBRANCH   2   3
BRANCH   2  23
ATOM     23  N   UNL     1     -15.808 -11.514   3.304  1.00  0.00    -0.332 N 
ATOM     24  C   UNL     1     -16.349 -11.194   4.617  1.00  0.00     0.147 C 
BRANCH  23  25
ATOM     25  C   UNL     1     -15.015 -12.772   3.243  1.00  0.00     0.174 C 
BRANCH  25  26
ATOM     26  C   UNL     1     -15.880 -14.039   3.443  1.00  0.00     0.038 C 
BRANCH  26  27
ATOM     27  C   UNL     1     -15.942 -15.039   2.267  1.00  0.00    -0.015 C 
ATOM     28  C   UNL     1     -15.619 -14.382   0.925  1.00  0.00     0.007 C 
ATOM     29  C   UNL     1     -15.078 -16.280   2.478  1.00  0.00     0.007 C 
ENDBRANCH  26  27
ENDBRANCH  25  26
BRANCH  25  30
ATOM     30  C   UNL     1     -13.806 -12.687   4.202  1.00  0.00     0.243 C 
ATOM     31  O   UNL     1     -13.597 -13.541   5.062  1.00  0.00    -0.273 OA
ATOM     32  N   UNL     1     -12.991 -11.597   4.034  1.00  0.00    -0.342 N 
ATOM     33  H   UNL     1     -13.149 -11.010   3.211  1.00  0.00     0.164 HD
BRANCH  32  34
ATOM     34  C   UNL     1     -11.815 -11.339   4.869  1.00  0.00     0.175 C 
BRANCH  34  35
ATOM     35  C   UNL     1     -10.731 -10.580   4.089  1.00  0.00     0.070 C 
BRANCH  35  36
ATOM     36  C   UNL     1      -9.719 -11.502   3.447  1.00  0.00    -0.045 A 
ATOM     37  C   UNL     1      -9.833 -12.891   3.609  1.00  0.00     0.007 A 
ATOM     38  C   UNL     1      -8.647 -10.988   2.706  1.00  0.00     0.007 A 
ATOM     39  C   UNL     1      -8.897 -13.749   3.032  1.00  0.00     0.046 A 
ATOM     40  C   UNL     1      -7.708 -11.846   2.129  1.00  0.00     0.046 A 
ATOM     41  C   UNL     1      -7.843 -13.220   2.296  1.00  0.00     0.115 A 
BRANCH  41  42
ATOM     42  O   UNL     1      -6.947 -14.093   1.752  1.00  0.00    -0.508 OA
ATOM     43  H   UNL     1      -6.063 -13.872   2.089  1.00  0.00     0.293 HD
ENDBRANCH  41  42
ENDBRANCH  35  36
ENDBRANCH  34  35
BRANCH  34  44
ATOM     44  C   UNL     1     -12.279 -10.559   6.120  1.00  0.00     0.243 C 
ATOM     45  O   UNL     1     -11.761 -10.654   7.229  1.00  0.00    -0.273 OA
ATOM     46  N   UNL     1     -13.430  -9.828   5.915  1.00  0.00    -0.341 N 
ATOM     47  H   UNL     1     -13.890  -9.873   5.009  1.00  0.00     0.164 HD
BRANCH  46  48
ATOM     48  C   UNL     1     -14.097  -9.062   6.971  1.00  0.00     0.196 C 
BRANCH  48  49
ATOM     49  C   UNL     1     -14.959  -7.932   6.384  1.00  0.00     0.072 C 
BRANCH  49  50
ATOM     50  C   UNL     1     -14.587  -6.572   6.930  1.00  0.00    -0.045 A 
ATOM     51  C   UNL     1     -13.766  -6.475   8.063  1.00  0.00     0.007 A 
ATOM     52  C   UNL     1     -15.067  -5.399   6.334  1.00  0.00     0.007 A 
ATOM     53  C   UNL     1     -13.426  -5.226   8.584  1.00  0.00     0.046 A 
ATOM     54  C   UNL     1     -14.729  -4.149   6.856  1.00  0.00     0.046 A 
ATOM     55  C   UNL     1     -13.909  -4.073   7.977  1.00  0.00     0.115 A 
BRANCH  55  56
ATOM     56  O   UNL     1     -13.556  -2.873   8.519  1.00  0.00    -0.508 OA
ATOM     57  H   UNL     1     -12.616  -2.719   8.334  1.00  0.00     0.293 HD
ENDBRANCH  55  56
ENDBRANCH  49  50
ENDBRANCH  48  49
BRANCH  48  58
ATOM     58  C   UNL     1     -14.981 -10.010   7.793  1.00  0.00     0.326 C 
ATOM     59  O   UNL     1     -15.079 -11.220   7.672  1.00  0.00    -0.250 OA
BRANCH  58  60
ATOM     60  O   UNL     1     -15.701  -9.380   8.756  1.00  0.00    -0.480 OA
ATOM     61  H   UNL     1     -15.273  -9.676   9.588  1.00  0.00     0.296 HD
ENDBRANCH  58  60
ENDBRANCH  48  58
ENDBRANCH  46  48
ENDBRANCH  34  44
ENDBRANCH  32  34
ENDBRANCH  25  30
ENDBRANCH  23  25
ENDBRANCH   2  23
TORSDOF 28
ENDMDL
MODEL 3
REMARK VINA RESULT:    -7.566      3.961      9.766
REMARK INTER + INTRA:         -23.511
REMARK INTER:                 -19.251
REMARK INTRA:                  -4.260
REMARK UNBOUND:                -4.665
REMARK SMILES CCCCCCC[C@H](N)[C@H](O)C(=O)N[C@H](C)C(=O)N(C)[C@H](CC(C)C)C(=O)N[C@@H](Cc1ccc(O)cc1)C(=O)N[C@@H](Cc1ccc(O)cc1)C(=O)O
REMARK SMILES IDX 18 1 17 2 15 3 16 4 14 5 12 6 13 7 10 9 11 10 8 12 9 13 7 16
REMARK SMILES IDX 6 17 5 18 4 19 3 20 2 21 1 22 19 23 20 24 21 25 22 26 23 27
REMARK SMILES IDX 24 28 25 29 26 30 27 31 28 32 29 34 30 35 31 36 32 37 37 38
REMARK SMILES IDX 33 39 36 40 34 41 35 42 38 44 39 45 40 46 41 48 42 49 43 50
REMARK SMILES IDX 44 51 49 52 45 53 48 54 46 55 47 56 50 58 51 59 52 60
REMARK H PARENT 14 8 11 11 9 14 9 15 28 33 35 43 40 47 47 57 52 61
ROOT
ATOM      1  O   UNL     1     -10.799 -10.162   4.028  1.00  0.00    -0.272 OA
ATOM      2  C   UNL     1     -10.109 -10.954   4.686  1.00  0.00     0.245 C 
ENDROOT
BRANCH   2   3
ATOM      3  C   UNL     1     -10.528 -11.269   6.143  1.00  0.00     0.168 C 
ATOM      4  C   UNL     1      -9.305 -11.542   7.012  1.00  0.00     0.041 C 
BRANCH   3   5
ATOM      5  N   UNL     1     -11.415 -10.287   6.750  1.00  0.00    -0.342 N 
ATOM      6  C   UNL     1     -12.489 -10.660   7.528  1.00  0.00     0.251 C 
ATOM      7  O   UNL     1     -12.803 -11.828   7.734  1.00  0.00    -0.272 OA
ATOM      8  H   UNL     1     -11.276  -9.288   6.621  1.00  0.00     0.164 HD
BRANCH   6   9
ATOM      9  C   UNL     1     -13.197  -9.460   8.179  1.00  0.00     0.219 C 
BRANCH   9  10
ATOM     10  O   UNL     1     -12.427  -8.255   8.099  1.00  0.00    -0.382 OA
ATOM     11  H   UNL     1     -12.014  -8.303   7.209  1.00  0.00     0.211 HD
ENDBRANCH   9  10
BRANCH   9  12
ATOM     12  C   UNL     1     -14.633  -9.233   7.638  1.00  0.00     0.089 C 
BRANCH  12  13
ATOM     13  N   UNL     1     -15.532  -8.987   8.788  1.00  0.00    -0.325 NA
ATOM     14  H   UNL     1     -15.736  -9.875   9.251  1.00  0.00     0.119 HD
ATOM     15  H   UNL     1     -16.434  -8.656   8.438  1.00  0.00     0.119 HD
ENDBRANCH  12  13
BRANCH  12  16
ATOM     16  C   UNL     1     -14.792  -8.107   6.588  1.00  0.00     0.022 C 
BRANCH  16  17
ATOM     17  C   UNL     1     -15.703  -8.340   5.375  1.00  0.00     0.002 C 
BRANCH  17  18
ATOM     18  C   UNL     1     -16.221  -9.768   5.223  1.00  0.00     0.000 C 
BRANCH  18  19
ATOM     19  C   UNL     1     -15.702 -10.490   3.972  1.00  0.00    -0.000 C 
BRANCH  19  20
ATOM     20  C   UNL     1     -14.184 -10.679   3.914  1.00  0.00    -0.000 C 
BRANCH  20  21
ATOM     21  C   UNL     1     -13.741 -12.098   4.282  1.00  0.00    -0.003 C 
ATOM     22  C   UNL     1     -14.899 -13.080   4.193  1.00  0.00     0.004 C 
ENDBRANCH  20  21
ENDBRANCH  19  20
ENDBRANCH  18  19
ENDBRANCH  17  18
ENDBRANCH  16  17
ENDBRANCH  12  16
ENDBRANCH   9  12
ENDBRANCH   6   9
ENDBRANCH   3   5
ENDBRANCH   2   3
BRANCH   2  23
ATOM     23  N   UNL     1      -9.058 -11.632   4.077  1.00  0.00    -0.332 N 
ATOM     24  C   UNL     1      -7.698 -11.124   3.973  1.00  0.00     0.147 C 
BRANCH  23  25
ATOM     25  C   UNL     1      -9.245 -13.026   3.590  1.00  0.00     0.174 C 
BRANCH  25  26
ATOM     26  C   UNL     1      -7.907 -13.758   3.329  1.00  0.00     0.038 C 
BRANCH  26  27
ATOM     27  C   UNL     1      -7.907 -15.294   3.488  1.00  0.00    -0.015 C 
ATOM     28  C   UNL     1      -6.496 -15.869   3.608  1.00  0.00     0.007 C 
ATOM     29  C   UNL     1      -8.788 -15.787   4.634  1.00  0.00     0.007 C 
ENDBRANCH  26  27
ENDBRANCH  25  26
BRANCH  25  30
ATOM     30  C   UNL     1     -10.208 -13.042   2.381  1.00  0.00     0.243 C 
ATOM     31  O   UNL     1     -11.093 -13.890   2.266  1.00  0.00    -0.273 OA
ATOM     32  N   UNL     1     -10.007 -12.057   1.448  1.00  0.00    -0.342 N 
ATOM     33  H   UNL     1      -9.349 -11.310   1.684  1.00  0.00     0.164 HD
BRANCH  32  34
ATOM     34  C   UNL     1     -10.806 -11.935   0.226  1.00  0.00     0.175 C 
BRANCH  34  35
ATOM     35  C   UNL     1     -11.685 -10.675   0.257  1.00  0.00     0.070 C 
BRANCH  35  36
ATOM     36  C   UNL     1     -13.161 -10.993   0.331  1.00  0.00    -0.045 A 
ATOM     37  C   UNL     1     -13.586 -12.322   0.479  1.00  0.00     0.007 A 
ATOM     38  C   UNL     1     -14.121  -9.978   0.230  1.00  0.00     0.007 A 
ATOM     39  C   UNL     1     -14.946 -12.627   0.534  1.00  0.00     0.046 A 
ATOM     40  C   UNL     1     -15.483 -10.282   0.284  1.00  0.00     0.046 A 
ATOM     41  C   UNL     1     -15.884 -11.606   0.437  1.00  0.00     0.115 A 
BRANCH  41  42
ATOM     42  O   UNL     1     -17.203 -11.946   0.492  1.00  0.00    -0.508 OA
ATOM     43  H   UNL     1     -17.316 -12.613   1.189  1.00  0.00     0.293 HD
ENDBRANCH  41  42
ENDBRANCH  35  36
ENDBRANCH  34  35
BRANCH  34  44
ATOM     44  C   UNL     1      -9.840 -11.935  -0.980  1.00  0.00     0.243 C 
ATOM     45  O   UNL     1      -8.913 -11.142  -1.127  1.00  0.00    -0.273 OA
ATOM     46  N   UNL     1     -10.189 -12.837  -1.963  1.00  0.00    -0.341 N 
ATOM     47  H   UNL     1     -11.034 -13.391  -1.847  1.00  0.00     0.164 HD
BRANCH  46  48
ATOM     48  C   UNL     1      -9.463 -12.971  -3.228  1.00  0.00     0.196 C 
BRANCH  48  49
ATOM     49  C   UNL     1      -9.019 -11.601  -3.766  1.00  0.00     0.072 C 
BRANCH  49  50
ATOM     50  C   UNL     1      -9.267 -11.450  -5.250  1.00  0.00    -0.045 A 
ATOM     51  C   UNL     1      -8.191 -11.218  -6.119  1.00  0.00     0.007 A 
ATOM     52  C   UNL     1     -10.565 -11.518  -5.774  1.00  0.00     0.007 A 
ATOM     53  C   UNL     1      -8.410 -11.064  -7.488  1.00  0.00     0.046 A 
ATOM     54  C   UNL     1     -10.784 -11.363  -7.145  1.00  0.00     0.046 A 
ATOM     55  C   UNL     1      -9.703 -11.138  -7.991  1.00  0.00     0.115 A 
BRANCH  55  56
ATOM     56  O   UNL     1      -9.874 -10.981  -9.334  1.00  0.00    -0.508 OA
ATOM     57  H   UNL     1     -10.810 -10.783  -9.502  1.00  0.00     0.293 HD
ENDBRANCH  55  56
ENDBRANCH  49  50
ENDBRANCH  48  49
BRANCH  48  58
ATOM     58  C   UNL     1      -8.233 -13.861  -3.006  1.00  0.00     0.326 C 
ATOM     59  O   UNL     1      -7.104 -13.502  -2.712  1.00  0.00    -0.250 OA
BRANCH  58  60
ATOM     60  O   UNL     1      -8.489 -15.185  -3.152  1.00  0.00    -0.480 OA
ATOM     61  H   UNL     1      -8.639 -15.281  -4.118  1.00  0.00     0.296 HD
ENDBRANCH  58  60
ENDBRANCH  48  58
ENDBRANCH  46  48
ENDBRANCH  34  44
ENDBRANCH  32  34
ENDBRANCH  25  30
ENDBRANCH  23  25
ENDBRANCH   2  23
TORSDOF 28
ENDMDL
MODEL 4
REMARK VINA RESULT:    -7.549      3.357      8.807
REMARK INTER + INTRA:         -23.468
REMARK INTER:                 -18.850
REMARK INTRA:                  -4.619
REMARK UNBOUND:                -4.665
REMARK SMILES CCCCCCC[C@H](N)[C@H](O)C(=O)N[C@H](C)C(=O)N(C)[C@H](CC(C)C)C(=O)N[C@@H](Cc1ccc(O)cc1)C(=O)N[C@@H](Cc1ccc(O)cc1)C(=O)O
REMARK SMILES IDX 18 1 17 2 15 3 16 4 14 5 12 6 13 7 10 9 11 10 8 12 9 13 7 16
REMARK SMILES IDX 6 17 5 18 4 19 3 20 2 21 1 22 19 23 20 24 21 25 22 26 23 27
REMARK SMILES IDX 24 28 25 29 26 30 27 31 28 32 29 34 30 35 31 36 32 37 37 38
REMARK SMILES IDX 33 39 36 40 34 41 35 42 38 44 39 45 40 46 41 48 42 49 43 50
REMARK SMILES IDX 44 51 49 52 45 53 48 54 46 55 47 56 50 58 51 59 52 60
REMARK H PARENT 14 8 11 11 9 14 9 15 28 33 35 43 40 47 47 57 52 61
ROOT
ATOM      1  O   UNL     1     -13.102 -12.691   0.763  1.00  0.00    -0.272 OA
ATOM      2  C   UNL     1     -12.187 -12.452   1.565  1.00  0.00     0.245 C 
ENDROOT
BRANCH   2   3
ATOM      3  C   UNL     1     -10.722 -12.590   1.080  1.00  0.00     0.168 C 
ATOM      4  C   UNL     1     -10.091 -13.868   1.622  1.00  0.00     0.041 C 
BRANCH   3   5
ATOM      5  N   UNL     1     -10.540 -12.464  -0.358  1.00  0.00    -0.342 N 
ATOM      6  C   UNL     1      -9.508 -11.727  -0.899  1.00  0.00     0.251 C 
ATOM      7  O   UNL     1      -8.700 -11.097  -0.224  1.00  0.00    -0.272 OA
ATOM      8  H   UNL     1     -11.168 -12.914  -1.020  1.00  0.00     0.164 HD
BRANCH   6   9
ATOM      9  C   UNL     1      -9.427 -11.851  -2.429  1.00  0.00     0.219 C 
BRANCH   9  10
ATOM     10  O   UNL     1      -8.733 -10.755  -3.036  1.00  0.00    -0.382 OA
ATOM     11  H   UNL     1      -8.005 -10.564  -2.406  1.00  0.00     0.211 HD
ENDBRANCH   9  10
BRANCH   9  12
ATOM     12  C   UNL     1      -8.835 -13.206  -2.899  1.00  0.00     0.089 C 
BRANCH  12  13
ATOM     13  N   UNL     1      -8.404 -13.968  -1.705  1.00  0.00    -0.325 NA
ATOM     14  H   UNL     1      -7.412 -13.789  -1.533  1.00  0.00     0.119 HD
ATOM     15  H   UNL     1      -8.462 -14.968  -1.911  1.00  0.00     0.119 HD
ENDBRANCH  12  13
BRANCH  12  16
ATOM     16  C   UNL     1      -9.759 -14.079  -3.782  1.00  0.00     0.022 C 
BRANCH  16  17
ATOM     17  C   UNL     1      -9.393 -15.551  -4.018  1.00  0.00     0.002 C 
BRANCH  17  18
ATOM     18  C   UNL     1      -8.162 -15.778  -4.892  1.00  0.00     0.000 C 
BRANCH  18  19
ATOM     19  C   UNL     1      -7.119 -16.716  -4.270  1.00  0.00    -0.000 C 
BRANCH  19  20
ATOM     20  C   UNL     1      -5.824 -16.038  -3.813  1.00  0.00    -0.000 C 
BRANCH  20  21
ATOM     21  C   UNL     1      -5.829 -14.524  -4.038  1.00  0.00    -0.003 C 
ATOM     22  C   UNL     1      -4.772 -13.833  -3.190  1.00  0.00     0.004 C 
ENDBRANCH  20  21
ENDBRANCH  19  20
ENDBRANCH  18  19
ENDBRANCH  17  18
ENDBRANCH  16  17
ENDBRANCH  12  16
ENDBRANCH   9  12
ENDBRANCH   6   9
ENDBRANCH   3   5
ENDBRANCH   2   3
BRANCH   2  23
ATOM     23  N   UNL     1     -12.482 -11.952   2.829  1.00  0.00    -0.332 N 
ATOM     24  C   UNL     1     -13.300 -12.637   3.818  1.00  0.00     0.147 C 
BRANCH  23  25
ATOM     25  C   UNL     1     -11.846 -10.693   3.306  1.00  0.00     0.174 C 
BRANCH  25  26
ATOM     26  C   UNL     1     -11.443 -10.749   4.798  1.00  0.00     0.038 C 
BRANCH  26  27
ATOM     27  C   UNL     1      -9.931 -10.802   5.113  1.00  0.00    -0.015 C 
ATOM     28  C   UNL     1      -9.588 -11.868   6.153  1.00  0.00     0.007 C 
ATOM     29  C   UNL     1      -9.057 -10.963   3.871  1.00  0.00     0.007 C 
ENDBRANCH  26  27
ENDBRANCH  25  26
BRANCH  25  30
ATOM     30  C   UNL     1     -12.735  -9.480   2.948  1.00  0.00     0.243 C 
ATOM     31  O   UNL     1     -12.663  -8.921   1.854  1.00  0.00    -0.273 OA
ATOM     32  N   UNL     1     -13.600  -9.067   3.929  1.00  0.00    -0.342 N 
ATOM     33  H   UNL     1     -13.702  -9.666   4.753  1.00  0.00     0.164 HD
BRANCH  32  34
ATOM     34  C   UNL     1     -14.497  -7.919   3.777  1.00  0.00     0.175 C 
BRANCH  34  35
ATOM     35  C   UNL     1     -15.668  -8.246   2.837  1.00  0.00     0.070 C 
BRANCH  35  36
ATOM     36  C   UNL     1     -16.078  -9.700   2.896  1.00  0.00    -0.045 A 
ATOM     37  C   UNL     1     -16.502 -10.260   4.111  1.00  0.00     0.007 A 
ATOM     38  C   UNL     1     -16.018 -10.511   1.756  1.00  0.00     0.007 A 
ATOM     39  C   UNL     1     -16.870 -11.604   4.179  1.00  0.00     0.046 A 
ATOM     40  C   UNL     1     -16.384 -11.858   1.823  1.00  0.00     0.046 A 
ATOM     41  C   UNL     1     -16.808 -12.392   3.035  1.00  0.00     0.115 A 
BRANCH  41  42
ATOM     42  O   UNL     1     -17.173 -13.701   3.145  1.00  0.00    -0.508 OA
ATOM     43  H   UNL     1     -16.787 -14.188   2.399  1.00  0.00     0.293 HD
ENDBRANCH  41  42
ENDBRANCH  35  36
ENDBRANCH  34  35
BRANCH  34  44
ATOM     44  C   UNL     1     -14.985  -7.503   5.183  1.00  0.00     0.243 C 
ATOM     45  O   UNL     1     -16.038  -6.912   5.405  1.00  0.00    -0.273 OA
ATOM     46  N   UNL     1     -14.060  -7.740   6.177  1.00  0.00    -0.341 N 
ATOM     47  H   UNL     1     -13.153  -8.125   5.926  1.00  0.00     0.164 HD
BRANCH  46  48
ATOM     48  C   UNL     1     -14.269  -7.368   7.578  1.00  0.00     0.196 C 
BRANCH  48  49
ATOM     49  C   UNL     1     -13.534  -8.328   8.528  1.00  0.00     0.072 C 
BRANCH  49  50
ATOM     50  C   UNL     1     -13.727  -9.780   8.153  1.00  0.00    -0.045 A 
ATOM     51  C   UNL     1     -14.995 -10.240   7.768  1.00  0.00     0.007 A 
ATOM     52  C   UNL     1     -12.659 -10.685   8.202  1.00  0.00     0.007 A 
ATOM     53  C   UNL     1     -15.188 -11.580   7.432  1.00  0.00     0.046 A 
ATOM     54  C   UNL     1     -12.853 -12.027   7.866  1.00  0.00     0.046 A 
ATOM     55  C   UNL     1     -14.117 -12.463   7.483  1.00  0.00     0.115 A 
BRANCH  55  56
ATOM     56  O   UNL     1     -14.348 -13.764   7.149  1.00  0.00    -0.508 OA
ATOM     57  H   UNL     1     -13.705 -14.320   7.618  1.00  0.00     0.293 HD
ENDBRANCH  55  56
ENDBRANCH  49  50
ENDBRANCH  48  49
BRANCH  48  58
ATOM     58  C   UNL     1     -13.759  -5.937   7.796  1.00  0.00     0.326 C 
ATOM     59  O   UNL     1     -12.662  -5.598   8.211  1.00  0.00    -0.250 OA
BRANCH  58  60
ATOM     60  O   UNL     1     -14.663  -4.983   7.462  1.00  0.00    -0.480 OA
ATOM     61  H   UNL     1     -14.140  -4.356   6.916  1.00  0.00     0.296 HD
ENDBRANCH  58  60
ENDBRANCH  48  58
ENDBRANCH  46  48
ENDBRANCH  34  44
ENDBRANCH  32  34
ENDBRANCH  25  30
ENDBRANCH  23  25
ENDBRANCH   2  23
TORSDOF 28
ENDMDL
MODEL 5
REMARK VINA RESULT:    -7.520      3.792     10.122
REMARK INTER + INTRA:         -23.396
REMARK INTER:                 -19.496
REMARK INTRA:                  -3.900
REMARK UNBOUND:                -4.665
REMARK SMILES CCCCCCC[C@H](N)[C@H](O)C(=O)N[C@H](C)C(=O)N(C)[C@H](CC(C)C)C(=O)N[C@@H](Cc1ccc(O)cc1)C(=O)N[C@@H](Cc1ccc(O)cc1)C(=O)O
REMARK SMILES IDX 18 1 17 2 15 3 16 4 14 5 12 6 13 7 10 9 11 10 8 12 9 13 7 16
REMARK SMILES IDX 6 17 5 18 4 19 3 20 2 21 1 22 19 23 20 24 21 25 22 26 23 27
REMARK SMILES IDX 24 28 25 29 26 30 27 31 28 32 29 34 30 35 31 36 32 37 37 38
REMARK SMILES IDX 33 39 36 40 34 41 35 42 38 44 39 45 40 46 41 48 42 49 43 50
REMARK SMILES IDX 44 51 49 52 45 53 48 54 46 55 47 56 50 58 51 59 52 60
REMARK H PARENT 14 8 11 11 9 14 9 15 28 33 35 43 40 47 47 57 52 61
ROOT
ATOM      1  O   UNL     1     -10.872 -10.230   3.920  1.00  0.00    -0.272 OA
ATOM      2  C   UNL     1     -10.219 -10.991   4.650  1.00  0.00     0.245 C 
ENDROOT
BRANCH   2   3
ATOM      3  C   UNL     1     -10.667 -11.171   6.122  1.00  0.00     0.168 C 
ATOM      4  C   UNL     1      -9.459 -11.309   7.042  1.00  0.00     0.041 C 
BRANCH   3   5
ATOM      5  N   UNL     1     -11.603 -10.167   6.603  1.00  0.00    -0.342 N 
ATOM      6  C   UNL     1     -12.568 -10.463   7.542  1.00  0.00     0.251 C 
ATOM      7  O   UNL     1     -12.738 -11.585   8.008  1.00  0.00    -0.272 OA
ATOM      8  H   UNL     1     -11.582  -9.208   6.264  1.00  0.00     0.164 HD
BRANCH   6   9
ATOM      9  C   UNL     1     -13.347  -9.221   8.005  1.00  0.00     0.219 C 
BRANCH   9  10
ATOM     10  O   UNL     1     -12.505  -8.076   8.188  1.00  0.00    -0.382 OA
ATOM     11  H   UNL     1     -13.087  -7.321   7.951  1.00  0.00     0.211 HD
ENDBRANCH   9  10
BRANCH   9  12
ATOM     12  C   UNL     1     -14.549  -8.879   7.086  1.00  0.00     0.089 C 
BRANCH  12  13
ATOM     13  N   UNL     1     -14.024  -8.342   5.810  1.00  0.00    -0.325 NA
ATOM     14  H   UNL     1     -14.289  -7.358   5.725  1.00  0.00     0.119 HD
ATOM     15  H   UNL     1     -14.495  -8.813   5.034  1.00  0.00     0.119 HD
ENDBRANCH  12  13
BRANCH  12  16
ATOM     16  C   UNL     1     -15.541 -10.034   6.809  1.00  0.00     0.022 C 
BRANCH  16  17
ATOM     17  C   UNL     1     -15.396 -10.849   5.516  1.00  0.00     0.002 C 
BRANCH  17  18
ATOM     18  C   UNL     1     -16.520 -10.655   4.502  1.00  0.00     0.000 C 
BRANCH  18  19
ATOM     19  C   UNL     1     -17.019 -11.959   3.865  1.00  0.00    -0.000 C 
BRANCH  19  20
ATOM     20  C   UNL     1     -17.092 -13.159   4.813  1.00  0.00    -0.000 C 
BRANCH  20  21
ATOM     21  C   UNL     1     -16.043 -14.231   4.505  1.00  0.00    -0.003 C 
ATOM     22  C   UNL     1     -16.047 -15.329   5.557  1.00  0.00     0.004 C 
ENDBRANCH  20  21
ENDBRANCH  19  20
ENDBRANCH  18  19
ENDBRANCH  17  18
ENDBRANCH  16  17
ENDBRANCH  12  16
ENDBRANCH   9  12
ENDBRANCH   6   9
ENDBRANCH   3   5
ENDBRANCH   2   3
BRANCH   2  23
ATOM     23  N   UNL     1      -9.187 -11.753   4.113  1.00  0.00    -0.332 N 
ATOM     24  C   UNL     1      -7.814 -11.295   3.964  1.00  0.00     0.147 C 
BRANCH  23  25
ATOM     25  C   UNL     1      -9.412 -13.183   3.764  1.00  0.00     0.174 C 
BRANCH  25  26
ATOM     26  C   UNL     1      -8.108 -14.015   3.764  1.00  0.00     0.038 C 
BRANCH  26  27
ATOM     27  C   UNL     1      -8.238 -15.520   3.439  1.00  0.00    -0.015 C 
ATOM     28  C   UNL     1      -6.880 -16.205   3.288  1.00  0.00     0.007 C 
ATOM     29  C   UNL     1      -9.116 -16.281   4.428  1.00  0.00     0.007 C 
ENDBRANCH  26  27
ENDBRANCH  25  26
BRANCH  25  30
ATOM     30  C   UNL     1     -10.217 -13.289   2.449  1.00  0.00     0.243 C 
ATOM     31  O   UNL     1     -11.107 -14.124   2.298  1.00  0.00    -0.273 OA
ATOM     32  N   UNL     1      -9.869 -12.398   1.467  1.00  0.00    -0.342 N 
ATOM     33  H   UNL     1      -9.221 -11.647   1.717  1.00  0.00     0.164 HD
BRANCH  32  34
ATOM     34  C   UNL     1     -10.506 -12.371   0.147  1.00  0.00     0.175 C 
BRANCH  34  35
ATOM     35  C   UNL     1     -11.143 -11.002  -0.138  1.00  0.00     0.070 C 
BRANCH  35  36
ATOM     36  C   UNL     1     -12.644 -11.008   0.039  1.00  0.00    -0.045 A 
ATOM     37  C   UNL     1     -13.362  -9.803  -0.018  1.00  0.00     0.007 A 
ATOM     38  C   UNL     1     -13.335 -12.202   0.283  1.00  0.00     0.007 A 
ATOM     39  C   UNL     1     -14.746  -9.797   0.158  1.00  0.00     0.046 A 
ATOM     40  C   UNL     1     -14.721 -12.196   0.461  1.00  0.00     0.046 A 
ATOM     41  C   UNL     1     -15.414 -10.992   0.395  1.00  0.00     0.115 A 
BRANCH  41  42
ATOM     42  O   UNL     1     -16.766 -10.941   0.564  1.00  0.00    -0.508 OA
ATOM     43  H   UNL     1     -17.168 -10.666  -0.276  1.00  0.00     0.293 HD
ENDBRANCH  41  42
ENDBRANCH  35  36
ENDBRANCH  34  35
BRANCH  34  44
ATOM     44  C   UNL     1      -9.438 -12.742  -0.907  1.00  0.00     0.243 C 
ATOM     45  O   UNL     1      -8.461 -13.450  -0.685  1.00  0.00    -0.273 OA
ATOM     46  N   UNL     1      -9.608 -12.093  -2.112  1.00  0.00    -0.341 N 
ATOM     47  H   UNL     1     -10.369 -11.425  -2.210  1.00  0.00     0.164 HD
BRANCH  46  48
ATOM     48  C   UNL     1      -8.684 -12.233  -3.240  1.00  0.00     0.196 C 
BRANCH  48  49
ATOM     49  C   UNL     1      -9.015 -13.475  -4.084  1.00  0.00     0.072 C 
BRANCH  49  50
ATOM     50  C   UNL     1      -7.934 -14.530  -4.016  1.00  0.00    -0.045 A 
ATOM     51  C   UNL     1      -8.230 -15.857  -4.358  1.00  0.00     0.007 A 
ATOM     52  C   UNL     1      -6.638 -14.207  -3.594  1.00  0.00     0.007 A 
ATOM     53  C   UNL     1      -7.245 -16.842  -4.286  1.00  0.00     0.046 A 
ATOM     54  C   UNL     1      -5.651 -15.193  -3.521  1.00  0.00     0.046 A 
ATOM     55  C   UNL     1      -5.963 -16.503  -3.869  1.00  0.00     0.115 A 
BRANCH  55  56
ATOM     56  O   UNL     1      -5.029 -17.494  -3.811  1.00  0.00    -0.508 OA
ATOM     57  H   UNL     1      -4.628 -17.486  -2.927  1.00  0.00     0.293 HD
ENDBRANCH  55  56
ENDBRANCH  49  50
ENDBRANCH  48  49
BRANCH  48  58
ATOM     58  C   UNL     1      -8.773 -10.976  -4.116  1.00  0.00     0.326 C 
ATOM     59  O   UNL     1      -9.280 -10.880  -5.222  1.00  0.00    -0.250 OA
BRANCH  58  60
ATOM     60  O   UNL     1      -8.222  -9.876  -3.543  1.00  0.00    -0.480 OA
ATOM     61  H   UNL     1      -7.854  -9.383  -4.307  1.00  0.00     0.296 HD
ENDBRANCH  58  60
ENDBRANCH  48  58
ENDBRANCH  46  48
ENDBRANCH  34  44
ENDBRANCH  32  34
ENDBRANCH  25  30
ENDBRANCH  23  25
ENDBRANCH   2  23
TORSDOF 28
ENDMDL
MODEL 6
REMARK VINA RESULT:    -7.478      2.358      6.845
REMARK INTER + INTRA:         -23.291
REMARK INTER:                 -17.902
REMARK INTRA:                  -5.389
REMARK UNBOUND:                -4.665
REMARK SMILES CCCCCCC[C@H](N)[C@H](O)C(=O)N[C@H](C)C(=O)N(C)[C@H](CC(C)C)C(=O)N[C@@H](Cc1ccc(O)cc1)C(=O)N[C@@H](Cc1ccc(O)cc1)C(=O)O
REMARK SMILES IDX 18 1 17 2 15 3 16 4 14 5 12 6 13 7 10 9 11 10 8 12 9 13 7 16
REMARK SMILES IDX 6 17 5 18 4 19 3 20 2 21 1 22 19 23 20 24 21 25 22 26 23 27
REMARK SMILES IDX 24 28 25 29 26 30 27 31 28 32 29 34 30 35 31 36 32 37 37 38
REMARK SMILES IDX 33 39 36 40 34 41 35 42 38 44 39 45 40 46 41 48 42 49 43 50
REMARK SMILES IDX 44 51 49 52 45 53 48 54 46 55 47 56 50 58 51 59 52 60
REMARK H PARENT 14 8 11 11 9 14 9 15 28 33 35 43 40 47 47 57 52 61
ROOT
ATOM      1  O   UNL     1     -12.347 -12.065   4.367  1.00  0.00    -0.272 OA
ATOM      2  C   UNL     1     -12.608 -13.233   4.042  1.00  0.00     0.245 C 
ENDROOT
BRANCH   2   3
ATOM      3  C   UNL     1     -11.504 -14.076   3.358  1.00  0.00     0.168 C 
ATOM      4  C   UNL     1     -12.100 -14.981   2.285  1.00  0.00     0.041 C 
BRANCH   3   5
ATOM      5  N   UNL     1     -10.374 -13.310   2.855  1.00  0.00    -0.342 N 
ATOM      6  C   UNL     1      -9.213 -13.161   3.584  1.00  0.00     0.251 C 
ATOM      7  O   UNL     1      -9.059 -13.618   4.712  1.00  0.00    -0.272 OA
ATOM      8  H   UNL     1     -10.397 -12.855   1.945  1.00  0.00     0.164 HD
BRANCH   6   9
ATOM      9  C   UNL     1      -8.107 -12.437   2.799  1.00  0.00     0.219 C 
BRANCH   9  10
ATOM     10  O   UNL     1      -7.004 -12.050   3.628  1.00  0.00    -0.382 OA
ATOM     11  H   UNL     1      -7.328 -11.241   4.081  1.00  0.00     0.211 HD
ENDBRANCH   9  10
BRANCH   9  12
ATOM     12  C   UNL     1      -7.615 -13.235   1.564  1.00  0.00     0.089 C 
BRANCH  12  13
ATOM     13  N   UNL     1      -8.013 -14.651   1.733  1.00  0.00    -0.325 NA
ATOM     14  H   UNL     1      -9.022 -14.700   1.890  1.00  0.00     0.119 HD
ATOM     15  H   UNL     1      -7.592 -15.013   2.592  1.00  0.00     0.119 HD
ENDBRANCH  12  13
BRANCH  12  16
ATOM     16  C   UNL     1      -8.086 -12.711   0.186  1.00  0.00     0.022 C 
BRANCH  16  17
ATOM     17  C   UNL     1      -9.460 -13.141  -0.346  1.00  0.00     0.002 C 
BRANCH  17  18
ATOM     18  C   UNL     1     -10.340 -12.000  -0.853  1.00  0.00     0.000 C 
BRANCH  18  19
ATOM     19  C   UNL     1     -10.597 -10.900   0.185  1.00  0.00    -0.000 C 
BRANCH  19  20
ATOM     20  C   UNL     1     -11.963 -10.962   0.874  1.00  0.00    -0.000 C 
BRANCH  20  21
ATOM     21  C   UNL     1     -12.850  -9.756   0.557  1.00  0.00    -0.003 C 
ATOM     22  C   UNL     1     -13.755 -10.030  -0.633  1.00  0.00     0.004 C 
ENDBRANCH  20  21
ENDBRANCH  19  20
ENDBRANCH  18  19
ENDBRANCH  17  18
ENDBRANCH  16  17
ENDBRANCH  12  16
ENDBRANCH   9  12
ENDBRANCH   6   9
ENDBRANCH   3   5
ENDBRANCH   2   3
BRANCH   2  23
ATOM     23  N   UNL     1     -13.826 -13.799   4.402  1.00  0.00    -0.332 N 
ATOM     24  C   UNL     1     -13.984 -14.871   5.374  1.00  0.00     0.147 C 
BRANCH  23  25
ATOM     25  C   UNL     1     -15.101 -13.231   3.885  1.00  0.00     0.174 C 
BRANCH  25  26
ATOM     26  C   UNL     1     -14.960 -12.628   2.467  1.00  0.00     0.038 C 
BRANCH  26  27
ATOM     27  C   UNL     1     -16.211 -11.950   1.867  1.00  0.00    -0.015 C 
ATOM     28  C   UNL     1     -16.205 -10.434   2.063  1.00  0.00     0.007 C 
ATOM     29  C   UNL     1     -16.447 -12.300   0.400  1.00  0.00     0.007 C 
ENDBRANCH  26  27
ENDBRANCH  25  26
BRANCH  25  30
ATOM     30  C   UNL     1     -15.706 -12.253   4.918  1.00  0.00     0.243 C 
ATOM     31  O   UNL     1     -16.891 -12.304   5.244  1.00  0.00    -0.273 OA
ATOM     32  N   UNL     1     -14.838 -11.327   5.438  1.00  0.00    -0.342 N 
ATOM     33  H   UNL     1     -13.844 -11.439   5.226  1.00  0.00     0.164 HD
BRANCH  32  34
ATOM     34  C   UNL     1     -15.242 -10.306   6.408  1.00  0.00     0.175 C 
BRANCH  34  35
ATOM     35  C   UNL     1     -14.563 -10.528   7.769  1.00  0.00     0.070 C 
BRANCH  35  36
ATOM     36  C   UNL     1     -13.123 -10.969   7.638  1.00  0.00    -0.045 A 
ATOM     37  C   UNL     1     -12.123 -10.026   7.356  1.00  0.00     0.007 A 
ATOM     38  C   UNL     1     -12.769 -12.318   7.773  1.00  0.00     0.007 A 
ATOM     39  C   UNL     1     -10.793 -10.425   7.220  1.00  0.00     0.046 A 
ATOM     40  C   UNL     1     -11.438 -12.719   7.635  1.00  0.00     0.046 A 
ATOM     41  C   UNL     1     -10.461 -11.767   7.361  1.00  0.00     0.115 A 
BRANCH  41  42
ATOM     42  O   UNL     1      -9.151 -12.116   7.218  1.00  0.00    -0.508 OA
ATOM     43  H   UNL     1      -9.063 -12.642   6.405  1.00  0.00     0.293 HD
ENDBRANCH  41  42
ENDBRANCH  35  36
ENDBRANCH  34  35
BRANCH  34  44
ATOM     44  C   UNL     1     -14.904  -8.921   5.814  1.00  0.00     0.243 C 
ATOM     45  O   UNL     1     -14.300  -8.747   4.759  1.00  0.00    -0.273 OA
ATOM     46  N   UNL     1     -15.232  -7.871   6.646  1.00  0.00    -0.341 N 
ATOM     47  H   UNL     1     -15.625  -8.072   7.562  1.00  0.00     0.164 HD
BRANCH  46  48
ATOM     48  C   UNL     1     -14.946  -6.471   6.328  1.00  0.00     0.196 C 
BRANCH  48  49
ATOM     49  C   UNL     1     -16.239  -5.679   6.073  1.00  0.00     0.072 C 
BRANCH  49  50
ATOM     50  C   UNL     1     -16.406  -5.288   4.622  1.00  0.00    -0.045 A 
ATOM     51  C   UNL     1     -16.751  -3.970   4.289  1.00  0.00     0.007 A 
ATOM     52  C   UNL     1     -16.241  -6.229   3.599  1.00  0.00     0.007 A 
ATOM     53  C   UNL     1     -16.920  -3.600   2.955  1.00  0.00     0.046 A 
ATOM     54  C   UNL     1     -16.412  -5.860   2.262  1.00  0.00     0.046 A 
ATOM     55  C   UNL     1     -16.749  -4.547   1.952  1.00  0.00     0.115 A 
BRANCH  55  56
ATOM     56  O   UNL     1     -16.926  -4.146   0.661  1.00  0.00    -0.508 OA
ATOM     57  H   UNL     1     -17.671  -3.525   0.632  1.00  0.00     0.293 HD
ENDBRANCH  55  56
ENDBRANCH  49  50
ENDBRANCH  48  49
BRANCH  48  58
ATOM     58  C   UNL     1     -14.178  -5.840   7.498  1.00  0.00     0.326 C 
ATOM     59  O   UNL     1     -13.371  -6.386   8.233  1.00  0.00    -0.250 OA
BRANCH  58  60
ATOM     60  O   UNL     1     -14.454  -4.524   7.680  1.00  0.00    -0.480 OA
ATOM     61  H   UNL     1     -15.107  -4.530   8.413  1.00  0.00     0.296 HD
ENDBRANCH  58  60
ENDBRANCH  48  58
ENDBRANCH  46  48
ENDBRANCH  34  44
ENDBRANCH  32  34
ENDBRANCH  25  30
ENDBRANCH  23  25
ENDBRANCH   2  23
TORSDOF 28
ENDMDL
MODEL 7
REMARK VINA RESULT:    -7.472      2.287      6.670
REMARK INTER + INTRA:         -23.275
REMARK INTER:                 -17.825
REMARK INTRA:                  -5.451
REMARK UNBOUND:                -4.665
REMARK SMILES CCCCCCC[C@H](N)[C@H](O)C(=O)N[C@H](C)C(=O)N(C)[C@H](CC(C)C)C(=O)N[C@@H](Cc1ccc(O)cc1)C(=O)N[C@@H](Cc1ccc(O)cc1)C(=O)O
REMARK SMILES IDX 18 1 17 2 15 3 16 4 14 5 12 6 13 7 10 9 11 10 8 12 9 13 7 16
REMARK SMILES IDX 6 17 5 18 4 19 3 20 2 21 1 22 19 23 20 24 21 25 22 26 23 27
REMARK SMILES IDX 24 28 25 29 26 30 27 31 28 32 29 34 30 35 31 36 32 37 37 38
REMARK SMILES IDX 33 39 36 40 34 41 35 42 38 44 39 45 40 46 41 48 42 49 43 50
REMARK SMILES IDX 44 51 49 52 45 53 48 54 46 55 47 56 50 58 51 59 52 60
REMARK H PARENT 14 8 11 11 9 14 9 15 28 33 35 43 40 47 47 57 52 61
ROOT
ATOM      1  O   UNL     1     -15.534 -11.383   0.886  1.00  0.00    -0.272 OA
ATOM      2  C   UNL     1     -15.283 -12.334   1.642  1.00  0.00     0.245 C 
ENDROOT
BRANCH   2   3
ATOM      3  C   UNL     1     -13.843 -12.904   1.661  1.00  0.00     0.168 C 
ATOM      4  C   UNL     1     -13.590 -13.779   0.438  1.00  0.00     0.041 C 
BRANCH   3   5
ATOM      5  N   UNL     1     -12.795 -11.912   1.844  1.00  0.00    -0.342 N 
ATOM      6  C   UNL     1     -12.327 -11.569   3.095  1.00  0.00     0.251 C 
ATOM      7  O   UNL     1     -12.778 -12.034   4.136  1.00  0.00    -0.272 OA
ATOM      8  H   UNL     1     -12.367 -11.432   1.055  1.00  0.00     0.164 HD
BRANCH   6   9
ATOM      9  C   UNL     1     -11.126 -10.611   3.038  1.00  0.00     0.219 C 
BRANCH   9  10
ATOM     10  O   UNL     1     -11.419  -9.325   3.597  1.00  0.00    -0.382 OA
ATOM     11  H   UNL     1     -11.774  -8.817   2.834  1.00  0.00     0.211 HD
ENDBRANCH   9  10
BRANCH   9  12
ATOM     12  C   UNL     1      -9.842 -11.207   3.671  1.00  0.00     0.089 C 
BRANCH  12  13
ATOM     13  N   UNL     1      -9.963 -12.682   3.674  1.00  0.00    -0.325 NA
ATOM     14  H   UNL     1      -9.070 -13.093   3.393  1.00  0.00     0.119 HD
ATOM     15  H   UNL     1     -10.625 -12.961   2.946  1.00  0.00     0.119 HD
ENDBRANCH  12  13
BRANCH  12  16
ATOM     16  C   UNL     1      -8.505 -10.784   3.017  1.00  0.00     0.022 C 
BRANCH  16  17
ATOM     17  C   UNL     1      -8.188 -11.257   1.592  1.00  0.00     0.002 C 
BRANCH  17  18
ATOM     18  C   UNL     1      -8.481 -10.237   0.494  1.00  0.00     0.000 C 
BRANCH  18  19
ATOM     19  C   UNL     1      -9.654 -10.622  -0.419  1.00  0.00    -0.000 C 
BRANCH  19  20
ATOM     20  C   UNL     1     -10.088 -12.088  -0.336  1.00  0.00    -0.000 C 
BRANCH  20  21
ATOM     21  C   UNL     1     -10.073 -12.795  -1.694  1.00  0.00    -0.003 C 
ATOM     22  C   UNL     1      -8.684 -13.314  -2.034  1.00  0.00     0.004 C 
ENDBRANCH  20  21
ENDBRANCH  19  20
ENDBRANCH  18  19
ENDBRANCH  17  18
ENDBRANCH  16  17
ENDBRANCH  12  16
ENDBRANCH   9  12
ENDBRANCH   6   9
ENDBRANCH   3   5
ENDBRANCH   2   3
BRANCH   2  23
ATOM     23  N   UNL     1     -16.248 -12.787   2.535  1.00  0.00    -0.332 N 
ATOM     24  C   UNL     1     -17.595 -13.192   2.160  1.00  0.00     0.147 C 
BRANCH  23  25
ATOM     25  C   UNL     1     -15.902 -13.010   3.965  1.00  0.00     0.174 C 
BRANCH  25  26
ATOM     26  C   UNL     1     -16.518 -14.307   4.539  1.00  0.00     0.038 C 
BRANCH  26  27
ATOM     27  C   UNL     1     -15.625 -15.568   4.534  1.00  0.00    -0.015 C 
ATOM     28  C   UNL     1     -14.136 -15.229   4.583  1.00  0.00     0.007 C 
ATOM     29  C   UNL     1     -15.984 -16.571   5.628  1.00  0.00     0.007 C 
ENDBRANCH  26  27
ENDBRANCH  25  26
BRANCH  25  30
ATOM     30  C   UNL     1     -16.230 -11.747   4.795  1.00  0.00     0.243 C 
ATOM     31  O   UNL     1     -17.294 -11.144   4.669  1.00  0.00    -0.273 OA
ATOM     32  N   UNL     1     -15.255 -11.343   5.671  1.00  0.00    -0.342 N 
ATOM     33  H   UNL     1     -14.462 -11.973   5.821  1.00  0.00     0.164 HD
BRANCH  32  34
ATOM     34  C   UNL     1     -15.380 -10.154   6.518  1.00  0.00     0.175 C 
BRANCH  34  35
ATOM     35  C   UNL     1     -14.575 -10.306   7.818  1.00  0.00     0.070 C 
BRANCH  35  36
ATOM     36  C   UNL     1     -13.215 -10.927   7.594  1.00  0.00    -0.045 A 
ATOM     37  C   UNL     1     -12.107 -10.111   7.321  1.00  0.00     0.007 A 
ATOM     38  C   UNL     1     -13.044 -12.317   7.632  1.00  0.00     0.007 A 
ATOM     39  C   UNL     1     -10.851 -10.675   7.099  1.00  0.00     0.046 A 
ATOM     40  C   UNL     1     -11.787 -12.884   7.408  1.00  0.00     0.046 A 
ATOM     41  C   UNL     1     -10.700 -12.056   7.145  1.00  0.00     0.115 A 
BRANCH  41  42
ATOM     42  O   UNL     1      -9.457 -12.568   6.920  1.00  0.00    -0.508 OA
ATOM     43  H   UNL     1      -9.494 -13.529   7.056  1.00  0.00     0.293 HD
ENDBRANCH  41  42
ENDBRANCH  35  36
ENDBRANCH  34  35
BRANCH  34  44
ATOM     44  C   UNL     1     -14.922  -8.930   5.695  1.00  0.00     0.243 C 
ATOM     45  O   UNL     1     -14.084  -8.971   4.798  1.00  0.00    -0.273 OA
ATOM     46  N   UNL     1     -15.448  -7.737   6.145  1.00  0.00    -0.341 N 
ATOM     47  H   UNL     1     -16.048  -7.741   6.966  1.00  0.00     0.164 HD
BRANCH  46  48
ATOM     48  C   UNL     1     -15.106  -6.436   5.566  1.00  0.00     0.196 C 
BRANCH  48  49
ATOM     49  C   UNL     1     -16.356  -5.711   5.040  1.00  0.00     0.072 C 
BRANCH  49  50
ATOM     50  C   UNL     1     -16.528  -5.858   3.545  1.00  0.00    -0.045 A 
ATOM     51  C   UNL     1     -17.297  -4.924   2.835  1.00  0.00     0.007 A 
ATOM     52  C   UNL     1     -15.947  -6.929   2.855  1.00  0.00     0.007 A 
ATOM     53  C   UNL     1     -17.473  -5.056   1.458  1.00  0.00     0.046 A 
ATOM     54  C   UNL     1     -16.125  -7.062   1.476  1.00  0.00     0.046 A 
ATOM     55  C   UNL     1     -16.886  -6.123   0.789  1.00  0.00     0.115 A 
BRANCH  55  56
ATOM     56  O   UNL     1     -17.085  -6.218  -0.557  1.00  0.00    -0.508 OA
ATOM     57  H   UNL     1     -18.033  -6.342  -0.719  1.00  0.00     0.293 HD
ENDBRANCH  55  56
ENDBRANCH  49  50
ENDBRANCH  48  49
BRANCH  48  58
ATOM     58  C   UNL     1     -14.426  -5.576   6.640  1.00  0.00     0.326 C 
ATOM     59  O   UNL     1     -14.632  -4.398   6.883  1.00  0.00    -0.250 OA
BRANCH  58  60
ATOM     60  O   UNL     1     -13.512  -6.255   7.379  1.00  0.00    -0.480 OA
ATOM     61  H   UNL     1     -12.679  -5.762   7.216  1.00  0.00     0.296 HD
ENDBRANCH  58  60
ENDBRANCH  48  58
ENDBRANCH  46  48
ENDBRANCH  34  44
ENDBRANCH  32  34
ENDBRANCH  25  30
ENDBRANCH  23  25
ENDBRANCH   2  23
TORSDOF 28
ENDMDL
MODEL 8
REMARK VINA RESULT:    -7.389      4.215      8.442
REMARK INTER + INTRA:         -23.068
REMARK INTER:                 -19.156
REMARK INTRA:                  -3.912
REMARK UNBOUND:                -4.665
REMARK SMILES CCCCCCC[C@H](N)[C@H](O)C(=O)N[C@H](C)C(=O)N(C)[C@H](CC(C)C)C(=O)N[C@@H](Cc1ccc(O)cc1)C(=O)N[C@@H](Cc1ccc(O)cc1)C(=O)O
REMARK SMILES IDX 18 1 17 2 15 3 16 4 14 5 12 6 13 7 10 9 11 10 8 12 9 13 7 16
REMARK SMILES IDX 6 17 5 18 4 19 3 20 2 21 1 22 19 23 20 24 21 25 22 26 23 27
REMARK SMILES IDX 24 28 25 29 26 30 27 31 28 32 29 34 30 35 31 36 32 37 37 38
REMARK SMILES IDX 33 39 36 40 34 41 35 42 38 44 39 45 40 46 41 48 42 49 43 50
REMARK SMILES IDX 44 51 49 52 45 53 48 54 46 55 47 56 50 58 51 59 52 60
REMARK H PARENT 14 8 11 11 9 14 9 15 28 33 35 43 40 47 47 57 52 61
ROOT
ATOM      1  O   UNL     1      -9.232 -10.915  -1.612  1.00  0.00    -0.272 OA
ATOM      2  C   UNL     1      -9.550 -11.820  -0.826  1.00  0.00     0.245 C 
ENDROOT
BRANCH   2   3
ATOM      3  C   UNL     1      -9.414 -13.290  -1.296  1.00  0.00     0.168 C 
ATOM      4  C   UNL     1     -10.752 -14.016  -1.197  1.00  0.00     0.041 C 
BRANCH   3   5
ATOM      5  N   UNL     1      -8.801 -13.460  -2.603  1.00  0.00    -0.342 N 
ATOM      6  C   UNL     1      -7.473 -13.803  -2.746  1.00  0.00     0.251 C 
ATOM      7  O   UNL     1      -6.707 -13.948  -1.799  1.00  0.00    -0.272 OA
ATOM      8  H   UNL     1      -9.328 -13.332  -3.464  1.00  0.00     0.164 HD
BRANCH   6   9
ATOM      9  C   UNL     1      -7.080 -14.067  -4.208  1.00  0.00     0.219 C 
BRANCH   9  10
ATOM     10  O   UNL     1      -5.703 -13.775  -4.472  1.00  0.00    -0.382 OA
ATOM     11  H   UNL     1      -5.702 -13.495  -5.414  1.00  0.00     0.211 HD
ENDBRANCH   9  10
BRANCH   9  12
ATOM     12  C   UNL     1      -7.442 -15.497  -4.687  1.00  0.00     0.089 C 
BRANCH  12  13
ATOM     13  N   UNL     1      -7.815 -16.306  -3.504  1.00  0.00    -0.325 NA
ATOM     14  H   UNL     1      -8.263 -15.702  -2.812  1.00  0.00     0.119 HD
ATOM     15  H   UNL     1      -6.963 -16.643  -3.052  1.00  0.00     0.119 HD
ENDBRANCH  12  13
BRANCH  12  16
ATOM     16  C   UNL     1      -8.548 -15.591  -5.766  1.00  0.00     0.022 C 
BRANCH  16  17
ATOM     17  C   UNL     1     -10.013 -15.391  -5.354  1.00  0.00     0.002 C 
BRANCH  17  18
ATOM     18  C   UNL     1     -10.798 -14.408  -6.220  1.00  0.00     0.000 C 
BRANCH  18  19
ATOM     19  C   UNL     1      -9.952 -13.705  -7.290  1.00  0.00    -0.000 C 
BRANCH  19  20
ATOM     20  C   UNL     1     -10.094 -12.181  -7.333  1.00  0.00    -0.000 C 
BRANCH  20  21
ATOM     21  C   UNL     1     -10.370 -11.565  -5.959  1.00  0.00    -0.003 C 
ATOM     22  C   UNL     1      -9.088 -11.078  -5.301  1.00  0.00     0.004 C 
ENDBRANCH  20  21
ENDBRANCH  19  20
ENDBRANCH  18  19
ENDBRANCH  17  18
ENDBRANCH  16  17
ENDBRANCH  12  16
ENDBRANCH   9  12
ENDBRANCH   6   9
ENDBRANCH   3   5
ENDBRANCH   2   3
BRANCH   2  23
ATOM     23  N   UNL     1      -9.899 -11.513   0.485  1.00  0.00    -0.332 N 
ATOM     24  C   UNL     1      -8.968 -11.042   1.499  1.00  0.00     0.147 C 
BRANCH  23  25
ATOM     25  C   UNL     1     -11.328 -11.529   0.904  1.00  0.00     0.174 C 
BRANCH  25  26
ATOM     26  C   UNL     1     -11.962 -10.119   0.936  1.00  0.00     0.038 C 
BRANCH  26  27
ATOM     27  C   UNL     1     -13.502 -10.042   0.843  1.00  0.00    -0.015 C 
ATOM     28  C   UNL     1     -14.097  -9.027   1.820  1.00  0.00     0.007 C 
ATOM     29  C   UNL     1     -14.014  -9.788  -0.573  1.00  0.00     0.007 C 
ENDBRANCH  26  27
ENDBRANCH  25  26
BRANCH  25  30
ATOM     30  C   UNL     1     -11.485 -12.312   2.228  1.00  0.00     0.243 C 
ATOM     31  O   UNL     1     -11.178 -13.499   2.322  1.00  0.00    -0.273 OA
ATOM     32  N   UNL     1     -11.992 -11.597   3.283  1.00  0.00    -0.342 N 
ATOM     33  H   UNL     1     -12.089 -10.585   3.166  1.00  0.00     0.164 HD
BRANCH  32  34
ATOM     34  C   UNL     1     -12.234 -12.181   4.605  1.00  0.00     0.175 C 
BRANCH  34  35
ATOM     35  C   UNL     1     -11.909 -11.182   5.725  1.00  0.00     0.070 C 
BRANCH  35  36
ATOM     36  C   UNL     1     -10.906 -11.723   6.719  1.00  0.00    -0.045 A 
ATOM     37  C   UNL     1      -9.915 -10.881   7.246  1.00  0.00     0.007 A 
ATOM     38  C   UNL     1     -10.936 -13.069   7.110  1.00  0.00     0.007 A 
ATOM     39  C   UNL     1      -8.977 -11.375   8.153  1.00  0.00     0.046 A 
ATOM     40  C   UNL     1      -9.996 -13.564   8.017  1.00  0.00     0.046 A 
ATOM     41  C   UNL     1      -9.025 -12.711   8.532  1.00  0.00     0.115 A 
BRANCH  41  42
ATOM     42  O   UNL     1      -8.089 -13.155   9.418  1.00  0.00    -0.508 OA
ATOM     43  H   UNL     1      -7.789 -12.398   9.949  1.00  0.00     0.293 HD
ENDBRANCH  41  42
ENDBRANCH  35  36
ENDBRANCH  34  35
BRANCH  34  44
ATOM     44  C   UNL     1     -13.705 -12.651   4.659  1.00  0.00     0.243 C 
ATOM     45  O   UNL     1     -14.058 -13.799   4.915  1.00  0.00    -0.273 OA
ATOM     46  N   UNL     1     -14.604 -11.685   4.260  1.00  0.00    -0.341 N 
ATOM     47  H   UNL     1     -14.254 -10.784   3.945  1.00  0.00     0.164 HD
BRANCH  46  48
ATOM     48  C   UNL     1     -16.047 -11.917   4.164  1.00  0.00     0.196 C 
BRANCH  48  49
ATOM     49  C   UNL     1     -16.845 -10.715   4.696  1.00  0.00     0.072 C 
BRANCH  49  50
ATOM     50  C   UNL     1     -15.990  -9.756   5.494  1.00  0.00    -0.045 A 
ATOM     51  C   UNL     1     -15.433 -10.167   6.714  1.00  0.00     0.007 A 
ATOM     52  C   UNL     1     -15.760  -8.450   5.045  1.00  0.00     0.007 A 
ATOM     53  C   UNL     1     -14.654  -9.288   7.465  1.00  0.00     0.046 A 
ATOM     54  C   UNL     1     -14.981  -7.569   5.798  1.00  0.00     0.046 A 
ATOM     55  C   UNL     1     -14.433  -7.996   7.002  1.00  0.00     0.115 A 
BRANCH  55  56
ATOM     56  O   UNL     1     -13.667  -7.167   7.768  1.00  0.00    -0.508 OA
ATOM     57  H   UNL     1     -12.899  -7.667   8.085  1.00  0.00     0.293 HD
ENDBRANCH  55  56
ENDBRANCH  49  50
ENDBRANCH  48  49
BRANCH  48  58
ATOM     58  C   UNL     1     -16.415 -12.171   2.695  1.00  0.00     0.326 C 
ATOM     59  O   UNL     1     -15.674 -12.546   1.802  1.00  0.00    -0.250 OA
BRANCH  58  60
ATOM     60  O   UNL     1     -17.725 -11.949   2.420  1.00  0.00    -0.480 OA
ATOM     61  H   UNL     1     -17.861 -11.018   2.699  1.00  0.00     0.296 HD
ENDBRANCH  58  60
ENDBRANCH  48  58
ENDBRANCH  46  48
ENDBRANCH  34  44
ENDBRANCH  32  34
ENDBRANCH  25  30
ENDBRANCH  23  25
ENDBRANCH   2  23
TORSDOF 28
ENDMDL
MODEL 9
REMARK VINA RESULT:    -7.378      2.608      7.313
REMARK INTER + INTRA:         -23.041
REMARK INTER:                 -17.909
REMARK INTRA:                  -5.132
REMARK UNBOUND:                -4.665
REMARK SMILES CCCCCCC[C@H](N)[C@H](O)C(=O)N[C@H](C)C(=O)N(C)[C@H](CC(C)C)C(=O)N[C@@H](Cc1ccc(O)cc1)C(=O)N[C@@H](Cc1ccc(O)cc1)C(=O)O
REMARK SMILES IDX 18 1 17 2 15 3 16 4 14 5 12 6 13 7 10 9 11 10 8 12 9 13 7 16
REMARK SMILES IDX 6 17 5 18 4 19 3 20 2 21 1 22 19 23 20 24 21 25 22 26 23 27
REMARK SMILES IDX 24 28 25 29 26 30 27 31 28 32 29 34 30 35 31 36 32 37 37 38
REMARK SMILES IDX 33 39 36 40 34 41 35 42 38 44 39 45 40 46 41 48 42 49 43 50
REMARK SMILES IDX 44 51 49 52 45 53 48 54 46 55 47 56 50 58 51 59 52 60
REMARK H PARENT 14 8 11 11 9 14 9 15 28 33 35 43 40 47 47 57 52 61
ROOT
ATOM      1  O   UNL     1     -11.479 -14.315  -1.549  1.00  0.00    -0.272 OA
ATOM      2  C   UNL     1     -10.830 -13.527  -0.845  1.00  0.00     0.245 C 
ENDROOT
BRANCH   2   3
ATOM      3  C   UNL     1      -9.294 -13.462  -1.029  1.00  0.00     0.168 C 
ATOM      4  C   UNL     1      -8.934 -13.181  -2.484  1.00  0.00     0.041 C 
BRANCH   3   5
ATOM      5  N   UNL     1      -8.607 -12.561  -0.117  1.00  0.00    -0.342 N 
ATOM      6  C   UNL     1      -7.836 -13.029   0.926  1.00  0.00     0.251 C 
ATOM      7  O   UNL     1      -7.705 -14.220   1.189  1.00  0.00    -0.272 OA
ATOM      8  H   UNL     1      -8.669 -11.550  -0.213  1.00  0.00     0.164 HD
BRANCH   6   9
ATOM      9  C   UNL     1      -7.093 -11.906   1.667  1.00  0.00     0.219 C 
BRANCH   9  10
ATOM     10  O   UNL     1      -5.889 -11.507   1.001  1.00  0.00    -0.382 OA
ATOM     11  H   UNL     1      -6.022 -10.547   0.839  1.00  0.00     0.211 HD
ENDBRANCH   9  10
BRANCH   9  12
ATOM     12  C   UNL     1      -7.990 -10.677   1.967  1.00  0.00     0.089 C 
BRANCH  12  13
ATOM     13  N   UNL     1      -8.089  -9.859   0.737  1.00  0.00    -0.325 NA
ATOM     14  H   UNL     1      -7.287 -10.058   0.136  1.00  0.00     0.119 HD
ATOM     15  H   UNL     1      -7.997  -8.872   0.987  1.00  0.00     0.119 HD
ENDBRANCH  12  13
BRANCH  12  16
ATOM     16  C   UNL     1      -9.404 -10.987   2.514  1.00  0.00     0.022 C 
BRANCH  16  17
ATOM     17  C   UNL     1      -9.756 -10.575   3.950  1.00  0.00     0.002 C 
BRANCH  17  18
ATOM     18  C   UNL     1     -11.178 -10.920   4.390  1.00  0.00     0.000 C 
BRANCH  18  19
ATOM     19  C   UNL     1     -11.360 -10.997   5.911  1.00  0.00    -0.000 C 
BRANCH  19  20
ATOM     20  C   UNL     1     -10.066 -10.908   6.726  1.00  0.00    -0.000 C 
BRANCH  20  21
ATOM     21  C   UNL     1      -9.517 -12.278   7.132  1.00  0.00    -0.003 C 
ATOM     22  C   UNL     1     -10.591 -13.135   7.784  1.00  0.00     0.004 C 
ENDBRANCH  20  21
ENDBRANCH  19  20
ENDBRANCH  18  19
ENDBRANCH  17  18
ENDBRANCH  16  17
ENDBRANCH  12  16
ENDBRANCH   9  12
ENDBRANCH   6   9
ENDBRANCH   3   5
ENDBRANCH   2   3
BRANCH   2  23
ATOM     23  N   UNL     1     -11.492 -12.641  -0.002  1.00  0.00    -0.332 N 
ATOM     24  C   UNL     1     -11.876 -11.285  -0.365  1.00  0.00     0.147 C 
BRANCH  23  25
ATOM     25  C   UNL     1     -11.976 -13.092   1.332  1.00  0.00     0.174 C 
BRANCH  25  26
ATOM     26  C   UNL     1     -11.172 -14.290   1.891  1.00  0.00     0.038 C 
BRANCH  26  27
ATOM     27  C   UNL     1     -11.154 -14.466   3.425  1.00  0.00    -0.015 C 
ATOM     28  C   UNL     1     -12.009 -15.645   3.889  1.00  0.00     0.007 C 
ATOM     29  C   UNL     1      -9.746 -14.561   4.009  1.00  0.00     0.007 C 
ENDBRANCH  26  27
ENDBRANCH  25  26
BRANCH  25  30
ATOM     30  C   UNL     1     -13.502 -13.334   1.290  1.00  0.00     0.243 C 
ATOM     31  O   UNL     1     -14.047 -13.885   0.335  1.00  0.00    -0.273 OA
ATOM     32  N   UNL     1     -14.204 -12.890   2.381  1.00  0.00    -0.342 N 
ATOM     33  H   UNL     1     -13.667 -12.572   3.192  1.00  0.00     0.164 HD
BRANCH  32  34
ATOM     34  C   UNL     1     -15.659 -13.009   2.502  1.00  0.00     0.175 C 
BRANCH  34  35
ATOM     35  C   UNL     1     -16.053 -13.789   3.766  1.00  0.00     0.070 C 
BRANCH  35  36
ATOM     36  C   UNL     1     -15.469 -13.191   5.027  1.00  0.00    -0.045 A 
ATOM     37  C   UNL     1     -14.597 -13.948   5.824  1.00  0.00     0.007 A 
ATOM     38  C   UNL     1     -15.805 -11.892   5.429  1.00  0.00     0.007 A 
ATOM     39  C   UNL     1     -14.064 -13.410   6.996  1.00  0.00     0.046 A 
ATOM     40  C   UNL     1     -15.274 -11.353   6.603  1.00  0.00     0.046 A 
ATOM     41  C   UNL     1     -14.406 -12.118   7.376  1.00  0.00     0.115 A 
BRANCH  41  42
ATOM     42  O   UNL     1     -13.866 -11.631   8.529  1.00  0.00    -0.508 OA
ATOM     43  H   UNL     1     -12.965 -11.983   8.616  1.00  0.00     0.293 HD
ENDBRANCH  41  42
ENDBRANCH  35  36
ENDBRANCH  34  35
BRANCH  34  44
ATOM     44  C   UNL     1     -16.259 -11.585   2.492  1.00  0.00     0.243 C 
ATOM     45  O   UNL     1     -17.458 -11.338   2.399  1.00  0.00    -0.273 OA
ATOM     46  N   UNL     1     -15.306 -10.589   2.465  1.00  0.00    -0.341 N 
ATOM     47  H   UNL     1     -14.323 -10.846   2.425  1.00  0.00     0.164 HD
BRANCH  46  48
ATOM     48  C   UNL     1     -15.633  -9.163   2.384  1.00  0.00     0.196 C 
BRANCH  48  49
ATOM     49  C   UNL     1     -14.574  -8.304   3.094  1.00  0.00     0.072 C 
BRANCH  49  50
ATOM     50  C   UNL     1     -15.183  -7.196   3.923  1.00  0.00    -0.045 A 
ATOM     51  C   UNL     1     -14.882  -7.098   5.289  1.00  0.00     0.007 A 
ATOM     52  C   UNL     1     -16.066  -6.271   3.351  1.00  0.00     0.007 A 
ATOM     53  C   UNL     1     -15.448  -6.088   6.066  1.00  0.00     0.046 A 
ATOM     54  C   UNL     1     -16.634  -5.260   4.130  1.00  0.00     0.046 A 
ATOM     55  C   UNL     1     -16.319  -5.177   5.482  1.00  0.00     0.115 A 
BRANCH  55  56
ATOM     56  O   UNL     1     -16.853  -4.206   6.276  1.00  0.00    -0.508 OA
ATOM     57  H   UNL     1     -17.279  -4.633   7.037  1.00  0.00     0.293 HD
ENDBRANCH  55  56
ENDBRANCH  49  50
ENDBRANCH  48  49
BRANCH  48  58
ATOM     58  C   UNL     1     -15.722  -8.754   0.907  1.00  0.00     0.326 C 
ATOM     59  O   UNL     1     -14.991  -7.982   0.309  1.00  0.00    -0.250 OA
BRANCH  58  60
ATOM     60  O   UNL     1     -16.735  -9.360   0.237  1.00  0.00    -0.480 OA
ATOM     61  H   UNL     1     -17.404  -9.522   0.938  1.00  0.00     0.296 HD
ENDBRANCH  58  60
ENDBRANCH  48  58
ENDBRANCH  46  48
ENDBRANCH  34  44
ENDBRANCH  32  34
ENDBRANCH  25  30
ENDBRANCH  23  25
ENDBRANCH   2  23
TORSDOF 28
ENDMDL
MODEL 10
REMARK VINA RESULT:    -7.377      3.528      8.487
REMARK INTER + INTRA:         -23.039
REMARK INTER:                 -18.395
REMARK INTRA:                  -4.644
REMARK UNBOUND:                -4.665
REMARK SMILES CCCCCCC[C@H](N)[C@H](O)C(=O)N[C@H](C)C(=O)N(C)[C@H](CC(C)C)C(=O)N[C@@H](Cc1ccc(O)cc1)C(=O)N[C@@H](Cc1ccc(O)cc1)C(=O)O
REMARK SMILES IDX 18 1 17 2 15 3 16 4 14 5 12 6 13 7 10 9 11 10 8 12 9 13 7 16
REMARK SMILES IDX 6 17 5 18 4 19 3 20 2 21 1 22 19 23 20 24 21 25 22 26 23 27
REMARK SMILES IDX 24 28 25 29 26 30 27 31 28 32 29 34 30 35 31 36 32 37 37 38
REMARK SMILES IDX 33 39 36 40 34 41 35 42 38 44 39 45 40 46 41 48 42 49 43 50
REMARK SMILES IDX 44 51 49 52 45 53 48 54 46 55 47 56 50 58 51 59 52 60
REMARK H PARENT 14 8 11 11 9 14 9 15 28 33 35 43 40 47 47 57 52 61
ROOT
ATOM      1  O   UNL     1     -12.132 -11.583   1.556  1.00  0.00    -0.272 OA
ATOM      2  C   UNL     1     -11.009 -12.023   1.843  1.00  0.00     0.245 C 
ENDROOT
BRANCH   2   3
ATOM      3  C   UNL     1      -9.778 -11.455   1.093  1.00  0.00     0.168 C 
ATOM      4  C   UNL     1      -8.738 -10.932   2.078  1.00  0.00     0.041 C 
BRANCH   3   5
ATOM      5  N   UNL     1      -9.190 -12.356   0.113  1.00  0.00    -0.342 N 
ATOM      6  C   UNL     1      -9.596 -12.363  -1.205  1.00  0.00     0.251 C 
ATOM      7  O   UNL     1     -10.497 -11.653  -1.638  1.00  0.00    -0.272 OA
ATOM      8  H   UNL     1      -8.458 -13.016   0.363  1.00  0.00     0.164 HD
BRANCH   6   9
ATOM      9  C   UNL     1      -8.743 -13.290  -2.085  1.00  0.00     0.219 C 
BRANCH   9  10
ATOM     10  O   UNL     1      -7.553 -13.738  -1.424  1.00  0.00    -0.382 OA
ATOM     11  H   UNL     1      -6.832 -13.455  -2.028  1.00  0.00     0.211 HD
ENDBRANCH   9  10
BRANCH   9  12
ATOM     12  C   UNL     1      -9.540 -14.491  -2.657  1.00  0.00     0.089 C 
BRANCH  12  13
ATOM     13  N   UNL     1     -10.794 -14.631  -1.882  1.00  0.00    -0.325 NA
ATOM     14  H   UNL     1     -11.257 -13.722  -1.824  1.00  0.00     0.119 HD
ATOM     15  H   UNL     1     -10.561 -14.874  -0.916  1.00  0.00     0.119 HD
ENDBRANCH  12  13
BRANCH  12  16
ATOM     16  C   UNL     1      -9.854 -14.436  -4.171  1.00  0.00     0.022 C 
BRANCH  16  17
ATOM     17  C   UNL     1      -8.966 -15.220  -5.147  1.00  0.00     0.002 C 
BRANCH  17  18
ATOM     18  C   UNL     1      -9.088 -14.800  -6.610  1.00  0.00     0.000 C 
BRANCH  18  19
ATOM     19  C   UNL     1      -9.194 -13.283  -6.817  1.00  0.00    -0.000 C 
BRANCH  19  20
ATOM     20  C   UNL     1      -7.862 -12.528  -6.784  1.00  0.00    -0.000 C 
BRANCH  20  21
ATOM     21  C   UNL     1      -7.645 -11.751  -5.483  1.00  0.00    -0.003 C 
ATOM     22  C   UNL     1      -8.893 -10.982  -5.081  1.00  0.00     0.004 C 
ENDBRANCH  20  21
ENDBRANCH  19  20
ENDBRANCH  18  19
ENDBRANCH  17  18
ENDBRANCH  16  17
ENDBRANCH  12  16
ENDBRANCH   9  12
ENDBRANCH   6   9
ENDBRANCH   3   5
ENDBRANCH   2   3
BRANCH   2  23
ATOM     23  N   UNL     1     -10.860 -12.913   2.900  1.00  0.00    -0.332 N 
ATOM     24  C   UNL     1     -10.280 -14.243   2.785  1.00  0.00     0.147 C 
BRANCH  23  25
ATOM     25  C   UNL     1     -11.183 -12.489   4.290  1.00  0.00     0.174 C 
BRANCH  25  26
ATOM     26  C   UNL     1     -10.079 -12.865   5.307  1.00  0.00     0.038 C 
BRANCH  26  27
ATOM     27  C   UNL     1     -10.278 -12.391   6.764  1.00  0.00    -0.015 C 
ATOM     28  C   UNL     1      -9.774 -13.410   7.784  1.00  0.00     0.007 C 
ATOM     29  C   UNL     1      -9.682 -11.013   7.040  1.00  0.00     0.007 C 
ENDBRANCH  26  27
ENDBRANCH  25  26
BRANCH  25  30
ATOM     30  C   UNL     1     -12.590 -12.993   4.686  1.00  0.00     0.243 C 
ATOM     31  O   UNL     1     -12.776 -14.130   5.117  1.00  0.00    -0.273 OA
ATOM     32  N   UNL     1     -13.611 -12.093   4.520  1.00  0.00    -0.342 N 
ATOM     33  H   UNL     1     -13.359 -11.128   4.293  1.00  0.00     0.164 HD
BRANCH  32  34
ATOM     34  C   UNL     1     -15.012 -12.405   4.817  1.00  0.00     0.175 C 
BRANCH  34  35
ATOM     35  C   UNL     1     -15.346 -12.126   6.291  1.00  0.00     0.070 C 
BRANCH  35  36
ATOM     36  C   UNL     1     -14.656 -10.890   6.822  1.00  0.00    -0.045 A 
ATOM     37  C   UNL     1     -13.557 -11.016   7.685  1.00  0.00     0.007 A 
ATOM     38  C   UNL     1     -15.113  -9.609   6.483  1.00  0.00     0.007 A 
ATOM     39  C   UNL     1     -12.923  -9.881   8.192  1.00  0.00     0.046 A 
ATOM     40  C   UNL     1     -14.479  -8.473   6.992  1.00  0.00     0.046 A 
ATOM     41  C   UNL     1     -13.388  -8.620   7.841  1.00  0.00     0.115 A 
BRANCH  41  42
ATOM     42  O   UNL     1     -12.742  -7.537   8.360  1.00  0.00    -0.508 OA
ATOM     43  H   UNL     1     -12.029  -7.286   7.749  1.00  0.00     0.293 HD
ENDBRANCH  41  42
ENDBRANCH  35  36
ENDBRANCH  34  35
BRANCH  34  44
ATOM     44  C   UNL     1     -15.900 -11.582   3.857  1.00  0.00     0.243 C 
ATOM     45  O   UNL     1     -17.124 -11.660   3.806  1.00  0.00    -0.273 OA
ATOM     46  N   UNL     1     -15.180 -10.830   2.953  1.00  0.00    -0.341 N 
ATOM     47  H   UNL     1     -14.165 -10.889   2.959  1.00  0.00     0.164 HD
BRANCH  46  48
ATOM     48  C   UNL     1     -15.802 -10.021   1.902  1.00  0.00     0.196 C 
BRANCH  48  49
ATOM     49  C   UNL     1     -15.015  -8.724   1.654  1.00  0.00     0.072 C 
BRANCH  49  50
ATOM     50  C   UNL     1     -15.750  -7.495   2.138  1.00  0.00    -0.045 A 
ATOM     51  C   UNL     1     -15.682  -7.126   3.490  1.00  0.00     0.007 A 
ATOM     52  C   UNL     1     -16.522  -6.724   1.260  1.00  0.00     0.007 A 
ATOM     53  C   UNL     1     -16.367  -6.002   3.951  1.00  0.00     0.046 A 
ATOM     54  C   UNL     1     -17.209  -5.599   1.721  1.00  0.00     0.046 A 
ATOM     55  C   UNL     1     -17.125  -5.247   3.064  1.00  0.00     0.115 A 
BRANCH  55  56
ATOM     56  O   UNL     1     -17.781  -4.157   3.555  1.00  0.00    -0.508 OA
ATOM     57  H   UNL     1     -18.517  -3.949   2.958  1.00  0.00     0.293 HD
ENDBRANCH  55  56
ENDBRANCH  49  50
ENDBRANCH  48  49
BRANCH  48  58
ATOM     58  C   UNL     1     -15.860 -10.844   0.608  1.00  0.00     0.326 C 
ATOM     59  O   UNL     1     -15.199 -11.831   0.329  1.00  0.00    -0.250 OA
BRANCH  58  60
ATOM     60  O   UNL     1     -16.775 -10.386  -0.284  1.00  0.00    -0.480 OA
ATOM     61  H   UNL     1     -16.398 -10.651  -1.151  1.00  0.00     0.296 HD
ENDBRANCH  58  60
ENDBRANCH  48  58
ENDBRANCH  46  48
ENDBRANCH  34  44
ENDBRANCH  32  34
ENDBRANCH  25  30
ENDBRANCH  23  25
ENDBRANCH   2  23
TORSDOF 28
ENDMDL
MODEL 11
REMARK VINA RESULT:    -7.347      2.559      6.759
REMARK INTER + INTRA:         -22.964
REMARK INTER:                 -18.414
REMARK INTRA:                  -4.550
REMARK UNBOUND:                -4.665
REMARK SMILES CCCCCCC[C@H](N)[C@H](O)C(=O)N[C@H](C)C(=O)N(C)[C@H](CC(C)C)C(=O)N[C@@H](Cc1ccc(O)cc1)C(=O)N[C@@H](Cc1ccc(O)cc1)C(=O)O
REMARK SMILES IDX 18 1 17 2 15 3 16 4 14 5 12 6 13 7 10 9 11 10 8 12 9 13 7 16
REMARK SMILES IDX 6 17 5 18 4 19 3 20 2 21 1 22 19 23 20 24 21 25 22 26 23 27
REMARK SMILES IDX 24 28 25 29 26 30 27 31 28 32 29 34 30 35 31 36 32 37 37 38
REMARK SMILES IDX 33 39 36 40 34 41 35 42 38 44 39 45 40 46 41 48 42 49 43 50
REMARK SMILES IDX 44 51 49 52 45 53 48 54 46 55 47 56 50 58 51 59 52 60
REMARK H PARENT 14 8 11 11 9 14 9 15 28 33 35 43 40 47 47 57 52 61
ROOT
ATOM      1  O   UNL     1     -13.274  -9.083   3.530  1.00  0.00    -0.272 OA
ATOM      2  C   UNL     1     -13.737  -9.926   2.749  1.00  0.00     0.245 C 
ENDROOT
BRANCH   2   3
ATOM      3  C   UNL     1     -12.977 -10.212   1.430  1.00  0.00     0.168 C 
ATOM      4  C   UNL     1     -13.535  -9.369   0.289  1.00  0.00     0.041 C 
BRANCH   3   5
ATOM      5  N   UNL     1     -11.529 -10.106   1.525  1.00  0.00    -0.342 N 
ATOM      6  C   UNL     1     -10.764 -11.087   2.119  1.00  0.00     0.251 C 
ATOM      7  O   UNL     1     -11.238 -12.089   2.643  1.00  0.00    -0.272 OA
ATOM      8  H   UNL     1     -11.025  -9.302   1.156  1.00  0.00     0.164 HD
BRANCH   6   9
ATOM      9  C   UNL     1      -9.255 -10.831   1.977  1.00  0.00     0.219 C 
BRANCH   9  10
ATOM     10  O   UNL     1      -8.652 -10.387   3.199  1.00  0.00    -0.382 OA
ATOM     11  H   UNL     1      -9.416 -10.078   3.734  1.00  0.00     0.211 HD
ENDBRANCH   9  10
BRANCH   9  12
ATOM     12  C   UNL     1      -8.484 -12.043   1.392  1.00  0.00     0.089 C 
BRANCH  12  13
ATOM     13  N   UNL     1      -8.460 -13.118   2.411  1.00  0.00    -0.325 NA
ATOM     14  H   UNL     1      -9.384 -13.548   2.468  1.00  0.00     0.119 HD
ATOM     15  H   UNL     1      -8.304 -12.698   3.331  1.00  0.00     0.119 HD
ENDBRANCH  12  13
BRANCH  12  16
ATOM     16  C   UNL     1      -9.013 -12.598   0.048  1.00  0.00     0.022 C 
BRANCH  16  17
ATOM     17  C   UNL     1      -9.508 -11.615  -1.022  1.00  0.00     0.002 C 
BRANCH  17  18
ATOM     18  C   UNL     1     -10.598 -12.160  -1.943  1.00  0.00     0.000 C 
BRANCH  18  19
ATOM     19  C   UNL     1     -10.121 -12.454  -3.371  1.00  0.00    -0.000 C 
BRANCH  19  20
ATOM     20  C   UNL     1      -8.621 -12.258  -3.608  1.00  0.00    -0.000 C 
BRANCH  20  21
ATOM     21  C   UNL     1      -8.316 -11.248  -4.718  1.00  0.00    -0.003 C 
ATOM     22  C   UNL     1      -9.525 -11.030  -5.616  1.00  0.00     0.004 C 
ENDBRANCH  20  21
ENDBRANCH  19  20
ENDBRANCH  18  19
ENDBRANCH  17  18
ENDBRANCH  16  17
ENDBRANCH  12  16
ENDBRANCH   9  12
ENDBRANCH   6   9
ENDBRANCH   3   5
ENDBRANCH   2   3
BRANCH   2  23
ATOM     23  N   UNL     1     -14.848 -10.679   3.117  1.00  0.00    -0.332 N 
ATOM     24  C   UNL     1     -16.225 -10.321   2.814  1.00  0.00     0.147 C 
BRANCH  23  25
ATOM     25  C   UNL     1     -14.673 -12.011   3.758  1.00  0.00     0.174 C 
BRANCH  25  26
ATOM     26  C   UNL     1     -15.430 -13.139   3.018  1.00  0.00     0.038 C 
BRANCH  26  27
ATOM     27  C   UNL     1     -14.686 -13.841   1.861  1.00  0.00    -0.015 C 
ATOM     28  C   UNL     1     -14.922 -15.351   1.844  1.00  0.00     0.007 C 
ATOM     29  C   UNL     1     -14.984 -13.235   0.491  1.00  0.00     0.007 C 
ENDBRANCH  26  27
ENDBRANCH  25  26
BRANCH  25  30
ATOM     30  C   UNL     1     -15.004 -11.924   5.265  1.00  0.00     0.243 C 
ATOM     31  O   UNL     1     -15.783 -12.708   5.805  1.00  0.00    -0.273 OA
ATOM     32  N   UNL     1     -14.378 -10.917   5.953  1.00  0.00    -0.342 N 
ATOM     33  H   UNL     1     -13.641 -10.399   5.468  1.00  0.00     0.164 HD
BRANCH  32  34
ATOM     34  C   UNL     1     -14.593 -10.667   7.381  1.00  0.00     0.175 C 
BRANCH  34  35
ATOM     35  C   UNL     1     -13.475 -11.289   8.231  1.00  0.00     0.070 C 
BRANCH  35  36
ATOM     36  C   UNL     1     -12.223 -11.575   7.433  1.00  0.00    -0.045 A 
ATOM     37  C   UNL     1     -11.932 -12.887   7.031  1.00  0.00     0.007 A 
ATOM     38  C   UNL     1     -11.330 -10.547   7.104  1.00  0.00     0.007 A 
ATOM     39  C   UNL     1     -10.773 -13.163   6.306  1.00  0.00     0.046 A 
ATOM     40  C   UNL     1     -10.168 -10.823   6.379  1.00  0.00     0.046 A 
ATOM     41  C   UNL     1      -9.901 -12.130   5.985  1.00  0.00     0.115 A 
BRANCH  41  42
ATOM     42  O   UNL     1      -8.777 -12.442   5.278  1.00  0.00    -0.508 OA
ATOM     43  H   UNL     1      -8.671 -13.408   5.287  1.00  0.00     0.293 HD
ENDBRANCH  41  42
ENDBRANCH  35  36
ENDBRANCH  34  35
BRANCH  34  44
ATOM     44  C   UNL     1     -14.696  -9.139   7.589  1.00  0.00     0.243 C 
ATOM     45  O   UNL     1     -15.233  -8.605   8.556  1.00  0.00    -0.273 OA
ATOM     46  N   UNL     1     -14.238  -8.407   6.515  1.00  0.00    -0.341 N 
ATOM     47  H   UNL     1     -13.909  -8.897   5.687  1.00  0.00     0.164 HD
BRANCH  46  48
ATOM     48  C   UNL     1     -14.296  -6.944   6.453  1.00  0.00     0.196 C 
BRANCH  48  49
ATOM     49  C   UNL     1     -15.742  -6.448   6.286  1.00  0.00     0.072 C 
BRANCH  49  50
ATOM     50  C   UNL     1     -16.059  -6.049   4.863  1.00  0.00    -0.045 A 
ATOM     51  C   UNL     1     -15.776  -6.931   3.810  1.00  0.00     0.007 A 
ATOM     52  C   UNL     1     -16.616  -4.796   4.572  1.00  0.00     0.007 A 
ATOM     53  C   UNL     1     -16.053  -6.568   2.491  1.00  0.00     0.046 A 
ATOM     54  C   UNL     1     -16.891  -4.433   3.252  1.00  0.00     0.046 A 
ATOM     55  C   UNL     1     -16.608  -5.323   2.222  1.00  0.00     0.115 A 
BRANCH  55  56
ATOM     56  O   UNL     1     -16.861  -5.007   0.920  1.00  0.00    -0.508 OA
ATOM     57  H   UNL     1     -17.343  -5.745   0.514  1.00  0.00     0.293 HD
ENDBRANCH  55  56
ENDBRANCH  49  50
ENDBRANCH  48  49
BRANCH  48  58
ATOM     58  C   UNL     1     -13.699  -6.366   7.743  1.00  0.00     0.326 C 
ATOM     59  O   UNL     1     -14.126  -5.431   8.401  1.00  0.00    -0.250 OA
BRANCH  58  60
ATOM     60  O   UNL     1     -12.581  -7.013   8.160  1.00  0.00    -0.480 OA
ATOM     61  H   UNL     1     -11.863  -6.569   7.659  1.00  0.00     0.296 HD
ENDBRANCH  58  60
ENDBRANCH  48  58
ENDBRANCH  46  48
ENDBRANCH  34  44
ENDBRANCH  32  34
ENDBRANCH  25  30
ENDBRANCH  23  25
ENDBRANCH   2  23
TORSDOF 28
ENDMDL
MODEL 12
REMARK VINA RESULT:    -7.296      2.252      8.348
REMARK INTER + INTRA:         -22.837
REMARK INTER:                 -18.300
REMARK INTRA:                  -4.536
REMARK UNBOUND:                -4.665
REMARK SMILES CCCCCCC[C@H](N)[C@H](O)C(=O)N[C@H](C)C(=O)N(C)[C@H](CC(C)C)C(=O)N[C@@H](Cc1ccc(O)cc1)C(=O)N[C@@H](Cc1ccc(O)cc1)C(=O)O
REMARK SMILES IDX 18 1 17 2 15 3 16 4 14 5 12 6 13 7 10 9 11 10 8 12 9 13 7 16
REMARK SMILES IDX 6 17 5 18 4 19 3 20 2 21 1 22 19 23 20 24 21 25 22 26 23 27
REMARK SMILES IDX 24 28 25 29 26 30 27 31 28 32 29 34 30 35 31 36 32 37 37 38
REMARK SMILES IDX 33 39 36 40 34 41 35 42 38 44 39 45 40 46 41 48 42 49 43 50
REMARK SMILES IDX 44 51 49 52 45 53 48 54 46 55 47 56 50 58 51 59 52 60
REMARK H PARENT 14 8 11 11 9 14 9 15 28 33 35 43 40 47 47 57 52 61
ROOT
ATOM      1  O   UNL     1     -16.900 -10.359  -0.052  1.00  0.00    -0.272 OA
ATOM      2  C   UNL     1     -16.124  -9.891   0.795  1.00  0.00     0.245 C 
ENDROOT
BRANCH   2   3
ATOM      3  C   UNL     1     -15.514 -10.847   1.850  1.00  0.00     0.168 C 
ATOM      4  C   UNL     1     -16.468 -11.996   2.156  1.00  0.00     0.041 C 
BRANCH   3   5
ATOM      5  N   UNL     1     -14.174 -11.322   1.542  1.00  0.00    -0.342 N 
ATOM      6  C   UNL     1     -13.051 -10.735   2.083  1.00  0.00     0.251 C 
ATOM      7  O   UNL     1     -13.088  -9.756   2.821  1.00  0.00    -0.272 OA
ATOM      8  H   UNL     1     -14.015 -12.107   0.914  1.00  0.00     0.164 HD
BRANCH   6   9
ATOM      9  C   UNL     1     -11.758 -11.489   1.733  1.00  0.00     0.219 C 
BRANCH   9  10
ATOM     10  O   UNL     1     -11.990 -12.867   1.417  1.00  0.00    -0.382 OA
ATOM     11  H   UNL     1     -11.102 -13.198   1.159  1.00  0.00     0.211 HD
ENDBRANCH   9  10
BRANCH   9  12
ATOM     12  C   UNL     1     -10.934 -10.799   0.615  1.00  0.00     0.089 C 
BRANCH  12  13
ATOM     13  N   UNL     1     -11.190  -9.341   0.678  1.00  0.00    -0.325 NA
ATOM     14  H   UNL     1     -10.343  -8.865   0.992  1.00  0.00     0.119 HD
ATOM     15  H   UNL     1     -11.885  -9.159   1.406  1.00  0.00     0.119 HD
ENDBRANCH  12  13
BRANCH  12  16
ATOM     16  C   UNL     1      -9.411 -11.071   0.629  1.00  0.00     0.022 C 
BRANCH  16  17
ATOM     17  C   UNL     1      -8.853 -12.235  -0.203  1.00  0.00     0.002 C 
BRANCH  17  18
ATOM     18  C   UNL     1      -8.775 -13.572   0.530  1.00  0.00     0.000 C 
BRANCH  18  19
ATOM     19  C   UNL     1      -7.780 -13.587   1.698  1.00  0.00    -0.000 C 
BRANCH  19  20
ATOM     20  C   UNL     1      -8.123 -14.556   2.833  1.00  0.00    -0.000 C 
BRANCH  20  21
ATOM     21  C   UNL     1      -8.847 -13.881   4.001  1.00  0.00    -0.003 C 
ATOM     22  C   UNL     1      -8.698 -12.368   3.945  1.00  0.00     0.004 C 
ENDBRANCH  20  21
ENDBRANCH  19  20
ENDBRANCH  18  19
ENDBRANCH  17  18
ENDBRANCH  16  17
ENDBRANCH  12  16
ENDBRANCH   9  12
ENDBRANCH   6   9
ENDBRANCH   3   5
ENDBRANCH   2   3
BRANCH   2  23
ATOM     23  N   UNL     1     -15.723  -8.562   0.711  1.00  0.00    -0.332 N 
ATOM     24  C   UNL     1     -14.532  -8.101   0.015  1.00  0.00     0.147 C 
BRANCH  23  25
ATOM     25  C   UNL     1     -16.595  -7.480   1.245  1.00  0.00     0.174 C 
BRANCH  25  26
ATOM     26  C   UNL     1     -16.879  -6.368   0.208  1.00  0.00     0.038 C 
BRANCH  26  27
ATOM     27  C   UNL     1     -18.293  -5.746   0.218  1.00  0.00    -0.015 C 
ATOM     28  C   UNL     1     -18.274  -4.257   0.566  1.00  0.00     0.007 C 
ATOM     29  C   UNL     1     -19.071  -5.985  -1.074  1.00  0.00     0.007 C 
ENDBRANCH  26  27
ENDBRANCH  25  26
BRANCH  25  30
ATOM     30  C   UNL     1     -16.029  -6.951   2.583  1.00  0.00     0.243 C 
ATOM     31  O   UNL     1     -15.930  -5.748   2.817  1.00  0.00    -0.273 OA
ATOM     32  N   UNL     1     -15.641  -7.911   3.483  1.00  0.00    -0.342 N 
ATOM     33  H   UNL     1     -15.885  -8.882   3.274  1.00  0.00     0.164 HD
BRANCH  32  34
ATOM     34  C   UNL     1     -15.057  -7.595   4.790  1.00  0.00     0.175 C 
BRANCH  34  35
ATOM     35  C   UNL     1     -15.961  -6.645   5.591  1.00  0.00     0.070 C 
BRANCH  35  36
ATOM     36  C   UNL     1     -15.178  -5.703   6.478  1.00  0.00    -0.045 A 
ATOM     37  C   UNL     1     -15.306  -4.315   6.313  1.00  0.00     0.007 A 
ATOM     38  C   UNL     1     -14.303  -6.195   7.454  1.00  0.00     0.007 A 
ATOM     39  C   UNL     1     -14.578  -3.438   7.117  1.00  0.00     0.046 A 
ATOM     40  C   UNL     1     -13.573  -5.318   8.259  1.00  0.00     0.046 A 
ATOM     41  C   UNL     1     -13.718  -3.946   8.084  1.00  0.00     0.115 A 
BRANCH  41  42
ATOM     42  O   UNL     1     -13.023  -3.055   8.847  1.00  0.00    -0.508 OA
ATOM     43  H   UNL     1     -13.660  -2.474   9.294  1.00  0.00     0.293 HD
ENDBRANCH  41  42
ENDBRANCH  35  36
ENDBRANCH  34  35
BRANCH  34  44
ATOM     44  C   UNL     1     -14.810  -8.924   5.537  1.00  0.00     0.243 C 
ATOM     45  O   UNL     1     -15.683  -9.573   6.107  1.00  0.00    -0.273 OA
ATOM     46  N   UNL     1     -13.477  -9.265   5.625  1.00  0.00    -0.341 N 
ATOM     47  H   UNL     1     -12.779  -8.635   5.238  1.00  0.00     0.164 HD
BRANCH  46  48
ATOM     48  C   UNL     1     -12.992 -10.445   6.345  1.00  0.00     0.196 C 
BRANCH  48  49
ATOM     49  C   UNL     1     -11.597 -10.867   5.854  1.00  0.00     0.072 C 
BRANCH  49  50
ATOM     50  C   UNL     1     -11.091 -12.115   6.541  1.00  0.00    -0.045 A 
ATOM     51  C   UNL     1     -11.715 -13.348   6.300  1.00  0.00     0.007 A 
ATOM     52  C   UNL     1     -10.016 -12.059   7.438  1.00  0.00     0.007 A 
ATOM     53  C   UNL     1     -11.266 -14.504   6.938  1.00  0.00     0.046 A 
ATOM     54  C   UNL     1      -9.567 -13.216   8.078  1.00  0.00     0.046 A 
ATOM     55  C   UNL     1     -10.195 -14.430   7.821  1.00  0.00     0.115 A 
BRANCH  55  56
ATOM     56  O   UNL     1      -9.788 -15.582   8.426  1.00  0.00    -0.508 OA
ATOM     57  H   UNL     1      -9.489 -15.367   9.324  1.00  0.00     0.293 HD
ENDBRANCH  55  56
ENDBRANCH  49  50
ENDBRANCH  48  49
BRANCH  48  58
ATOM     58  C   UNL     1     -12.936 -10.127   7.845  1.00  0.00     0.326 C 
ATOM     59  O   UNL     1     -13.421 -10.777   8.757  1.00  0.00    -0.250 OA
BRANCH  58  60
ATOM     60  O   UNL     1     -12.247  -8.994   8.133  1.00  0.00    -0.480 OA
ATOM     61  H   UNL     1     -11.679  -9.261   8.888  1.00  0.00     0.296 HD
ENDBRANCH  58  60
ENDBRANCH  48  58
ENDBRANCH  46  48
ENDBRANCH  34  44
ENDBRANCH  32  34
ENDBRANCH  25  30
ENDBRANCH  23  25
ENDBRANCH   2  23
TORSDOF 28
ENDMDL
MODEL 13
REMARK VINA RESULT:    -7.292      3.067      8.563
REMARK INTER + INTRA:         -22.827
REMARK INTER:                 -18.323
REMARK INTRA:                  -4.504
REMARK UNBOUND:                -4.665
REMARK SMILES CCCCCCC[C@H](N)[C@H](O)C(=O)N[C@H](C)C(=O)N(C)[C@H](CC(C)C)C(=O)N[C@@H](Cc1ccc(O)cc1)C(=O)N[C@@H](Cc1ccc(O)cc1)C(=O)O
REMARK SMILES IDX 18 1 17 2 15 3 16 4 14 5 12 6 13 7 10 9 11 10 8 12 9 13 7 16
REMARK SMILES IDX 6 17 5 18 4 19 3 20 2 21 1 22 19 23 20 24 21 25 22 26 23 27
REMARK SMILES IDX 24 28 25 29 26 30 27 31 28 32 29 34 30 35 31 36 32 37 37 38
REMARK SMILES IDX 33 39 36 40 34 41 35 42 38 44 39 45 40 46 41 48 42 49 43 50
REMARK SMILES IDX 44 51 49 52 45 53 48 54 46 55 47 56 50 58 51 59 52 60
REMARK H PARENT 14 8 11 11 9 14 9 15 28 33 35 43 40 47 47 57 52 61
ROOT
ATOM      1  O   UNL     1      -7.931 -10.970   4.311  1.00  0.00    -0.272 OA
ATOM      2  C   UNL     1      -8.692 -10.988   3.333  1.00  0.00     0.245 C 
ENDROOT
BRANCH   2   3
ATOM      3  C   UNL     1      -8.133 -10.562   1.952  1.00  0.00     0.168 C 
ATOM      4  C   UNL     1      -6.616 -10.709   1.913  1.00  0.00     0.041 C 
BRANCH   3   5
ATOM      5  N   UNL     1      -8.769 -11.203   0.811  1.00  0.00    -0.342 N 
ATOM      6  C   UNL     1      -9.038 -10.516  -0.353  1.00  0.00     0.251 C 
ATOM      7  O   UNL     1      -8.805  -9.321  -0.502  1.00  0.00    -0.272 OA
ATOM      8  H   UNL     1      -9.041 -12.183   0.830  1.00  0.00     0.164 HD
BRANCH   6   9
ATOM      9  C   UNL     1      -9.579 -11.425  -1.469  1.00  0.00     0.219 C 
BRANCH   9  10
ATOM     10  O   UNL     1      -8.889 -11.245  -2.711  1.00  0.00    -0.382 OA
ATOM     11  H   UNL     1      -9.458 -10.613  -3.202  1.00  0.00     0.211 HD
ENDBRANCH   9  10
BRANCH   9  12
ATOM     12  C   UNL     1      -9.614 -12.923  -1.070  1.00  0.00     0.089 C 
BRANCH  12  13
ATOM     13  N   UNL     1     -10.998 -13.268  -0.670  1.00  0.00    -0.325 NA
ATOM     14  H   UNL     1     -11.047 -14.265  -0.454  1.00  0.00     0.119 HD
ATOM     15  H   UNL     1     -11.617 -13.139  -1.474  1.00  0.00     0.119 HD
ENDBRANCH  12  13
BRANCH  12  16
ATOM     16  C   UNL     1      -9.105 -13.921  -2.137  1.00  0.00     0.022 C 
BRANCH  16  17
ATOM     17  C   UNL     1     -10.091 -14.469  -3.178  1.00  0.00     0.002 C 
BRANCH  17  18
ATOM     18  C   UNL     1      -9.499 -15.484  -4.154  1.00  0.00     0.000 C 
BRANCH  18  19
ATOM     19  C   UNL     1      -8.023 -15.812  -3.896  1.00  0.00    -0.000 C 
BRANCH  19  20
ATOM     20  C   UNL     1      -7.090 -15.593  -5.090  1.00  0.00    -0.000 C 
BRANCH  20  21
ATOM     21  C   UNL     1      -7.080 -14.145  -5.586  1.00  0.00    -0.003 C 
ATOM     22  C   UNL     1      -6.347 -13.232  -4.616  1.00  0.00     0.004 C 
ENDBRANCH  20  21
ENDBRANCH  19  20
ENDBRANCH  18  19
ENDBRANCH  17  18
ENDBRANCH  16  17
ENDBRANCH  12  16
ENDBRANCH   9  12
ENDBRANCH   6   9
ENDBRANCH   3   5
ENDBRANCH   2   3
BRANCH   2  23
ATOM     23  N   UNL     1      -9.979 -11.499   3.462  1.00  0.00    -0.332 N 
ATOM     24  C   UNL     1     -10.307 -12.916   3.481  1.00  0.00     0.147 C 
BRANCH  23  25
ATOM     25  C   UNL     1     -11.126 -10.586   3.724  1.00  0.00     0.174 C 
BRANCH  25  26
ATOM     26  C   UNL     1     -11.825 -10.871   5.074  1.00  0.00     0.038 C 
BRANCH  26  27
ATOM     27  C   UNL     1     -10.917 -11.235   6.270  1.00  0.00    -0.015 C 
ATOM     28  C   UNL     1     -10.706 -10.059   7.223  1.00  0.00     0.007 C 
ATOM     29  C   UNL     1     -11.386 -12.470   7.035  1.00  0.00     0.007 C 
ENDBRANCH  26  27
ENDBRANCH  25  26
BRANCH  25  30
ATOM     30  C   UNL     1     -12.089 -10.581   2.515  1.00  0.00     0.243 C 
ATOM     31  O   UNL     1     -11.728 -10.210   1.398  1.00  0.00    -0.273 OA
ATOM     32  N   UNL     1     -13.366 -11.008   2.771  1.00  0.00    -0.342 N 
ATOM     33  H   UNL     1     -13.549 -11.431   3.685  1.00  0.00     0.164 HD
BRANCH  32  34
ATOM     34  C   UNL     1     -14.419 -11.044   1.753  1.00  0.00     0.175 C 
BRANCH  34  35
ATOM     35  C   UNL     1     -14.922 -12.477   1.519  1.00  0.00     0.070 C 
BRANCH  35  36
ATOM     36  C   UNL     1     -15.148 -13.235   2.808  1.00  0.00    -0.045 A 
ATOM     37  C   UNL     1     -14.087 -13.931   3.407  1.00  0.00     0.007 A 
ATOM     38  C   UNL     1     -16.414 -13.274   3.406  1.00  0.00     0.007 A 
ATOM     39  C   UNL     1     -14.289 -14.645   4.589  1.00  0.00     0.046 A 
ATOM     40  C   UNL     1     -16.617 -13.990   4.588  1.00  0.00     0.046 A 
ATOM     41  C   UNL     1     -15.551 -14.668   5.170  1.00  0.00     0.115 A 
BRANCH  41  42
ATOM     42  O   UNL     1     -15.707 -15.380   6.323  1.00  0.00    -0.508 OA
ATOM     43  H   UNL     1     -15.742 -14.754   7.065  1.00  0.00     0.293 HD
ENDBRANCH  41  42
ENDBRANCH  35  36
ENDBRANCH  34  35
BRANCH  34  44
ATOM     44  C   UNL     1     -15.556 -10.100   2.207  1.00  0.00     0.243 C 
ATOM     45  O   UNL     1     -16.718 -10.176   1.817  1.00  0.00    -0.273 OA
ATOM     46  N   UNL     1     -15.122  -9.062   3.004  1.00  0.00    -0.341 N 
ATOM     47  H   UNL     1     -14.129  -8.975   3.205  1.00  0.00     0.164 HD
BRANCH  46  48
ATOM     48  C   UNL     1     -16.005  -8.004   3.501  1.00  0.00     0.196 C 
BRANCH  48  49
ATOM     49  C   UNL     1     -15.548  -7.493   4.877  1.00  0.00     0.072 C 
BRANCH  49  50
ATOM     50  C   UNL     1     -15.246  -8.616   5.844  1.00  0.00    -0.045 A 
ATOM     51  C   UNL     1     -14.497  -8.359   7.002  1.00  0.00     0.007 A 
ATOM     52  C   UNL     1     -15.685  -9.922   5.592  1.00  0.00     0.007 A 
ATOM     53  C   UNL     1     -14.201  -9.389   7.894  1.00  0.00     0.046 A 
ATOM     54  C   UNL     1     -15.387 -10.954   6.485  1.00  0.00     0.046 A 
ATOM     55  C   UNL     1     -14.647 -10.678   7.629  1.00  0.00     0.115 A 
BRANCH  55  56
ATOM     56  O   UNL     1     -14.335 -11.657   8.526  1.00  0.00    -0.508 OA
ATOM     57  H   UNL     1     -13.466 -11.455   8.909  1.00  0.00     0.293 HD
ENDBRANCH  55  56
ENDBRANCH  49  50
ENDBRANCH  48  49
BRANCH  48  58
ATOM     58  C   UNL     1     -16.008  -6.844   2.496  1.00  0.00     0.326 C 
ATOM     59  O   UNL     1     -16.232  -6.905   1.297  1.00  0.00    -0.250 OA
BRANCH  58  60
ATOM     60  O   UNL     1     -15.740  -5.639   3.059  1.00  0.00    -0.480 OA
ATOM     61  H   UNL     1     -15.601  -5.053   2.283  1.00  0.00     0.296 HD
ENDBRANCH  58  60
ENDBRANCH  48  58
ENDBRANCH  46  48
ENDBRANCH  34  44
ENDBRANCH  32  34
ENDBRANCH  25  30
ENDBRANCH  23  25
ENDBRANCH   2  23
TORSDOF 28
ENDMDL
MODEL 14
REMARK VINA RESULT:    -7.276      2.352      6.767
REMARK INTER + INTRA:         -22.788
REMARK INTER:                 -18.697
REMARK INTRA:                  -4.090
REMARK UNBOUND:                -4.665
REMARK SMILES CCCCCCC[C@H](N)[C@H](O)C(=O)N[C@H](C)C(=O)N(C)[C@H](CC(C)C)C(=O)N[C@@H](Cc1ccc(O)cc1)C(=O)N[C@@H](Cc1ccc(O)cc1)C(=O)O
REMARK SMILES IDX 18 1 17 2 15 3 16 4 14 5 12 6 13 7 10 9 11 10 8 12 9 13 7 16
REMARK SMILES IDX 6 17 5 18 4 19 3 20 2 21 1 22 19 23 20 24 21 25 22 26 23 27
REMARK SMILES IDX 24 28 25 29 26 30 27 31 28 32 29 34 30 35 31 36 32 37 37 38
REMARK SMILES IDX 33 39 36 40 34 41 35 42 38 44 39 45 40 46 41 48 42 49 43 50
REMARK SMILES IDX 44 51 49 52 45 53 48 54 46 55 47 56 50 58 51 59 52 60
REMARK H PARENT 14 8 11 11 9 14 9 15 28 33 35 43 40 47 47 57 52 61
ROOT
ATOM      1  O   UNL     1     -12.344 -11.885   3.437  1.00  0.00    -0.272 OA
ATOM      2  C   UNL     1     -12.824 -12.852   2.827  1.00  0.00     0.245 C 
ENDROOT
BRANCH   2   3
ATOM      3  C   UNL     1     -11.857 -13.875   2.181  1.00  0.00     0.168 C 
ATOM      4  C   UNL     1     -12.182 -14.069   0.704  1.00  0.00     0.041 C 
BRANCH   3   5
ATOM      5  N   UNL     1     -10.444 -13.598   2.393  1.00  0.00    -0.342 N 
ATOM      6  C   UNL     1      -9.475 -14.553   2.172  1.00  0.00     0.251 C 
ATOM      7  O   UNL     1      -9.724 -15.703   1.827  1.00  0.00    -0.272 OA
ATOM      8  H   UNL     1     -10.118 -12.689   2.713  1.00  0.00     0.164 HD
BRANCH   6   9
ATOM      9  C   UNL     1      -8.049 -13.999   2.322  1.00  0.00     0.219 C 
BRANCH   9  10
ATOM     10  O   UNL     1      -7.091 -15.016   2.638  1.00  0.00    -0.382 OA
ATOM     11  H   UNL     1      -6.482 -15.007   1.866  1.00  0.00     0.211 HD
ENDBRANCH   9  10
BRANCH   9  12
ATOM     12  C   UNL     1      -7.587 -13.168   1.097  1.00  0.00     0.089 C 
BRANCH  12  13
ATOM     13  N   UNL     1      -8.393 -13.577  -0.076  1.00  0.00    -0.325 NA
ATOM     14  H   UNL     1      -9.264 -14.003   0.247  1.00  0.00     0.119 HD
ATOM     15  H   UNL     1      -7.900 -14.322  -0.574  1.00  0.00     0.119 HD
ENDBRANCH  12  13
BRANCH  12  16
ATOM     16  C   UNL     1      -7.634 -11.630   1.263  1.00  0.00     0.022 C 
BRANCH  16  17
ATOM     17  C   UNL     1      -8.992 -10.915   1.224  1.00  0.00     0.002 C 
BRANCH  17  18
ATOM     18  C   UNL     1      -9.626 -10.813  -0.162  1.00  0.00     0.000 C 
BRANCH  18  19
ATOM     19  C   UNL     1     -11.159 -10.747  -0.143  1.00  0.00    -0.000 C 
BRANCH  19  20
ATOM     20  C   UNL     1     -11.757  -9.828   0.926  1.00  0.00    -0.000 C 
BRANCH  20  21
ATOM     21  C   UNL     1     -13.234  -9.508   0.683  1.00  0.00    -0.003 C 
ATOM     22  C   UNL     1     -13.766 -10.237  -0.542  1.00  0.00     0.004 C 
ENDBRANCH  20  21
ENDBRANCH  19  20
ENDBRANCH  18  19
ENDBRANCH  17  18
ENDBRANCH  16  17
ENDBRANCH  12  16
ENDBRANCH   9  12
ENDBRANCH   6   9
ENDBRANCH   3   5
ENDBRANCH   2   3
BRANCH   2  23
ATOM     23  N   UNL     1     -14.198 -13.069   2.838  1.00  0.00    -0.332 N 
ATOM     24  C   UNL     1     -15.077 -12.852   1.699  1.00  0.00     0.147 C 
BRANCH  23  25
ATOM     25  C   UNL     1     -14.852 -13.680   4.028  1.00  0.00     0.174 C 
BRANCH  25  26
ATOM     26  C   UNL     1     -15.840 -14.811   3.657  1.00  0.00     0.038 C 
BRANCH  26  27
ATOM     27  C   UNL     1     -15.237 -16.211   3.404  1.00  0.00    -0.015 C 
ATOM     28  C   UNL     1     -15.234 -16.587   1.922  1.00  0.00     0.007 C 
ATOM     29  C   UNL     1     -13.846 -16.392   4.006  1.00  0.00     0.007 C 
ENDBRANCH  26  27
ENDBRANCH  25  26
BRANCH  25  30
ATOM     30  C   UNL     1     -15.475 -12.579   4.917  1.00  0.00     0.243 C 
ATOM     31  O   UNL     1     -16.691 -12.471   5.062  1.00  0.00    -0.273 OA
ATOM     32  N   UNL     1     -14.583 -11.732   5.524  1.00  0.00    -0.342 N 
ATOM     33  H   UNL     1     -13.590 -11.971   5.469  1.00  0.00     0.164 HD
BRANCH  32  34
ATOM     34  C   UNL     1     -14.993 -10.615   6.379  1.00  0.00     0.175 C 
BRANCH  34  35
ATOM     35  C   UNL     1     -14.287 -10.667   7.743  1.00  0.00     0.070 C 
BRANCH  35  36
ATOM     36  C   UNL     1     -12.822 -11.022   7.629  1.00  0.00    -0.045 A 
ATOM     37  C   UNL     1     -11.874 -10.020   7.376  1.00  0.00     0.007 A 
ATOM     38  C   UNL     1     -12.393 -12.351   7.751  1.00  0.00     0.007 A 
ATOM     39  C   UNL     1     -10.521 -10.340   7.256  1.00  0.00     0.046 A 
ATOM     40  C   UNL     1     -11.039 -12.672   7.630  1.00  0.00     0.046 A 
ATOM     41  C   UNL     1     -10.114 -11.662   7.385  1.00  0.00     0.115 A 
BRANCH  41  42
ATOM     42  O   UNL     1      -8.784 -11.934   7.258  1.00  0.00    -0.508 OA
ATOM     43  H   UNL     1      -8.659 -12.483   6.466  1.00  0.00     0.293 HD
ENDBRANCH  41  42
ENDBRANCH  35  36
ENDBRANCH  34  35
BRANCH  34  44
ATOM     44  C   UNL     1     -14.695  -9.300   5.624  1.00  0.00     0.243 C 
ATOM     45  O   UNL     1     -13.954  -9.212   4.649  1.00  0.00    -0.273 OA
ATOM     46  N   UNL     1     -15.240  -8.186   6.227  1.00  0.00    -0.341 N 
ATOM     47  H   UNL     1     -15.750  -8.296   7.100  1.00  0.00     0.164 HD
BRANCH  46  48
ATOM     48  C   UNL     1     -15.037  -6.822   5.733  1.00  0.00     0.196 C 
BRANCH  48  49
ATOM     49  C   UNL     1     -16.336  -6.237   5.153  1.00  0.00     0.072 C 
BRANCH  49  50
ATOM     50  C   UNL     1     -16.342  -6.218   3.642  1.00  0.00    -0.045 A 
ATOM     51  C   UNL     1     -16.726  -5.055   2.959  1.00  0.00     0.007 A 
ATOM     52  C   UNL     1     -15.989  -7.356   2.905  1.00  0.00     0.007 A 
ATOM     53  C   UNL     1     -16.748  -5.030   1.564  1.00  0.00     0.046 A 
ATOM     54  C   UNL     1     -16.012  -7.331   1.509  1.00  0.00     0.046 A 
ATOM     55  C   UNL     1     -16.391  -6.167   0.850  1.00  0.00     0.115 A 
BRANCH  55  56
ATOM     56  O   UNL     1     -16.428  -6.101  -0.512  1.00  0.00    -0.508 OA
ATOM     57  H   UNL     1     -17.219  -6.572  -0.819  1.00  0.00     0.293 HD
ENDBRANCH  55  56
ENDBRANCH  49  50
ENDBRANCH  48  49
BRANCH  48  58
ATOM     58  C   UNL     1     -14.547  -5.940   6.889  1.00  0.00     0.326 C 
ATOM     59  O   UNL     1     -13.691  -6.213   7.716  1.00  0.00    -0.250 OA
BRANCH  58  60
ATOM     60  O   UNL     1     -15.156  -4.729   6.943  1.00  0.00    -0.480 OA
ATOM     61  H   UNL     1     -15.754  -4.742   6.165  1.00  0.00     0.296 HD
ENDBRANCH  58  60
ENDBRANCH  48  58
ENDBRANCH  46  48
ENDBRANCH  34  44
ENDBRANCH  32  34
ENDBRANCH  25  30
ENDBRANCH  23  25
ENDBRANCH   2  23
TORSDOF 28
ENDMDL
MODEL 15
REMARK VINA RESULT:    -7.236      4.224      8.811
REMARK INTER + INTRA:         -22.687
REMARK INTER:                 -19.375
REMARK INTRA:                  -3.312
REMARK UNBOUND:                -4.665
REMARK SMILES CCCCCCC[C@H](N)[C@H](O)C(=O)N[C@H](C)C(=O)N(C)[C@H](CC(C)C)C(=O)N[C@@H](Cc1ccc(O)cc1)C(=O)N[C@@H](Cc1ccc(O)cc1)C(=O)O
REMARK SMILES IDX 18 1 17 2 15 3 16 4 14 5 12 6 13 7 10 9 11 10 8 12 9 13 7 16
REMARK SMILES IDX 6 17 5 18 4 19 3 20 2 21 1 22 19 23 20 24 21 25 22 26 23 27
REMARK SMILES IDX 24 28 25 29 26 30 27 31 28 32 29 34 30 35 31 36 32 37 37 38
REMARK SMILES IDX 33 39 36 40 34 41 35 42 38 44 39 45 40 46 41 48 42 49 43 50
REMARK SMILES IDX 44 51 49 52 45 53 48 54 46 55 47 56 50 58 51 59 52 60
REMARK H PARENT 14 8 11 11 9 14 9 15 28 33 35 43 40 47 47 57 52 61
ROOT
ATOM      1  O   UNL     1     -11.092 -14.241  -1.560  1.00  0.00    -0.272 OA
ATOM      2  C   UNL     1     -10.651 -13.129  -1.234  1.00  0.00     0.245 C 
ENDROOT
BRANCH   2   3
ATOM      3  C   UNL     1      -9.497 -12.516  -2.065  1.00  0.00     0.168 C 
ATOM      4  C   UNL     1      -8.170 -13.188  -1.727  1.00  0.00     0.041 C 
BRANCH   3   5
ATOM      5  N   UNL     1      -9.732 -12.474  -3.500  1.00  0.00    -0.342 N 
ATOM      6  C   UNL     1      -9.136 -11.529  -4.308  1.00  0.00     0.251 C 
ATOM      7  O   UNL     1      -8.406 -10.639  -3.883  1.00  0.00    -0.272 OA
ATOM      8  H   UNL     1     -10.347 -13.140  -3.962  1.00  0.00     0.164 HD
BRANCH   6   9
ATOM      9  C   UNL     1      -9.414 -11.763  -5.801  1.00  0.00     0.219 C 
BRANCH   9  10
ATOM     10  O   UNL     1     -10.280 -10.770  -6.364  1.00  0.00    -0.382 OA
ATOM     11  H   UNL     1     -11.142 -10.937  -5.922  1.00  0.00     0.211 HD
ENDBRANCH   9  10
BRANCH   9  12
ATOM     12  C   UNL     1      -8.122 -11.910  -6.646  1.00  0.00     0.089 C 
BRANCH  12  13
ATOM     13  N   UNL     1      -7.636 -10.555  -6.996  1.00  0.00    -0.325 NA
ATOM     14  H   UNL     1      -6.615 -10.564  -7.033  1.00  0.00     0.119 HD
ATOM     15  H   UNL     1      -7.869  -9.913  -6.235  1.00  0.00     0.119 HD
ENDBRANCH  12  13
BRANCH  12  16
ATOM     16  C   UNL     1      -6.981 -12.734  -6.003  1.00  0.00     0.022 C 
BRANCH  16  17
ATOM     17  C   UNL     1      -7.023 -14.266  -6.096  1.00  0.00     0.002 C 
BRANCH  17  18
ATOM     18  C   UNL     1      -7.256 -14.985  -4.769  1.00  0.00     0.000 C 
BRANCH  18  19
ATOM     19  C   UNL     1      -8.396 -16.012  -4.807  1.00  0.00    -0.000 C 
BRANCH  19  20
ATOM     20  C   UNL     1      -9.799 -15.432  -4.604  1.00  0.00    -0.000 C 
BRANCH  20  21
ATOM     21  C   UNL     1     -10.713 -15.637  -5.815  1.00  0.00    -0.003 C 
ATOM     22  C   UNL     1      -9.965 -16.281  -6.972  1.00  0.00     0.004 C 
ENDBRANCH  20  21
ENDBRANCH  19  20
ENDBRANCH  18  19
ENDBRANCH  17  18
ENDBRANCH  16  17
ENDBRANCH  12  16
ENDBRANCH   9  12
ENDBRANCH   6   9
ENDBRANCH   3   5
ENDBRANCH   2   3
BRANCH   2  23
ATOM     23  N   UNL     1     -11.271 -12.405  -0.220  1.00  0.00    -0.332 N 
ATOM     24  C   UNL     1     -12.609 -12.673   0.286  1.00  0.00     0.147 C 
BRANCH  23  25
ATOM     25  C   UNL     1     -10.519 -11.355   0.520  1.00  0.00     0.174 C 
BRANCH  25  26
ATOM     26  C   UNL     1      -9.432 -11.936   1.454  1.00  0.00     0.038 C 
BRANCH  26  27
ATOM     27  C   UNL     1      -8.344 -10.961   1.954  1.00  0.00    -0.015 C 
ATOM     28  C   UNL     1      -8.342 -10.817   3.475  1.00  0.00     0.007 C 
ATOM     29  C   UNL     1      -6.945 -11.299   1.445  1.00  0.00     0.007 C 
ENDBRANCH  26  27
ENDBRANCH  25  26
BRANCH  25  30
ATOM     30  C   UNL     1     -11.503 -10.398   1.231  1.00  0.00     0.243 C 
ATOM     31  O   UNL     1     -11.949  -9.394   0.677  1.00  0.00    -0.273 OA
ATOM     32  N   UNL     1     -11.838 -10.739   2.516  1.00  0.00    -0.342 N 
ATOM     33  H   UNL     1     -11.540 -11.658   2.855  1.00  0.00     0.164 HD
BRANCH  32  34
ATOM     34  C   UNL     1     -12.735  -9.936   3.351  1.00  0.00     0.175 C 
BRANCH  34  35
ATOM     35  C   UNL     1     -14.209 -10.222   3.024  1.00  0.00     0.070 C 
BRANCH  35  36
ATOM     36  C   UNL     1     -14.982  -8.973   2.668  1.00  0.00    -0.045 A 
ATOM     37  C   UNL     1     -15.564  -8.846   1.397  1.00  0.00     0.007 A 
ATOM     38  C   UNL     1     -15.109  -7.920   3.584  1.00  0.00     0.007 A 
ATOM     39  C   UNL     1     -16.268  -7.692   1.055  1.00  0.00     0.046 A 
ATOM     40  C   UNL     1     -15.812  -6.763   3.241  1.00  0.00     0.046 A 
ATOM     41  C   UNL     1     -16.387  -6.660   1.978  1.00  0.00     0.115 A 
BRANCH  41  42
ATOM     42  O   UNL     1     -17.080  -5.547   1.602  1.00  0.00    -0.508 OA
ATOM     43  H   UNL     1     -16.619  -5.142   0.849  1.00  0.00     0.293 HD
ENDBRANCH  41  42
ENDBRANCH  35  36
ENDBRANCH  34  35
BRANCH  34  44
ATOM     44  C   UNL     1     -12.404 -10.233   4.832  1.00  0.00     0.243 C 
ATOM     45  O   UNL     1     -11.267 -10.364   5.275  1.00  0.00    -0.273 OA
ATOM     46  N   UNL     1     -13.520 -10.471   5.606  1.00  0.00    -0.341 N 
ATOM     47  H   UNL     1     -14.437 -10.466   5.167  1.00  0.00     0.164 HD
BRANCH  46  48
ATOM     48  C   UNL     1     -13.454 -10.838   7.022  1.00  0.00     0.196 C 
BRANCH  48  49
ATOM     49  C   UNL     1     -14.653 -10.276   7.804  1.00  0.00     0.072 C 
BRANCH  49  50
ATOM     50  C   UNL     1     -14.491  -8.812   8.145  1.00  0.00    -0.045 A 
ATOM     51  C   UNL     1     -14.828  -7.833   7.199  1.00  0.00     0.007 A 
ATOM     52  C   UNL     1     -13.986  -8.414   9.389  1.00  0.00     0.007 A 
ATOM     53  C   UNL     1     -14.671  -6.479   7.498  1.00  0.00     0.046 A 
ATOM     54  C   UNL     1     -13.827  -7.058   9.687  1.00  0.00     0.046 A 
ATOM     55  C   UNL     1     -14.172  -6.102   8.739  1.00  0.00     0.115 A 
BRANCH  55  56
ATOM     56  O   UNL     1     -14.031  -4.770   8.990  1.00  0.00    -0.508 OA
ATOM     57  H   UNL     1     -14.479  -4.567   9.827  1.00  0.00     0.293 HD
ENDBRANCH  55  56
ENDBRANCH  49  50
ENDBRANCH  48  49
BRANCH  48  58
ATOM     58  C   UNL     1     -13.434 -12.369   7.140  1.00  0.00     0.326 C 
ATOM     59  O   UNL     1     -12.575 -13.131   6.727  1.00  0.00    -0.250 OA
BRANCH  58  60
ATOM     60  O   UNL     1     -14.508 -12.875   7.797  1.00  0.00    -0.480 OA
ATOM     61  H   UNL     1     -14.105 -13.491   8.447  1.00  0.00     0.296 HD
ENDBRANCH  58  60
ENDBRANCH  48  58
ENDBRANCH  46  48
ENDBRANCH  34  44
ENDBRANCH  32  34
ENDBRANCH  25  30
ENDBRANCH  23  25
ENDBRANCH   2  23
TORSDOF 28
ENDMDL
MODEL 16
REMARK VINA RESULT:    -7.224      3.181      8.042
REMARK INTER + INTRA:         -22.659
REMARK INTER:                 -18.164
REMARK INTRA:                  -4.495
REMARK UNBOUND:                -4.665
REMARK SMILES CCCCCCC[C@H](N)[C@H](O)C(=O)N[C@H](C)C(=O)N(C)[C@H](CC(C)C)C(=O)N[C@@H](Cc1ccc(O)cc1)C(=O)N[C@@H](Cc1ccc(O)cc1)C(=O)O
REMARK SMILES IDX 18 1 17 2 15 3 16 4 14 5 12 6 13 7 10 9 11 10 8 12 9 13 7 16
REMARK SMILES IDX 6 17 5 18 4 19 3 20 2 21 1 22 19 23 20 24 21 25 22 26 23 27
REMARK SMILES IDX 24 28 25 29 26 30 27 31 28 32 29 34 30 35 31 36 32 37 37 38
REMARK SMILES IDX 33 39 36 40 34 41 35 42 38 44 39 45 40 46 41 48 42 49 43 50
REMARK SMILES IDX 44 51 49 52 45 53 48 54 46 55 47 56 50 58 51 59 52 60
REMARK H PARENT 14 8 11 11 9 14 9 15 28 33 35 43 40 47 47 57 52 61
ROOT
ATOM      1  O   UNL     1     -10.226 -15.554   3.541  1.00  0.00    -0.272 OA
ATOM      2  C   UNL     1     -10.049 -14.550   4.247  1.00  0.00     0.245 C 
ENDROOT
BRANCH   2   3
ATOM      3  C   UNL     1      -9.269 -13.352   3.650  1.00  0.00     0.168 C 
ATOM      4  C   UNL     1      -7.831 -13.748   3.331  1.00  0.00     0.041 C 
BRANCH   3   5
ATOM      5  N   UNL     1      -9.916 -12.704   2.520  1.00  0.00    -0.342 N 
ATOM      6  C   UNL     1     -10.089 -11.337   2.467  1.00  0.00     0.251 C 
ATOM      7  O   UNL     1      -9.756 -10.577   3.370  1.00  0.00    -0.272 OA
ATOM      8  H   UNL     1     -10.265 -13.235   1.726  1.00  0.00     0.164 HD
BRANCH   6   9
ATOM      9  C   UNL     1     -10.664 -10.863   1.122  1.00  0.00     0.219 C 
BRANCH   9  10
ATOM     10  O   UNL     1     -11.575  -9.767   1.266  1.00  0.00    -0.382 OA
ATOM     11  H   UNL     1     -12.285 -10.131   1.840  1.00  0.00     0.211 HD
ENDBRANCH   9  10
BRANCH   9  12
ATOM     12  C   UNL     1      -9.569 -10.535   0.074  1.00  0.00     0.089 C 
BRANCH  12  13
ATOM     13  N   UNL     1      -8.246 -10.819   0.675  1.00  0.00    -0.325 NA
ATOM     14  H   UNL     1      -8.270 -10.581   1.668  1.00  0.00     0.119 HD
ATOM     15  H   UNL     1      -7.554 -10.187   0.266  1.00  0.00     0.119 HD
ENDBRANCH  12  13
BRANCH  12  16
ATOM     16  C   UNL     1      -9.699 -11.254  -1.290  1.00  0.00     0.022 C 
BRANCH  16  17
ATOM     17  C   UNL     1      -9.163 -12.685  -1.434  1.00  0.00     0.002 C 
BRANCH  17  18
ATOM     18  C   UNL     1      -9.350 -13.308  -2.816  1.00  0.00     0.000 C 
BRANCH  18  19
ATOM     19  C   UNL     1      -9.909 -12.340  -3.867  1.00  0.00    -0.000 C 
BRANCH  19  20
ATOM     20  C   UNL     1      -9.476 -12.624  -5.308  1.00  0.00    -0.000 C 
BRANCH  20  21
ATOM     21  C   UNL     1      -9.702 -11.436  -6.247  1.00  0.00    -0.003 C 
ATOM     22  C   UNL     1      -8.398 -10.969  -6.874  1.00  0.00     0.004 C 
ENDBRANCH  20  21
ENDBRANCH  19  20
ENDBRANCH  18  19
ENDBRANCH  17  18
ENDBRANCH  16  17
ENDBRANCH  12  16
ENDBRANCH   9  12
ENDBRANCH   6   9
ENDBRANCH   3   5
ENDBRANCH   2   3
BRANCH   2  23
ATOM     23  N   UNL     1     -10.648 -14.465   5.500  1.00  0.00    -0.332 N 
ATOM     24  C   UNL     1     -10.567 -15.495   6.525  1.00  0.00     0.147 C 
BRANCH  23  25
ATOM     25  C   UNL     1     -11.329 -13.211   5.923  1.00  0.00     0.174 C 
BRANCH  25  26
ATOM     26  C   UNL     1     -11.154 -12.911   7.431  1.00  0.00     0.038 C 
BRANCH  26  27
ATOM     27  C   UNL     1     -10.388 -11.622   7.804  1.00  0.00    -0.015 C 
ATOM     28  C   UNL     1      -8.939 -11.899   8.205  1.00  0.00     0.007 C 
ATOM     29  C   UNL     1     -10.450 -10.545   6.724  1.00  0.00     0.007 C 
ENDBRANCH  26  27
ENDBRANCH  25  26
BRANCH  25  30
ATOM     30  C   UNL     1     -12.803 -13.222   5.459  1.00  0.00     0.243 C 
ATOM     31  O   UNL     1     -13.434 -14.269   5.326  1.00  0.00    -0.273 OA
ATOM     32  N   UNL     1     -13.353 -11.993   5.200  1.00  0.00    -0.342 N 
ATOM     33  H   UNL     1     -12.813 -11.167   5.469  1.00  0.00     0.164 HD
BRANCH  32  34
ATOM     34  C   UNL     1     -14.728 -11.814   4.725  1.00  0.00     0.175 C 
BRANCH  34  35
ATOM     35  C   UNL     1     -15.631 -11.243   5.830  1.00  0.00     0.070 C 
BRANCH  35  36
ATOM     36  C   UNL     1     -14.939 -10.187   6.662  1.00  0.00    -0.045 A 
ATOM     37  C   UNL     1     -15.030  -8.835   6.297  1.00  0.00     0.007 A 
ATOM     38  C   UNL     1     -14.185 -10.540   7.789  1.00  0.00     0.007 A 
ATOM     39  C   UNL     1     -14.384  -7.855   7.052  1.00  0.00     0.046 A 
ATOM     40  C   UNL     1     -13.537  -9.559   8.544  1.00  0.00     0.046 A 
ATOM     41  C   UNL     1     -13.644  -8.224   8.168  1.00  0.00     0.115 A 
BRANCH  41  42
ATOM     42  O   UNL     1     -13.026  -7.236   8.876  1.00  0.00    -0.508 OA
ATOM     43  H   UNL     1     -13.395  -7.229   9.775  1.00  0.00     0.293 HD
ENDBRANCH  41  42
ENDBRANCH  35  36
ENDBRANCH  34  35
BRANCH  34  44
ATOM     44  C   UNL     1     -14.689 -10.899   3.481  1.00  0.00     0.243 C 
ATOM     45  O   UNL     1     -13.659 -10.466   2.970  1.00  0.00    -0.273 OA
ATOM     46  N   UNL     1     -15.937 -10.493   3.058  1.00  0.00    -0.341 N 
ATOM     47  H   UNL     1     -16.756 -10.784   3.587  1.00  0.00     0.164 HD
BRANCH  46  48
ATOM     48  C   UNL     1     -16.149  -9.570   1.941  1.00  0.00     0.196 C 
BRANCH  48  49
ATOM     49  C   UNL     1     -15.239  -8.335   2.054  1.00  0.00     0.072 C 
BRANCH  49  50
ATOM     50  C   UNL     1     -16.008  -7.072   2.369  1.00  0.00    -0.045 A 
ATOM     51  C   UNL     1     -15.947  -6.519   3.656  1.00  0.00     0.007 A 
ATOM     52  C   UNL     1     -16.804  -6.452   1.398  1.00  0.00     0.007 A 
ATOM     53  C   UNL     1     -16.662  -5.361   3.962  1.00  0.00     0.046 A 
ATOM     54  C   UNL     1     -17.522  -5.294   1.704  1.00  0.00     0.046 A 
ATOM     55  C   UNL     1     -17.444  -4.757   2.984  1.00  0.00     0.115 A 
BRANCH  55  56
ATOM     56  O   UNL     1     -18.129  -3.628   3.324  1.00  0.00    -0.508 OA
ATOM     57  H   UNL     1     -18.897  -3.548   2.736  1.00  0.00     0.293 HD
ENDBRANCH  55  56
ENDBRANCH  49  50
ENDBRANCH  48  49
BRANCH  48  58
ATOM     58  C   UNL     1     -15.860 -10.304   0.625  1.00  0.00     0.326 C 
ATOM     59  O   UNL     1     -16.634 -10.985  -0.028  1.00  0.00    -0.250 OA
BRANCH  58  60
ATOM     60  O   UNL     1     -14.590 -10.132   0.177  1.00  0.00    -0.480 OA
ATOM     61  H   UNL     1     -14.091  -9.909   0.993  1.00  0.00     0.296 HD
ENDBRANCH  58  60
ENDBRANCH  48  58
ENDBRANCH  46  48
ENDBRANCH  34  44
ENDBRANCH  32  34
ENDBRANCH  25  30
ENDBRANCH  23  25
ENDBRANCH   2  23
TORSDOF 28
ENDMDL
MODEL 17
REMARK VINA RESULT:    -7.224      3.842      8.860
REMARK INTER + INTRA:         -22.658
REMARK INTER:                 -18.837
REMARK INTRA:                  -3.821
REMARK UNBOUND:                -4.665
REMARK SMILES CCCCCCC[C@H](N)[C@H](O)C(=O)N[C@H](C)C(=O)N(C)[C@H](CC(C)C)C(=O)N[C@@H](Cc1ccc(O)cc1)C(=O)N[C@@H](Cc1ccc(O)cc1)C(=O)O
REMARK SMILES IDX 18 1 17 2 15 3 16 4 14 5 12 6 13 7 10 9 11 10 8 12 9 13 7 16
REMARK SMILES IDX 6 17 5 18 4 19 3 20 2 21 1 22 19 23 20 24 21 25 22 26 23 27
REMARK SMILES IDX 24 28 25 29 26 30 27 31 28 32 29 34 30 35 31 36 32 37 37 38
REMARK SMILES IDX 33 39 36 40 34 41 35 42 38 44 39 45 40 46 41 48 42 49 43 50
REMARK SMILES IDX 44 51 49 52 45 53 48 54 46 55 47 56 50 58 51 59 52 60
REMARK H PARENT 14 8 11 11 9 14 9 15 28 33 35 43 40 47 47 57 52 61
ROOT
ATOM      1  O   UNL     1     -11.859 -10.017   3.401  1.00  0.00    -0.272 OA
ATOM      2  C   UNL     1     -12.742 -10.774   3.830  1.00  0.00     0.245 C 
ENDROOT
BRANCH   2   3
ATOM      3  C   UNL     1     -12.683 -11.214   5.314  1.00  0.00     0.168 C 
ATOM      4  C   UNL     1     -11.464 -12.093   5.571  1.00  0.00     0.041 C 
BRANCH   3   5
ATOM      5  N   UNL     1     -12.781 -10.128   6.278  1.00  0.00    -0.342 N 
ATOM      6  C   UNL     1     -13.214 -10.338   7.570  1.00  0.00     0.251 C 
ATOM      7  O   UNL     1     -13.585 -11.430   7.990  1.00  0.00    -0.272 OA
ATOM      8  H   UNL     1     -12.534  -9.172   6.034  1.00  0.00     0.164 HD
BRANCH   6   9
ATOM      9  C   UNL     1     -13.101  -9.081   8.446  1.00  0.00     0.219 C 
BRANCH   9  10
ATOM     10  O   UNL     1     -11.959  -8.280   8.119  1.00  0.00    -0.382 OA
ATOM     11  H   UNL     1     -11.769  -7.797   8.953  1.00  0.00     0.211 HD
ENDBRANCH   9  10
BRANCH   9  12
ATOM     12  C   UNL     1     -14.393  -8.223   8.450  1.00  0.00     0.089 C 
BRANCH  12  13
ATOM     13  N   UNL     1     -15.560  -9.135   8.478  1.00  0.00    -0.325 NA
ATOM     14  H   UNL     1     -16.317  -8.696   9.005  1.00  0.00     0.119 HD
ATOM     15  H   UNL     1     -15.313  -9.972   9.011  1.00  0.00     0.119 HD
ENDBRANCH  12  13
BRANCH  12  16
ATOM     16  C   UNL     1     -14.509  -7.177   9.585  1.00  0.00     0.022 C 
BRANCH  16  17
ATOM     17  C   UNL     1     -14.049  -5.737   9.323  1.00  0.00     0.002 C 
BRANCH  17  18
ATOM     18  C   UNL     1     -13.740  -5.414   7.863  1.00  0.00     0.000 C 
BRANCH  18  19
ATOM     19  C   UNL     1     -14.523  -4.217   7.308  1.00  0.00    -0.000 C 
BRANCH  19  20
ATOM     20  C   UNL     1     -15.360  -4.510   6.060  1.00  0.00    -0.000 C 
BRANCH  20  21
ATOM     21  C   UNL     1     -16.015  -5.894   6.089  1.00  0.00    -0.003 C 
ATOM     22  C   UNL     1     -15.448  -6.798   5.006  1.00  0.00     0.004 C 
ENDBRANCH  20  21
ENDBRANCH  19  20
ENDBRANCH  18  19
ENDBRANCH  17  18
ENDBRANCH  16  17
ENDBRANCH  12  16
ENDBRANCH   9  12
ENDBRANCH   6   9
ENDBRANCH   3   5
ENDBRANCH   2   3
BRANCH   2  23
ATOM     23  N   UNL     1     -13.821 -11.114   3.021  1.00  0.00    -0.332 N 
ATOM     24  C   UNL     1     -15.166 -10.580   3.172  1.00  0.00     0.147 C 
BRANCH  23  25
ATOM     25  C   UNL     1     -13.622 -11.984   1.829  1.00  0.00     0.174 C 
BRANCH  25  26
ATOM     26  C   UNL     1     -13.008 -13.359   2.183  1.00  0.00     0.038 C 
BRANCH  26  27
ATOM     27  C   UNL     1     -13.924 -14.368   2.909  1.00  0.00    -0.015 C 
ATOM     28  C   UNL     1     -14.518 -15.408   1.959  1.00  0.00     0.007 C 
ATOM     29  C   UNL     1     -13.254 -15.050   4.100  1.00  0.00     0.007 C 
ENDBRANCH  26  27
ENDBRANCH  25  26
BRANCH  25  30
ATOM     30  C   UNL     1     -12.841 -11.218   0.736  1.00  0.00     0.243 C 
ATOM     31  O   UNL     1     -13.375 -10.353   0.042  1.00  0.00    -0.273 OA
ATOM     32  N   UNL     1     -11.524 -11.570   0.590  1.00  0.00    -0.342 N 
ATOM     33  H   UNL     1     -11.119 -12.191   1.295  1.00  0.00     0.164 HD
BRANCH  32  34
ATOM     34  C   UNL     1     -10.640 -10.969  -0.412  1.00  0.00     0.175 C 
BRANCH  34  35
ATOM     35  C   UNL     1      -9.290 -10.567   0.202  1.00  0.00     0.070 C 
BRANCH  35  36
ATOM     36  C   UNL     1      -8.759 -11.598   1.172  1.00  0.00    -0.045 A 
ATOM     37  C   UNL     1      -8.779 -11.341   2.551  1.00  0.00     0.007 A 
ATOM     38  C   UNL     1      -8.221 -12.808   0.713  1.00  0.00     0.007 A 
ATOM     39  C   UNL     1      -8.278 -12.280   3.453  1.00  0.00     0.046 A 
ATOM     40  C   UNL     1      -7.718 -13.748   1.615  1.00  0.00     0.046 A 
ATOM     41  C   UNL     1      -7.753 -13.476   2.978  1.00  0.00     0.115 A 
BRANCH  41  42
ATOM     42  O   UNL     1      -7.271 -14.366   3.892  1.00  0.00    -0.508 OA
ATOM     43  H   UNL     1      -7.111 -13.891   4.725  1.00  0.00     0.293 HD
ENDBRANCH  41  42
ENDBRANCH  35  36
ENDBRANCH  34  35
BRANCH  34  44
ATOM     44  C   UNL     1     -10.470 -11.981  -1.568  1.00  0.00     0.243 C 
ATOM     45  O   UNL     1     -11.072 -13.048  -1.650  1.00  0.00    -0.273 OA
ATOM     46  N   UNL     1      -9.470 -11.639  -2.453  1.00  0.00    -0.341 N 
ATOM     47  H   UNL     1      -8.919 -10.803  -2.277  1.00  0.00     0.164 HD
BRANCH  46  48
ATOM     48  C   UNL     1      -9.079 -12.477  -3.589  1.00  0.00     0.196 C 
BRANCH  48  49
ATOM     49  C   UNL     1      -8.494 -11.631  -4.733  1.00  0.00     0.072 C 
BRANCH  49  50
ATOM     50  C   UNL     1      -9.427 -11.531  -5.918  1.00  0.00    -0.045 A 
ATOM     51  C   UNL     1     -10.795 -11.793  -5.755  1.00  0.00     0.007 A 
ATOM     52  C   UNL     1      -8.944 -11.199  -7.190  1.00  0.00     0.007 A 
ATOM     53  C   UNL     1     -11.664 -11.716  -6.843  1.00  0.00     0.046 A 
ATOM     54  C   UNL     1      -9.813 -11.123  -8.281  1.00  0.00     0.046 A 
ATOM     55  C   UNL     1     -11.167 -11.382  -8.097  1.00  0.00     0.115 A 
BRANCH  55  56
ATOM     56  O   UNL     1     -12.049 -11.319  -9.136  1.00  0.00    -0.508 OA
ATOM     57  H   UNL     1     -12.023 -12.165  -9.610  1.00  0.00     0.293 HD
ENDBRANCH  55  56
ENDBRANCH  49  50
ENDBRANCH  48  49
BRANCH  48  58
ATOM     58  C   UNL     1      -8.035 -13.500  -3.120  1.00  0.00     0.326 C 
ATOM     59  O   UNL     1      -6.821 -13.376  -3.131  1.00  0.00    -0.250 OA
BRANCH  58  60
ATOM     60  O   UNL     1      -8.579 -14.645  -2.637  1.00  0.00    -0.480 OA
ATOM     61  H   UNL     1      -7.961 -15.340  -2.952  1.00  0.00     0.296 HD
ENDBRANCH  58  60
ENDBRANCH  48  58
ENDBRANCH  46  48
ENDBRANCH  34  44
ENDBRANCH  32  34
ENDBRANCH  25  30
ENDBRANCH  23  25
ENDBRANCH   2  23
TORSDOF 28
ENDMDL
MODEL 18
REMARK VINA RESULT:    -7.212      3.777      8.993
REMARK INTER + INTRA:         -22.629
REMARK INTER:                 -19.243
REMARK INTRA:                  -3.386
REMARK UNBOUND:                -4.665
REMARK SMILES CCCCCCC[C@H](N)[C@H](O)C(=O)N[C@H](C)C(=O)N(C)[C@H](CC(C)C)C(=O)N[C@@H](Cc1ccc(O)cc1)C(=O)N[C@@H](Cc1ccc(O)cc1)C(=O)O
REMARK SMILES IDX 18 1 17 2 15 3 16 4 14 5 12 6 13 7 10 9 11 10 8 12 9 13 7 16
REMARK SMILES IDX 6 17 5 18 4 19 3 20 2 21 1 22 19 23 20 24 21 25 22 26 23 27
REMARK SMILES IDX 24 28 25 29 26 30 27 31 28 32 29 34 30 35 31 36 32 37 37 38
REMARK SMILES IDX 33 39 36 40 34 41 35 42 38 44 39 45 40 46 41 48 42 49 43 50
REMARK SMILES IDX 44 51 49 52 45 53 48 54 46 55 47 56 50 58 51 59 52 60
REMARK H PARENT 14 8 11 11 9 14 9 15 28 33 35 43 40 47 47 57 52 61
ROOT
ATOM      1  O   UNL     1     -12.517 -11.279  -0.864  1.00  0.00    -0.272 OA
ATOM      2  C   UNL     1     -11.704 -11.804  -0.088  1.00  0.00     0.245 C 
ENDROOT
BRANCH   2   3
ATOM      3  C   UNL     1     -10.354 -12.305  -0.658  1.00  0.00     0.168 C 
ATOM      4  C   UNL     1      -9.697 -13.295   0.298  1.00  0.00     0.041 C 
BRANCH   3   5
ATOM      5  N   UNL     1     -10.418 -12.824  -2.016  1.00  0.00    -0.342 N 
ATOM      6  C   UNL     1      -9.453 -12.526  -2.955  1.00  0.00     0.251 C 
ATOM      7  O   UNL     1      -8.504 -11.781  -2.736  1.00  0.00    -0.272 OA
ATOM      8  H   UNL     1     -11.178 -13.425  -2.325  1.00  0.00     0.164 HD
BRANCH   6   9
ATOM      9  C   UNL     1      -9.648 -13.295  -4.271  1.00  0.00     0.219 C 
BRANCH   9  10
ATOM     10  O   UNL     1     -10.508 -14.432  -4.125  1.00  0.00    -0.382 OA
ATOM     11  H   UNL     1     -11.392 -14.034  -3.970  1.00  0.00     0.211 HD
ENDBRANCH   9  10
BRANCH   9  12
ATOM     12  C   UNL     1     -10.122 -12.392  -5.440  1.00  0.00     0.089 C 
BRANCH  12  13
ATOM     13  N   UNL     1     -11.539 -12.030  -5.205  1.00  0.00    -0.325 NA
ATOM     14  H   UNL     1     -11.843 -12.426  -4.314  1.00  0.00     0.119 HD
ATOM     15  H   UNL     1     -12.119 -12.488  -5.912  1.00  0.00     0.119 HD
ENDBRANCH  12  13
BRANCH  12  16
ATOM     16  C   UNL     1      -9.283 -11.117  -5.695  1.00  0.00     0.022 C 
BRANCH  16  17
ATOM     17  C   UNL     1      -7.910 -11.248  -6.368  1.00  0.00     0.002 C 
BRANCH  17  18
ATOM     18  C   UNL     1      -7.656 -12.587  -7.058  1.00  0.00     0.000 C 
BRANCH  18  19
ATOM     19  C   UNL     1      -6.571 -13.439  -6.386  1.00  0.00    -0.000 C 
BRANCH  19  20
ATOM     20  C   UNL     1      -6.034 -12.884  -5.064  1.00  0.00    -0.000 C 
BRANCH  20  21
ATOM     21  C   UNL     1      -5.990 -13.931  -3.948  1.00  0.00    -0.003 C 
ATOM     22  C   UNL     1      -4.733 -13.790  -3.104  1.00  0.00     0.004 C 
ENDBRANCH  20  21
ENDBRANCH  19  20
ENDBRANCH  18  19
ENDBRANCH  17  18
ENDBRANCH  16  17
ENDBRANCH  12  16
ENDBRANCH   9  12
ENDBRANCH   6   9
ENDBRANCH   3   5
ENDBRANCH   2   3
BRANCH   2  23
ATOM     23  N   UNL     1     -11.961 -11.825   1.278  1.00  0.00    -0.332 N 
ATOM     24  C   UNL     1     -12.580 -12.936   1.986  1.00  0.00     0.147 C 
BRANCH  23  25
ATOM     25  C   UNL     1     -11.481 -10.717   2.149  1.00  0.00     0.174 C 
BRANCH  25  26
ATOM     26  C   UNL     1     -10.946 -11.212   3.514  1.00  0.00     0.038 C 
BRANCH  26  27
ATOM     27  C   UNL     1      -9.498 -10.819   3.882  1.00  0.00    -0.015 C 
ATOM     28  C   UNL     1      -8.934 -11.666   5.022  1.00  0.00     0.007 C 
ATOM     29  C   UNL     1      -8.545 -10.822   2.688  1.00  0.00     0.007 C 
ENDBRANCH  26  27
ENDBRANCH  25  26
BRANCH  25  30
ATOM     30  C   UNL     1     -12.569  -9.625   2.268  1.00  0.00     0.243 C 
ATOM     31  O   UNL     1     -12.752  -8.791   1.382  1.00  0.00    -0.273 OA
ATOM     32  N   UNL     1     -13.306  -9.644   3.424  1.00  0.00    -0.342 N 
ATOM     33  H   UNL     1     -13.191 -10.449   4.045  1.00  0.00     0.164 HD
BRANCH  32  34
ATOM     34  C   UNL     1     -14.360  -8.670   3.720  1.00  0.00     0.175 C 
BRANCH  34  35
ATOM     35  C   UNL     1     -15.523  -8.785   2.723  1.00  0.00     0.070 C 
BRANCH  35  36
ATOM     36  C   UNL     1     -15.979  -7.442   2.198  1.00  0.00    -0.045 A 
ATOM     37  C   UNL     1     -16.218  -6.385   3.089  1.00  0.00     0.007 A 
ATOM     38  C   UNL     1     -16.190  -7.240   0.828  1.00  0.00     0.007 A 
ATOM     39  C   UNL     1     -16.652  -5.146   2.615  1.00  0.00     0.046 A 
ATOM     40  C   UNL     1     -16.625  -6.000   0.353  1.00  0.00     0.046 A 
ATOM     41  C   UNL     1     -16.851  -4.964   1.252  1.00  0.00     0.115 A 
BRANCH  41  42
ATOM     42  O   UNL     1     -17.278  -3.739   0.831  1.00  0.00    -0.508 OA
ATOM     43  H   UNL     1     -17.646  -3.836  -0.063  1.00  0.00     0.293 HD
ENDBRANCH  41  42
ENDBRANCH  35  36
ENDBRANCH  34  35
BRANCH  34  44
ATOM     44  C   UNL     1     -14.823  -8.894   5.177  1.00  0.00     0.243 C 
ATOM     45  O   UNL     1     -15.956  -9.241   5.499  1.00  0.00    -0.273 OA
ATOM     46  N   UNL     1     -13.877  -8.539   6.114  1.00  0.00    -0.341 N 
ATOM     47  H   UNL     1     -12.994  -8.145   5.800  1.00  0.00     0.164 HD
BRANCH  46  48
ATOM     48  C   UNL     1     -14.112  -8.598   7.559  1.00  0.00     0.196 C 
BRANCH  48  49
ATOM     49  C   UNL     1     -13.165  -9.601   8.239  1.00  0.00     0.072 C 
BRANCH  49  50
ATOM     50  C   UNL     1     -13.261 -10.988   7.645  1.00  0.00    -0.045 A 
ATOM     51  C   UNL     1     -12.120 -11.597   7.103  1.00  0.00     0.007 A 
ATOM     52  C   UNL     1     -14.483 -11.672   7.607  1.00  0.00     0.007 A 
ATOM     53  C   UNL     1     -12.200 -12.871   6.540  1.00  0.00     0.046 A 
ATOM     54  C   UNL     1     -14.563 -12.947   7.042  1.00  0.00     0.046 A 
ATOM     55  C   UNL     1     -13.420 -13.537   6.514  1.00  0.00     0.115 A 
BRANCH  55  56
ATOM     56  O   UNL     1     -13.456 -14.779   5.953  1.00  0.00    -0.508 OA
ATOM     57  H   UNL     1     -13.480 -14.678   4.988  1.00  0.00     0.293 HD
ENDBRANCH  55  56
ENDBRANCH  49  50
ENDBRANCH  48  49
BRANCH  48  58
ATOM     58  C   UNL     1     -13.898  -7.201   8.158  1.00  0.00     0.326 C 
ATOM     59  O   UNL     1     -12.879  -6.763   8.666  1.00  0.00    -0.250 OA
BRANCH  58  60
ATOM     60  O   UNL     1     -14.993  -6.403   8.073  1.00  0.00    -0.480 OA
ATOM     61  H   UNL     1     -14.697  -5.676   7.483  1.00  0.00     0.296 HD
ENDBRANCH  58  60
ENDBRANCH  48  58
ENDBRANCH  46  48
ENDBRANCH  34  44
ENDBRANCH  32  34
ENDBRANCH  25  30
ENDBRANCH  23  25
ENDBRANCH   2  23
TORSDOF 28
ENDMDL
MODEL 19
REMARK VINA RESULT:    -7.211      3.897      9.219
REMARK INTER + INTRA:         -22.627
REMARK INTER:                 -18.590
REMARK INTRA:                  -4.037
REMARK UNBOUND:                -4.665
REMARK SMILES CCCCCCC[C@H](N)[C@H](O)C(=O)N[C@H](C)C(=O)N(C)[C@H](CC(C)C)C(=O)N[C@@H](Cc1ccc(O)cc1)C(=O)N[C@@H](Cc1ccc(O)cc1)C(=O)O
REMARK SMILES IDX 18 1 17 2 15 3 16 4 14 5 12 6 13 7 10 9 11 10 8 12 9 13 7 16
REMARK SMILES IDX 6 17 5 18 4 19 3 20 2 21 1 22 19 23 20 24 21 25 22 26 23 27
REMARK SMILES IDX 24 28 25 29 26 30 27 31 28 32 29 34 30 35 31 36 32 37 37 38
REMARK SMILES IDX 33 39 36 40 34 41 35 42 38 44 39 45 40 46 41 48 42 49 43 50
REMARK SMILES IDX 44 51 49 52 45 53 48 54 46 55 47 56 50 58 51 59 52 60
REMARK H PARENT 14 8 11 11 9 14 9 15 28 33 35 43 40 47 47 57 52 61
ROOT
ATOM      1  O   UNL     1      -9.098 -10.428  -0.796  1.00  0.00    -0.272 OA
ATOM      2  C   UNL     1     -10.052 -11.048  -0.304  1.00  0.00     0.245 C 
ENDROOT
BRANCH   2   3
ATOM      3  C   UNL     1     -10.579 -12.304  -1.043  1.00  0.00     0.168 C 
ATOM      4  C   UNL     1     -12.062 -12.516  -0.760  1.00  0.00     0.041 C 
BRANCH   3   5
ATOM      5  N   UNL     1     -10.287 -12.342  -2.467  1.00  0.00    -0.342 N 
ATOM      6  C   UNL     1      -9.254 -13.098  -2.979  1.00  0.00     0.251 C 
ATOM      7  O   UNL     1      -8.486 -13.753  -2.282  1.00  0.00    -0.272 OA
ATOM      8  H   UNL     1     -10.835 -11.812  -3.141  1.00  0.00     0.164 HD
BRANCH   6   9
ATOM      9  C   UNL     1      -9.223 -13.099  -4.516  1.00  0.00     0.219 C 
BRANCH   9  10
ATOM     10  O   UNL     1     -10.532 -13.153  -5.095  1.00  0.00    -0.382 OA
ATOM     11  H   UNL     1     -10.707 -12.223  -5.357  1.00  0.00     0.211 HD
ENDBRANCH   9  10
BRANCH   9  12
ATOM     12  C   UNL     1      -8.406 -11.922  -5.109  1.00  0.00     0.089 C 
BRANCH  12  13
ATOM     13  N   UNL     1      -8.122 -10.956  -4.023  1.00  0.00    -0.325 NA
ATOM     14  H   UNL     1      -7.112 -10.825  -3.946  1.00  0.00     0.119 HD
ATOM     15  H   UNL     1      -8.407 -11.367  -3.132  1.00  0.00     0.119 HD
ENDBRANCH  12  13
BRANCH  12  16
ATOM     16  C   UNL     1      -7.095 -12.305  -5.837  1.00  0.00     0.022 C 
BRANCH  16  17
ATOM     17  C   UNL     1      -6.520 -13.715  -5.648  1.00  0.00     0.002 C 
BRANCH  17  18
ATOM     18  C   UNL     1      -5.691 -13.909  -4.380  1.00  0.00     0.000 C 
BRANCH  18  19
ATOM     19  C   UNL     1      -5.833 -15.299  -3.747  1.00  0.00    -0.000 C 
BRANCH  19  20
ATOM     20  C   UNL     1      -7.003 -16.136  -4.272  1.00  0.00    -0.000 C 
BRANCH  20  21
ATOM     21  C   UNL     1      -6.593 -17.558  -4.668  1.00  0.00    -0.003 C 
ATOM     22  C   UNL     1      -5.200 -17.895  -4.160  1.00  0.00     0.004 C 
ENDBRANCH  20  21
ENDBRANCH  19  20
ENDBRANCH  18  19
ENDBRANCH  17  18
ENDBRANCH  16  17
ENDBRANCH  12  16
ENDBRANCH   9  12
ENDBRANCH   6   9
ENDBRANCH   3   5
ENDBRANCH   2   3
BRANCH   2  23
ATOM     23  N   UNL     1     -10.547 -10.688   0.945  1.00  0.00    -0.332 N 
ATOM     24  C   UNL     1     -11.632  -9.743   1.161  1.00  0.00     0.147 C 
BRANCH  23  25
ATOM     25  C   UNL     1     -10.057 -11.372   2.173  1.00  0.00     0.174 C 
BRANCH  25  26
ATOM     26  C   UNL     1      -8.550 -11.716   2.110  1.00  0.00     0.038 C 
BRANCH  26  27
ATOM     27  C   UNL     1      -7.703 -11.383   3.359  1.00  0.00    -0.015 C 
ATOM     28  C   UNL     1      -6.802 -10.167   3.146  1.00  0.00     0.007 C 
ATOM     29  C   UNL     1      -8.533 -11.221   4.630  1.00  0.00     0.007 C 
ENDBRANCH  26  27
ENDBRANCH  25  26
BRANCH  25  30
ATOM     30  C   UNL     1     -10.958 -12.583   2.503  1.00  0.00     0.243 C 
ATOM     31  O   UNL     1     -10.618 -13.737   2.244  1.00  0.00    -0.273 OA
ATOM     32  N   UNL     1     -12.159 -12.286   3.094  1.00  0.00    -0.342 N 
ATOM     33  H   UNL     1     -12.309 -11.322   3.404  1.00  0.00     0.164 HD
BRANCH  32  34
ATOM     34  C   UNL     1     -13.151 -13.304   3.451  1.00  0.00     0.175 C 
BRANCH  34  35
ATOM     35  C   UNL     1     -12.963 -13.783   4.899  1.00  0.00     0.070 C 
BRANCH  35  36
ATOM     36  C   UNL     1     -13.183 -12.683   5.912  1.00  0.00    -0.045 A 
ATOM     37  C   UNL     1     -14.245 -12.772   6.825  1.00  0.00     0.007 A 
ATOM     38  C   UNL     1     -12.352 -11.555   5.942  1.00  0.00     0.007 A 
ATOM     39  C   UNL     1     -14.464 -11.755   7.755  1.00  0.00     0.046 A 
ATOM     40  C   UNL     1     -12.571 -10.536   6.872  1.00  0.00     0.046 A 
ATOM     41  C   UNL     1     -13.626 -10.647   7.772  1.00  0.00     0.115 A 
BRANCH  41  42
ATOM     42  O   UNL     1     -13.876  -9.674   8.694  1.00  0.00    -0.508 OA
ATOM     43  H   UNL     1     -14.829  -9.673   8.885  1.00  0.00     0.293 HD
ENDBRANCH  41  42
ENDBRANCH  35  36
ENDBRANCH  34  35
BRANCH  34  44
ATOM     44  C   UNL     1     -14.557 -12.705   3.219  1.00  0.00     0.243 C 
ATOM     45  O   UNL     1     -15.601 -13.209   3.623  1.00  0.00    -0.273 OA
ATOM     46  N   UNL     1     -14.554 -11.601   2.393  1.00  0.00    -0.341 N 
ATOM     47  H   UNL     1     -13.674 -11.290   1.988  1.00  0.00     0.164 HD
BRANCH  46  48
ATOM     48  C   UNL     1     -15.772 -10.904   1.975  1.00  0.00     0.196 C 
BRANCH  48  49
ATOM     49  C   UNL     1     -15.587  -9.378   2.017  1.00  0.00     0.072 C 
BRANCH  49  50
ATOM     50  C   UNL     1     -15.515  -8.840   3.428  1.00  0.00    -0.045 A 
ATOM     51  C   UNL     1     -14.950  -7.579   3.667  1.00  0.00     0.007 A 
ATOM     52  C   UNL     1     -15.986  -9.592   4.512  1.00  0.00     0.007 A 
ATOM     53  C   UNL     1     -14.866  -7.077   4.966  1.00  0.00     0.046 A 
ATOM     54  C   UNL     1     -15.901  -9.091   5.813  1.00  0.00     0.046 A 
ATOM     55  C   UNL     1     -15.342  -7.836   6.028  1.00  0.00     0.115 A 
BRANCH  55  56
ATOM     56  O   UNL     1     -15.240  -7.311   7.283  1.00  0.00    -0.508 OA
ATOM     57  H   UNL     1     -15.569  -6.398   7.260  1.00  0.00     0.293 HD
ENDBRANCH  55  56
ENDBRANCH  49  50
ENDBRANCH  48  49
BRANCH  48  58
ATOM     58  C   UNL     1     -16.131 -11.340   0.547  1.00  0.00     0.326 C 
ATOM     59  O   UNL     1     -15.940 -12.432   0.038  1.00  0.00    -0.250 OA
BRANCH  58  60
ATOM     60  O   UNL     1     -16.738 -10.367  -0.179  1.00  0.00    -0.480 OA
ATOM     61  H   UNL     1     -17.003  -9.710   0.501  1.00  0.00     0.296 HD
ENDBRANCH  58  60
ENDBRANCH  48  58
ENDBRANCH  46  48
ENDBRANCH  34  44
ENDBRANCH  32  34
ENDBRANCH  25  30
ENDBRANCH  23  25
ENDBRANCH   2  23
TORSDOF 28
ENDMDL
MODEL 20
REMARK VINA RESULT:    -7.208      3.789      7.914
REMARK INTER + INTRA:         -22.618
REMARK INTER:                 -18.551
REMARK INTRA:                  -4.067
REMARK UNBOUND:                -4.665
REMARK SMILES CCCCCCC[C@H](N)[C@H](O)C(=O)N[C@H](C)C(=O)N(C)[C@H](CC(C)C)C(=O)N[C@@H](Cc1ccc(O)cc1)C(=O)N[C@@H](Cc1ccc(O)cc1)C(=O)O
REMARK SMILES IDX 18 1 17 2 15 3 16 4 14 5 12 6 13 7 10 9 11 10 8 12 9 13 7 16
REMARK SMILES IDX 6 17 5 18 4 19 3 20 2 21 1 22 19 23 20 24 21 25 22 26 23 27
REMARK SMILES IDX 24 28 25 29 26 30 27 31 28 32 29 34 30 35 31 36 32 37 37 38
REMARK SMILES IDX 33 39 36 40 34 41 35 42 38 44 39 45 40 46 41 48 42 49 43 50
REMARK SMILES IDX 44 51 49 52 45 53 48 54 46 55 47 56 50 58 51 59 52 60
REMARK H PARENT 14 8 11 11 9 14 9 15 28 33 35 43 40 47 47 57 52 61
ROOT
ATOM      1  O   UNL     1     -12.377 -10.730   2.285  1.00  0.00    -0.272 OA
ATOM      2  C   UNL     1     -12.303 -11.747   1.579  1.00  0.00     0.245 C 
ENDROOT
BRANCH   2   3
ATOM      3  C   UNL     1     -12.311 -11.582   0.039  1.00  0.00     0.168 C 
ATOM      4  C   UNL     1     -13.255 -10.460  -0.381  1.00  0.00     0.041 C 
BRANCH   3   5
ATOM      5  N   UNL     1     -10.997 -11.440  -0.568  1.00  0.00    -0.342 N 
ATOM      6  C   UNL     1     -10.486 -12.388  -1.428  1.00  0.00     0.251 C 
ATOM      7  O   UNL     1     -11.070 -13.429  -1.712  1.00  0.00    -0.272 OA
ATOM      8  H   UNL     1     -10.404 -10.635  -0.380  1.00  0.00     0.164 HD
BRANCH   6   9
ATOM      9  C   UNL     1      -9.149 -11.962  -2.057  1.00  0.00     0.219 C 
BRANCH   9  10
ATOM     10  O   UNL     1      -8.090 -12.887  -1.783  1.00  0.00    -0.382 OA
ATOM     11  H   UNL     1      -8.556 -13.668  -1.409  1.00  0.00     0.211 HD
ENDBRANCH   9  10
BRANCH   9  12
ATOM     12  C   UNL     1      -9.254 -11.680  -3.578  1.00  0.00     0.089 C 
BRANCH  12  13
ATOM     13  N   UNL     1      -8.478 -10.456  -3.881  1.00  0.00    -0.325 NA
ATOM     14  H   UNL     1      -8.948  -9.935  -4.624  1.00  0.00     0.119 HD
ATOM     15  H   UNL     1      -7.574 -10.726  -4.275  1.00  0.00     0.119 HD
ENDBRANCH  12  13
BRANCH  12  16
ATOM     16  C   UNL     1      -8.816 -12.832  -4.513  1.00  0.00     0.022 C 
BRANCH  16  17
ATOM     17  C   UNL     1      -9.883 -13.588  -5.318  1.00  0.00     0.002 C 
BRANCH  17  18
ATOM     18  C   UNL     1      -9.944 -15.091  -5.054  1.00  0.00     0.000 C 
BRANCH  18  19
ATOM     19  C   UNL     1      -9.196 -15.535  -3.791  1.00  0.00    -0.000 C 
BRANCH  19  20
ATOM     20  C   UNL     1      -8.034 -16.503  -4.030  1.00  0.00    -0.000 C 
BRANCH  20  21
ATOM     21  C   UNL     1      -6.828 -15.840  -4.700  1.00  0.00    -0.003 C 
ATOM     22  C   UNL     1      -5.908 -15.197  -3.674  1.00  0.00     0.004 C 
ENDBRANCH  20  21
ENDBRANCH  19  20
ENDBRANCH  18  19
ENDBRANCH  17  18
ENDBRANCH  16  17
ENDBRANCH  12  16
ENDBRANCH   9  12
ENDBRANCH   6   9
ENDBRANCH   3   5
ENDBRANCH   2   3
BRANCH   2  23
ATOM     23  N   UNL     1     -12.093 -12.989   2.168  1.00  0.00    -0.332 N 
ATOM     24  C   UNL     1     -10.861 -13.756   2.060  1.00  0.00     0.147 C 
BRANCH  23  25
ATOM     25  C   UNL     1     -13.113 -13.568   3.084  1.00  0.00     0.174 C 
BRANCH  25  26
ATOM     26  C   UNL     1     -14.542 -13.047   2.800  1.00  0.00     0.038 C 
BRANCH  26  27
ATOM     27  C   UNL     1     -15.470 -13.965   1.973  1.00  0.00    -0.015 C 
ATOM     28  C   UNL     1     -16.946 -13.766   2.317  1.00  0.00     0.007 C 
ATOM     29  C   UNL     1     -15.250 -13.851   0.466  1.00  0.00     0.007 C 
ENDBRANCH  26  27
ENDBRANCH  25  26
BRANCH  25  30
ATOM     30  C   UNL     1     -12.669 -13.394   4.554  1.00  0.00     0.243 C 
ATOM     31  O   UNL     1     -12.360 -14.354   5.258  1.00  0.00    -0.273 OA
ATOM     32  N   UNL     1     -12.649 -12.104   5.019  1.00  0.00    -0.342 N 
ATOM     33  H   UNL     1     -12.781 -11.353   4.337  1.00  0.00     0.164 HD
BRANCH  32  34
ATOM     34  C   UNL     1     -12.281 -11.752   6.393  1.00  0.00     0.175 C 
BRANCH  34  35
ATOM     35  C   UNL     1     -10.905 -11.070   6.446  1.00  0.00     0.070 C 
BRANCH  35  36
ATOM     36  C   UNL     1      -9.960 -11.735   7.421  1.00  0.00    -0.045 A 
ATOM     37  C   UNL     1      -9.020 -10.964   8.124  1.00  0.00     0.007 A 
ATOM     38  C   UNL     1      -9.990 -13.121   7.621  1.00  0.00     0.007 A 
ATOM     39  C   UNL     1      -8.135 -11.570   9.015  1.00  0.00     0.046 A 
ATOM     40  C   UNL     1      -9.103 -13.729   8.513  1.00  0.00     0.046 A 
ATOM     41  C   UNL     1      -8.183 -12.946   9.203  1.00  0.00     0.115 A 
BRANCH  41  42
ATOM     42  O   UNL     1      -7.299 -13.499  10.081  1.00  0.00    -0.508 OA
ATOM     43  H   UNL     1      -7.803 -13.909  10.804  1.00  0.00     0.293 HD
ENDBRANCH  41  42
ENDBRANCH  35  36
ENDBRANCH  34  35
BRANCH  34  44
ATOM     44  C   UNL     1     -13.395 -10.851   6.972  1.00  0.00     0.243 C 
ATOM     45  O   UNL     1     -14.347 -11.261   7.630  1.00  0.00    -0.273 OA
ATOM     46  N   UNL     1     -13.299  -9.535   6.571  1.00  0.00    -0.341 N 
ATOM     47  H   UNL     1     -12.557  -9.267   5.930  1.00  0.00     0.164 HD
BRANCH  46  48
ATOM     48  C   UNL     1     -14.278  -8.509   6.937  1.00  0.00     0.196 C 
BRANCH  48  49
ATOM     49  C   UNL     1     -15.657  -8.808   6.326  1.00  0.00     0.072 C 
BRANCH  49  50
ATOM     50  C   UNL     1     -15.685  -8.613   4.827  1.00  0.00    -0.045 A 
ATOM     51  C   UNL     1     -15.686  -7.318   4.290  1.00  0.00     0.007 A 
ATOM     52  C   UNL     1     -15.729  -9.711   3.959  1.00  0.00     0.007 A 
ATOM     53  C   UNL     1     -15.725  -7.126   2.909  1.00  0.00     0.046 A 
ATOM     54  C   UNL     1     -15.769  -9.519   2.576  1.00  0.00     0.046 A 
ATOM     55  C   UNL     1     -15.765  -8.227   2.062  1.00  0.00     0.115 A 
BRANCH  55  56
ATOM     56  O   UNL     1     -15.804  -7.997   0.719  1.00  0.00    -0.508 OA
ATOM     57  H   UNL     1     -14.949  -7.625   0.448  1.00  0.00     0.293 HD
ENDBRANCH  55  56
ENDBRANCH  49  50
ENDBRANCH  48  49
BRANCH  48  58
ATOM     58  C   UNL     1     -14.394  -8.451   8.466  1.00  0.00     0.326 C 
ATOM     59  O   UNL     1     -13.539  -8.089   9.259  1.00  0.00    -0.250 OA
BRANCH  58  60
ATOM     60  O   UNL     1     -15.605  -8.845   8.933  1.00  0.00    -0.480 OA
ATOM     61  H   UNL     1     -15.589  -8.561   9.872  1.00  0.00     0.296 HD
ENDBRANCH  58  60
ENDBRANCH  48  58
ENDBRANCH  46  48
ENDBRANCH  34  44
ENDBRANCH  32  34
ENDBRANCH  25  30
ENDBRANCH  23  25
ENDBRANCH   2  23
TORSDOF 28
ENDMDL
MODEL 21
REMARK VINA RESULT:    -7.200      2.769      4.986
REMARK INTER + INTRA:         -22.599
REMARK INTER:                 -16.736
REMARK INTRA:                  -5.863
REMARK UNBOUND:                -4.665
REMARK SMILES CCCCCCC[C@H](N)[C@H](O)C(=O)N[C@H](C)C(=O)N(C)[C@H](CC(C)C)C(=O)N[C@@H](Cc1ccc(O)cc1)C(=O)N[C@@H](Cc1ccc(O)cc1)C(=O)O
REMARK SMILES IDX 18 1 17 2 15 3 16 4 14 5 12 6 13 7 10 9 11 10 8 12 9 13 7 16
REMARK SMILES IDX 6 17 5 18 4 19 3 20 2 21 1 22 19 23 20 24 21 25 22 26 23 27
REMARK SMILES IDX 24 28 25 29 26 30 27 31 28 32 29 34 30 35 31 36 32 37 37 38
REMARK SMILES IDX 33 39 36 40 34 41 35 42 38 44 39 45 40 46 41 48 42 49 43 50
REMARK SMILES IDX 44 51 49 52 45 53 48 54 46 55 47 56 50 58 51 59 52 60
REMARK H PARENT 14 8 11 11 9 14 9 15 28 33 35 43 40 47 47 57 52 61
ROOT
ATOM      1  O   UNL     1     -14.827 -13.670   7.104  1.00  0.00    -0.272 OA
ATOM      2  C   UNL     1     -14.641 -14.350   6.083  1.00  0.00     0.245 C 
ENDROOT
BRANCH   2   3
ATOM      3  C   UNL     1     -15.689 -14.279   4.944  1.00  0.00     0.168 C 
ATOM      4  C   UNL     1     -17.077 -13.986   5.503  1.00  0.00     0.041 C 
BRANCH   3   5
ATOM      5  N   UNL     1     -15.344 -13.382   3.852  1.00  0.00    -0.342 N 
ATOM      6  C   UNL     1     -15.747 -13.625   2.556  1.00  0.00     0.251 C 
ATOM      7  O   UNL     1     -16.381 -14.619   2.220  1.00  0.00    -0.272 OA
ATOM      8  H   UNL     1     -14.791 -12.542   4.003  1.00  0.00     0.164 HD
BRANCH   6   9
ATOM      9  C   UNL     1     -15.392 -12.476   1.598  1.00  0.00     0.219 C 
BRANCH   9  10
ATOM     10  O   UNL     1     -15.270 -12.909   0.238  1.00  0.00    -0.382 OA
ATOM     11  H   UNL     1     -15.644 -12.160  -0.277  1.00  0.00     0.211 HD
ENDBRANCH   9  10
BRANCH   9  12
ATOM     12  C   UNL     1     -16.361 -11.270   1.708  1.00  0.00     0.089 C 
BRANCH  12  13
ATOM     13  N   UNL     1     -17.526 -11.679   2.525  1.00  0.00    -0.325 NA
ATOM     14  H   UNL     1     -18.231 -10.941   2.499  1.00  0.00     0.119 HD
ATOM     15  H   UNL     1     -17.238 -11.739   3.505  1.00  0.00     0.119 HD
ENDBRANCH  12  13
BRANCH  12  16
ATOM     16  C   UNL     1     -15.753  -9.961   2.266  1.00  0.00     0.022 C 
BRANCH  16  17
ATOM     17  C   UNL     1     -14.607  -9.284   1.502  1.00  0.00     0.002 C 
BRANCH  17  18
ATOM     18  C   UNL     1     -13.207  -9.617   2.014  1.00  0.00     0.000 C 
BRANCH  18  19
ATOM     19  C   UNL     1     -12.161  -9.790   0.905  1.00  0.00    -0.000 C 
BRANCH  19  20
ATOM     20  C   UNL     1     -12.498 -10.851  -0.147  1.00  0.00    -0.000 C 
BRANCH  20  21
ATOM     21  C   UNL     1     -11.403 -11.909  -0.304  1.00  0.00    -0.003 C 
ATOM     22  C   UNL     1     -10.118 -11.300  -0.844  1.00  0.00     0.004 C 
ENDBRANCH  20  21
ENDBRANCH  19  20
ENDBRANCH  18  19
ENDBRANCH  17  18
ENDBRANCH  16  17
ENDBRANCH  12  16
ENDBRANCH   9  12
ENDBRANCH   6   9
ENDBRANCH   3   5
ENDBRANCH   2   3
BRANCH   2  23
ATOM     23  N   UNL     1     -13.455 -15.059   5.927  1.00  0.00    -0.332 N 
ATOM     24  C   UNL     1     -13.065 -16.205   6.735  1.00  0.00     0.147 C 
BRANCH  23  25
ATOM     25  C   UNL     1     -12.539 -14.750   4.795  1.00  0.00     0.174 C 
BRANCH  25  26
ATOM     26  C   UNL     1     -11.989 -16.019   4.102  1.00  0.00     0.038 C 
BRANCH  26  27
ATOM     27  C   UNL     1     -12.419 -16.259   2.637  1.00  0.00    -0.015 C 
ATOM     28  C   UNL     1     -13.785 -16.937   2.533  1.00  0.00     0.007 C 
ATOM     29  C   UNL     1     -12.379 -14.998   1.778  1.00  0.00     0.007 C 
ENDBRANCH  26  27
ENDBRANCH  25  26
BRANCH  25  30
ATOM     30  C   UNL     1     -11.439 -13.766   5.254  1.00  0.00     0.243 C 
ATOM     31  O   UNL     1     -10.464 -14.139   5.905  1.00  0.00    -0.273 OA
ATOM     32  N   UNL     1     -11.626 -12.456   4.894  1.00  0.00    -0.342 N 
ATOM     33  H   UNL     1     -12.383 -12.250   4.236  1.00  0.00     0.164 HD
BRANCH  32  34
ATOM     34  C   UNL     1     -10.701 -11.383   5.265  1.00  0.00     0.175 C 
BRANCH  34  35
ATOM     35  C   UNL     1     -10.309 -10.536   4.044  1.00  0.00     0.070 C 
BRANCH  35  36
ATOM     36  C   UNL     1      -9.292 -11.222   3.160  1.00  0.00    -0.045 A 
ATOM     37  C   UNL     1      -8.144 -10.530   2.744  1.00  0.00     0.007 A 
ATOM     38  C   UNL     1      -9.488 -12.539   2.726  1.00  0.00     0.007 A 
ATOM     39  C   UNL     1      -7.207 -11.149   1.916  1.00  0.00     0.046 A 
ATOM     40  C   UNL     1      -8.551 -13.160   1.896  1.00  0.00     0.046 A 
ATOM     41  C   UNL     1      -7.417 -12.459   1.500  1.00  0.00     0.115 A 
BRANCH  41  42
ATOM     42  O   UNL     1      -6.479 -13.026   0.690  1.00  0.00    -0.508 OA
ATOM     43  H   UNL     1      -6.349 -13.947   0.972  1.00  0.00     0.293 HD
ENDBRANCH  41  42
ENDBRANCH  35  36
ENDBRANCH  34  35
BRANCH  34  44
ATOM     44  C   UNL     1     -11.372 -10.531   6.366  1.00  0.00     0.243 C 
ATOM     45  O   UNL     1     -10.863 -10.278   7.454  1.00  0.00    -0.273 OA
ATOM     46  N   UNL     1     -12.673 -10.179   6.071  1.00  0.00    -0.341 N 
ATOM     47  H   UNL     1     -13.090 -10.512   5.206  1.00  0.00     0.164 HD
BRANCH  46  48
ATOM     48  C   UNL     1     -13.533  -9.431   6.990  1.00  0.00     0.196 C 
BRANCH  48  49
ATOM     49  C   UNL     1     -14.430  -8.437   6.234  1.00  0.00     0.072 C 
BRANCH  49  50
ATOM     50  C   UNL     1     -14.315  -7.027   6.767  1.00  0.00    -0.045 A 
ATOM     51  C   UNL     1     -13.582  -6.779   7.936  1.00  0.00     0.007 A 
ATOM     52  C   UNL     1     -14.949  -5.958   6.121  1.00  0.00     0.007 A 
ATOM     53  C   UNL     1     -13.479  -5.485   8.445  1.00  0.00     0.046 A 
ATOM     54  C   UNL     1     -14.848  -4.661   6.631  1.00  0.00     0.046 A 
ATOM     55  C   UNL     1     -14.112  -4.436   7.789  1.00  0.00     0.115 A 
BRANCH  55  56
ATOM     56  O   UNL     1     -13.989  -3.186   8.320  1.00  0.00    -0.508 OA
ATOM     57  H   UNL     1     -13.181  -3.159   8.856  1.00  0.00     0.293 HD
ENDBRANCH  55  56
ENDBRANCH  49  50
ENDBRANCH  48  49
BRANCH  48  58
ATOM     58  C   UNL     1     -14.407 -10.420   7.773  1.00  0.00     0.326 C 
ATOM     59  O   UNL     1     -15.623 -10.521   7.738  1.00  0.00    -0.250 OA
BRANCH  58  60
ATOM     60  O   UNL     1     -13.696 -11.261   8.566  1.00  0.00    -0.480 OA
ATOM     61  H   UNL     1     -13.854 -10.909   9.468  1.00  0.00     0.296 HD
ENDBRANCH  58  60
ENDBRANCH  48  58
ENDBRANCH  46  48
ENDBRANCH  34  44
ENDBRANCH  32  34
ENDBRANCH  25  30
ENDBRANCH  23  25
ENDBRANCH   2  23
TORSDOF 28
ENDMDL
MODEL 22
REMARK VINA RESULT:    -7.195      3.588      8.504
REMARK INTER + INTRA:         -22.587
REMARK INTER:                 -18.268
REMARK INTRA:                  -4.319
REMARK UNBOUND:                -4.665
REMARK SMILES CCCCCCC[C@H](N)[C@H](O)C(=O)N[C@H](C)C(=O)N(C)[C@H](CC(C)C)C(=O)N[C@@H](Cc1ccc(O)cc1)C(=O)N[C@@H](Cc1ccc(O)cc1)C(=O)O
REMARK SMILES IDX 18 1 17 2 15 3 16 4 14 5 12 6 13 7 10 9 11 10 8 12 9 13 7 16
REMARK SMILES IDX 6 17 5 18 4 19 3 20 2 21 1 22 19 23 20 24 21 25 22 26 23 27
REMARK SMILES IDX 24 28 25 29 26 30 27 31 28 32 29 34 30 35 31 36 32 37 37 38
REMARK SMILES IDX 33 39 36 40 34 41 35 42 38 44 39 45 40 46 41 48 42 49 43 50
REMARK SMILES IDX 44 51 49 52 45 53 48 54 46 55 47 56 50 58 51 59 52 60
REMARK H PARENT 14 8 11 11 9 14 9 15 28 33 35 43 40 47 47 57 52 61
ROOT
ATOM      1  O   UNL     1      -9.983 -10.551   1.166  1.00  0.00    -0.272 OA
ATOM      2  C   UNL     1     -10.681 -11.563   1.333  1.00  0.00     0.245 C 
ENDROOT
BRANCH   2   3
ATOM      3  C   UNL     1     -11.547 -12.068   0.152  1.00  0.00     0.168 C 
ATOM      4  C   UNL     1     -12.638 -11.059  -0.190  1.00  0.00     0.041 C 
BRANCH   3   5
ATOM      5  N   UNL     1     -10.796 -12.475  -1.026  1.00  0.00    -0.342 N 
ATOM      6  C   UNL     1     -10.278 -13.746  -1.156  1.00  0.00     0.251 C 
ATOM      7  O   UNL     1     -10.370 -14.606  -0.286  1.00  0.00    -0.272 OA
ATOM      8  H   UNL     1     -10.625 -11.836  -1.799  1.00  0.00     0.164 HD
BRANCH   6   9
ATOM      9  C   UNL     1      -9.650 -13.994  -2.537  1.00  0.00     0.219 C 
BRANCH   9  10
ATOM     10  O   UNL     1     -10.383 -13.367  -3.597  1.00  0.00    -0.382 OA
ATOM     11  H   UNL     1      -9.887 -13.626  -4.405  1.00  0.00     0.211 HD
ENDBRANCH   9  10
BRANCH   9  12
ATOM     12  C   UNL     1      -8.149 -13.609  -2.602  1.00  0.00     0.089 C 
BRANCH  12  13
ATOM     13  N   UNL     1      -7.615 -13.575  -1.221  1.00  0.00    -0.325 NA
ATOM     14  H   UNL     1      -6.960 -14.349  -1.095  1.00  0.00     0.119 HD
ATOM     15  H   UNL     1      -8.378 -13.763  -0.566  1.00  0.00     0.119 HD
ENDBRANCH  12  13
BRANCH  12  16
ATOM     16  C   UNL     1      -7.258 -14.504  -3.495  1.00  0.00     0.022 C 
BRANCH  16  17
ATOM     17  C   UNL     1      -6.751 -13.954  -4.835  1.00  0.00     0.002 C 
BRANCH  17  18
ATOM     18  C   UNL     1      -6.922 -12.447  -5.019  1.00  0.00     0.000 C 
BRANCH  18  19
ATOM     19  C   UNL     1      -6.873 -11.988  -6.483  1.00  0.00    -0.000 C 
BRANCH  19  20
ATOM     20  C   UNL     1      -8.183 -11.412  -7.027  1.00  0.00    -0.000 C 
BRANCH  20  21
ATOM     21  C   UNL     1      -9.183 -11.051  -5.926  1.00  0.00    -0.003 C 
ATOM     22  C   UNL     1     -10.617 -11.168  -6.419  1.00  0.00     0.004 C 
ENDBRANCH  20  21
ENDBRANCH  19  20
ENDBRANCH  18  19
ENDBRANCH  17  18
ENDBRANCH  16  17
ENDBRANCH  12  16
ENDBRANCH   9  12
ENDBRANCH   6   9
ENDBRANCH   3   5
ENDBRANCH   2   3
BRANCH   2  23
ATOM     23  N   UNL     1     -10.584 -12.288   2.516  1.00  0.00    -0.332 N 
ATOM     24  C   UNL     1      -9.369 -12.932   2.992  1.00  0.00     0.147 C 
BRANCH  23  25
ATOM     25  C   UNL     1     -11.733 -12.340   3.460  1.00  0.00     0.174 C 
BRANCH  25  26
ATOM     26  C   UNL     1     -12.781 -13.410   3.075  1.00  0.00     0.038 C 
BRANCH  26  27
ATOM     27  C   UNL     1     -12.635 -14.802   3.730  1.00  0.00    -0.015 C 
ATOM     28  C   UNL     1     -13.943 -15.300   4.343  1.00  0.00     0.007 C 
ATOM     29  C   UNL     1     -12.045 -15.854   2.794  1.00  0.00     0.007 C 
ENDBRANCH  26  27
ENDBRANCH  25  26
BRANCH  25  30
ATOM     30  C   UNL     1     -12.330 -10.927   3.652  1.00  0.00     0.243 C 
ATOM     31  O   UNL     1     -11.639  -9.972   4.006  1.00  0.00    -0.273 OA
ATOM     32  N   UNL     1     -13.674 -10.812   3.408  1.00  0.00    -0.342 N 
ATOM     33  H   UNL     1     -14.148 -11.613   2.982  1.00  0.00     0.164 HD
BRANCH  32  34
ATOM     34  C   UNL     1     -14.413  -9.556   3.564  1.00  0.00     0.175 C 
BRANCH  34  35
ATOM     35  C   UNL     1     -15.565  -9.456   2.553  1.00  0.00     0.070 C 
BRANCH  35  36
ATOM     36  C   UNL     1     -15.869  -8.030   2.152  1.00  0.00    -0.045 A 
ATOM     37  C   UNL     1     -15.996  -7.037   3.135  1.00  0.00     0.007 A 
ATOM     38  C   UNL     1     -16.051  -7.684   0.807  1.00  0.00     0.007 A 
ATOM     39  C   UNL     1     -16.290  -5.721   2.776  1.00  0.00     0.046 A 
ATOM     40  C   UNL     1     -16.347  -6.367   0.447  1.00  0.00     0.046 A 
ATOM     41  C   UNL     1     -16.462  -5.396   1.436  1.00  0.00     0.115 A 
BRANCH  41  42
ATOM     42  O   UNL     1     -16.752  -4.100   1.128  1.00  0.00    -0.508 OA
ATOM     43  H   UNL     1     -15.970  -3.705   0.707  1.00  0.00     0.293 HD
ENDBRANCH  41  42
ENDBRANCH  35  36
ENDBRANCH  34  35
BRANCH  34  44
ATOM     44  C   UNL     1     -14.917  -9.476   5.023  1.00  0.00     0.243 C 
ATOM     45  O   UNL     1     -16.014  -9.877   5.401  1.00  0.00    -0.273 OA
ATOM     46  N   UNL     1     -14.066  -8.784   5.860  1.00  0.00    -0.341 N 
ATOM     47  H   UNL     1     -13.223  -8.369   5.473  1.00  0.00     0.164 HD
BRANCH  46  48
ATOM     48  C   UNL     1     -14.362  -8.520   7.270  1.00  0.00     0.196 C 
BRANCH  48  49
ATOM     49  C   UNL     1     -13.163  -8.865   8.168  1.00  0.00     0.072 C 
BRANCH  49  50
ATOM     50  C   UNL     1     -12.477 -10.148   7.756  1.00  0.00    -0.045 A 
ATOM     51  C   UNL     1     -11.127 -10.129   7.376  1.00  0.00     0.007 A 
ATOM     52  C   UNL     1     -13.176 -11.362   7.725  1.00  0.00     0.007 A 
ATOM     53  C   UNL     1     -10.488 -11.304   6.981  1.00  0.00     0.046 A 
ATOM     54  C   UNL     1     -12.536 -12.538   7.329  1.00  0.00     0.046 A 
ATOM     55  C   UNL     1     -11.196 -12.499   6.961  1.00  0.00     0.115 A 
BRANCH  55  56
ATOM     56  O   UNL     1     -10.535 -13.625   6.567  1.00  0.00    -0.508 OA
ATOM     57  H   UNL     1     -10.488 -13.628   5.597  1.00  0.00     0.293 HD
ENDBRANCH  55  56
ENDBRANCH  49  50
ENDBRANCH  48  49
BRANCH  48  58
ATOM     58  C   UNL     1     -14.720  -7.037   7.435  1.00  0.00     0.326 C 
ATOM     59  O   UNL     1     -14.895  -6.215   6.550  1.00  0.00    -0.250 OA
BRANCH  58  60
ATOM     60  O   UNL     1     -14.856  -6.654   8.730  1.00  0.00    -0.480 OA
ATOM     61  H   UNL     1     -13.939  -6.424   8.995  1.00  0.00     0.296 HD
ENDBRANCH  58  60
ENDBRANCH  48  58
ENDBRANCH  46  48
ENDBRANCH  34  44
ENDBRANCH  32  34
ENDBRANCH  25  30
ENDBRANCH  23  25
ENDBRANCH   2  23
TORSDOF 28
ENDMDL
MODEL 23
REMARK VINA RESULT:    -7.136      3.798      8.794
REMARK INTER + INTRA:         -22.439
REMARK INTER:                 -18.383
REMARK INTRA:                  -4.056
REMARK UNBOUND:                -4.665
REMARK SMILES CCCCCCC[C@H](N)[C@H](O)C(=O)N[C@H](C)C(=O)N(C)[C@H](CC(C)C)C(=O)N[C@@H](Cc1ccc(O)cc1)C(=O)N[C@@H](Cc1ccc(O)cc1)C(=O)O
REMARK SMILES IDX 18 1 17 2 15 3 16 4 14 5 12 6 13 7 10 9 11 10 8 12 9 13 7 16
REMARK SMILES IDX 6 17 5 18 4 19 3 20 2 21 1 22 19 23 20 24 21 25 22 26 23 27
REMARK SMILES IDX 24 28 25 29 26 30 27 31 28 32 29 34 30 35 31 36 32 37 37 38
REMARK SMILES IDX 33 39 36 40 34 41 35 42 38 44 39 45 40 46 41 48 42 49 43 50
REMARK SMILES IDX 44 51 49 52 45 53 48 54 46 55 47 56 50 58 51 59 52 60
REMARK H PARENT 14 8 11 11 9 14 9 15 28 33 35 43 40 47 47 57 52 61
ROOT
ATOM      1  O   UNL     1     -15.643 -12.377   4.844  1.00  0.00    -0.272 OA
ATOM      2  C   UNL     1     -14.479 -12.722   4.589  1.00  0.00     0.245 C 
ENDROOT
BRANCH   2   3
ATOM      3  C   UNL     1     -13.395 -12.531   5.678  1.00  0.00     0.168 C 
ATOM      4  C   UNL     1     -12.039 -13.027   5.186  1.00  0.00     0.041 C 
BRANCH   3   5
ATOM      5  N   UNL     1     -13.313 -11.188   6.231  1.00  0.00    -0.342 N 
ATOM      6  C   UNL     1     -13.955 -10.841   7.400  1.00  0.00     0.251 C 
ATOM      7  O   UNL     1     -14.669 -11.612   8.034  1.00  0.00    -0.272 OA
ATOM      8  H   UNL     1     -12.778 -10.452   5.774  1.00  0.00     0.164 HD
BRANCH   6   9
ATOM      9  C   UNL     1     -13.613  -9.417   7.867  1.00  0.00     0.219 C 
BRANCH   9  10
ATOM     10  O   UNL     1     -12.228  -9.097   7.692  1.00  0.00    -0.382 OA
ATOM     11  H   UNL     1     -11.974  -8.693   8.551  1.00  0.00     0.211 HD
ENDBRANCH   9  10
BRANCH   9  12
ATOM     12  C   UNL     1     -14.515  -8.332   7.224  1.00  0.00     0.089 C 
BRANCH  12  13
ATOM     13  N   UNL     1     -13.780  -7.047   7.234  1.00  0.00    -0.325 NA
ATOM     14  H   UNL     1     -14.364  -6.329   7.666  1.00  0.00     0.119 HD
ATOM     15  H   UNL     1     -13.644  -6.735   6.270  1.00  0.00     0.119 HD
ENDBRANCH  12  13
BRANCH  12  16
ATOM     16  C   UNL     1     -15.031  -8.637   5.797  1.00  0.00     0.022 C 
BRANCH  16  17
ATOM     17  C   UNL     1     -14.782  -7.616   4.678  1.00  0.00     0.002 C 
BRANCH  17  18
ATOM     18  C   UNL     1     -15.635  -7.811   3.426  1.00  0.00     0.000 C 
BRANCH  18  19
ATOM     19  C   UNL     1     -15.640  -9.249   2.892  1.00  0.00    -0.000 C 
BRANCH  19  20
ATOM     20  C   UNL     1     -15.734  -9.376   1.368  1.00  0.00    -0.000 C 
BRANCH  20  21
ATOM     21  C   UNL     1     -14.469  -8.902   0.648  1.00  0.00    -0.003 C 
ATOM     22  C   UNL     1     -14.132  -9.803  -0.530  1.00  0.00     0.004 C 
ENDBRANCH  20  21
ENDBRANCH  19  20
ENDBRANCH  18  19
ENDBRANCH  17  18
ENDBRANCH  16  17
ENDBRANCH  12  16
ENDBRANCH   9  12
ENDBRANCH   6   9
ENDBRANCH   3   5
ENDBRANCH   2   3
BRANCH   2  23
ATOM     23  N   UNL     1     -14.193 -13.375   3.395  1.00  0.00    -0.332 N 
ATOM     24  C   UNL     1     -13.997 -14.812   3.267  1.00  0.00     0.147 C 
BRANCH  23  25
ATOM     25  C   UNL     1     -14.196 -12.626   2.109  1.00  0.00     0.174 C 
BRANCH  25  26
ATOM     26  C   UNL     1     -14.846 -13.419   0.951  1.00  0.00     0.038 C 
BRANCH  26  27
ATOM     27  C   UNL     1     -16.230 -12.937   0.462  1.00  0.00    -0.015 C 
ATOM     28  C   UNL     1     -16.779 -13.796  -0.676  1.00  0.00     0.007 C 
ATOM     29  C   UNL     1     -17.259 -12.809   1.583  1.00  0.00     0.007 C 
ENDBRANCH  26  27
ENDBRANCH  25  26
BRANCH  25  30
ATOM     30  C   UNL     1     -12.773 -12.113   1.789  1.00  0.00     0.243 C 
ATOM     31  O   UNL     1     -12.306 -11.112   2.330  1.00  0.00    -0.273 OA
ATOM     32  N   UNL     1     -12.074 -12.843   0.862  1.00  0.00    -0.342 N 
ATOM     33  H   UNL     1     -12.472 -13.737   0.565  1.00  0.00     0.164 HD
BRANCH  32  34
ATOM     34  C   UNL     1     -10.723 -12.489   0.416  1.00  0.00     0.175 C 
BRANCH  34  35
ATOM     35  C   UNL     1      -9.654 -13.119   1.322  1.00  0.00     0.070 C 
BRANCH  35  36
ATOM     36  C   UNL     1      -8.738 -12.092   1.947  1.00  0.00    -0.045 A 
ATOM     37  C   UNL     1      -7.789 -11.424   1.158  1.00  0.00     0.007 A 
ATOM     38  C   UNL     1      -8.805 -11.808   3.318  1.00  0.00     0.007 A 
ATOM     39  C   UNL     1      -6.931 -10.484   1.729  1.00  0.00     0.046 A 
ATOM     40  C   UNL     1      -7.945 -10.868   3.891  1.00  0.00     0.046 A 
ATOM     41  C   UNL     1      -7.016 -10.213   3.090  1.00  0.00     0.115 A 
BRANCH  41  42
ATOM     42  O   UNL     1      -6.156  -9.291   3.609  1.00  0.00    -0.508 OA
ATOM     43  H   UNL     1      -5.302  -9.725   3.766  1.00  0.00     0.293 HD
ENDBRANCH  41  42
ENDBRANCH  35  36
ENDBRANCH  34  35
BRANCH  34  44
ATOM     44  C   UNL     1     -10.572 -12.938  -1.055  1.00  0.00     0.243 C 
ATOM     45  O   UNL     1     -11.107 -13.933  -1.535  1.00  0.00    -0.273 OA
ATOM     46  N   UNL     1      -9.663 -12.184  -1.767  1.00  0.00    -0.341 N 
ATOM     47  H   UNL     1      -9.157 -11.441  -1.292  1.00  0.00     0.164 HD
BRANCH  46  48
ATOM     48  C   UNL     1      -9.302 -12.462  -3.159  1.00  0.00     0.196 C 
BRANCH  48  49
ATOM     49  C   UNL     1      -8.868 -11.180  -3.891  1.00  0.00     0.072 C 
BRANCH  49  50
ATOM     50  C   UNL     1      -9.009 -11.292  -5.393  1.00  0.00    -0.045 A 
ATOM     51  C   UNL     1      -7.866 -11.438  -6.193  1.00  0.00     0.007 A 
ATOM     52  C   UNL     1     -10.267 -11.231  -6.005  1.00  0.00     0.007 A 
ATOM     53  C   UNL     1      -7.982 -11.529  -7.580  1.00  0.00     0.046 A 
ATOM     54  C   UNL     1     -10.383 -11.321  -7.394  1.00  0.00     0.046 A 
ATOM     55  C   UNL     1      -9.239 -11.470  -8.170  1.00  0.00     0.115 A 
BRANCH  55  56
ATOM     56  O   UNL     1      -9.309 -11.560  -9.529  1.00  0.00    -0.508 OA
ATOM     57  H   UNL     1      -9.316 -12.499  -9.773  1.00  0.00     0.293 HD
ENDBRANCH  55  56
ENDBRANCH  49  50
ENDBRANCH  48  49
BRANCH  48  58
ATOM     58  C   UNL     1      -8.156 -13.482  -3.184  1.00  0.00     0.326 C 
ATOM     59  O   UNL     1      -6.959 -13.248  -3.222  1.00  0.00    -0.250 OA
BRANCH  58  60
ATOM     60  O   UNL     1      -8.577 -14.771  -3.144  1.00  0.00    -0.480 OA
ATOM     61  H   UNL     1      -7.777 -15.262  -2.857  1.00  0.00     0.296 HD
ENDBRANCH  58  60
ENDBRANCH  48  58
ENDBRANCH  46  48
ENDBRANCH  34  44
ENDBRANCH  32  34
ENDBRANCH  25  30
ENDBRANCH  23  25
ENDBRANCH   2  23
TORSDOF 28
ENDMDL
MODEL 24
REMARK VINA RESULT:    -7.114      3.908      9.162
REMARK INTER + INTRA:         -22.385
REMARK INTER:                 -18.178
REMARK INTRA:                  -4.207
REMARK UNBOUND:                -4.665
REMARK SMILES CCCCCCC[C@H](N)[C@H](O)C(=O)N[C@H](C)C(=O)N(C)[C@H](CC(C)C)C(=O)N[C@@H](Cc1ccc(O)cc1)C(=O)N[C@@H](Cc1ccc(O)cc1)C(=O)O
REMARK SMILES IDX 18 1 17 2 15 3 16 4 14 5 12 6 13 7 10 9 11 10 8 12 9 13 7 16
REMARK SMILES IDX 6 17 5 18 4 19 3 20 2 21 1 22 19 23 20 24 21 25 22 26 23 27
REMARK SMILES IDX 24 28 25 29 26 30 27 31 28 32 29 34 30 35 31 36 32 37 37 38
REMARK SMILES IDX 33 39 36 40 34 41 35 42 38 44 39 45 40 46 41 48 42 49 43 50
REMARK SMILES IDX 44 51 49 52 45 53 48 54 46 55 47 56 50 58 51 59 52 60
REMARK H PARENT 14 8 11 11 9 14 9 15 28 33 35 43 40 47 47 57 52 61
ROOT
ATOM      1  O   UNL     1     -12.067 -10.547   3.116  1.00  0.00    -0.272 OA
ATOM      2  C   UNL     1     -13.160 -11.132   3.110  1.00  0.00     0.245 C 
ENDROOT
BRANCH   2   3
ATOM      3  C   UNL     1     -13.754 -11.605   4.461  1.00  0.00     0.168 C 
ATOM      4  C   UNL     1     -13.467 -13.086   4.689  1.00  0.00     0.041 C 
BRANCH   3   5
ATOM      5  N   UNL     1     -13.379 -10.797   5.610  1.00  0.00    -0.342 N 
ATOM      6  C   UNL     1     -14.165 -10.731   6.741  1.00  0.00     0.251 C 
ATOM      7  O   UNL     1     -15.244 -11.304   6.850  1.00  0.00    -0.272 OA
ATOM      8  H   UNL     1     -12.522 -10.249   5.624  1.00  0.00     0.164 HD
BRANCH   6   9
ATOM      9  C   UNL     1     -13.505  -9.934   7.878  1.00  0.00     0.219 C 
BRANCH   9  10
ATOM     10  O   UNL     1     -12.151  -9.570   7.584  1.00  0.00    -0.382 OA
ATOM     11  H   UNL     1     -12.244  -8.778   7.010  1.00  0.00     0.211 HD
ENDBRANCH   9  10
BRANCH   9  12
ATOM     12  C   UNL     1     -14.328  -8.693   8.309  1.00  0.00     0.089 C 
BRANCH  12  13
ATOM     13  N   UNL     1     -15.613  -9.158   8.878  1.00  0.00    -0.325 NA
ATOM     14  H   UNL     1     -16.034  -9.840   8.244  1.00  0.00     0.119 HD
ATOM     15  H   UNL     1     -16.270  -8.374   8.899  1.00  0.00     0.119 HD
ENDBRANCH  12  13
BRANCH  12  16
ATOM     16  C   UNL     1     -13.630  -7.726   9.295  1.00  0.00     0.022 C 
BRANCH  16  17
ATOM     17  C   UNL     1     -14.081  -6.259   9.349  1.00  0.00     0.002 C 
BRANCH  17  18
ATOM     18  C   UNL     1     -13.600  -5.394   8.186  1.00  0.00     0.000 C 
BRANCH  18  19
ATOM     19  C   UNL     1     -14.645  -5.202   7.078  1.00  0.00    -0.000 C 
BRANCH  19  20
ATOM     20  C   UNL     1     -14.588  -6.230   5.945  1.00  0.00    -0.000 C 
BRANCH  20  21
ATOM     21  C   UNL     1     -15.971  -6.735   5.525  1.00  0.00    -0.003 C 
ATOM     22  C   UNL     1     -15.882  -8.095   4.850  1.00  0.00     0.004 C 
ENDBRANCH  20  21
ENDBRANCH  19  20
ENDBRANCH  18  19
ENDBRANCH  17  18
ENDBRANCH  16  17
ENDBRANCH  12  16
ENDBRANCH   9  12
ENDBRANCH   6   9
ENDBRANCH   3   5
ENDBRANCH   2   3
BRANCH   2  23
ATOM     23  N   UNL     1     -13.884 -11.243   1.928  1.00  0.00    -0.332 N 
ATOM     24  C   UNL     1     -15.103 -10.505   1.632  1.00  0.00     0.147 C 
BRANCH  23  25
ATOM     25  C   UNL     1     -13.360 -12.064   0.802  1.00  0.00     0.174 C 
BRANCH  25  26
ATOM     26  C   UNL     1     -13.446 -13.584   1.075  1.00  0.00     0.038 C 
BRANCH  26  27
ATOM     27  C   UNL     1     -14.853 -14.175   1.311  1.00  0.00    -0.015 C 
ATOM     28  C   UNL     1     -15.727 -14.123   0.059  1.00  0.00     0.007 C 
ATOM     29  C   UNL     1     -14.830 -15.587   1.891  1.00  0.00     0.007 C 
ENDBRANCH  26  27
ENDBRANCH  25  26
BRANCH  25  30
ATOM     30  C   UNL     1     -11.946 -11.583   0.404  1.00  0.00     0.243 C 
ATOM     31  O   UNL     1     -11.759 -10.495  -0.139  1.00  0.00    -0.273 OA
ATOM     32  N   UNL     1     -10.922 -12.448   0.691  1.00  0.00    -0.342 N 
ATOM     33  H   UNL     1     -11.140 -13.265   1.268  1.00  0.00     0.164 HD
BRANCH  32  34
ATOM     34  C   UNL     1      -9.522 -12.170   0.362  1.00  0.00     0.175 C 
BRANCH  34  35
ATOM     35  C   UNL     1      -8.570 -12.801   1.390  1.00  0.00     0.070 C 
BRANCH  35  36
ATOM     36  C   UNL     1      -8.947 -12.469   2.816  1.00  0.00    -0.045 A 
ATOM     37  C   UNL     1      -9.574 -13.434   3.620  1.00  0.00     0.007 A 
ATOM     38  C   UNL     1      -8.700 -11.197   3.348  1.00  0.00     0.007 A 
ATOM     39  C   UNL     1      -9.937 -13.133   4.932  1.00  0.00     0.046 A 
ATOM     40  C   UNL     1      -9.065 -10.894   4.662  1.00  0.00     0.046 A 
ATOM     41  C   UNL     1      -9.680 -11.866   5.443  1.00  0.00     0.115 A 
BRANCH  41  42
ATOM     42  O   UNL     1     -10.054 -11.611   6.729  1.00  0.00    -0.508 OA
ATOM     43  H   UNL     1      -9.384 -11.034   7.132  1.00  0.00     0.293 HD
ENDBRANCH  41  42
ENDBRANCH  35  36
ENDBRANCH  34  35
BRANCH  34  44
ATOM     44  C   UNL     1      -9.254 -12.691  -1.068  1.00  0.00     0.243 C 
ATOM     45  O   UNL     1      -8.867 -13.826  -1.332  1.00  0.00    -0.273 OA
ATOM     46  N   UNL     1      -9.364 -11.716  -2.037  1.00  0.00    -0.341 N 
ATOM     47  H   UNL     1      -9.573 -10.761  -1.755  1.00  0.00     0.164 HD
BRANCH  46  48
ATOM     48  C   UNL     1      -9.090 -11.955  -3.456  1.00  0.00     0.196 C 
BRANCH  48  49
ATOM     49  C   UNL     1     -10.374 -12.318  -4.220  1.00  0.00     0.072 C 
BRANCH  49  50
ATOM     50  C   UNL     1     -10.199 -13.528  -5.110  1.00  0.00    -0.045 A 
ATOM     51  C   UNL     1     -10.439 -13.423  -6.487  1.00  0.00     0.007 A 
ATOM     52  C   UNL     1      -9.820 -14.766  -4.576  1.00  0.00     0.007 A 
ATOM     53  C   UNL     1     -10.294 -14.536  -7.316  1.00  0.00     0.046 A 
ATOM     54  C   UNL     1      -9.675 -15.881  -5.406  1.00  0.00     0.046 A 
ATOM     55  C   UNL     1      -9.913 -15.755  -6.770  1.00  0.00     0.115 A 
BRANCH  55  56
ATOM     56  O   UNL     1      -9.784 -16.818  -7.614  1.00  0.00    -0.508 OA
ATOM     57  H   UNL     1     -10.666 -17.187  -7.778  1.00  0.00     0.293 HD
ENDBRANCH  55  56
ENDBRANCH  49  50
ENDBRANCH  48  49
BRANCH  48  58
ATOM     58  C   UNL     1      -8.469 -10.690  -4.064  1.00  0.00     0.326 C 
ATOM     59  O   UNL     1      -8.182  -9.655  -3.485  1.00  0.00    -0.250 OA
BRANCH  58  60
ATOM     60  O   UNL     1      -8.221 -10.795  -5.394  1.00  0.00    -0.480 OA
ATOM     61  H   UNL     1      -7.964  -9.883  -5.649  1.00  0.00     0.296 HD
ENDBRANCH  58  60
ENDBRANCH  48  58
ENDBRANCH  46  48
ENDBRANCH  34  44
ENDBRANCH  32  34
ENDBRANCH  25  30
ENDBRANCH  23  25
ENDBRANCH   2  23
TORSDOF 28
ENDMDL
MODEL 25
REMARK VINA RESULT:    -7.100      3.153      8.257
REMARK INTER + INTRA:         -22.350
REMARK INTER:                 -16.879
REMARK INTRA:                  -5.471
REMARK UNBOUND:                -4.665
REMARK SMILES CCCCCCC[C@H](N)[C@H](O)C(=O)N[C@H](C)C(=O)N(C)[C@H](CC(C)C)C(=O)N[C@@H](Cc1ccc(O)cc1)C(=O)N[C@@H](Cc1ccc(O)cc1)C(=O)O
REMARK SMILES IDX 18 1 17 2 15 3 16 4 14 5 12 6 13 7 10 9 11 10 8 12 9 13 7 16
REMARK SMILES IDX 6 17 5 18 4 19 3 20 2 21 1 22 19 23 20 24 21 25 22 26 23 27
REMARK SMILES IDX 24 28 25 29 26 30 27 31 28 32 29 34 30 35 31 36 32 37 37 38
REMARK SMILES IDX 33 39 36 40 34 41 35 42 38 44 39 45 40 46 41 48 42 49 43 50
REMARK SMILES IDX 44 51 49 52 45 53 48 54 46 55 47 56 50 58 51 59 52 60
REMARK H PARENT 14 8 11 11 9 14 9 15 28 33 35 43 40 47 47 57 52 61
ROOT
ATOM      1  O   UNL     1     -16.698 -10.353   1.458  1.00  0.00    -0.272 OA
ATOM      2  C   UNL     1     -15.642 -10.960   1.691  1.00  0.00     0.245 C 
ENDROOT
BRANCH   2   3
ATOM      3  C   UNL     1     -15.639 -12.506   1.593  1.00  0.00     0.168 C 
ATOM      4  C   UNL     1     -14.977 -12.966   0.299  1.00  0.00     0.041 C 
BRANCH   3   5
ATOM      5  N   UNL     1     -15.092 -13.191   2.754  1.00  0.00    -0.342 N 
ATOM      6  C   UNL     1     -15.892 -13.605   3.798  1.00  0.00     0.251 C 
ATOM      7  O   UNL     1     -17.099 -13.397   3.850  1.00  0.00    -0.272 OA
ATOM      8  H   UNL     1     -14.098 -13.389   2.841  1.00  0.00     0.164 HD
BRANCH   6   9
ATOM      9  C   UNL     1     -15.124 -14.429   4.844  1.00  0.00     0.219 C 
BRANCH   9  10
ATOM     10  O   UNL     1     -13.778 -14.715   4.443  1.00  0.00    -0.382 OA
ATOM     11  H   UNL     1     -13.238 -14.387   5.196  1.00  0.00     0.211 HD
ENDBRANCH   9  10
BRANCH   9  12
ATOM     12  C   UNL     1     -15.154 -13.796   6.260  1.00  0.00     0.089 C 
BRANCH  12  13
ATOM     13  N   UNL     1     -14.109 -14.446   7.085  1.00  0.00    -0.325 NA
ATOM     14  H   UNL     1     -13.189 -14.192   6.722  1.00  0.00     0.119 HD
ATOM     15  H   UNL     1     -14.174 -15.459   6.963  1.00  0.00     0.119 HD
ENDBRANCH  12  13
BRANCH  12  16
ATOM     16  C   UNL     1     -14.996 -12.258   6.318  1.00  0.00     0.022 C 
BRANCH  16  17
ATOM     17  C   UNL     1     -14.369 -11.618   7.564  1.00  0.00     0.002 C 
BRANCH  17  18
ATOM     18  C   UNL     1     -13.402 -10.470   7.282  1.00  0.00     0.000 C 
BRANCH  18  19
ATOM     19  C   UNL     1     -13.455  -9.340   8.318  1.00  0.00    -0.000 C 
BRANCH  19  20
ATOM     20  C   UNL     1     -14.853  -8.784   8.603  1.00  0.00    -0.000 C 
BRANCH  20  21
ATOM     21  C   UNL     1     -14.827  -7.469   9.386  1.00  0.00    -0.003 C 
ATOM     22  C   UNL     1     -13.693  -6.569   8.922  1.00  0.00     0.004 C 
ENDBRANCH  20  21
ENDBRANCH  19  20
ENDBRANCH  18  19
ENDBRANCH  17  18
ENDBRANCH  16  17
ENDBRANCH  12  16
ENDBRANCH   9  12
ENDBRANCH   6   9
ENDBRANCH   3   5
ENDBRANCH   2   3
BRANCH   2  23
ATOM     23  N   UNL     1     -14.466 -10.251   1.911  1.00  0.00    -0.332 N 
ATOM     24  C   UNL     1     -13.645  -9.667   0.861  1.00  0.00     0.147 C 
BRANCH  23  25
ATOM     25  C   UNL     1     -14.032  -9.929   3.298  1.00  0.00     0.174 C 
BRANCH  25  26
ATOM     26  C   UNL     1     -14.264  -8.446   3.672  1.00  0.00     0.038 C 
BRANCH  26  27
ATOM     27  C   UNL     1     -15.178  -8.165   4.886  1.00  0.00    -0.015 C 
ATOM     28  C   UNL     1     -15.814  -6.777   4.830  1.00  0.00     0.007 C 
ATOM     29  C   UNL     1     -16.244  -9.236   5.104  1.00  0.00     0.007 C 
ENDBRANCH  26  27
ENDBRANCH  25  26
BRANCH  25  30
ATOM     30  C   UNL     1     -12.580 -10.408   3.526  1.00  0.00     0.243 C 
ATOM     31  O   UNL     1     -11.612  -9.704   3.243  1.00  0.00    -0.273 OA
ATOM     32  N   UNL     1     -12.446 -11.665   4.055  1.00  0.00    -0.342 N 
ATOM     33  H   UNL     1     -13.293 -12.129   4.394  1.00  0.00     0.164 HD
BRANCH  32  34
ATOM     34  C   UNL     1     -11.147 -12.293   4.313  1.00  0.00     0.175 C 
BRANCH  34  35
ATOM     35  C   UNL     1     -11.181 -13.141   5.593  1.00  0.00     0.070 C 
BRANCH  35  36
ATOM     36  C   UNL     1     -10.285 -12.594   6.681  1.00  0.00    -0.045 A 
ATOM     37  C   UNL     1     -10.052 -11.213   6.770  1.00  0.00     0.007 A 
ATOM     38  C   UNL     1      -9.660 -13.450   7.597  1.00  0.00     0.007 A 
ATOM     39  C   UNL     1      -9.216 -10.699   7.762  1.00  0.00     0.046 A 
ATOM     40  C   UNL     1      -8.821 -12.937   8.590  1.00  0.00     0.046 A 
ATOM     41  C   UNL     1      -8.608 -11.565   8.664  1.00  0.00     0.115 A 
BRANCH  41  42
ATOM     42  O   UNL     1      -7.796 -11.023   9.616  1.00  0.00    -0.508 OA
ATOM     43  H   UNL     1      -6.905 -11.392   9.502  1.00  0.00     0.293 HD
ENDBRANCH  41  42
ENDBRANCH  35  36
ENDBRANCH  34  35
BRANCH  34  44
ATOM     44  C   UNL     1     -10.767 -13.133   3.073  1.00  0.00     0.243 C 
ATOM     45  O   UNL     1     -11.230 -14.241   2.818  1.00  0.00    -0.273 OA
ATOM     46  N   UNL     1      -9.747 -12.581   2.328  1.00  0.00    -0.341 N 
ATOM     47  H   UNL     1      -9.315 -11.717   2.645  1.00  0.00     0.164 HD
BRANCH  46  48
ATOM     48  C   UNL     1      -9.171 -13.228   1.147  1.00  0.00     0.196 C 
BRANCH  48  49
ATOM     49  C   UNL     1      -8.864 -12.204   0.041  1.00  0.00     0.072 C 
BRANCH  49  50
ATOM     50  C   UNL     1      -9.306 -12.674  -1.326  1.00  0.00    -0.045 A 
ATOM     51  C   UNL     1      -9.320 -11.777  -2.404  1.00  0.00     0.007 A 
ATOM     52  C   UNL     1      -9.725 -13.995  -1.534  1.00  0.00     0.007 A 
ATOM     53  C   UNL     1      -9.738 -12.196  -3.667  1.00  0.00     0.046 A 
ATOM     54  C   UNL     1     -10.145 -14.414  -2.798  1.00  0.00     0.046 A 
ATOM     55  C   UNL     1     -10.147 -13.511  -3.855  1.00  0.00     0.115 A 
BRANCH  55  56
ATOM     56  O   UNL     1     -10.550 -13.880  -5.104  1.00  0.00    -0.508 OA
ATOM     57  H   UNL     1     -10.437 -14.840  -5.191  1.00  0.00     0.293 HD
ENDBRANCH  55  56
ENDBRANCH  49  50
ENDBRANCH  48  49
BRANCH  48  58
ATOM     58  C   UNL     1      -7.878 -13.949   1.553  1.00  0.00     0.326 C 
ATOM     59  O   UNL     1      -7.779 -14.992   2.179  1.00  0.00    -0.250 OA
BRANCH  58  60
ATOM     60  O   UNL     1      -6.752 -13.319   1.133  1.00  0.00    -0.480 OA
ATOM     61  H   UNL     1      -6.434 -13.891   0.401  1.00  0.00     0.296 HD
ENDBRANCH  58  60
ENDBRANCH  48  58
ENDBRANCH  46  48
ENDBRANCH  34  44
ENDBRANCH  32  34
ENDBRANCH  25  30
ENDBRANCH  23  25
ENDBRANCH   2  23
TORSDOF 28
ENDMDL
MODEL 26
REMARK VINA RESULT:    -7.100      2.510      6.434
REMARK INTER + INTRA:         -22.348
REMARK INTER:                 -16.930
REMARK INTRA:                  -5.418
REMARK UNBOUND:                -4.665
REMARK SMILES CCCCCCC[C@H](N)[C@H](O)C(=O)N[C@H](C)C(=O)N(C)[C@H](CC(C)C)C(=O)N[C@@H](Cc1ccc(O)cc1)C(=O)N[C@@H](Cc1ccc(O)cc1)C(=O)O
REMARK SMILES IDX 18 1 17 2 15 3 16 4 14 5 12 6 13 7 10 9 11 10 8 12 9 13 7 16
REMARK SMILES IDX 6 17 5 18 4 19 3 20 2 21 1 22 19 23 20 24 21 25 22 26 23 27
REMARK SMILES IDX 24 28 25 29 26 30 27 31 28 32 29 34 30 35 31 36 32 37 37 38
REMARK SMILES IDX 33 39 36 40 34 41 35 42 38 44 39 45 40 46 41 48 42 49 43 50
REMARK SMILES IDX 44 51 49 52 45 53 48 54 46 55 47 56 50 58 51 59 52 60
REMARK H PARENT 14 8 11 11 9 14 9 15 28 33 35 43 40 47 47 57 52 61
ROOT
ATOM      1  O   UNL     1     -11.343 -15.780   3.349  1.00  0.00    -0.272 OA
ATOM      2  C   UNL     1     -11.519 -15.088   4.362  1.00  0.00     0.245 C 
ENDROOT
BRANCH   2   3
ATOM      3  C   UNL     1     -10.313 -14.316   4.952  1.00  0.00     0.168 C 
ATOM      4  C   UNL     1      -9.413 -15.249   5.755  1.00  0.00     0.041 C 
BRANCH   3   5
ATOM      5  N   UNL     1      -9.558 -13.533   3.987  1.00  0.00    -0.342 N 
ATOM      6  C   UNL     1      -9.855 -12.211   3.730  1.00  0.00     0.251 C 
ATOM      7  O   UNL     1     -10.789 -11.614   4.254  1.00  0.00    -0.272 OA
ATOM      8  H   UNL     1      -8.781 -13.930   3.463  1.00  0.00     0.164 HD
BRANCH   6   9
ATOM      9  C   UNL     1      -8.841 -11.546   2.785  1.00  0.00     0.219 C 
BRANCH   9  10
ATOM     10  O   UNL     1      -7.858 -12.466   2.294  1.00  0.00    -0.382 OA
ATOM     11  H   UNL     1      -8.391 -13.232   1.989  1.00  0.00     0.211 HD
ENDBRANCH   9  10
BRANCH   9  12
ATOM     12  C   UNL     1      -9.511 -10.779   1.615  1.00  0.00     0.089 C 
BRANCH  12  13
ATOM     13  N   UNL     1      -8.446 -10.179   0.780  1.00  0.00    -0.325 NA
ATOM     14  H   UNL     1      -8.747 -10.175  -0.197  1.00  0.00     0.119 HD
ATOM     15  H   UNL     1      -7.624 -10.787   0.803  1.00  0.00     0.119 HD
ENDBRANCH  12  13
BRANCH  12  16
ATOM     16  C   UNL     1     -10.479 -11.602   0.732  1.00  0.00     0.022 C 
BRANCH  16  17
ATOM     17  C   UNL     1     -11.589 -10.873  -0.038  1.00  0.00     0.002 C 
BRANCH  17  18
ATOM     18  C   UNL     1     -12.309  -9.781   0.749  1.00  0.00     0.000 C 
BRANCH  18  19
ATOM     19  C   UNL     1     -13.767  -9.562   0.325  1.00  0.00    -0.000 C 
BRANCH  19  20
ATOM     20  C   UNL     1     -14.536 -10.836  -0.039  1.00  0.00    -0.000 C 
BRANCH  20  21
ATOM     21  C   UNL     1     -15.962 -10.855   0.519  1.00  0.00    -0.003 C 
ATOM     22  C   UNL     1     -15.963 -11.020   2.031  1.00  0.00     0.004 C 
ENDBRANCH  20  21
ENDBRANCH  19  20
ENDBRANCH  18  19
ENDBRANCH  17  18
ENDBRANCH  16  17
ENDBRANCH  12  16
ENDBRANCH   9  12
ENDBRANCH   6   9
ENDBRANCH   3   5
ENDBRANCH   2   3
BRANCH   2  23
ATOM     23  N   UNL     1     -12.801 -14.920   4.875  1.00  0.00    -0.332 N 
ATOM     24  C   UNL     1     -13.225 -15.353   6.198  1.00  0.00     0.147 C 
BRANCH  23  25
ATOM     25  C   UNL     1     -13.818 -14.142   4.115  1.00  0.00     0.174 C 
BRANCH  25  26
ATOM     26  C   UNL     1     -13.229 -13.436   2.871  1.00  0.00     0.038 C 
BRANCH  26  27
ATOM     27  C   UNL     1     -13.805 -13.843   1.496  1.00  0.00    -0.015 C 
ATOM     28  C   UNL     1     -12.714 -14.205   0.490  1.00  0.00     0.007 C 
ATOM     29  C   UNL     1     -14.848 -14.955   1.580  1.00  0.00     0.007 C 
ENDBRANCH  26  27
ENDBRANCH  25  26
BRANCH  25  30
ATOM     30  C   UNL     1     -14.582 -13.192   5.066  1.00  0.00     0.243 C 
ATOM     31  O   UNL     1     -15.621 -13.533   5.628  1.00  0.00    -0.273 OA
ATOM     32  N   UNL     1     -14.028 -11.949   5.234  1.00  0.00    -0.342 N 
ATOM     33  H   UNL     1     -13.093 -11.791   4.848  1.00  0.00     0.164 HD
BRANCH  32  34
ATOM     34  C   UNL     1     -14.628 -10.911   6.076  1.00  0.00     0.175 C 
BRANCH  34  35
ATOM     35  C   UNL     1     -14.056 -10.947   7.501  1.00  0.00     0.070 C 
BRANCH  35  36
ATOM     36  C   UNL     1     -12.553 -11.114   7.524  1.00  0.00    -0.045 A 
ATOM     37  C   UNL     1     -11.991 -12.380   7.750  1.00  0.00     0.007 A 
ATOM     38  C   UNL     1     -11.705 -10.014   7.345  1.00  0.00     0.007 A 
ATOM     39  C   UNL     1     -10.606 -12.541   7.787  1.00  0.00     0.046 A 
ATOM     40  C   UNL     1     -10.318 -10.174   7.383  1.00  0.00     0.046 A 
ATOM     41  C   UNL     1      -9.780 -11.438   7.603  1.00  0.00     0.115 A 
BRANCH  41  42
ATOM     42  O   UNL     1      -8.433 -11.638   7.649  1.00  0.00    -0.508 OA
ATOM     43  H   UNL     1      -8.028 -11.163   6.904  1.00  0.00     0.293 HD
ENDBRANCH  41  42
ENDBRANCH  35  36
ENDBRANCH  34  35
BRANCH  34  44
ATOM     44  C   UNL     1     -14.391  -9.545   5.393  1.00  0.00     0.243 C 
ATOM     45  O   UNL     1     -13.644  -9.369   4.435  1.00  0.00    -0.273 OA
ATOM     46  N   UNL     1     -15.000  -8.493   6.044  1.00  0.00    -0.341 N 
ATOM     47  H   UNL     1     -15.514  -8.675   6.903  1.00  0.00     0.164 HD
BRANCH  46  48
ATOM     48  C   UNL     1     -14.863  -7.097   5.623  1.00  0.00     0.196 C 
BRANCH  48  49
ATOM     49  C   UNL     1     -16.207  -6.522   5.145  1.00  0.00     0.072 C 
BRANCH  49  50
ATOM     50  C   UNL     1     -16.274  -6.373   3.642  1.00  0.00    -0.045 A 
ATOM     51  C   UNL     1     -15.948  -7.459   2.816  1.00  0.00     0.007 A 
ATOM     52  C   UNL     1     -16.638  -5.155   3.053  1.00  0.00     0.007 A 
ATOM     53  C   UNL     1     -15.994  -7.330   1.428  1.00  0.00     0.046 A 
ATOM     54  C   UNL     1     -16.682  -5.025   1.663  1.00  0.00     0.046 A 
ATOM     55  C   UNL     1     -16.360  -6.115   0.862  1.00  0.00     0.115 A 
BRANCH  55  56
ATOM     56  O   UNL     1     -16.391  -6.030  -0.498  1.00  0.00    -0.508 OA
ATOM     57  H   UNL     1     -15.634  -5.495  -0.788  1.00  0.00     0.293 HD
ENDBRANCH  55  56
ENDBRANCH  49  50
ENDBRANCH  48  49
BRANCH  48  58
ATOM     58  C   UNL     1     -14.340  -6.269   6.805  1.00  0.00     0.326 C 
ATOM     59  O   UNL     1     -14.775  -5.203   7.210  1.00  0.00    -0.250 OA
BRANCH  58  60
ATOM     60  O   UNL     1     -13.285  -6.838   7.440  1.00  0.00    -0.480 OA
ATOM     61  H   UNL     1     -13.433  -6.601   8.381  1.00  0.00     0.296 HD
ENDBRANCH  58  60
ENDBRANCH  48  58
ENDBRANCH  46  48
ENDBRANCH  34  44
ENDBRANCH  32  34
ENDBRANCH  25  30
ENDBRANCH  23  25
ENDBRANCH   2  23
TORSDOF 28
ENDMDL
MODEL 27
REMARK VINA RESULT:    -7.084      3.326      8.001
REMARK INTER + INTRA:         -22.309
REMARK INTER:                 -18.901
REMARK INTRA:                  -3.408
REMARK UNBOUND:                -4.665
REMARK SMILES CCCCCCC[C@H](N)[C@H](O)C(=O)N[C@H](C)C(=O)N(C)[C@H](CC(C)C)C(=O)N[C@@H](Cc1ccc(O)cc1)C(=O)N[C@@H](Cc1ccc(O)cc1)C(=O)O
REMARK SMILES IDX 18 1 17 2 15 3 16 4 14 5 12 6 13 7 10 9 11 10 8 12 9 13 7 16
REMARK SMILES IDX 6 17 5 18 4 19 3 20 2 21 1 22 19 23 20 24 21 25 22 26 23 27
REMARK SMILES IDX 24 28 25 29 26 30 27 31 28 32 29 34 30 35 31 36 32 37 37 38
REMARK SMILES IDX 33 39 36 40 34 41 35 42 38 44 39 45 40 46 41 48 42 49 43 50
REMARK SMILES IDX 44 51 49 52 45 53 48 54 46 55 47 56 50 58 51 59 52 60
REMARK H PARENT 14 8 11 11 9 14 9 15 28 33 35 43 40 47 47 57 52 61
ROOT
ATOM      1  O   UNL     1      -8.666 -10.555   1.886  1.00  0.00    -0.272 OA
ATOM      2  C   UNL     1      -9.511 -11.458   1.795  1.00  0.00     0.245 C 
ENDROOT
BRANCH   2   3
ATOM      3  C   UNL     1     -10.340 -11.569   0.491  1.00  0.00     0.168 C 
ATOM      4  C   UNL     1     -11.179 -10.314   0.273  1.00  0.00     0.041 C 
BRANCH   3   5
ATOM      5  N   UNL     1      -9.571 -11.919  -0.693  1.00  0.00    -0.342 N 
ATOM      6  C   UNL     1      -9.046 -13.181  -0.873  1.00  0.00     0.251 C 
ATOM      7  O   UNL     1      -9.147 -14.080  -0.045  1.00  0.00    -0.272 OA
ATOM      8  H   UNL     1      -9.391 -11.245  -1.434  1.00  0.00     0.164 HD
BRANCH   6   9
ATOM      9  C   UNL     1      -8.398 -13.364  -2.255  1.00  0.00     0.219 C 
BRANCH   9  10
ATOM     10  O   UNL     1      -7.292 -14.274  -2.231  1.00  0.00    -0.382 OA
ATOM     11  H   UNL     1      -6.742 -13.950  -1.484  1.00  0.00     0.211 HD
ENDBRANCH   9  10
BRANCH   9  12
ATOM     12  C   UNL     1      -9.414 -13.761  -3.357  1.00  0.00     0.089 C 
BRANCH  12  13
ATOM     13  N   UNL     1     -10.508 -14.536  -2.727  1.00  0.00    -0.325 NA
ATOM     14  H   UNL     1     -11.157 -13.891  -2.272  1.00  0.00     0.119 HD
ATOM     15  H   UNL     1     -10.118 -15.102  -1.969  1.00  0.00     0.119 HD
ENDBRANCH  12  13
BRANCH  12  16
ATOM     16  C   UNL     1     -10.000 -12.596  -4.190  1.00  0.00     0.022 C 
BRANCH  16  17
ATOM     17  C   UNL     1      -9.163 -11.325  -4.391  1.00  0.00     0.002 C 
BRANCH  17  18
ATOM     18  C   UNL     1      -8.959 -10.910  -5.846  1.00  0.00     0.000 C 
BRANCH  18  19
ATOM     19  C   UNL     1      -8.461 -12.042  -6.755  1.00  0.00    -0.000 C 
BRANCH  19  20
ATOM     20  C   UNL     1      -6.963 -12.011  -7.070  1.00  0.00    -0.000 C 
BRANCH  20  21
ATOM     21  C   UNL     1      -6.121 -12.789  -6.056  1.00  0.00    -0.003 C 
ATOM     22  C   UNL     1      -6.751 -14.134  -5.728  1.00  0.00     0.004 C 
ENDBRANCH  20  21
ENDBRANCH  19  20
ENDBRANCH  18  19
ENDBRANCH  17  18
ENDBRANCH  16  17
ENDBRANCH  12  16
ENDBRANCH   9  12
ENDBRANCH   6   9
ENDBRANCH   3   5
ENDBRANCH   2   3
BRANCH   2  23
ATOM     23  N   UNL     1      -9.616 -12.415   2.798  1.00  0.00    -0.332 N 
ATOM     24  C   UNL     1      -8.485 -13.093   3.415  1.00  0.00     0.147 C 
BRANCH  23  25
ATOM     25  C   UNL     1     -10.939 -12.721   3.409  1.00  0.00     0.174 C 
BRANCH  25  26
ATOM     26  C   UNL     1     -11.793 -13.681   2.548  1.00  0.00     0.038 C 
BRANCH  26  27
ATOM     27  C   UNL     1     -12.173 -15.039   3.180  1.00  0.00    -0.015 C 
ATOM     28  C   UNL     1     -12.425 -14.933   4.684  1.00  0.00     0.007 C 
ATOM     29  C   UNL     1     -13.346 -15.725   2.485  1.00  0.00     0.007 C 
ENDBRANCH  26  27
ENDBRANCH  25  26
BRANCH  25  30
ATOM     30  C   UNL     1     -11.667 -11.411   3.786  1.00  0.00     0.243 C 
ATOM     31  O   UNL     1     -11.120 -10.531   4.449  1.00  0.00    -0.273 OA
ATOM     32  N   UNL     1     -12.958 -11.299   3.338  1.00  0.00    -0.342 N 
ATOM     33  H   UNL     1     -13.293 -12.005   2.677  1.00  0.00     0.164 HD
BRANCH  32  34
ATOM     34  C   UNL     1     -13.809 -10.140   3.623  1.00  0.00     0.175 C 
BRANCH  34  35
ATOM     35  C   UNL     1     -15.024 -10.096   2.684  1.00  0.00     0.070 C 
BRANCH  35  36
ATOM     36  C   UNL     1     -15.459  -8.685   2.357  1.00  0.00    -0.045 A 
ATOM     37  C   UNL     1     -15.638  -8.298   1.020  1.00  0.00     0.007 A 
ATOM     38  C   UNL     1     -15.665  -7.742   3.373  1.00  0.00     0.007 A 
ATOM     39  C   UNL     1     -16.026  -6.994   0.708  1.00  0.00     0.046 A 
ATOM     40  C   UNL     1     -16.052  -6.436   3.061  1.00  0.00     0.046 A 
ATOM     41  C   UNL     1     -16.230  -6.075   1.730  1.00  0.00     0.115 A 
BRANCH  41  42
ATOM     42  O   UNL     1     -16.604  -4.811   1.382  1.00  0.00    -0.508 OA
ATOM     43  H   UNL     1     -16.210  -4.603   0.518  1.00  0.00     0.293 HD
ENDBRANCH  41  42
ENDBRANCH  35  36
ENDBRANCH  34  35
BRANCH  34  44
ATOM     44  C   UNL     1     -14.228 -10.208   5.108  1.00  0.00     0.243 C 
ATOM     45  O   UNL     1     -15.287 -10.682   5.510  1.00  0.00    -0.273 OA
ATOM     46  N   UNL     1     -13.353  -9.561   5.955  1.00  0.00    -0.341 N 
ATOM     47  H   UNL     1     -12.548  -9.081   5.561  1.00  0.00     0.164 HD
BRANCH  46  48
ATOM     48  C   UNL     1     -13.574  -9.433   7.398  1.00  0.00     0.196 C 
BRANCH  48  49
ATOM     49  C   UNL     1     -14.848  -8.625   7.700  1.00  0.00     0.072 C 
BRANCH  49  50
ATOM     50  C   UNL     1     -14.596  -7.135   7.738  1.00  0.00    -0.045 A 
ATOM     51  C   UNL     1     -15.095  -6.316   6.714  1.00  0.00     0.007 A 
ATOM     52  C   UNL     1     -13.851  -6.556   8.773  1.00  0.00     0.007 A 
ATOM     53  C   UNL     1     -14.858  -4.941   6.732  1.00  0.00     0.046 A 
ATOM     54  C   UNL     1     -13.613  -5.180   8.790  1.00  0.00     0.046 A 
ATOM     55  C   UNL     1     -14.120  -4.383   7.769  1.00  0.00     0.115 A 
BRANCH  55  56
ATOM     56  O   UNL     1     -13.909  -3.036   7.748  1.00  0.00    -0.508 OA
ATOM     57  H   UNL     1     -12.963  -2.877   7.603  1.00  0.00     0.293 HD
ENDBRANCH  55  56
ENDBRANCH  49  50
ENDBRANCH  48  49
BRANCH  48  58
ATOM     58  C   UNL     1     -13.696 -10.835   8.010  1.00  0.00     0.326 C 
ATOM     59  O   UNL     1     -12.810 -11.663   8.143  1.00  0.00    -0.250 OA
BRANCH  58  60
ATOM     60  O   UNL     1     -14.947 -11.127   8.448  1.00  0.00    -0.480 OA
ATOM     61  H   UNL     1     -15.065 -10.523   9.213  1.00  0.00     0.296 HD
ENDBRANCH  58  60
ENDBRANCH  48  58
ENDBRANCH  46  48
ENDBRANCH  34  44
ENDBRANCH  32  34
ENDBRANCH  25  30
ENDBRANCH  23  25
ENDBRANCH   2  23
TORSDOF 28
ENDMDL
MODEL 28
REMARK VINA RESULT:    -7.053      3.641      7.998
REMARK INTER + INTRA:         -22.231
REMARK INTER:                 -18.736
REMARK INTRA:                  -3.496
REMARK UNBOUND:                -4.665
REMARK SMILES CCCCCCC[C@H](N)[C@H](O)C(=O)N[C@H](C)C(=O)N(C)[C@H](CC(C)C)C(=O)N[C@@H](Cc1ccc(O)cc1)C(=O)N[C@@H](Cc1ccc(O)cc1)C(=O)O
REMARK SMILES IDX 18 1 17 2 15 3 16 4 14 5 12 6 13 7 10 9 11 10 8 12 9 13 7 16
REMARK SMILES IDX 6 17 5 18 4 19 3 20 2 21 1 22 19 23 20 24 21 25 22 26 23 27
REMARK SMILES IDX 24 28 25 29 26 30 27 31 28 32 29 34 30 35 31 36 32 37 37 38
REMARK SMILES IDX 33 39 36 40 34 41 35 42 38 44 39 45 40 46 41 48 42 49 43 50
REMARK SMILES IDX 44 51 49 52 45 53 48 54 46 55 47 56 50 58 51 59 52 60
REMARK H PARENT 14 8 11 11 9 14 9 15 28 33 35 43 40 47 47 57 52 61
ROOT
ATOM      1  O   UNL     1      -7.549 -12.496   1.576  1.00  0.00    -0.272 OA
ATOM      2  C   UNL     1      -8.740 -12.752   1.342  1.00  0.00     0.245 C 
ENDROOT
BRANCH   2   3
ATOM      3  C   UNL     1      -9.451 -11.987   0.198  1.00  0.00     0.168 C 
ATOM      4  C   UNL     1      -9.264 -10.482   0.354  1.00  0.00     0.041 C 
BRANCH   3   5
ATOM      5  N   UNL     1      -9.112 -12.440  -1.142  1.00  0.00    -0.342 N 
ATOM      6  C   UNL     1     -10.082 -12.766  -2.067  1.00  0.00     0.251 C 
ATOM      7  O   UNL     1     -11.284 -12.741  -1.825  1.00  0.00    -0.272 OA
ATOM      8  H   UNL     1      -8.147 -12.533  -1.448  1.00  0.00     0.164 HD
BRANCH   6   9
ATOM      9  C   UNL     1      -9.498 -13.078  -3.455  1.00  0.00     0.219 C 
BRANCH   9  10
ATOM     10  O   UNL     1     -10.191 -14.141  -4.119  1.00  0.00    -0.382 OA
ATOM     11  H   UNL     1     -11.115 -14.050  -3.800  1.00  0.00     0.211 HD
ENDBRANCH   9  10
BRANCH   9  12
ATOM     12  C   UNL     1      -9.399 -11.829  -4.369  1.00  0.00     0.089 C 
BRANCH  12  13
ATOM     13  N   UNL     1      -8.469 -10.863  -3.742  1.00  0.00    -0.325 NA
ATOM     14  H   UNL     1      -9.008 -10.134  -3.272  1.00  0.00     0.119 HD
ATOM     15  H   UNL     1      -7.949 -10.378  -4.478  1.00  0.00     0.119 HD
ENDBRANCH  12  13
BRANCH  12  16
ATOM     16  C   UNL     1      -8.982 -12.094  -5.836  1.00  0.00     0.022 C 
BRANCH  16  17
ATOM     17  C   UNL     1      -7.737 -11.392  -6.396  1.00  0.00     0.002 C 
BRANCH  17  18
ATOM     18  C   UNL     1      -6.559 -12.314  -6.699  1.00  0.00     0.000 C 
BRANCH  18  19
ATOM     19  C   UNL     1      -6.420 -13.492  -5.725  1.00  0.00    -0.000 C 
BRANCH  19  20
ATOM     20  C   UNL     1      -5.713 -13.165  -4.407  1.00  0.00    -0.000 C 
BRANCH  20  21
ATOM     21  C   UNL     1      -5.398 -14.408  -3.571  1.00  0.00    -0.003 C 
ATOM     22  C   UNL     1      -6.487 -15.460  -3.709  1.00  0.00     0.004 C 
ENDBRANCH  20  21
ENDBRANCH  19  20
ENDBRANCH  18  19
ENDBRANCH  17  18
ENDBRANCH  16  17
ENDBRANCH  12  16
ENDBRANCH   9  12
ENDBRANCH   6   9
ENDBRANCH   3   5
ENDBRANCH   2   3
BRANCH   2  23
ATOM     23  N   UNL     1      -9.373 -13.790   2.016  1.00  0.00    -0.332 N 
ATOM     24  C   UNL     1      -8.744 -15.057   2.359  1.00  0.00     0.147 C 
BRANCH  23  25
ATOM     25  C   UNL     1     -10.747 -13.606   2.558  1.00  0.00     0.174 C 
BRANCH  25  26
ATOM     26  C   UNL     1     -11.836 -13.630   1.459  1.00  0.00     0.038 C 
BRANCH  26  27
ATOM     27  C   UNL     1     -13.084 -14.499   1.729  1.00  0.00    -0.015 C 
ATOM     28  C   UNL     1     -12.755 -15.764   2.521  1.00  0.00     0.007 C 
ATOM     29  C   UNL     1     -14.226 -13.733   2.391  1.00  0.00     0.007 C 
ENDBRANCH  26  27
ENDBRANCH  25  26
BRANCH  25  30
ATOM     30  C   UNL     1     -10.800 -12.351   3.459  1.00  0.00     0.243 C 
ATOM     31  O   UNL     1     -10.068 -12.223   4.439  1.00  0.00    -0.273 OA
ATOM     32  N   UNL     1     -11.719 -11.399   3.097  1.00  0.00    -0.342 N 
ATOM     33  H   UNL     1     -12.188 -11.513   2.195  1.00  0.00     0.164 HD
BRANCH  32  34
ATOM     34  C   UNL     1     -11.927 -10.159   3.849  1.00  0.00     0.175 C 
BRANCH  34  35
ATOM     35  C   UNL     1     -12.452  -9.036   2.941  1.00  0.00     0.070 C 
BRANCH  35  36
ATOM     36  C   UNL     1     -13.638  -9.466   2.106  1.00  0.00    -0.045 A 
ATOM     37  C   UNL     1     -13.441 -10.252   0.960  1.00  0.00     0.007 A 
ATOM     38  C   UNL     1     -14.938  -9.071   2.447  1.00  0.00     0.007 A 
ATOM     39  C   UNL     1     -14.527 -10.642   0.176  1.00  0.00     0.046 A 
ATOM     40  C   UNL     1     -16.026  -9.460   1.661  1.00  0.00     0.046 A 
ATOM     41  C   UNL     1     -15.810 -10.244   0.533  1.00  0.00     0.115 A 
BRANCH  41  42
ATOM     42  O   UNL     1     -16.844 -10.643  -0.262  1.00  0.00    -0.508 OA
ATOM     43  H   UNL     1     -16.677 -10.320  -1.163  1.00  0.00     0.293 HD
ENDBRANCH  41  42
ENDBRANCH  35  36
ENDBRANCH  34  35
BRANCH  34  44
ATOM     44  C   UNL     1     -12.897 -10.462   5.013  1.00  0.00     0.243 C 
ATOM     45  O   UNL     1     -13.946 -11.089   4.896  1.00  0.00    -0.273 OA
ATOM     46  N   UNL     1     -12.545  -9.845   6.195  1.00  0.00    -0.341 N 
ATOM     47  H   UNL     1     -11.728  -9.239   6.212  1.00  0.00     0.164 HD
BRANCH  46  48
ATOM     48  C   UNL     1     -13.347  -9.930   7.418  1.00  0.00     0.196 C 
BRANCH  48  49
ATOM     49  C   UNL     1     -14.779  -9.422   7.184  1.00  0.00     0.072 C 
BRANCH  49  50
ATOM     50  C   UNL     1     -14.829  -7.942   6.875  1.00  0.00    -0.045 A 
ATOM     51  C   UNL     1     -14.240  -7.024   7.757  1.00  0.00     0.007 A 
ATOM     52  C   UNL     1     -15.474  -7.467   5.726  1.00  0.00     0.007 A 
ATOM     53  C   UNL     1     -14.291  -5.656   7.489  1.00  0.00     0.046 A 
ATOM     54  C   UNL     1     -15.526  -6.097   5.459  1.00  0.00     0.046 A 
ATOM     55  C   UNL     1     -14.932  -5.203   6.343  1.00  0.00     0.115 A 
BRANCH  55  56
ATOM     56  O   UNL     1     -14.961  -3.858   6.119  1.00  0.00    -0.508 OA
ATOM     57  H   UNL     1     -15.071  -3.709   5.166  1.00  0.00     0.293 HD
ENDBRANCH  55  56
ENDBRANCH  49  50
ENDBRANCH  48  49
BRANCH  48  58
ATOM     58  C   UNL     1     -13.389 -11.391   7.887  1.00  0.00     0.326 C 
ATOM     59  O   UNL     1     -12.495 -12.218   7.811  1.00  0.00    -0.250 OA
BRANCH  58  60
ATOM     60  O   UNL     1     -14.571 -11.743   8.453  1.00  0.00    -0.480 OA
ATOM     61  H   UNL     1     -14.431 -11.553   9.406  1.00  0.00     0.296 HD
ENDBRANCH  58  60
ENDBRANCH  48  58
ENDBRANCH  46  48
ENDBRANCH  34  44
ENDBRANCH  32  34
ENDBRANCH  25  30
ENDBRANCH  23  25
ENDBRANCH   2  23
TORSDOF 28
ENDMDL
MODEL 29
REMARK VINA RESULT:    -7.053      2.426      9.030
REMARK INTER + INTRA:         -22.231
REMARK INTER:                 -17.111
REMARK INTRA:                  -5.120
REMARK UNBOUND:                -4.665
REMARK SMILES CCCCCCC[C@H](N)[C@H](O)C(=O)N[C@H](C)C(=O)N(C)[C@H](CC(C)C)C(=O)N[C@@H](Cc1ccc(O)cc1)C(=O)N[C@@H](Cc1ccc(O)cc1)C(=O)O
REMARK SMILES IDX 18 1 17 2 15 3 16 4 14 5 12 6 13 7 10 9 11 10 8 12 9 13 7 16
REMARK SMILES IDX 6 17 5 18 4 19 3 20 2 21 1 22 19 23 20 24 21 25 22 26 23 27
REMARK SMILES IDX 24 28 25 29 26 30 27 31 28 32 29 34 30 35 31 36 32 37 37 38
REMARK SMILES IDX 33 39 36 40 34 41 35 42 38 44 39 45 40 46 41 48 42 49 43 50
REMARK SMILES IDX 44 51 49 52 45 53 48 54 46 55 47 56 50 58 51 59 52 60
REMARK H PARENT 14 8 11 11 9 14 9 15 28 33 35 43 40 47 47 57 52 61
ROOT
ATOM      1  O   UNL     1     -11.451 -10.409   7.119  1.00  0.00    -0.272 OA
ATOM      2  C   UNL     1     -12.412 -10.955   6.557  1.00  0.00     0.245 C 
ENDROOT
BRANCH   2   3
ATOM      3  C   UNL     1     -12.126 -11.978   5.429  1.00  0.00     0.168 C 
ATOM      4  C   UNL     1     -13.380 -12.232   4.599  1.00  0.00     0.041 C 
BRANCH   3   5
ATOM      5  N   UNL     1     -10.978 -11.662   4.594  1.00  0.00    -0.342 N 
ATOM      6  C   UNL     1      -9.750 -12.256   4.790  1.00  0.00     0.251 C 
ATOM      7  O   UNL     1      -9.520 -13.053   5.694  1.00  0.00    -0.272 OA
ATOM      8  H   UNL     1     -11.037 -10.989   3.833  1.00  0.00     0.164 HD
BRANCH   6   9
ATOM      9  C   UNL     1      -8.727 -11.880   3.706  1.00  0.00     0.219 C 
BRANCH   9  10
ATOM     10  O   UNL     1      -7.474 -11.453   4.253  1.00  0.00    -0.382 OA
ATOM     11  H   UNL     1      -7.245 -10.662   3.716  1.00  0.00     0.211 HD
ENDBRANCH   9  10
BRANCH   9  12
ATOM     12  C   UNL     1      -8.516 -13.000   2.654  1.00  0.00     0.089 C 
BRANCH  12  13
ATOM     13  N   UNL     1      -9.101 -14.254   3.182  1.00  0.00    -0.325 NA
ATOM     14  H   UNL     1     -10.000 -14.423   2.727  1.00  0.00     0.119 HD
ATOM     15  H   UNL     1      -9.323 -14.124   4.172  1.00  0.00     0.119 HD
ENDBRANCH  12  13
BRANCH  12  16
ATOM     16  C   UNL     1      -9.067 -12.712   1.237  1.00  0.00     0.022 C 
BRANCH  16  17
ATOM     17  C   UNL     1      -9.450 -11.274   0.863  1.00  0.00     0.002 C 
BRANCH  17  18
ATOM     18  C   UNL     1     -10.936 -11.053   0.588  1.00  0.00     0.000 C 
BRANCH  18  19
ATOM     19  C   UNL     1     -11.456 -11.784  -0.657  1.00  0.00    -0.000 C 
BRANCH  19  20
ATOM     20  C   UNL     1     -12.019 -13.185  -0.401  1.00  0.00    -0.000 C 
BRANCH  20  21
ATOM     21  C   UNL     1     -12.877 -13.264   0.865  1.00  0.00    -0.003 C 
ATOM     22  C   UNL     1     -12.421 -14.396   1.773  1.00  0.00     0.004 C 
ENDBRANCH  20  21
ENDBRANCH  19  20
ENDBRANCH  18  19
ENDBRANCH  17  18
ENDBRANCH  16  17
ENDBRANCH  12  16
ENDBRANCH   9  12
ENDBRANCH   6   9
ENDBRANCH   3   5
ENDBRANCH   2   3
BRANCH   2  23
ATOM     23  N   UNL     1     -13.705 -10.738   7.021  1.00  0.00    -0.332 N 
ATOM     24  C   UNL     1     -14.483 -11.706   7.779  1.00  0.00     0.147 C 
BRANCH  23  25
ATOM     25  C   UNL     1     -14.343  -9.402   6.870  1.00  0.00     0.174 C 
BRANCH  25  26
ATOM     26  C   UNL     1     -15.035  -8.915   8.165  1.00  0.00     0.038 C 
BRANCH  26  27
ATOM     27  C   UNL     1     -14.758  -7.459   8.602  1.00  0.00    -0.015 C 
ATOM     28  C   UNL     1     -14.999  -7.242  10.096  1.00  0.00     0.007 C 
ATOM     29  C   UNL     1     -13.371  -6.959   8.204  1.00  0.00     0.007 C 
ENDBRANCH  26  27
ENDBRANCH  25  26
BRANCH  25  30
ATOM     30  C   UNL     1     -15.266  -9.390   5.630  1.00  0.00     0.243 C 
ATOM     31  O   UNL     1     -16.349  -9.973   5.620  1.00  0.00    -0.273 OA
ATOM     32  N   UNL     1     -14.795  -8.694   4.546  1.00  0.00    -0.342 N 
ATOM     33  H   UNL     1     -13.958  -8.120   4.679  1.00  0.00     0.164 HD
BRANCH  32  34
ATOM     34  C   UNL     1     -15.521  -8.597   3.278  1.00  0.00     0.175 C 
BRANCH  34  35
ATOM     35  C   UNL     1     -15.123  -7.333   2.500  1.00  0.00     0.070 C 
BRANCH  35  36
ATOM     36  C   UNL     1     -16.319  -6.548   2.009  1.00  0.00    -0.045 A 
ATOM     37  C   UNL     1     -16.923  -5.595   2.842  1.00  0.00     0.007 A 
ATOM     38  C   UNL     1     -16.852  -6.774   0.733  1.00  0.00     0.007 A 
ATOM     39  C   UNL     1     -18.035  -4.876   2.403  1.00  0.00     0.046 A 
ATOM     40  C   UNL     1     -17.966  -6.055   0.292  1.00  0.00     0.046 A 
ATOM     41  C   UNL     1     -18.547  -5.111   1.132  1.00  0.00     0.115 A 
BRANCH  41  42
ATOM     42  O   UNL     1     -19.636  -4.389   0.742  1.00  0.00    -0.508 OA
ATOM     43  H   UNL     1     -19.360  -3.467   0.613  1.00  0.00     0.293 HD
ENDBRANCH  41  42
ENDBRANCH  35  36
ENDBRANCH  34  35
BRANCH  34  44
ATOM     44  C   UNL     1     -15.244  -9.884   2.468  1.00  0.00     0.243 C 
ATOM     45  O   UNL     1     -14.229 -10.082   1.806  1.00  0.00    -0.273 OA
ATOM     46  N   UNL     1     -16.310 -10.759   2.446  1.00  0.00    -0.341 N 
ATOM     47  H   UNL     1     -17.174 -10.497   2.914  1.00  0.00     0.164 HD
BRANCH  46  48
ATOM     48  C   UNL     1     -16.308 -12.013   1.689  1.00  0.00     0.196 C 
BRANCH  48  49
ATOM     49  C   UNL     1     -17.300 -13.027   2.282  1.00  0.00     0.072 C 
BRANCH  49  50
ATOM     50  C   UNL     1     -16.685 -13.871   3.375  1.00  0.00    -0.045 A 
ATOM     51  C   UNL     1     -15.876 -14.967   3.040  1.00  0.00     0.007 A 
ATOM     52  C   UNL     1     -16.928 -13.591   4.726  1.00  0.00     0.007 A 
ATOM     53  C   UNL     1     -15.314 -15.761   4.040  1.00  0.00     0.046 A 
ATOM     54  C   UNL     1     -16.367 -14.387   5.726  1.00  0.00     0.046 A 
ATOM     55  C   UNL     1     -15.563 -15.465   5.374  1.00  0.00     0.115 A 
BRANCH  55  56
ATOM     56  O   UNL     1     -14.996 -16.267   6.320  1.00  0.00    -0.508 OA
ATOM     57  H   UNL     1     -14.472 -16.948   5.870  1.00  0.00     0.293 HD
ENDBRANCH  55  56
ENDBRANCH  49  50
ENDBRANCH  48  49
BRANCH  48  58
ATOM     58  C   UNL     1     -16.684 -11.716   0.231  1.00  0.00     0.326 C 
ATOM     59  O   UNL     1     -17.007 -12.522  -0.628  1.00  0.00    -0.250 OA
BRANCH  58  60
ATOM     60  O   UNL     1     -16.651 -10.396  -0.080  1.00  0.00    -0.480 OA
ATOM     61  H   UNL     1     -16.022 -10.025   0.577  1.00  0.00     0.296 HD
ENDBRANCH  58  60
ENDBRANCH  48  58
ENDBRANCH  46  48
ENDBRANCH  34  44
ENDBRANCH  32  34
ENDBRANCH  25  30
ENDBRANCH  23  25
ENDBRANCH   2  23
TORSDOF 28
ENDMDL
MODEL 30
REMARK VINA RESULT:    -7.049      2.420      7.922
REMARK INTER + INTRA:         -22.221
REMARK INTER:                 -16.826
REMARK INTRA:                  -5.395
REMARK UNBOUND:                -4.665
REMARK SMILES CCCCCCC[C@H](N)[C@H](O)C(=O)N[C@H](C)C(=O)N(C)[C@H](CC(C)C)C(=O)N[C@@H](Cc1ccc(O)cc1)C(=O)N[C@@H](Cc1ccc(O)cc1)C(=O)O
REMARK SMILES IDX 18 1 17 2 15 3 16 4 14 5 12 6 13 7 10 9 11 10 8 12 9 13 7 16
REMARK SMILES IDX 6 17 5 18 4 19 3 20 2 21 1 22 19 23 20 24 21 25 22 26 23 27
REMARK SMILES IDX 24 28 25 29 26 30 27 31 28 32 29 34 30 35 31 36 32 37 37 38
REMARK SMILES IDX 33 39 36 40 34 41 35 42 38 44 39 45 40 46 41 48 42 49 43 50
REMARK SMILES IDX 44 51 49 52 45 53 48 54 46 55 47 56 50 58 51 59 52 60
REMARK H PARENT 14 8 11 11 9 14 9 15 28 33 35 43 40 47 47 57 52 61
ROOT
ATOM      1  O   UNL     1      -8.097 -12.986   2.252  1.00  0.00    -0.272 OA
ATOM      2  C   UNL     1      -9.313 -12.813   2.087  1.00  0.00     0.245 C 
ENDROOT
BRANCH   2   3
ATOM      3  C   UNL     1     -10.303 -13.676   2.908  1.00  0.00     0.168 C 
ATOM      4  C   UNL     1      -9.790 -15.106   3.045  1.00  0.00     0.041 C 
BRANCH   3   5
ATOM      5  N   UNL     1     -10.685 -13.112   4.194  1.00  0.00    -0.342 N 
ATOM      6  C   UNL     1     -11.997 -12.816   4.498  1.00  0.00     0.251 C 
ATOM      7  O   UNL     1     -12.924 -12.963   3.709  1.00  0.00    -0.272 OA
ATOM      8  H   UNL     1      -9.998 -12.913   4.917  1.00  0.00     0.164 HD
BRANCH   6   9
ATOM      9  C   UNL     1     -12.182 -12.366   5.956  1.00  0.00     0.219 C 
BRANCH   9  10
ATOM     10  O   UNL     1     -11.500 -13.216   6.887  1.00  0.00    -0.382 OA
ATOM     11  H   UNL     1     -10.779 -13.614   6.352  1.00  0.00     0.211 HD
ENDBRANCH   9  10
BRANCH   9  12
ATOM     12  C   UNL     1     -11.803 -10.880   6.188  1.00  0.00     0.089 C 
BRANCH  12  13
ATOM     13  N   UNL     1     -12.091 -10.126   4.946  1.00  0.00    -0.325 NA
ATOM     14  H   UNL     1     -11.602  -9.230   4.977  1.00  0.00     0.119 HD
ATOM     15  H   UNL     1     -13.085  -9.887   4.927  1.00  0.00     0.119 HD
ENDBRANCH  12  13
BRANCH  12  16
ATOM     16  C   UNL     1     -12.477 -10.189   7.398  1.00  0.00     0.022 C 
BRANCH  16  17
ATOM     17  C   UNL     1     -13.896 -10.610   7.803  1.00  0.00     0.002 C 
BRANCH  17  18
ATOM     18  C   UNL     1     -14.920  -9.478   7.834  1.00  0.00     0.000 C 
BRANCH  18  19
ATOM     19  C   UNL     1     -14.527  -8.256   6.992  1.00  0.00    -0.000 C 
BRANCH  19  20
ATOM     20  C   UNL     1     -14.275  -6.973   7.788  1.00  0.00    -0.000 C 
BRANCH  20  21
ATOM     21  C   UNL     1     -14.550  -5.702   6.980  1.00  0.00    -0.003 C 
ATOM     22  C   UNL     1     -14.135  -4.456   7.746  1.00  0.00     0.004 C 
ENDBRANCH  20  21
ENDBRANCH  19  20
ENDBRANCH  18  19
ENDBRANCH  17  18
ENDBRANCH  16  17
ENDBRANCH  12  16
ENDBRANCH   9  12
ENDBRANCH   6   9
ENDBRANCH   3   5
ENDBRANCH   2   3
BRANCH   2  23
ATOM     23  N   UNL     1      -9.765 -11.779   1.273  1.00  0.00    -0.332 N 
ATOM     24  C   UNL     1      -8.975 -10.614   0.904  1.00  0.00     0.147 C 
BRANCH  23  25
ATOM     25  C   UNL     1     -11.091 -11.875   0.604  1.00  0.00     0.174 C 
BRANCH  25  26
ATOM     26  C   UNL     1     -11.013 -11.651  -0.925  1.00  0.00     0.038 C 
BRANCH  26  27
ATOM     27  C   UNL     1     -10.233 -12.701  -1.747  1.00  0.00    -0.015 C 
ATOM     28  C   UNL     1     -10.682 -14.130  -1.445  1.00  0.00     0.007 C 
ATOM     29  C   UNL     1     -10.259 -12.436  -3.251  1.00  0.00     0.007 C 
ENDBRANCH  26  27
ENDBRANCH  25  26
BRANCH  25  30
ATOM     30  C   UNL     1     -12.113 -10.958   1.315  1.00  0.00     0.243 C 
ATOM     31  O   UNL     1     -11.763 -10.095   2.118  1.00  0.00    -0.273 OA
ATOM     32  N   UNL     1     -13.428 -11.177   0.996  1.00  0.00    -0.342 N 
ATOM     33  H   UNL     1     -13.628 -11.811   0.218  1.00  0.00     0.164 HD
BRANCH  32  34
ATOM     34  C   UNL     1     -14.534 -10.422   1.592  1.00  0.00     0.175 C 
BRANCH  34  35
ATOM     35  C   UNL     1     -14.853  -9.160   0.776  1.00  0.00     0.070 C 
BRANCH  35  36
ATOM     36  C   UNL     1     -15.452  -8.055   1.617  1.00  0.00    -0.045 A 
ATOM     37  C   UNL     1     -15.167  -7.985   2.989  1.00  0.00     0.007 A 
ATOM     38  C   UNL     1     -16.313  -7.106   1.050  1.00  0.00     0.007 A 
ATOM     39  C   UNL     1     -15.726  -6.978   3.776  1.00  0.00     0.046 A 
ATOM     40  C   UNL     1     -16.874  -6.098   1.838  1.00  0.00     0.046 A 
ATOM     41  C   UNL     1     -16.574  -6.042   3.195  1.00  0.00     0.115 A 
BRANCH  41  42
ATOM     42  O   UNL     1     -17.101  -5.076   4.000  1.00  0.00    -0.508 OA
ATOM     43  H   UNL     1     -17.654  -5.508   4.672  1.00  0.00     0.293 HD
ENDBRANCH  41  42
ENDBRANCH  35  36
ENDBRANCH  34  35
BRANCH  34  44
ATOM     44  C   UNL     1     -15.754 -11.364   1.699  1.00  0.00     0.243 C 
ATOM     45  O   UNL     1     -16.887 -11.000   2.000  1.00  0.00    -0.273 OA
ATOM     46  N   UNL     1     -15.433 -12.697   1.551  1.00  0.00    -0.341 N 
ATOM     47  H   UNL     1     -14.459 -12.958   1.418  1.00  0.00     0.164 HD
BRANCH  46  48
ATOM     48  C   UNL     1     -16.410 -13.780   1.679  1.00  0.00     0.196 C 
BRANCH  48  49
ATOM     49  C   UNL     1     -17.098 -13.754   3.055  1.00  0.00     0.072 C 
BRANCH  49  50
ATOM     50  C   UNL     1     -16.190 -14.224   4.168  1.00  0.00    -0.045 A 
ATOM     51  C   UNL     1     -16.000 -13.420   5.302  1.00  0.00     0.007 A 
ATOM     52  C   UNL     1     -15.513 -15.447   4.079  1.00  0.00     0.007 A 
ATOM     53  C   UNL     1     -15.154 -13.838   6.330  1.00  0.00     0.046 A 
ATOM     54  C   UNL     1     -14.666 -15.865   5.108  1.00  0.00     0.046 A 
ATOM     55  C   UNL     1     -14.494 -15.056   6.226  1.00  0.00     0.115 A 
BRANCH  55  56
ATOM     56  O   UNL     1     -13.675 -15.427   7.251  1.00  0.00    -0.508 OA
ATOM     57  H   UNL     1     -12.964 -14.771   7.327  1.00  0.00     0.293 HD
ENDBRANCH  55  56
ENDBRANCH  49  50
ENDBRANCH  48  49
BRANCH  48  58
ATOM     58  C   UNL     1     -17.464 -13.635   0.573  1.00  0.00     0.326 C 
ATOM     59  O   UNL     1     -17.274 -13.619  -0.632  1.00  0.00    -0.250 OA
BRANCH  58  60
ATOM     60  O   UNL     1     -18.732 -13.530   1.045  1.00  0.00    -0.480 OA
ATOM     61  H   UNL     1     -19.154 -14.366   0.748  1.00  0.00     0.296 HD
ENDBRANCH  58  60
ENDBRANCH  48  58
ENDBRANCH  46  48
ENDBRANCH  34  44
ENDBRANCH  32  34
ENDBRANCH  25  30
ENDBRANCH  23  25
ENDBRANCH   2  23
TORSDOF 28
ENDMDL
MODEL 31
REMARK VINA RESULT:    -7.026      3.747      8.322
REMARK INTER + INTRA:         -22.166
REMARK INTER:                 -17.914
REMARK INTRA:                  -4.252
REMARK UNBOUND:                -4.665
REMARK SMILES CCCCCCC[C@H](N)[C@H](O)C(=O)N[C@H](C)C(=O)N(C)[C@H](CC(C)C)C(=O)N[C@@H](Cc1ccc(O)cc1)C(=O)N[C@@H](Cc1ccc(O)cc1)C(=O)O
REMARK SMILES IDX 18 1 17 2 15 3 16 4 14 5 12 6 13 7 10 9 11 10 8 12 9 13 7 16
REMARK SMILES IDX 6 17 5 18 4 19 3 20 2 21 1 22 19 23 20 24 21 25 22 26 23 27
REMARK SMILES IDX 24 28 25 29 26 30 27 31 28 32 29 34 30 35 31 36 32 37 37 38
REMARK SMILES IDX 33 39 36 40 34 41 35 42 38 44 39 45 40 46 41 48 42 49 43 50
REMARK SMILES IDX 44 51 49 52 45 53 48 54 46 55 47 56 50 58 51 59 52 60
REMARK H PARENT 14 8 11 11 9 14 9 15 28 33 35 43 40 47 47 57 52 61
ROOT
ATOM      1  O   UNL     1     -12.079 -11.173   2.223  1.00  0.00    -0.272 OA
ATOM      2  C   UNL     1     -11.967 -12.138   1.453  1.00  0.00     0.245 C 
ENDROOT
BRANCH   2   3
ATOM      3  C   UNL     1     -12.025 -11.878  -0.073  1.00  0.00     0.168 C 
ATOM      4  C   UNL     1     -13.023 -10.771  -0.396  1.00  0.00     0.041 C 
BRANCH   3   5
ATOM      5  N   UNL     1     -10.735 -11.646  -0.703  1.00  0.00    -0.342 N 
ATOM      6  C   UNL     1     -10.254 -12.466  -1.702  1.00  0.00     0.251 C 
ATOM      7  O   UNL     1     -10.846 -13.463  -2.102  1.00  0.00    -0.272 OA
ATOM      8  H   UNL     1     -10.137 -10.869  -0.431  1.00  0.00     0.164 HD
BRANCH   6   9
ATOM      9  C   UNL     1      -8.943 -11.949  -2.316  1.00  0.00     0.219 C 
BRANCH   9  10
ATOM     10  O   UNL     1      -7.913 -12.944  -2.339  1.00  0.00    -0.382 OA
ATOM     11  H   UNL     1      -7.142 -12.470  -2.720  1.00  0.00     0.211 HD
ENDBRANCH   9  10
BRANCH   9  12
ATOM     12  C   UNL     1      -9.135 -11.323  -3.722  1.00  0.00     0.089 C 
BRANCH  12  13
ATOM     13  N   UNL     1      -8.179 -10.201  -3.869  1.00  0.00    -0.325 NA
ATOM     14  H   UNL     1      -7.445 -10.292  -3.164  1.00  0.00     0.119 HD
ATOM     15  H   UNL     1      -8.658  -9.326  -3.644  1.00  0.00     0.119 HD
ENDBRANCH  12  13
BRANCH  12  16
ATOM     16  C   UNL     1      -9.004 -12.293  -4.920  1.00  0.00     0.022 C 
BRANCH  16  17
ATOM     17  C   UNL     1     -10.276 -12.808  -5.607  1.00  0.00     0.002 C 
BRANCH  17  18
ATOM     18  C   UNL     1     -10.089 -13.263  -7.053  1.00  0.00     0.000 C 
BRANCH  18  19
ATOM     19  C   UNL     1      -9.295 -14.568  -7.200  1.00  0.00    -0.000 C 
BRANCH  19  20
ATOM     20  C   UNL     1      -9.712 -15.693  -6.249  1.00  0.00    -0.000 C 
BRANCH  20  21
ATOM     21  C   UNL     1      -8.574 -16.161  -5.338  1.00  0.00    -0.003 C 
ATOM     22  C   UNL     1      -8.877 -15.867  -3.877  1.00  0.00     0.004 C 
ENDBRANCH  20  21
ENDBRANCH  19  20
ENDBRANCH  18  19
ENDBRANCH  17  18
ENDBRANCH  16  17
ENDBRANCH  12  16
ENDBRANCH   9  12
ENDBRANCH   6   9
ENDBRANCH   3   5
ENDBRANCH   2   3
BRANCH   2  23
ATOM     23  N   UNL     1     -11.673 -13.401   1.957  1.00  0.00    -0.332 N 
ATOM     24  C   UNL     1     -11.575 -14.609   1.152  1.00  0.00     0.147 C 
BRANCH  23  25
ATOM     25  C   UNL     1     -11.302 -13.570   3.389  1.00  0.00     0.174 C 
BRANCH  25  26
ATOM     26  C   UNL     1     -10.041 -14.444   3.585  1.00  0.00     0.038 C 
BRANCH  26  27
ATOM     27  C   UNL     1      -8.681 -13.711   3.625  1.00  0.00    -0.015 C 
ATOM     28  C   UNL     1      -7.753 -14.138   2.488  1.00  0.00     0.007 C 
ATOM     29  C   UNL     1      -8.812 -12.190   3.669  1.00  0.00     0.007 C 
ENDBRANCH  26  27
ENDBRANCH  25  26
BRANCH  25  30
ATOM     30  C   UNL     1     -12.525 -14.053   4.201  1.00  0.00     0.243 C 
ATOM     31  O   UNL     1     -12.640 -15.221   4.571  1.00  0.00    -0.273 OA
ATOM     32  N   UNL     1     -13.471 -13.099   4.474  1.00  0.00    -0.342 N 
ATOM     33  H   UNL     1     -13.239 -12.126   4.257  1.00  0.00     0.164 HD
BRANCH  32  34
ATOM     34  C   UNL     1     -14.707 -13.382   5.208  1.00  0.00     0.175 C 
BRANCH  34  35
ATOM     35  C   UNL     1     -14.509 -13.215   6.722  1.00  0.00     0.070 C 
BRANCH  35  36
ATOM     36  C   UNL     1     -14.009 -11.838   7.098  1.00  0.00    -0.045 A 
ATOM     37  C   UNL     1     -12.633 -11.564   7.087  1.00  0.00     0.007 A 
ATOM     38  C   UNL     1     -14.902 -10.829   7.483  1.00  0.00     0.007 A 
ATOM     39  C   UNL     1     -12.161 -10.301   7.446  1.00  0.00     0.046 A 
ATOM     40  C   UNL     1     -14.430  -9.565   7.843  1.00  0.00     0.046 A 
ATOM     41  C   UNL     1     -13.062  -9.312   7.820  1.00  0.00     0.115 A 
BRANCH  41  42
ATOM     42  O   UNL     1     -12.560  -8.092   8.166  1.00  0.00    -0.508 OA
ATOM     43  H   UNL     1     -11.853  -7.865   7.540  1.00  0.00     0.293 HD
ENDBRANCH  41  42
ENDBRANCH  35  36
ENDBRANCH  34  35
BRANCH  34  44
ATOM     44  C   UNL     1     -15.812 -12.447   4.664  1.00  0.00     0.243 C 
ATOM     45  O   UNL     1     -16.966 -12.421   5.081  1.00  0.00    -0.273 OA
ATOM     46  N   UNL     1     -15.420 -11.719   3.560  1.00  0.00    -0.341 N 
ATOM     47  H   UNL     1     -14.488 -11.862   3.180  1.00  0.00     0.164 HD
BRANCH  46  48
ATOM     48  C   UNL     1     -16.315 -10.817   2.831  1.00  0.00     0.196 C 
BRANCH  48  49
ATOM     49  C   UNL     1     -15.540  -9.644   2.208  1.00  0.00     0.072 C 
BRANCH  49  50
ATOM     50  C   UNL     1     -15.693  -8.362   2.996  1.00  0.00    -0.045 A 
ATOM     51  C   UNL     1     -15.368  -8.337   4.360  1.00  0.00     0.007 A 
ATOM     52  C   UNL     1     -16.178  -7.196   2.389  1.00  0.00     0.007 A 
ATOM     53  C   UNL     1     -15.518  -7.164   5.100  1.00  0.00     0.046 A 
ATOM     54  C   UNL     1     -16.329  -6.022   3.131  1.00  0.00     0.046 A 
ATOM     55  C   UNL     1     -15.996  -6.016   4.481  1.00  0.00     0.115 A 
BRANCH  55  56
ATOM     56  O   UNL     1     -16.129  -4.892   5.240  1.00  0.00    -0.508 OA
ATOM     57  H   UNL     1     -15.415  -4.879   5.896  1.00  0.00     0.293 HD
ENDBRANCH  55  56
ENDBRANCH  49  50
ENDBRANCH  48  49
BRANCH  48  58
ATOM     58  C   UNL     1     -17.028 -11.608   1.726  1.00  0.00     0.326 C 
ATOM     59  O   UNL     1     -16.733 -11.655   0.543  1.00  0.00    -0.250 OA
BRANCH  58  60
ATOM     60  O   UNL     1     -18.089 -12.327   2.173  1.00  0.00    -0.480 OA
ATOM     61  H   UNL     1     -17.962 -12.335   3.146  1.00  0.00     0.296 HD
ENDBRANCH  58  60
ENDBRANCH  48  58
ENDBRANCH  46  48
ENDBRANCH  34  44
ENDBRANCH  32  34
ENDBRANCH  25  30
ENDBRANCH  23  25
ENDBRANCH   2  23
TORSDOF 28
ENDMDL
MODEL 32
REMARK VINA RESULT:    -7.009      3.000      7.689
REMARK INTER + INTRA:         -22.124
REMARK INTER:                 -18.428
REMARK INTRA:                  -3.695
REMARK UNBOUND:                -4.665
REMARK SMILES CCCCCCC[C@H](N)[C@H](O)C(=O)N[C@H](C)C(=O)N(C)[C@H](CC(C)C)C(=O)N[C@@H](Cc1ccc(O)cc1)C(=O)N[C@@H](Cc1ccc(O)cc1)C(=O)O
REMARK SMILES IDX 18 1 17 2 15 3 16 4 14 5 12 6 13 7 10 9 11 10 8 12 9 13 7 16
REMARK SMILES IDX 6 17 5 18 4 19 3 20 2 21 1 22 19 23 20 24 21 25 22 26 23 27
REMARK SMILES IDX 24 28 25 29 26 30 27 31 28 32 29 34 30 35 31 36 32 37 37 38
REMARK SMILES IDX 33 39 36 40 34 41 35 42 38 44 39 45 40 46 41 48 42 49 43 50
REMARK SMILES IDX 44 51 49 52 45 53 48 54 46 55 47 56 50 58 51 59 52 60
REMARK H PARENT 14 8 11 11 9 14 9 15 28 33 35 43 40 47 47 57 52 61
ROOT
ATOM      1  O   UNL     1     -14.029 -10.747   1.218  1.00  0.00    -0.272 OA
ATOM      2  C   UNL     1     -14.072 -11.933   1.579  1.00  0.00     0.245 C 
ENDROOT
BRANCH   2   3
ATOM      3  C   UNL     1     -12.767 -12.766   1.546  1.00  0.00     0.168 C 
ATOM      4  C   UNL     1     -13.077 -14.254   1.424  1.00  0.00     0.041 C 
BRANCH   3   5
ATOM      5  N   UNL     1     -11.791 -12.333   0.558  1.00  0.00    -0.342 N 
ATOM      6  C   UNL     1     -10.571 -11.805   0.923  1.00  0.00     0.251 C 
ATOM      7  O   UNL     1     -10.235 -11.622   2.089  1.00  0.00    -0.272 OA
ATOM      8  H   UNL     1     -11.971 -12.403  -0.441  1.00  0.00     0.164 HD
BRANCH   6   9
ATOM      9  C   UNL     1      -9.648 -11.552  -0.280  1.00  0.00     0.219 C 
BRANCH   9  10
ATOM     10  O   UNL     1      -8.910 -10.330  -0.162  1.00  0.00    -0.382 OA
ATOM     11  H   UNL     1      -7.991 -10.592  -0.389  1.00  0.00     0.211 HD
ENDBRANCH   9  10
BRANCH   9  12
ATOM     12  C   UNL     1      -8.700 -12.741  -0.581  1.00  0.00     0.089 C 
BRANCH  12  13
ATOM     13  N   UNL     1      -9.056 -13.862   0.319  1.00  0.00    -0.325 NA
ATOM     14  H   UNL     1      -8.760 -14.742  -0.107  1.00  0.00     0.119 HD
ATOM     15  H   UNL     1     -10.075 -13.926   0.382  1.00  0.00     0.119 HD
ENDBRANCH  12  13
BRANCH  12  16
ATOM     16  C   UNL     1      -8.668 -13.228  -2.049  1.00  0.00     0.022 C 
BRANCH  16  17
ATOM     17  C   UNL     1      -9.972 -13.694  -2.710  1.00  0.00     0.002 C 
BRANCH  17  18
ATOM     18  C   UNL     1      -9.948 -15.123  -3.248  1.00  0.00     0.000 C 
BRANCH  18  19
ATOM     19  C   UNL     1      -8.612 -15.529  -3.883  1.00  0.00    -0.000 C 
BRANCH  19  20
ATOM     20  C   UNL     1      -8.475 -15.204  -5.373  1.00  0.00    -0.000 C 
BRANCH  20  21
ATOM     21  C   UNL     1      -7.714 -13.901  -5.636  1.00  0.00    -0.003 C 
ATOM     22  C   UNL     1      -6.315 -13.947  -5.041  1.00  0.00     0.004 C 
ENDBRANCH  20  21
ENDBRANCH  19  20
ENDBRANCH  18  19
ENDBRANCH  17  18
ENDBRANCH  16  17
ENDBRANCH  12  16
ENDBRANCH   9  12
ENDBRANCH   6   9
ENDBRANCH   3   5
ENDBRANCH   2   3
BRANCH   2  23
ATOM     23  N   UNL     1     -15.245 -12.454   2.115  1.00  0.00    -0.332 N 
ATOM     24  C   UNL     1     -16.437 -12.771   1.342  1.00  0.00     0.147 C 
BRANCH  23  25
ATOM     25  C   UNL     1     -15.305 -12.851   3.548  1.00  0.00     0.174 C 
BRANCH  25  26
ATOM     26  C   UNL     1     -16.138 -14.132   3.785  1.00  0.00     0.038 C 
BRANCH  26  27
ATOM     27  C   UNL     1     -15.421 -15.316   4.471  1.00  0.00    -0.015 C 
ATOM     28  C   UNL     1     -15.179 -16.486   3.517  1.00  0.00     0.007 C 
ATOM     29  C   UNL     1     -14.125 -14.918   5.173  1.00  0.00     0.007 C 
ENDBRANCH  26  27
ENDBRANCH  25  26
BRANCH  25  30
ATOM     30  C   UNL     1     -15.752 -11.651   4.414  1.00  0.00     0.243 C 
ATOM     31  O   UNL     1     -16.769 -11.008   4.159  1.00  0.00    -0.273 OA
ATOM     32  N   UNL     1     -14.938 -11.349   5.476  1.00  0.00    -0.342 N 
ATOM     33  H   UNL     1     -14.193 -12.013   5.705  1.00  0.00     0.164 HD
BRANCH  32  34
ATOM     34  C   UNL     1     -15.190 -10.230   6.387  1.00  0.00     0.175 C 
BRANCH  34  35
ATOM     35  C   UNL     1     -14.448 -10.416   7.720  1.00  0.00     0.070 C 
BRANCH  35  36
ATOM     36  C   UNL     1     -13.032 -10.912   7.537  1.00  0.00    -0.045 A 
ATOM     37  C   UNL     1     -12.762 -12.289   7.561  1.00  0.00     0.007 A 
ATOM     38  C   UNL     1     -11.972 -10.013   7.364  1.00  0.00     0.007 A 
ATOM     39  C   UNL     1     -11.456 -12.756   7.407  1.00  0.00     0.046 A 
ATOM     40  C   UNL     1     -10.664 -10.480   7.210  1.00  0.00     0.046 A 
ATOM     41  C   UNL     1     -10.418 -11.849   7.232  1.00  0.00     0.115 A 
BRANCH  41  42
ATOM     42  O   UNL     1      -9.157 -12.346   7.088  1.00  0.00    -0.508 OA
ATOM     43  H   UNL     1      -8.696 -11.817   6.415  1.00  0.00     0.293 HD
ENDBRANCH  41  42
ENDBRANCH  35  36
ENDBRANCH  34  35
BRANCH  34  44
ATOM     44  C   UNL     1     -14.772  -8.926   5.671  1.00  0.00     0.243 C 
ATOM     45  O   UNL     1     -13.888  -8.854   4.821  1.00  0.00    -0.273 OA
ATOM     46  N   UNL     1     -15.397  -7.802   6.168  1.00  0.00    -0.341 N 
ATOM     47  H   UNL     1     -16.036  -7.899   6.953  1.00  0.00     0.164 HD
BRANCH  46  48
ATOM     48  C   UNL     1     -15.112  -6.446   5.694  1.00  0.00     0.196 C 
BRANCH  48  49
ATOM     49  C   UNL     1     -16.366  -5.787   5.094  1.00  0.00     0.072 C 
BRANCH  49  50
ATOM     50  C   UNL     1     -16.405  -5.877   3.586  1.00  0.00    -0.045 A 
ATOM     51  C   UNL     1     -16.033  -7.069   2.947  1.00  0.00     0.007 A 
ATOM     52  C   UNL     1     -16.788  -4.778   2.808  1.00  0.00     0.007 A 
ATOM     53  C   UNL     1     -16.052  -7.160   1.555  1.00  0.00     0.046 A 
ATOM     54  C   UNL     1     -16.806  -4.868   1.414  1.00  0.00     0.046 A 
ATOM     55  C   UNL     1     -16.438  -6.060   0.799  1.00  0.00     0.115 A 
BRANCH  55  56
ATOM     56  O   UNL     1     -16.442  -6.189  -0.558  1.00  0.00    -0.508 OA
ATOM     57  H   UNL     1     -16.681  -7.103  -0.778  1.00  0.00     0.293 HD
ENDBRANCH  55  56
ENDBRANCH  49  50
ENDBRANCH  48  49
BRANCH  48  58
ATOM     58  C   UNL     1     -14.601  -5.603   6.871  1.00  0.00     0.326 C 
ATOM     59  O   UNL     1     -13.759  -5.919   7.696  1.00  0.00    -0.250 OA
BRANCH  58  60
ATOM     60  O   UNL     1     -15.174  -4.375   6.947  1.00  0.00    -0.480 OA
ATOM     61  H   UNL     1     -14.775  -3.893   6.191  1.00  0.00     0.296 HD
ENDBRANCH  58  60
ENDBRANCH  48  58
ENDBRANCH  46  48
ENDBRANCH  34  44
ENDBRANCH  32  34
ENDBRANCH  25  30
ENDBRANCH  23  25
ENDBRANCH   2  23
TORSDOF 28
ENDMDL
MODEL 33
REMARK VINA RESULT:    -7.006      3.701      9.407
REMARK INTER + INTRA:         -22.115
REMARK INTER:                 -18.209
REMARK INTRA:                  -3.906
REMARK UNBOUND:                -4.665
REMARK SMILES CCCCCCC[C@H](N)[C@H](O)C(=O)N[C@H](C)C(=O)N(C)[C@H](CC(C)C)C(=O)N[C@@H](Cc1ccc(O)cc1)C(=O)N[C@@H](Cc1ccc(O)cc1)C(=O)O
REMARK SMILES IDX 18 1 17 2 15 3 16 4 14 5 12 6 13 7 10 9 11 10 8 12 9 13 7 16
REMARK SMILES IDX 6 17 5 18 4 19 3 20 2 21 1 22 19 23 20 24 21 25 22 26 23 27
REMARK SMILES IDX 24 28 25 29 26 30 27 31 28 32 29 34 30 35 31 36 32 37 37 38
REMARK SMILES IDX 33 39 36 40 34 41 35 42 38 44 39 45 40 46 41 48 42 49 43 50
REMARK SMILES IDX 44 51 49 52 45 53 48 54 46 55 47 56 50 58 51 59 52 60
REMARK H PARENT 14 8 11 11 9 14 9 15 28 33 35 43 40 47 47 57 52 61
ROOT
ATOM      1  O   UNL     1     -12.055 -10.933   1.970  1.00  0.00    -0.272 OA
ATOM      2  C   UNL     1     -11.420 -11.998   1.976  1.00  0.00     0.245 C 
ENDROOT
BRANCH   2   3
ATOM      3  C   UNL     1     -11.642 -12.999   0.815  1.00  0.00     0.168 C 
ATOM      4  C   UNL     1     -13.081 -13.504   0.802  1.00  0.00     0.041 C 
BRANCH   3   5
ATOM      5  N   UNL     1     -11.224 -12.520  -0.493  1.00  0.00    -0.342 N 
ATOM      6  C   UNL     1      -9.992 -12.837  -1.025  1.00  0.00     0.251 C 
ATOM      7  O   UNL     1      -9.149 -13.501  -0.431  1.00  0.00    -0.272 OA
ATOM      8  H   UNL     1     -11.825 -11.932  -1.066  1.00  0.00     0.164 HD
BRANCH   6   9
ATOM      9  C   UNL     1      -9.824 -12.343  -2.471  1.00  0.00     0.219 C 
BRANCH   9  10
ATOM     10  O   UNL     1      -8.798 -11.351  -2.601  1.00  0.00    -0.382 OA
ATOM     11  H   UNL     1      -8.502 -11.203  -1.676  1.00  0.00     0.211 HD
ENDBRANCH   9  10
BRANCH   9  12
ATOM     12  C   UNL     1      -9.607 -13.495  -3.487  1.00  0.00     0.089 C 
BRANCH  12  13
ATOM     13  N   UNL     1     -10.445 -14.645  -3.075  1.00  0.00    -0.325 NA
ATOM     14  H   UNL     1     -11.062 -14.355  -2.314  1.00  0.00     0.119 HD
ATOM     15  H   UNL     1      -9.842 -15.365  -2.670  1.00  0.00     0.119 HD
ENDBRANCH  12  13
BRANCH  12  16
ATOM     16  C   UNL     1      -9.872 -13.149  -4.971  1.00  0.00     0.022 C 
BRANCH  16  17
ATOM     17  C   UNL     1      -8.733 -13.305  -5.989  1.00  0.00     0.002 C 
BRANCH  17  18
ATOM     18  C   UNL     1      -7.524 -12.405  -5.747  1.00  0.00     0.000 C 
BRANCH  18  19
ATOM     19  C   UNL     1      -6.205 -13.167  -5.562  1.00  0.00    -0.000 C 
BRANCH  19  20
ATOM     20  C   UNL     1      -6.331 -14.524  -4.863  1.00  0.00    -0.000 C 
BRANCH  20  21
ATOM     21  C   UNL     1      -6.093 -14.445  -3.353  1.00  0.00    -0.003 C 
ATOM     22  C   UNL     1      -4.732 -13.846  -3.036  1.00  0.00     0.004 C 
ENDBRANCH  20  21
ENDBRANCH  19  20
ENDBRANCH  18  19
ENDBRANCH  17  18
ENDBRANCH  16  17
ENDBRANCH  12  16
ENDBRANCH   9  12
ENDBRANCH   6   9
ENDBRANCH   3   5
ENDBRANCH   2   3
BRANCH   2  23
ATOM     23  N   UNL     1     -10.445 -12.221   2.942  1.00  0.00    -0.332 N 
ATOM     24  C   UNL     1      -9.817 -13.509   3.200  1.00  0.00     0.147 C 
BRANCH  23  25
ATOM     25  C   UNL     1      -9.876 -11.081   3.712  1.00  0.00     0.174 C 
BRANCH  25  26
ATOM     26  C   UNL     1      -8.335 -11.143   3.829  1.00  0.00     0.038 C 
BRANCH  26  27
ATOM     27  C   UNL     1      -7.520 -10.421   2.732  1.00  0.00    -0.015 C 
ATOM     28  C   UNL     1      -6.250  -9.772   3.279  1.00  0.00     0.007 C 
ATOM     29  C   UNL     1      -7.197 -11.308   1.532  1.00  0.00     0.007 C 
ENDBRANCH  26  27
ENDBRANCH  25  26
BRANCH  25  30
ATOM     30  C   UNL     1     -10.597 -10.946   5.073  1.00  0.00     0.243 C 
ATOM     31  O   UNL     1      -9.979 -10.758   6.120  1.00  0.00    -0.273 OA
ATOM     32  N   UNL     1     -11.963 -11.054   5.034  1.00  0.00    -0.342 N 
ATOM     33  H   UNL     1     -12.411 -11.067   4.114  1.00  0.00     0.164 HD
BRANCH  32  34
ATOM     34  C   UNL     1     -12.808 -10.979   6.229  1.00  0.00     0.175 C 
BRANCH  34  35
ATOM     35  C   UNL     1     -14.057 -10.121   5.977  1.00  0.00     0.070 C 
BRANCH  35  36
ATOM     36  C   UNL     1     -14.165  -8.950   6.927  1.00  0.00    -0.045 A 
ATOM     37  C   UNL     1     -13.690  -9.068   8.242  1.00  0.00     0.007 A 
ATOM     38  C   UNL     1     -14.756  -7.747   6.521  1.00  0.00     0.007 A 
ATOM     39  C   UNL     1     -13.797  -7.998   9.131  1.00  0.00     0.046 A 
ATOM     40  C   UNL     1     -14.865  -6.675   7.411  1.00  0.00     0.046 A 
ATOM     41  C   UNL     1     -14.383  -6.811   8.709  1.00  0.00     0.115 A 
BRANCH  41  42
ATOM     42  O   UNL     1     -14.471  -5.790   9.609  1.00  0.00    -0.508 OA
ATOM     43  H   UNL     1     -14.808  -6.151  10.446  1.00  0.00     0.293 HD
ENDBRANCH  41  42
ENDBRANCH  35  36
ENDBRANCH  34  35
BRANCH  34  44
ATOM     44  C   UNL     1     -13.172 -12.421   6.649  1.00  0.00     0.243 C 
ATOM     45  O   UNL     1     -12.591 -13.056   7.524  1.00  0.00    -0.273 OA
ATOM     46  N   UNL     1     -14.143 -12.995   5.856  1.00  0.00    -0.341 N 
ATOM     47  H   UNL     1     -14.513 -12.468   5.069  1.00  0.00     0.164 HD
BRANCH  46  48
ATOM     48  C   UNL     1     -14.604 -14.375   6.019  1.00  0.00     0.196 C 
BRANCH  48  49
ATOM     49  C   UNL     1     -16.077 -14.527   5.602  1.00  0.00     0.072 C 
BRANCH  49  50
ATOM     50  C   UNL     1     -16.401 -13.778   4.329  1.00  0.00    -0.045 A 
ATOM     51  C   UNL     1     -16.333 -14.437   3.093  1.00  0.00     0.007 A 
ATOM     52  C   UNL     1     -16.750 -12.421   4.360  1.00  0.00     0.007 A 
ATOM     53  C   UNL     1     -16.617 -13.753   1.911  1.00  0.00     0.046 A 
ATOM     54  C   UNL     1     -17.034 -11.736   3.176  1.00  0.00     0.046 A 
ATOM     55  C   UNL     1     -16.965 -12.409   1.961  1.00  0.00     0.115 A 
BRANCH  55  56
ATOM     56  O   UNL     1     -17.233 -11.776   0.783  1.00  0.00    -0.508 OA
ATOM     57  H   UNL     1     -16.875 -12.313   0.059  1.00  0.00     0.293 HD
ENDBRANCH  55  56
ENDBRANCH  49  50
ENDBRANCH  48  49
BRANCH  48  58
ATOM     58  C   UNL     1     -13.729 -15.299   5.161  1.00  0.00     0.326 C 
ATOM     59  O   UNL     1     -13.665 -16.516   5.214  1.00  0.00    -0.250 OA
BRANCH  58  60
ATOM     60  O   UNL     1     -12.973 -14.635   4.250  1.00  0.00    -0.480 OA
ATOM     61  H   UNL     1     -12.986 -15.230   3.469  1.00  0.00     0.296 HD
ENDBRANCH  58  60
ENDBRANCH  48  58
ENDBRANCH  46  48
ENDBRANCH  34  44
ENDBRANCH  32  34
ENDBRANCH  25  30
ENDBRANCH  23  25
ENDBRANCH   2  23
TORSDOF 28
ENDMDL
MODEL 34
REMARK VINA RESULT:    -6.991      3.662      8.128
REMARK INTER + INTRA:         -22.079
REMARK INTER:                 -17.628
REMARK INTRA:                  -4.451
REMARK UNBOUND:                -4.665
REMARK SMILES CCCCCCC[C@H](N)[C@H](O)C(=O)N[C@H](C)C(=O)N(C)[C@H](CC(C)C)C(=O)N[C@@H](Cc1ccc(O)cc1)C(=O)N[C@@H](Cc1ccc(O)cc1)C(=O)O
REMARK SMILES IDX 18 1 17 2 15 3 16 4 14 5 12 6 13 7 10 9 11 10 8 12 9 13 7 16
REMARK SMILES IDX 6 17 5 18 4 19 3 20 2 21 1 22 19 23 20 24 21 25 22 26 23 27
REMARK SMILES IDX 24 28 25 29 26 30 27 31 28 32 29 34 30 35 31 36 32 37 37 38
REMARK SMILES IDX 33 39 36 40 34 41 35 42 38 44 39 45 40 46 41 48 42 49 43 50
REMARK SMILES IDX 44 51 49 52 45 53 48 54 46 55 47 56 50 58 51 59 52 60
REMARK H PARENT 14 8 11 11 9 14 9 15 28 33 35 43 40 47 47 57 52 61
ROOT
ATOM      1  O   UNL     1     -12.396 -10.888   2.098  1.00  0.00    -0.272 OA
ATOM      2  C   UNL     1     -11.931 -11.862   1.487  1.00  0.00     0.245 C 
ENDROOT
BRANCH   2   3
ATOM      3  C   UNL     1     -10.508 -11.749   0.885  1.00  0.00     0.168 C 
ATOM      4  C   UNL     1      -9.482 -11.449   1.973  1.00  0.00     0.041 C 
BRANCH   3   5
ATOM      5  N   UNL     1     -10.105 -12.873   0.055  1.00  0.00    -0.342 N 
ATOM      6  C   UNL     1      -9.370 -12.700  -1.099  1.00  0.00     0.251 C 
ATOM      7  O   UNL     1      -9.041 -11.601  -1.532  1.00  0.00    -0.272 OA
ATOM      8  H   UNL     1     -10.350 -13.831   0.294  1.00  0.00     0.164 HD
BRANCH   6   9
ATOM      9  C   UNL     1      -8.938 -14.031  -1.734  1.00  0.00     0.219 C 
BRANCH   9  10
ATOM     10  O   UNL     1     -10.033 -14.747  -2.318  1.00  0.00    -0.382 OA
ATOM     11  H   UNL     1      -9.597 -15.372  -2.938  1.00  0.00     0.211 HD
ENDBRANCH   9  10
BRANCH   9  12
ATOM     12  C   UNL     1      -7.779 -13.872  -2.753  1.00  0.00     0.089 C 
BRANCH  12  13
ATOM     13  N   UNL     1      -6.502 -13.825  -2.004  1.00  0.00    -0.325 NA
ATOM     14  H   UNL     1      -6.300 -12.858  -1.744  1.00  0.00     0.119 HD
ATOM     15  H   UNL     1      -5.741 -14.098  -2.630  1.00  0.00     0.119 HD
ENDBRANCH  12  13
BRANCH  12  16
ATOM     16  C   UNL     1      -7.703 -14.943  -3.867  1.00  0.00     0.022 C 
BRANCH  16  17
ATOM     17  C   UNL     1      -7.811 -14.504  -5.333  1.00  0.00     0.002 C 
BRANCH  17  18
ATOM     18  C   UNL     1      -9.216 -14.584  -5.928  1.00  0.00     0.000 C 
BRANCH  18  19
ATOM     19  C   UNL     1     -10.132 -13.421  -5.524  1.00  0.00    -0.000 C 
BRANCH  19  20
ATOM     20  C   UNL     1     -10.308 -12.334  -6.588  1.00  0.00    -0.000 C 
BRANCH  20  21
ATOM     21  C   UNL     1      -9.279 -11.207  -6.469  1.00  0.00    -0.003 C 
ATOM     22  C   UNL     1      -8.904 -10.949  -5.018  1.00  0.00     0.004 C 
ENDBRANCH  20  21
ENDBRANCH  19  20
ENDBRANCH  18  19
ENDBRANCH  17  18
ENDBRANCH  16  17
ENDBRANCH  12  16
ENDBRANCH   9  12
ENDBRANCH   6   9
ENDBRANCH   3   5
ENDBRANCH   2   3
BRANCH   2  23
ATOM     23  N   UNL     1     -12.632 -13.063   1.456  1.00  0.00    -0.332 N 
ATOM     24  C   UNL     1     -13.355 -13.568   0.299  1.00  0.00     0.147 C 
BRANCH  23  25
ATOM     25  C   UNL     1     -12.574 -13.995   2.615  1.00  0.00     0.174 C 
BRANCH  25  26
ATOM     26  C   UNL     1     -12.113 -15.418   2.221  1.00  0.00     0.038 C 
BRANCH  26  27
ATOM     27  C   UNL     1     -10.896 -15.995   2.977  1.00  0.00    -0.015 C 
ATOM     28  C   UNL     1      -9.619 -15.192   2.730  1.00  0.00     0.007 C 
ATOM     29  C   UNL     1     -11.139 -16.170   4.474  1.00  0.00     0.007 C 
ENDBRANCH  26  27
ENDBRANCH  25  26
BRANCH  25  30
ATOM     30  C   UNL     1     -13.912 -13.968   3.388  1.00  0.00     0.243 C 
ATOM     31  O   UNL     1     -14.675 -14.932   3.402  1.00  0.00    -0.273 OA
ATOM     32  N   UNL     1     -14.192 -12.799   4.049  1.00  0.00    -0.342 N 
ATOM     33  H   UNL     1     -13.448 -12.099   4.108  1.00  0.00     0.164 HD
BRANCH  32  34
ATOM     34  C   UNL     1     -15.425 -12.583   4.810  1.00  0.00     0.175 C 
BRANCH  34  35
ATOM     35  C   UNL     1     -15.166 -12.639   6.323  1.00  0.00     0.070 C 
BRANCH  35  36
ATOM     36  C   UNL     1     -14.415 -11.429   6.832  1.00  0.00    -0.045 A 
ATOM     37  C   UNL     1     -13.041 -11.298   6.581  1.00  0.00     0.007 A 
ATOM     38  C   UNL     1     -15.069 -10.439   7.577  1.00  0.00     0.007 A 
ATOM     39  C   UNL     1     -12.338 -10.192   7.059  1.00  0.00     0.046 A 
ATOM     40  C   UNL     1     -14.365  -9.331   8.057  1.00  0.00     0.046 A 
ATOM     41  C   UNL     1     -13.005  -9.218   7.792  1.00  0.00     0.115 A 
BRANCH  41  42
ATOM     42  O   UNL     1     -12.280  -8.155   8.243  1.00  0.00    -0.508 OA
ATOM     43  H   UNL     1     -11.339  -8.339   8.087  1.00  0.00     0.293 HD
ENDBRANCH  41  42
ENDBRANCH  35  36
ENDBRANCH  34  35
BRANCH  34  44
ATOM     44  C   UNL     1     -16.024 -11.226   4.376  1.00  0.00     0.243 C 
ATOM     45  O   UNL     1     -17.052 -10.741   4.841  1.00  0.00    -0.273 OA
ATOM     46  N   UNL     1     -15.365 -10.651   3.310  1.00  0.00    -0.341 N 
ATOM     47  H   UNL     1     -14.588 -11.149   2.883  1.00  0.00     0.164 HD
BRANCH  46  48
ATOM     48  C   UNL     1     -15.790  -9.399   2.681  1.00  0.00     0.196 C 
BRANCH  48  49
ATOM     49  C   UNL     1     -14.768  -8.276   2.923  1.00  0.00     0.072 C 
BRANCH  49  50
ATOM     50  C   UNL     1     -15.288  -7.208   3.860  1.00  0.00    -0.045 A 
ATOM     51  C   UNL     1     -16.169  -6.228   3.382  1.00  0.00     0.007 A 
ATOM     52  C   UNL     1     -14.886  -7.168   5.201  1.00  0.00     0.007 A 
ATOM     53  C   UNL     1     -16.645  -5.230   4.233  1.00  0.00     0.046 A 
ATOM     54  C   UNL     1     -15.361  -6.168   6.053  1.00  0.00     0.046 A 
ATOM     55  C   UNL     1     -16.238  -5.208   5.561  1.00  0.00     0.115 A 
BRANCH  55  56
ATOM     56  O   UNL     1     -16.725  -4.216   6.360  1.00  0.00    -0.508 OA
ATOM     57  H   UNL     1     -16.475  -4.411   7.277  1.00  0.00     0.293 HD
ENDBRANCH  55  56
ENDBRANCH  49  50
ENDBRANCH  48  49
BRANCH  48  58
ATOM     58  C   UNL     1     -15.954  -9.628   1.172  1.00  0.00     0.326 C 
ATOM     59  O   UNL     1     -15.496 -10.545   0.510  1.00  0.00    -0.250 OA
BRANCH  58  60
ATOM     60  O   UNL     1     -16.713  -8.684   0.560  1.00  0.00    -0.480 OA
ATOM     61  H   UNL     1     -16.831  -9.042  -0.347  1.00  0.00     0.296 HD
ENDBRANCH  58  60
ENDBRANCH  48  58
ENDBRANCH  46  48
ENDBRANCH  34  44
ENDBRANCH  32  34
ENDBRANCH  25  30
ENDBRANCH  23  25
ENDBRANCH   2  23
TORSDOF 28
ENDMDL
MODEL 35
REMARK VINA RESULT:    -6.952      2.659      9.064
REMARK INTER + INTRA:         -21.981
REMARK INTER:                 -17.750
REMARK INTRA:                  -4.231
REMARK UNBOUND:                -4.665
REMARK SMILES CCCCCCC[C@H](N)[C@H](O)C(=O)N[C@H](C)C(=O)N(C)[C@H](CC(C)C)C(=O)N[C@@H](Cc1ccc(O)cc1)C(=O)N[C@@H](Cc1ccc(O)cc1)C(=O)O
REMARK SMILES IDX 18 1 17 2 15 3 16 4 14 5 12 6 13 7 10 9 11 10 8 12 9 13 7 16
REMARK SMILES IDX 6 17 5 18 4 19 3 20 2 21 1 22 19 23 20 24 21 25 22 26 23 27
REMARK SMILES IDX 24 28 25 29 26 30 27 31 28 32 29 34 30 35 31 36 32 37 37 38
REMARK SMILES IDX 33 39 36 40 34 41 35 42 38 44 39 45 40 46 41 48 42 49 43 50
REMARK SMILES IDX 44 51 49 52 45 53 48 54 46 55 47 56 50 58 51 59 52 60
REMARK H PARENT 14 8 11 11 9 14 9 15 28 33 35 43 40 47 47 57 52 61
ROOT
ATOM      1  O   UNL     1     -12.236 -12.339   7.813  1.00  0.00    -0.272 OA
ATOM      2  C   UNL     1     -12.470 -11.416   7.018  1.00  0.00     0.245 C 
ENDROOT
BRANCH   2   3
ATOM      3  C   UNL     1     -11.286 -10.553   6.515  1.00  0.00     0.168 C 
ATOM      4  C   UNL     1      -9.953 -11.212   6.854  1.00  0.00     0.041 C 
BRANCH   3   5
ATOM      5  N   UNL     1     -11.361 -10.171   5.113  1.00  0.00    -0.342 N 
ATOM      6  C   UNL     1     -11.374 -11.109   4.103  1.00  0.00     0.251 C 
ATOM      7  O   UNL     1     -11.284 -12.316   4.300  1.00  0.00    -0.272 OA
ATOM      8  H   UNL     1     -11.405  -9.197   4.825  1.00  0.00     0.164 HD
BRANCH   6   9
ATOM      9  C   UNL     1     -11.601 -10.486   2.716  1.00  0.00     0.219 C 
BRANCH   9  10
ATOM     10  O   UNL     1     -12.014  -9.116   2.787  1.00  0.00    -0.382 OA
ATOM     11  H   UNL     1     -11.261  -8.670   3.234  1.00  0.00     0.211 HD
ENDBRANCH   9  10
BRANCH   9  12
ATOM     12  C   UNL     1     -10.383 -10.646   1.770  1.00  0.00     0.089 C 
BRANCH  12  13
ATOM     13  N   UNL     1      -9.152 -10.670   2.593  1.00  0.00    -0.325 NA
ATOM     14  H   UNL     1      -8.897  -9.713   2.844  1.00  0.00     0.119 HD
ATOM     15  H   UNL     1      -8.377 -11.010   2.019  1.00  0.00     0.119 HD
ENDBRANCH  12  13
BRANCH  12  16
ATOM     16  C   UNL     1     -10.415 -11.871   0.825  1.00  0.00     0.022 C 
BRANCH  16  17
ATOM     17  C   UNL     1     -11.199 -11.779  -0.491  1.00  0.00     0.002 C 
BRANCH  17  18
ATOM     18  C   UNL     1     -10.725 -12.726  -1.591  1.00  0.00     0.000 C 
BRANCH  18  19
ATOM     19  C   UNL     1     -10.129 -12.015  -2.814  1.00  0.00    -0.000 C 
BRANCH  19  20
ATOM     20  C   UNL     1      -9.809 -12.925  -4.003  1.00  0.00    -0.000 C 
BRANCH  20  21
ATOM     21  C   UNL     1     -10.110 -12.273  -5.355  1.00  0.00    -0.003 C 
ATOM     22  C   UNL     1      -9.286 -11.011  -5.559  1.00  0.00     0.004 C 
ENDBRANCH  20  21
ENDBRANCH  19  20
ENDBRANCH  18  19
ENDBRANCH  17  18
ENDBRANCH  16  17
ENDBRANCH  12  16
ENDBRANCH   9  12
ENDBRANCH   6   9
ENDBRANCH   3   5
ENDBRANCH   2   3
BRANCH   2  23
ATOM     23  N   UNL     1     -13.752 -11.249   6.504  1.00  0.00    -0.332 N 
ATOM     24  C   UNL     1     -14.618 -12.338   6.077  1.00  0.00     0.147 C 
BRANCH  23  25
ATOM     25  C   UNL     1     -14.381  -9.900   6.479  1.00  0.00     0.174 C 
BRANCH  25  26
ATOM     26  C   UNL     1     -14.975  -9.488   7.847  1.00  0.00     0.038 C 
BRANCH  26  27
ATOM     27  C   UNL     1     -14.623  -8.076   8.365  1.00  0.00    -0.015 C 
ATOM     28  C   UNL     1     -15.347  -7.733   9.667  1.00  0.00     0.007 C 
ATOM     29  C   UNL     1     -13.121  -7.838   8.508  1.00  0.00     0.007 C 
ENDBRANCH  26  27
ENDBRANCH  25  26
BRANCH  25  30
ATOM     30  C   UNL     1     -15.388  -9.805   5.310  1.00  0.00     0.243 C 
ATOM     31  O   UNL     1     -16.603  -9.854   5.493  1.00  0.00    -0.273 OA
ATOM     32  N   UNL     1     -14.837  -9.668   4.062  1.00  0.00    -0.342 N 
ATOM     33  H   UNL     1     -13.830  -9.492   4.006  1.00  0.00     0.164 HD
BRANCH  32  34
ATOM     34  C   UNL     1     -15.636  -9.589   2.837  1.00  0.00     0.175 C 
BRANCH  34  35
ATOM     35  C   UNL     1     -15.227  -8.381   1.979  1.00  0.00     0.070 C 
BRANCH  35  36
ATOM     36  C   UNL     1     -16.050  -7.148   2.276  1.00  0.00    -0.045 A 
ATOM     37  C   UNL     1     -16.852  -6.581   1.274  1.00  0.00     0.007 A 
ATOM     38  C   UNL     1     -16.006  -6.542   3.539  1.00  0.00     0.007 A 
ATOM     39  C   UNL     1     -17.604  -5.435   1.535  1.00  0.00     0.046 A 
ATOM     40  C   UNL     1     -16.758  -5.393   3.800  1.00  0.00     0.046 A 
ATOM     41  C   UNL     1     -17.551  -4.851   2.795  1.00  0.00     0.115 A 
BRANCH  41  42
ATOM     42  O   UNL     1     -18.298  -3.731   3.008  1.00  0.00    -0.508 OA
ATOM     43  H   UNL     1     -18.701  -3.468   2.163  1.00  0.00     0.293 HD
ENDBRANCH  41  42
ENDBRANCH  35  36
ENDBRANCH  34  35
BRANCH  34  44
ATOM     44  C   UNL     1     -15.473 -10.922   2.072  1.00  0.00     0.243 C 
ATOM     45  O   UNL     1     -14.852 -11.047   1.020  1.00  0.00    -0.273 OA
ATOM     46  N   UNL     1     -16.206 -11.958   2.612  1.00  0.00    -0.341 N 
ATOM     47  H   UNL     1     -16.798 -11.776   3.418  1.00  0.00     0.164 HD
BRANCH  46  48
ATOM     48  C   UNL     1     -16.263 -13.297   2.022  1.00  0.00     0.196 C 
BRANCH  48  49
ATOM     49  C   UNL     1     -15.904 -14.379   3.054  1.00  0.00     0.072 C 
BRANCH  49  50
ATOM     50  C   UNL     1     -14.527 -14.962   2.830  1.00  0.00    -0.045 A 
ATOM     51  C   UNL     1     -14.186 -16.192   3.412  1.00  0.00     0.007 A 
ATOM     52  C   UNL     1     -13.572 -14.282   2.064  1.00  0.00     0.007 A 
ATOM     53  C   UNL     1     -12.914 -16.733   3.223  1.00  0.00     0.046 A 
ATOM     54  C   UNL     1     -12.298 -14.823   1.877  1.00  0.00     0.046 A 
ATOM     55  C   UNL     1     -11.980 -16.046   2.457  1.00  0.00     0.115 A 
BRANCH  55  56
ATOM     56  O   UNL     1     -10.748 -16.609   2.299  1.00  0.00    -0.508 OA
ATOM     57  H   UNL     1     -10.392 -16.329   1.441  1.00  0.00     0.293 HD
ENDBRANCH  55  56
ENDBRANCH  49  50
ENDBRANCH  48  49
BRANCH  48  58
ATOM     58  C   UNL     1     -17.680 -13.546   1.487  1.00  0.00     0.326 C 
ATOM     59  O   UNL     1     -18.037 -14.430   0.725  1.00  0.00    -0.250 OA
BRANCH  58  60
ATOM     60  O   UNL     1     -18.599 -12.665   1.955  1.00  0.00    -0.480 OA
ATOM     61  H   UNL     1     -18.355 -11.825   1.508  1.00  0.00     0.296 HD
ENDBRANCH  58  60
ENDBRANCH  48  58
ENDBRANCH  46  48
ENDBRANCH  34  44
ENDBRANCH  32  34
ENDBRANCH  25  30
ENDBRANCH  23  25
ENDBRANCH   2  23
TORSDOF 28
ENDMDL
MODEL 36
REMARK VINA RESULT:    -6.912      3.456      8.467
REMARK INTER + INTRA:         -21.880
REMARK INTER:                 -17.435
REMARK INTRA:                  -4.445
REMARK UNBOUND:                -4.665
REMARK SMILES CCCCCCC[C@H](N)[C@H](O)C(=O)N[C@H](C)C(=O)N(C)[C@H](CC(C)C)C(=O)N[C@@H](Cc1ccc(O)cc1)C(=O)N[C@@H](Cc1ccc(O)cc1)C(=O)O
REMARK SMILES IDX 18 1 17 2 15 3 16 4 14 5 12 6 13 7 10 9 11 10 8 12 9 13 7 16
REMARK SMILES IDX 6 17 5 18 4 19 3 20 2 21 1 22 19 23 20 24 21 25 22 26 23 27
REMARK SMILES IDX 24 28 25 29 26 30 27 31 28 32 29 34 30 35 31 36 32 37 37 38
REMARK SMILES IDX 33 39 36 40 34 41 35 42 38 44 39 45 40 46 41 48 42 49 43 50
REMARK SMILES IDX 44 51 49 52 45 53 48 54 46 55 47 56 50 58 51 59 52 60
REMARK H PARENT 14 8 11 11 9 14 9 15 28 33 35 43 40 47 47 57 52 61
ROOT
ATOM      1  O   UNL     1      -9.241 -13.331   2.631  1.00  0.00    -0.272 OA
ATOM      2  C   UNL     1      -9.710 -12.221   2.341  1.00  0.00     0.245 C 
ENDROOT
BRANCH   2   3
ATOM      3  C   UNL     1      -9.302 -11.572   0.995  1.00  0.00     0.168 C 
ATOM      4  C   UNL     1      -8.277 -10.465   1.216  1.00  0.00     0.041 C 
BRANCH   3   5
ATOM      5  N   UNL     1      -8.874 -12.510  -0.031  1.00  0.00    -0.342 N 
ATOM      6  C   UNL     1      -9.279 -12.388  -1.343  1.00  0.00     0.251 C 
ATOM      7  O   UNL     1     -10.051 -11.519  -1.735  1.00  0.00    -0.272 OA
ATOM      8  H   UNL     1      -8.261 -13.293   0.181  1.00  0.00     0.164 HD
BRANCH   6   9
ATOM      9  C   UNL     1      -8.592 -13.401  -2.273  1.00  0.00     0.219 C 
BRANCH   9  10
ATOM     10  O   UNL     1      -7.334 -13.857  -1.761  1.00  0.00    -0.382 OA
ATOM     11  H   UNL     1      -7.418 -13.724  -0.791  1.00  0.00     0.211 HD
ENDBRANCH   9  10
BRANCH   9  12
ATOM     12  C   UNL     1      -9.503 -14.600  -2.646  1.00  0.00     0.089 C 
BRANCH  12  13
ATOM     13  N   UNL     1     -10.655 -14.619  -1.716  1.00  0.00    -0.325 NA
ATOM     14  H   UNL     1     -10.360 -15.021  -0.824  1.00  0.00     0.119 HD
ATOM     15  H   UNL     1     -11.362 -15.263  -2.077  1.00  0.00     0.119 HD
ENDBRANCH  12  13
BRANCH  12  16
ATOM     16  C   UNL     1     -10.001 -14.643  -4.110  1.00  0.00     0.022 C 
BRANCH  16  17
ATOM     17  C   UNL     1     -10.009 -13.349  -4.935  1.00  0.00     0.002 C 
BRANCH  17  18
ATOM     18  C   UNL     1      -9.330 -13.450  -6.299  1.00  0.00     0.000 C 
BRANCH  18  19
ATOM     19  C   UNL     1      -8.668 -12.147  -6.766  1.00  0.00    -0.000 C 
BRANCH  19  20
ATOM     20  C   UNL     1      -7.383 -11.768  -6.025  1.00  0.00    -0.000 C 
BRANCH  20  21
ATOM     21  C   UNL     1      -6.250 -12.776  -6.236  1.00  0.00    -0.003 C 
ATOM     22  C   UNL     1      -5.893 -13.488  -4.940  1.00  0.00     0.004 C 
ENDBRANCH  20  21
ENDBRANCH  19  20
ENDBRANCH  18  19
ENDBRANCH  17  18
ENDBRANCH  16  17
ENDBRANCH  12  16
ENDBRANCH   9  12
ENDBRANCH   6   9
ENDBRANCH   3   5
ENDBRANCH   2   3
BRANCH   2  23
ATOM     23  N   UNL     1     -10.675 -11.639   3.157  1.00  0.00    -0.332 N 
ATOM     24  C   UNL     1     -10.392 -10.683   4.218  1.00  0.00     0.147 C 
BRANCH  23  25
ATOM     25  C   UNL     1     -12.121 -11.877   2.897  1.00  0.00     0.174 C 
BRANCH  25  26
ATOM     26  C   UNL     1     -12.369 -12.938   1.799  1.00  0.00     0.038 C 
BRANCH  26  27
ATOM     27  C   UNL     1     -13.162 -14.199   2.211  1.00  0.00    -0.015 C 
ATOM     28  C   UNL     1     -12.304 -15.464   2.185  1.00  0.00     0.007 C 
ATOM     29  C   UNL     1     -13.872 -14.058   3.555  1.00  0.00     0.007 C 
ENDBRANCH  26  27
ENDBRANCH  25  26
BRANCH  25  30
ATOM     30  C   UNL     1     -12.843 -10.535   2.638  1.00  0.00     0.243 C 
ATOM     31  O   UNL     1     -12.414  -9.711   1.832  1.00  0.00    -0.273 OA
ATOM     32  N   UNL     1     -13.984 -10.324   3.369  1.00  0.00    -0.342 N 
ATOM     33  H   UNL     1     -14.352 -11.111   3.911  1.00  0.00     0.164 HD
BRANCH  32  34
ATOM     34  C   UNL     1     -14.782  -9.099   3.275  1.00  0.00     0.175 C 
BRANCH  34  35
ATOM     35  C   UNL     1     -15.889  -9.233   2.218  1.00  0.00     0.070 C 
BRANCH  35  36
ATOM     36  C   UNL     1     -16.205 -10.673   1.882  1.00  0.00    -0.045 A 
ATOM     37  C   UNL     1     -16.905 -11.471   2.799  1.00  0.00     0.007 A 
ATOM     38  C   UNL     1     -15.787 -11.236   0.669  1.00  0.00     0.007 A 
ATOM     39  C   UNL     1     -17.189 -12.805   2.503  1.00  0.00     0.046 A 
ATOM     40  C   UNL     1     -16.069 -12.572   0.372  1.00  0.00     0.046 A 
ATOM     41  C   UNL     1     -16.770 -13.344   1.293  1.00  0.00     0.115 A 
BRANCH  41  42
ATOM     42  O   UNL     1     -17.064 -14.652   1.044  1.00  0.00    -0.508 OA
ATOM     43  H   UNL     1     -16.466 -14.972   0.349  1.00  0.00     0.293 HD
ENDBRANCH  41  42
ENDBRANCH  35  36
ENDBRANCH  34  35
BRANCH  34  44
ATOM     44  C   UNL     1     -15.355  -8.792   4.677  1.00  0.00     0.243 C 
ATOM     45  O   UNL     1     -16.517  -9.005   5.013  1.00  0.00    -0.273 OA
ATOM     46  N   UNL     1     -14.471  -8.125   5.497  1.00  0.00    -0.341 N 
ATOM     47  H   UNL     1     -13.557  -7.866   5.133  1.00  0.00     0.164 HD
BRANCH  46  48
ATOM     48  C   UNL     1     -14.811  -7.668   6.847  1.00  0.00     0.196 C 
BRANCH  48  49
ATOM     49  C   UNL     1     -13.823  -8.218   7.890  1.00  0.00     0.072 C 
BRANCH  49  50
ATOM     50  C   UNL     1     -13.595  -9.706   7.747  1.00  0.00    -0.045 A 
ATOM     51  C   UNL     1     -12.298 -10.197   7.535  1.00  0.00     0.007 A 
ATOM     52  C   UNL     1     -14.665 -10.608   7.804  1.00  0.00     0.007 A 
ATOM     53  C   UNL     1     -12.077 -11.567   7.389  1.00  0.00     0.046 A 
ATOM     54  C   UNL     1     -14.444 -11.979   7.657  1.00  0.00     0.046 A 
ATOM     55  C   UNL     1     -13.151 -12.447   7.451  1.00  0.00     0.115 A 
BRANCH  55  56
ATOM     56  O   UNL     1     -12.892 -13.777   7.302  1.00  0.00    -0.508 OA
ATOM     57  H   UNL     1     -12.030 -13.969   7.703  1.00  0.00     0.293 HD
ENDBRANCH  55  56
ENDBRANCH  49  50
ENDBRANCH  48  49
BRANCH  48  58
ATOM     58  C   UNL     1     -14.789  -6.134   6.875  1.00  0.00     0.326 C 
ATOM     59  O   UNL     1     -15.056  -5.374   5.959  1.00  0.00    -0.250 OA
BRANCH  58  60
ATOM     60  O   UNL     1     -14.440  -5.620   8.082  1.00  0.00    -0.480 OA
ATOM     61  H   UNL     1     -15.229  -5.096   8.341  1.00  0.00     0.296 HD
ENDBRANCH  58  60
ENDBRANCH  48  58
ENDBRANCH  46  48
ENDBRANCH  34  44
ENDBRANCH  32  34
ENDBRANCH  25  30
ENDBRANCH  23  25
ENDBRANCH   2  23
TORSDOF 28
ENDMDL
MODEL 37
REMARK VINA RESULT:    -6.872      2.597      6.887
REMARK INTER + INTRA:         -21.780
REMARK INTER:                 -16.701
REMARK INTRA:                  -5.079
REMARK UNBOUND:                -4.665
REMARK SMILES CCCCCCC[C@H](N)[C@H](O)C(=O)N[C@H](C)C(=O)N(C)[C@H](CC(C)C)C(=O)N[C@@H](Cc1ccc(O)cc1)C(=O)N[C@@H](Cc1ccc(O)cc1)C(=O)O
REMARK SMILES IDX 18 1 17 2 15 3 16 4 14 5 12 6 13 7 10 9 11 10 8 12 9 13 7 16
REMARK SMILES IDX 6 17 5 18 4 19 3 20 2 21 1 22 19 23 20 24 21 25 22 26 23 27
REMARK SMILES IDX 24 28 25 29 26 30 27 31 28 32 29 34 30 35 31 36 32 37 37 38
REMARK SMILES IDX 33 39 36 40 34 41 35 42 38 44 39 45 40 46 41 48 42 49 43 50
REMARK SMILES IDX 44 51 49 52 45 53 48 54 46 55 47 56 50 58 51 59 52 60
REMARK H PARENT 14 8 11 11 9 14 9 15 28 33 35 43 40 47 47 57 52 61
ROOT
ATOM      1  O   UNL     1     -13.298 -11.816   4.578  1.00  0.00    -0.272 OA
ATOM      2  C   UNL     1     -12.682 -12.295   5.541  1.00  0.00     0.245 C 
ENDROOT
BRANCH   2   3
ATOM      3  C   UNL     1     -11.699 -11.383   6.318  1.00  0.00     0.168 C 
ATOM      4  C   UNL     1     -10.440 -11.121   5.499  1.00  0.00     0.041 C 
BRANCH   3   5
ATOM      5  N   UNL     1     -12.281 -10.151   6.828  1.00  0.00    -0.342 N 
ATOM      6  C   UNL     1     -13.127 -10.142   7.917  1.00  0.00     0.251 C 
ATOM      7  O   UNL     1     -13.483 -11.157   8.505  1.00  0.00    -0.272 OA
ATOM      8  H   UNL     1     -12.086  -9.249   6.400  1.00  0.00     0.164 HD
BRANCH   6   9
ATOM      9  C   UNL     1     -13.504  -8.720   8.363  1.00  0.00     0.219 C 
BRANCH   9  10
ATOM     10  O   UNL     1     -12.441  -7.779   8.169  1.00  0.00    -0.382 OA
ATOM     11  H   UNL     1     -12.043  -7.693   9.063  1.00  0.00     0.211 HD
ENDBRANCH   9  10
BRANCH   9  12
ATOM     12  C   UNL     1     -14.818  -8.208   7.718  1.00  0.00     0.089 C 
BRANCH  12  13
ATOM     13  N   UNL     1     -15.394  -7.163   8.595  1.00  0.00    -0.325 NA
ATOM     14  H   UNL     1     -15.137  -7.359   9.564  1.00  0.00     0.119 HD
ATOM     15  H   UNL     1     -16.413  -7.234   8.570  1.00  0.00     0.119 HD
ENDBRANCH  12  13
BRANCH  12  16
ATOM     16  C   UNL     1     -14.700  -7.679   6.268  1.00  0.00     0.022 C 
BRANCH  16  17
ATOM     17  C   UNL     1     -14.779  -6.167   6.016  1.00  0.00     0.002 C 
BRANCH  17  18
ATOM     18  C   UNL     1     -16.064  -5.691   5.342  1.00  0.00     0.000 C 
BRANCH  18  19
ATOM     19  C   UNL     1     -16.298  -6.293   3.950  1.00  0.00    -0.000 C 
BRANCH  19  20
ATOM     20  C   UNL     1     -17.104  -5.414   2.989  1.00  0.00    -0.000 C 
BRANCH  20  21
ATOM     21  C   UNL     1     -16.296  -4.961   1.770  1.00  0.00    -0.003 C 
ATOM     22  C   UNL     1     -16.856  -3.677   1.179  1.00  0.00     0.004 C 
ENDBRANCH  20  21
ENDBRANCH  19  20
ENDBRANCH  18  19
ENDBRANCH  17  18
ENDBRANCH  16  17
ENDBRANCH  12  16
ENDBRANCH   9  12
ENDBRANCH   6   9
ENDBRANCH   3   5
ENDBRANCH   2   3
BRANCH   2  23
ATOM     23  N   UNL     1     -12.967 -13.583   5.980  1.00  0.00    -0.332 N 
ATOM     24  C   UNL     1     -14.196 -13.972   6.656  1.00  0.00     0.147 C 
BRANCH  23  25
ATOM     25  C   UNL     1     -12.048 -14.708   5.655  1.00  0.00     0.174 C 
BRANCH  25  26
ATOM     26  C   UNL     1     -10.603 -14.468   6.152  1.00  0.00     0.038 C 
BRANCH  26  27
ATOM     27  C   UNL     1     -10.291 -14.861   7.613  1.00  0.00    -0.015 C 
ATOM     28  C   UNL     1     -11.287 -15.878   8.170  1.00  0.00     0.007 C 
ATOM     29  C   UNL     1      -8.858 -15.345   7.819  1.00  0.00     0.007 C 
ENDBRANCH  26  27
ENDBRANCH  25  26
BRANCH  25  30
ATOM     30  C   UNL     1     -12.138 -15.052   4.150  1.00  0.00     0.243 C 
ATOM     31  O   UNL     1     -11.259 -15.693   3.576  1.00  0.00    -0.273 OA
ATOM     32  N   UNL     1     -13.255 -14.590   3.502  1.00  0.00    -0.342 N 
ATOM     33  H   UNL     1     -14.003 -14.191   4.074  1.00  0.00     0.164 HD
BRANCH  32  34
ATOM     34  C   UNL     1     -13.495 -14.798   2.072  1.00  0.00     0.175 C 
BRANCH  34  35
ATOM     35  C   UNL     1     -14.994 -14.733   1.741  1.00  0.00     0.070 C 
BRANCH  35  36
ATOM     36  C   UNL     1     -15.726 -13.684   2.549  1.00  0.00    -0.045 A 
ATOM     37  C   UNL     1     -16.392 -14.046   3.729  1.00  0.00     0.007 A 
ATOM     38  C   UNL     1     -15.769 -12.350   2.123  1.00  0.00     0.007 A 
ATOM     39  C   UNL     1     -17.081 -13.088   4.474  1.00  0.00     0.046 A 
ATOM     40  C   UNL     1     -16.460 -11.391   2.867  1.00  0.00     0.046 A 
ATOM     41  C   UNL     1     -17.110 -11.769   4.037  1.00  0.00     0.115 A 
BRANCH  41  42
ATOM     42  O   UNL     1     -17.797 -10.865   4.792  1.00  0.00    -0.508 OA
ATOM     43  H   UNL     1     -17.154 -10.278   5.224  1.00  0.00     0.293 HD
ENDBRANCH  41  42
ENDBRANCH  35  36
ENDBRANCH  34  35
BRANCH  34  44
ATOM     44  C   UNL     1     -12.685 -13.738   1.292  1.00  0.00     0.243 C 
ATOM     45  O   UNL     1     -12.631 -13.669   0.067  1.00  0.00    -0.273 OA
ATOM     46  N   UNL     1     -11.907 -12.937   2.101  1.00  0.00    -0.341 N 
ATOM     47  H   UNL     1     -11.896 -13.109   3.103  1.00  0.00     0.164 HD
BRANCH  46  48
ATOM     48  C   UNL     1     -11.003 -11.906   1.585  1.00  0.00     0.196 C 
BRANCH  48  49
ATOM     49  C   UNL     1     -11.288 -10.539   2.227  1.00  0.00     0.072 C 
BRANCH  49  50
ATOM     50  C   UNL     1     -12.557  -9.903   1.705  1.00  0.00    -0.045 A 
ATOM     51  C   UNL     1     -13.386  -9.180   2.574  1.00  0.00     0.007 A 
ATOM     52  C   UNL     1     -12.932 -10.042   0.362  1.00  0.00     0.007 A 
ATOM     53  C   UNL     1     -14.565  -8.600   2.106  1.00  0.00     0.046 A 
ATOM     54  C   UNL     1     -14.114  -9.462  -0.106  1.00  0.00     0.046 A 
ATOM     55  C   UNL     1     -14.920  -8.745   0.771  1.00  0.00     0.115 A 
BRANCH  55  56
ATOM     56  O   UNL     1     -16.081  -8.165   0.354  1.00  0.00    -0.508 OA
ATOM     57  H   UNL     1     -15.862  -7.455  -0.270  1.00  0.00     0.293 HD
ENDBRANCH  55  56
ENDBRANCH  49  50
ENDBRANCH  48  49
BRANCH  48  58
ATOM     58  C   UNL     1      -9.555 -12.321   1.877  1.00  0.00     0.326 C 
ATOM     59  O   UNL     1      -8.536 -11.793   1.461  1.00  0.00    -0.250 OA
BRANCH  58  60
ATOM     60  O   UNL     1      -9.455 -13.390   2.706  1.00  0.00    -0.480 OA
ATOM     61  H   UNL     1      -9.916 -14.103   2.213  1.00  0.00     0.296 HD
ENDBRANCH  58  60
ENDBRANCH  48  58
ENDBRANCH  46  48
ENDBRANCH  34  44
ENDBRANCH  32  34
ENDBRANCH  25  30
ENDBRANCH  23  25
ENDBRANCH   2  23
TORSDOF 28
ENDMDL
MODEL 38
REMARK VINA RESULT:    -6.871      2.393      7.576
REMARK INTER + INTRA:         -21.778
REMARK INTER:                 -17.909
REMARK INTRA:                  -3.869
REMARK UNBOUND:                -4.665
REMARK SMILES CCCCCCC[C@H](N)[C@H](O)C(=O)N[C@H](C)C(=O)N(C)[C@H](CC(C)C)C(=O)N[C@@H](Cc1ccc(O)cc1)C(=O)N[C@@H](Cc1ccc(O)cc1)C(=O)O
REMARK SMILES IDX 18 1 17 2 15 3 16 4 14 5 12 6 13 7 10 9 11 10 8 12 9 13 7 16
REMARK SMILES IDX 6 17 5 18 4 19 3 20 2 21 1 22 19 23 20 24 21 25 22 26 23 27
REMARK SMILES IDX 24 28 25 29 26 30 27 31 28 32 29 34 30 35 31 36 32 37 37 38
REMARK SMILES IDX 33 39 36 40 34 41 35 42 38 44 39 45 40 46 41 48 42 49 43 50
REMARK SMILES IDX 44 51 49 52 45 53 48 54 46 55 47 56 50 58 51 59 52 60
REMARK H PARENT 14 8 11 11 9 14 9 15 28 33 35 43 40 47 47 57 52 61
ROOT
ATOM      1  O   UNL     1     -11.550 -13.158   7.666  1.00  0.00    -0.272 OA
ATOM      2  C   UNL     1     -11.329 -12.851   6.485  1.00  0.00     0.245 C 
ENDROOT
BRANCH   2   3
ATOM      3  C   UNL     1     -10.614 -11.509   6.190  1.00  0.00     0.168 C 
ATOM      4  C   UNL     1     -10.467 -10.682   7.462  1.00  0.00     0.041 C 
BRANCH   3   5
ATOM      5  N   UNL     1      -9.353 -11.634   5.475  1.00  0.00    -0.342 N 
ATOM      6  C   UNL     1      -9.186 -11.135   4.201  1.00  0.00     0.251 C 
ATOM      7  O   UNL     1     -10.084 -10.593   3.563  1.00  0.00    -0.272 OA
ATOM      8  H   UNL     1      -8.546 -12.094   5.888  1.00  0.00     0.164 HD
BRANCH   6   9
ATOM      9  C   UNL     1      -7.737 -11.252   3.701  1.00  0.00     0.219 C 
BRANCH   9  10
ATOM     10  O   UNL     1      -7.261 -12.603   3.699  1.00  0.00    -0.382 OA
ATOM     11  H   UNL     1      -7.449 -12.913   2.786  1.00  0.00     0.211 HD
ENDBRANCH   9  10
BRANCH   9  12
ATOM     12  C   UNL     1      -7.515 -10.588   2.317  1.00  0.00     0.089 C 
BRANCH  12  13
ATOM     13  N   UNL     1      -6.217  -9.875   2.345  1.00  0.00    -0.325 NA
ATOM     14  H   UNL     1      -5.490 -10.514   2.670  1.00  0.00     0.119 HD
ATOM     15  H   UNL     1      -6.260  -9.136   3.051  1.00  0.00     0.119 HD
ENDBRANCH  12  13
BRANCH  12  16
ATOM     16  C   UNL     1      -7.576 -11.533   1.093  1.00  0.00     0.022 C 
BRANCH  16  17
ATOM     17  C   UNL     1      -8.939 -12.059   0.623  1.00  0.00     0.002 C 
BRANCH  17  18
ATOM     18  C   UNL     1      -9.708 -11.119  -0.302  1.00  0.00     0.000 C 
BRANCH  18  19
ATOM     19  C   UNL     1     -10.922 -11.766  -0.982  1.00  0.00    -0.000 C 
BRANCH  19  20
ATOM     20  C   UNL     1     -12.195 -11.812  -0.132  1.00  0.00    -0.000 C 
BRANCH  20  21
ATOM     21  C   UNL     1     -13.012 -10.519  -0.205  1.00  0.00    -0.003 C 
ATOM     22  C   UNL     1     -12.585  -9.532   0.871  1.00  0.00     0.004 C 
ENDBRANCH  20  21
ENDBRANCH  19  20
ENDBRANCH  18  19
ENDBRANCH  17  18
ENDBRANCH  16  17
ENDBRANCH  12  16
ENDBRANCH   9  12
ENDBRANCH   6   9
ENDBRANCH   3   5
ENDBRANCH   2   3
BRANCH   2  23
ATOM     23  N   UNL     1     -11.611 -13.756   5.467  1.00  0.00    -0.332 N 
ATOM     24  C   UNL     1     -10.705 -14.803   5.019  1.00  0.00     0.147 C 
BRANCH  23  25
ATOM     25  C   UNL     1     -12.961 -13.783   4.839  1.00  0.00     0.174 C 
BRANCH  25  26
ATOM     26  C   UNL     1     -12.980 -14.532   3.486  1.00  0.00     0.038 C 
BRANCH  26  27
ATOM     27  C   UNL     1     -14.071 -15.610   3.297  1.00  0.00    -0.015 C 
ATOM     28  C   UNL     1     -13.648 -16.971   3.848  1.00  0.00     0.007 C 
ATOM     29  C   UNL     1     -15.431 -15.202   3.859  1.00  0.00     0.007 C 
ENDBRANCH  26  27
ENDBRANCH  25  26
BRANCH  25  30
ATOM     30  C   UNL     1     -13.543 -12.353   4.767  1.00  0.00     0.243 C 
ATOM     31  O   UNL     1     -13.204 -11.557   3.893  1.00  0.00    -0.273 OA
ATOM     32  N   UNL     1     -14.453 -12.033   5.741  1.00  0.00    -0.342 N 
ATOM     33  H   UNL     1     -14.788 -12.789   6.343  1.00  0.00     0.164 HD
BRANCH  32  34
ATOM     34  C   UNL     1     -15.087 -10.716   5.844  1.00  0.00     0.175 C 
BRANCH  34  35
ATOM     35  C   UNL     1     -14.040  -9.591   5.852  1.00  0.00     0.070 C 
BRANCH  35  36
ATOM     36  C   UNL     1     -14.224  -8.629   7.004  1.00  0.00    -0.045 A 
ATOM     37  C   UNL     1     -14.544  -7.286   6.753  1.00  0.00     0.007 A 
ATOM     38  C   UNL     1     -14.057  -9.054   8.329  1.00  0.00     0.007 A 
ATOM     39  C   UNL     1     -14.701  -6.388   7.810  1.00  0.00     0.046 A 
ATOM     40  C   UNL     1     -14.213  -8.155   9.387  1.00  0.00     0.046 A 
ATOM     41  C   UNL     1     -14.536  -6.830   9.117  1.00  0.00     0.115 A 
BRANCH  41  42
ATOM     42  O   UNL     1     -14.696  -5.920  10.120  1.00  0.00    -0.508 OA
ATOM     43  H   UNL     1     -15.575  -5.516  10.028  1.00  0.00     0.293 HD
ENDBRANCH  41  42
ENDBRANCH  35  36
ENDBRANCH  34  35
BRANCH  34  44
ATOM     44  C   UNL     1     -16.082 -10.570   4.671  1.00  0.00     0.243 C 
ATOM     45  O   UNL     1     -17.185 -11.109   4.625  1.00  0.00    -0.273 OA
ATOM     46  N   UNL     1     -15.568  -9.874   3.598  1.00  0.00    -0.341 N 
ATOM     47  H   UNL     1     -14.606  -9.546   3.637  1.00  0.00     0.164 HD
BRANCH  46  48
ATOM     48  C   UNL     1     -16.300  -9.666   2.347  1.00  0.00     0.196 C 
BRANCH  48  49
ATOM     49  C   UNL     1     -15.767  -8.441   1.583  1.00  0.00     0.072 C 
BRANCH  49  50
ATOM     50  C   UNL     1     -16.270  -7.135   2.155  1.00  0.00    -0.045 A 
ATOM     51  C   UNL     1     -15.962  -6.786   3.477  1.00  0.00     0.007 A 
ATOM     52  C   UNL     1     -17.062  -6.271   1.388  1.00  0.00     0.007 A 
ATOM     53  C   UNL     1     -16.432  -5.590   4.020  1.00  0.00     0.046 A 
ATOM     54  C   UNL     1     -17.534  -5.073   1.931  1.00  0.00     0.046 A 
ATOM     55  C   UNL     1     -17.213  -4.743   3.243  1.00  0.00     0.115 A 
BRANCH  55  56
ATOM     56  O   UNL     1     -17.654  -3.584   3.811  1.00  0.00    -0.508 OA
ATOM     57  H   UNL     1     -17.027  -2.877   3.591  1.00  0.00     0.293 HD
ENDBRANCH  55  56
ENDBRANCH  49  50
ENDBRANCH  48  49
BRANCH  48  58
ATOM     58  C   UNL     1     -16.159 -10.919   1.472  1.00  0.00     0.326 C 
ATOM     59  O   UNL     1     -16.664 -11.118   0.379  1.00  0.00    -0.250 OA
BRANCH  58  60
ATOM     60  O   UNL     1     -15.363 -11.873   2.017  1.00  0.00    -0.480 OA
ATOM     61  H   UNL     1     -15.449 -12.624   1.391  1.00  0.00     0.296 HD
ENDBRANCH  58  60
ENDBRANCH  48  58
ENDBRANCH  46  48
ENDBRANCH  34  44
ENDBRANCH  32  34
ENDBRANCH  25  30
ENDBRANCH  23  25
ENDBRANCH   2  23
TORSDOF 28
ENDMDL
MODEL 39
REMARK VINA RESULT:    -6.864      2.741      6.466
REMARK INTER + INTRA:         -21.761
REMARK INTER:                 -16.664
REMARK INTRA:                  -5.098
REMARK UNBOUND:                -4.665
REMARK SMILES CCCCCCC[C@H](N)[C@H](O)C(=O)N[C@H](C)C(=O)N(C)[C@H](CC(C)C)C(=O)N[C@@H](Cc1ccc(O)cc1)C(=O)N[C@@H](Cc1ccc(O)cc1)C(=O)O
REMARK SMILES IDX 18 1 17 2 15 3 16 4 14 5 12 6 13 7 10 9 11 10 8 12 9 13 7 16
REMARK SMILES IDX 6 17 5 18 4 19 3 20 2 21 1 22 19 23 20 24 21 25 22 26 23 27
REMARK SMILES IDX 24 28 25 29 26 30 27 31 28 32 29 34 30 35 31 36 32 37 37 38
REMARK SMILES IDX 33 39 36 40 34 41 35 42 38 44 39 45 40 46 41 48 42 49 43 50
REMARK SMILES IDX 44 51 49 52 45 53 48 54 46 55 47 56 50 58 51 59 52 60
REMARK H PARENT 14 8 11 11 9 14 9 15 28 33 35 43 40 47 47 57 52 61
ROOT
ATOM      1  O   UNL     1     -16.715  -9.899   4.946  1.00  0.00    -0.272 OA
ATOM      2  C   UNL     1     -15.726 -10.413   4.402  1.00  0.00     0.245 C 
ENDROOT
BRANCH   2   3
ATOM      3  C   UNL     1     -14.331  -9.789   4.659  1.00  0.00     0.168 C 
ATOM      4  C   UNL     1     -13.859  -9.001   3.442  1.00  0.00     0.041 C 
BRANCH   3   5
ATOM      5  N   UNL     1     -14.226  -9.010   5.883  1.00  0.00    -0.342 N 
ATOM      6  C   UNL     1     -13.731  -9.552   7.050  1.00  0.00     0.251 C 
ATOM      7  O   UNL     1     -13.385 -10.724   7.158  1.00  0.00    -0.272 OA
ATOM      8  H   UNL     1     -14.515  -8.036   5.925  1.00  0.00     0.164 HD
BRANCH   6   9
ATOM      9  C   UNL     1     -13.578  -8.511   8.171  1.00  0.00     0.219 C 
BRANCH   9  10
ATOM     10  O   UNL     1     -12.283  -7.900   8.185  1.00  0.00    -0.382 OA
ATOM     11  H   UNL     1     -12.462  -6.972   7.919  1.00  0.00     0.211 HD
ENDBRANCH   9  10
BRANCH   9  12
ATOM     12  C   UNL     1     -14.695  -7.435   8.158  1.00  0.00     0.089 C 
BRANCH  12  13
ATOM     13  N   UNL     1     -15.308  -7.382   9.506  1.00  0.00    -0.325 NA
ATOM     14  H   UNL     1     -15.828  -6.508   9.603  1.00  0.00     0.119 HD
ATOM     15  H   UNL     1     -14.564  -7.329  10.206  1.00  0.00     0.119 HD
ENDBRANCH  12  13
BRANCH  12  16
ATOM     16  C   UNL     1     -14.265  -6.017   7.714  1.00  0.00     0.022 C 
BRANCH  16  17
ATOM     17  C   UNL     1     -14.788  -5.461   6.382  1.00  0.00     0.002 C 
BRANCH  17  18
ATOM     18  C   UNL     1     -16.034  -6.156   5.838  1.00  0.00     0.000 C 
BRANCH  18  19
ATOM     19  C   UNL     1     -16.151  -6.121   4.309  1.00  0.00    -0.000 C 
BRANCH  19  20
ATOM     20  C   UNL     1     -16.830  -4.873   3.737  1.00  0.00    -0.000 C 
BRANCH  20  21
ATOM     21  C   UNL     1     -17.448  -5.107   2.356  1.00  0.00    -0.003 C 
ATOM     22  C   UNL     1     -16.530  -4.616   1.247  1.00  0.00     0.004 C 
ENDBRANCH  20  21
ENDBRANCH  19  20
ENDBRANCH  18  19
ENDBRANCH  17  18
ENDBRANCH  16  17
ENDBRANCH  12  16
ENDBRANCH   9  12
ENDBRANCH   6   9
ENDBRANCH   3   5
ENDBRANCH   2   3
BRANCH   2  23
ATOM     23  N   UNL     1     -15.864 -11.596   3.683  1.00  0.00    -0.332 N 
ATOM     24  C   UNL     1     -17.056 -11.976   2.940  1.00  0.00     0.147 C 
BRANCH  23  25
ATOM     25  C   UNL     1     -14.705 -12.517   3.523  1.00  0.00     0.174 C 
BRANCH  25  26
ATOM     26  C   UNL     1     -14.852 -13.464   2.309  1.00  0.00     0.038 C 
BRANCH  26  27
ATOM     27  C   UNL     1     -13.935 -13.195   1.096  1.00  0.00    -0.015 C 
ATOM     28  C   UNL     1     -14.208 -11.838   0.447  1.00  0.00     0.007 C 
ATOM     29  C   UNL     1     -12.450 -13.351   1.410  1.00  0.00     0.007 C 
ENDBRANCH  26  27
ENDBRANCH  25  26
BRANCH  25  30
ATOM     30  C   UNL     1     -14.421 -13.251   4.854  1.00  0.00     0.243 C 
ATOM     31  O   UNL     1     -15.328 -13.667   5.573  1.00  0.00    -0.273 OA
ATOM     32  N   UNL     1     -13.097 -13.399   5.179  1.00  0.00    -0.342 N 
ATOM     33  H   UNL     1     -12.404 -13.154   4.467  1.00  0.00     0.164 HD
BRANCH  32  34
ATOM     34  C   UNL     1     -12.642 -14.044   6.413  1.00  0.00     0.175 C 
BRANCH  34  35
ATOM     35  C   UNL     1     -12.648 -15.574   6.279  1.00  0.00     0.070 C 
BRANCH  35  36
ATOM     36  C   UNL     1     -11.935 -16.055   5.035  1.00  0.00    -0.045 A 
ATOM     37  C   UNL     1     -10.546 -16.255   5.055  1.00  0.00     0.007 A 
ATOM     38  C   UNL     1     -12.640 -16.284   3.846  1.00  0.00     0.007 A 
ATOM     39  C   UNL     1      -9.878 -16.685   3.908  1.00  0.00     0.046 A 
ATOM     40  C   UNL     1     -11.971 -16.713   2.697  1.00  0.00     0.046 A 
ATOM     41  C   UNL     1     -10.595 -16.911   2.739  1.00  0.00     0.115 A 
BRANCH  41  42
ATOM     42  O   UNL     1      -9.904 -17.327   1.640  1.00  0.00    -0.508 OA
ATOM     43  H   UNL     1     -10.519 -17.800   1.055  1.00  0.00     0.293 HD
ENDBRANCH  41  42
ENDBRANCH  35  36
ENDBRANCH  34  35
BRANCH  34  44
ATOM     44  C   UNL     1     -11.236 -13.498   6.748  1.00  0.00     0.243 C 
ATOM     45  O   UNL     1     -10.560 -13.864   7.706  1.00  0.00    -0.273 OA
ATOM     46  N   UNL     1     -10.846 -12.452   5.939  1.00  0.00    -0.341 N 
ATOM     47  H   UNL     1     -11.491 -12.108   5.232  1.00  0.00     0.164 HD
BRANCH  46  48
ATOM     48  C   UNL     1      -9.583 -11.730   6.108  1.00  0.00     0.196 C 
BRANCH  48  49
ATOM     49  C   UNL     1      -9.334 -10.757   4.943  1.00  0.00     0.072 C 
BRANCH  49  50
ATOM     50  C   UNL     1      -8.592 -11.402   3.795  1.00  0.00    -0.045 A 
ATOM     51  C   UNL     1      -7.721 -10.636   3.006  1.00  0.00     0.007 A 
ATOM     52  C   UNL     1      -8.775 -12.756   3.488  1.00  0.00     0.007 A 
ATOM     53  C   UNL     1      -7.041 -11.217   1.936  1.00  0.00     0.046 A 
ATOM     54  C   UNL     1      -8.095 -13.338   2.415  1.00  0.00     0.046 A 
ATOM     55  C   UNL     1      -7.233 -12.563   1.649  1.00  0.00     0.115 A 
BRANCH  55  56
ATOM     56  O   UNL     1      -6.551 -13.092   0.593  1.00  0.00    -0.508 OA
ATOM     57  H   UNL     1      -5.603 -12.943   0.736  1.00  0.00     0.293 HD
ENDBRANCH  55  56
ENDBRANCH  49  50
ENDBRANCH  48  49
BRANCH  48  58
ATOM     58  C   UNL     1      -9.627 -10.950   7.429  1.00  0.00     0.326 C 
ATOM     59  O   UNL     1     -10.278  -9.948   7.675  1.00  0.00    -0.250 OA
BRANCH  58  60
ATOM     60  O   UNL     1      -8.846 -11.488   8.401  1.00  0.00    -0.480 OA
ATOM     61  H   UNL     1      -7.938 -11.233   8.128  1.00  0.00     0.296 HD
ENDBRANCH  58  60
ENDBRANCH  48  58
ENDBRANCH  46  48
ENDBRANCH  34  44
ENDBRANCH  32  34
ENDBRANCH  25  30
ENDBRANCH  23  25
ENDBRANCH   2  23
TORSDOF 28
ENDMDL
MODEL 40
REMARK VINA RESULT:    -6.859      2.697      8.748
REMARK INTER + INTRA:         -21.748
REMARK INTER:                 -16.516
REMARK INTRA:                  -5.232
REMARK UNBOUND:                -4.665
REMARK SMILES CCCCCCC[C@H](N)[C@H](O)C(=O)N[C@H](C)C(=O)N(C)[C@H](CC(C)C)C(=O)N[C@@H](Cc1ccc(O)cc1)C(=O)N[C@@H](Cc1ccc(O)cc1)C(=O)O
REMARK SMILES IDX 18 1 17 2 15 3 16 4 14 5 12 6 13 7 10 9 11 10 8 12 9 13 7 16
REMARK SMILES IDX 6 17 5 18 4 19 3 20 2 21 1 22 19 23 20 24 21 25 22 26 23 27
REMARK SMILES IDX 24 28 25 29 26 30 27 31 28 32 29 34 30 35 31 36 32 37 37 38
REMARK SMILES IDX 33 39 36 40 34 41 35 42 38 44 39 45 40 46 41 48 42 49 43 50
REMARK SMILES IDX 44 51 49 52 45 53 48 54 46 55 47 56 50 58 51 59 52 60
REMARK H PARENT 14 8 11 11 9 14 9 15 28 33 35 43 40 47 47 57 52 61
ROOT
ATOM      1  O   UNL     1      -8.309 -13.436   2.065  1.00  0.00    -0.272 OA
ATOM      2  C   UNL     1      -9.525 -13.210   1.973  1.00  0.00     0.245 C 
ENDROOT
BRANCH   2   3
ATOM      3  C   UNL     1     -10.511 -14.146   2.715  1.00  0.00     0.168 C 
ATOM      4  C   UNL     1     -10.067 -15.600   2.602  1.00  0.00     0.041 C 
BRANCH   3   5
ATOM      5  N   UNL     1     -10.790 -13.770   4.092  1.00  0.00    -0.342 N 
ATOM      6  C   UNL     1     -12.076 -13.558   4.543  1.00  0.00     0.251 C 
ATOM      7  O   UNL     1     -13.066 -13.627   3.821  1.00  0.00    -0.272 OA
ATOM      8  H   UNL     1     -10.047 -13.649   4.776  1.00  0.00     0.164 HD
BRANCH   6   9
ATOM      9  C   UNL     1     -12.143 -13.313   6.058  1.00  0.00     0.219 C 
BRANCH   9  10
ATOM     10  O   UNL     1     -11.550 -14.374   6.816  1.00  0.00    -0.382 OA
ATOM     11  H   UNL     1     -10.720 -14.571   6.328  1.00  0.00     0.211 HD
ENDBRANCH   9  10
BRANCH   9  12
ATOM     12  C   UNL     1     -11.555 -11.941   6.480  1.00  0.00     0.089 C 
BRANCH  12  13
ATOM     13  N   UNL     1     -11.330 -11.134   5.258  1.00  0.00    -0.325 NA
ATOM     14  H   UNL     1     -10.326 -10.985   5.134  1.00  0.00     0.119 HD
ATOM     15  H   UNL     1     -11.722 -10.201   5.401  1.00  0.00     0.119 HD
ENDBRANCH  12  13
BRANCH  12  16
ATOM     16  C   UNL     1     -12.387 -11.133   7.504  1.00  0.00     0.022 C 
BRANCH  16  17
ATOM     17  C   UNL     1     -13.836 -11.552   7.787  1.00  0.00     0.002 C 
BRANCH  17  18
ATOM     18  C   UNL     1     -14.892 -10.513   7.418  1.00  0.00     0.000 C 
BRANCH  18  19
ATOM     19  C   UNL     1     -14.323  -9.252   6.754  1.00  0.00    -0.000 C 
BRANCH  19  20
ATOM     20  C   UNL     1     -14.431  -7.973   7.588  1.00  0.00    -0.000 C 
BRANCH  20  21
ATOM     21  C   UNL     1     -14.223  -8.214   9.086  1.00  0.00    -0.003 C 
ATOM     22  C   UNL     1     -14.702  -7.029   9.910  1.00  0.00     0.004 C 
ENDBRANCH  20  21
ENDBRANCH  19  20
ENDBRANCH  18  19
ENDBRANCH  17  18
ENDBRANCH  16  17
ENDBRANCH  12  16
ENDBRANCH   9  12
ENDBRANCH   6   9
ENDBRANCH   3   5
ENDBRANCH   2   3
BRANCH   2  23
ATOM     23  N   UNL     1      -9.972 -12.068   1.317  1.00  0.00    -0.332 N 
ATOM     24  C   UNL     1      -9.186 -10.856   1.140  1.00  0.00     0.147 C 
BRANCH  23  25
ATOM     25  C   UNL     1     -11.289 -12.068   0.623  1.00  0.00     0.174 C 
BRANCH  25  26
ATOM     26  C   UNL     1     -11.185 -11.657  -0.865  1.00  0.00     0.038 C 
BRANCH  26  27
ATOM     27  C   UNL     1     -10.667 -12.727  -1.852  1.00  0.00    -0.015 C 
ATOM     28  C   UNL     1      -9.238 -12.448  -2.318  1.00  0.00     0.007 C 
ATOM     29  C   UNL     1     -10.790 -14.153  -1.322  1.00  0.00     0.007 C 
ENDBRANCH  26  27
ENDBRANCH  25  26
BRANCH  25  30
ATOM     30  C   UNL     1     -12.315 -11.236   1.427  1.00  0.00     0.243 C 
ATOM     31  O   UNL     1     -12.038 -10.744   2.519  1.00  0.00    -0.273 OA
ATOM     32  N   UNL     1     -13.548 -11.092   0.845  1.00  0.00    -0.342 N 
ATOM     33  H   UNL     1     -13.655 -11.408  -0.122  1.00  0.00     0.164 HD
BRANCH  32  34
ATOM     34  C   UNL     1     -14.651 -10.361   1.475  1.00  0.00     0.175 C 
BRANCH  34  35
ATOM     35  C   UNL     1     -15.014  -9.100   0.674  1.00  0.00     0.070 C 
BRANCH  35  36
ATOM     36  C   UNL     1     -15.573  -7.996   1.544  1.00  0.00    -0.045 A 
ATOM     37  C   UNL     1     -15.304  -7.984   2.921  1.00  0.00     0.007 A 
ATOM     38  C   UNL     1     -16.380  -6.990   0.997  1.00  0.00     0.007 A 
ATOM     39  C   UNL     1     -15.826  -6.977   3.733  1.00  0.00     0.046 A 
ATOM     40  C   UNL     1     -16.905  -5.982   1.811  1.00  0.00     0.046 A 
ATOM     41  C   UNL     1     -16.621  -5.985   3.172  1.00  0.00     0.115 A 
BRANCH  41  42
ATOM     42  O   UNL     1     -17.115  -5.021   4.001  1.00  0.00    -0.508 OA
ATOM     43  H   UNL     1     -17.211  -5.403   4.889  1.00  0.00     0.293 HD
ENDBRANCH  41  42
ENDBRANCH  35  36
ENDBRANCH  34  35
BRANCH  34  44
ATOM     44  C   UNL     1     -15.850 -11.325   1.609  1.00  0.00     0.243 C 
ATOM     45  O   UNL     1     -16.967 -11.112   1.146  1.00  0.00    -0.273 OA
ATOM     46  N   UNL     1     -15.594 -12.411   2.419  1.00  0.00    -0.341 N 
ATOM     47  H   UNL     1     -14.688 -12.483   2.875  1.00  0.00     0.164 HD
BRANCH  46  48
ATOM     48  C   UNL     1     -16.597 -13.425   2.750  1.00  0.00     0.196 C 
BRANCH  48  49
ATOM     49  C   UNL     1     -16.180 -14.814   2.237  1.00  0.00     0.072 C 
BRANCH  49  50
ATOM     50  C   UNL     1     -16.933 -15.224   0.992  1.00  0.00    -0.045 A 
ATOM     51  C   UNL     1     -17.987 -14.429   0.518  1.00  0.00     0.007 A 
ATOM     52  C   UNL     1     -16.609 -16.404   0.309  1.00  0.00     0.007 A 
ATOM     53  C   UNL     1     -18.698 -14.804  -0.622  1.00  0.00     0.046 A 
ATOM     54  C   UNL     1     -17.322 -16.780  -0.832  1.00  0.00     0.046 A 
ATOM     55  C   UNL     1     -18.360 -15.976  -1.289  1.00  0.00     0.115 A 
BRANCH  55  56
ATOM     56  O   UNL     1     -19.080 -16.308  -2.398  1.00  0.00    -0.508 OA
ATOM     57  H   UNL     1     -19.736 -15.611  -2.557  1.00  0.00     0.293 HD
ENDBRANCH  55  56
ENDBRANCH  49  50
ENDBRANCH  48  49
BRANCH  48  58
ATOM     58  C   UNL     1     -16.777 -13.471   4.273  1.00  0.00     0.326 C 
ATOM     59  O   UNL     1     -16.308 -14.289   5.048  1.00  0.00    -0.250 OA
BRANCH  58  60
ATOM     60  O   UNL     1     -17.540 -12.460   4.760  1.00  0.00    -0.480 OA
ATOM     61  H   UNL     1     -17.415 -12.529   5.731  1.00  0.00     0.296 HD
ENDBRANCH  58  60
ENDBRANCH  48  58
ENDBRANCH  46  48
ENDBRANCH  34  44
ENDBRANCH  32  34
ENDBRANCH  25  30
ENDBRANCH  23  25
ENDBRANCH   2  23
TORSDOF 28
ENDMDL
MODEL 41
REMARK VINA RESULT:    -6.844      2.523      7.600
REMARK INTER + INTRA:         -21.711
REMARK INTER:                 -17.181
REMARK INTRA:                  -4.530
REMARK UNBOUND:                -4.665
REMARK SMILES CCCCCCC[C@H](N)[C@H](O)C(=O)N[C@H](C)C(=O)N(C)[C@H](CC(C)C)C(=O)N[C@@H](Cc1ccc(O)cc1)C(=O)N[C@@H](Cc1ccc(O)cc1)C(=O)O
REMARK SMILES IDX 18 1 17 2 15 3 16 4 14 5 12 6 13 7 10 9 11 10 8 12 9 13 7 16
REMARK SMILES IDX 6 17 5 18 4 19 3 20 2 21 1 22 19 23 20 24 21 25 22 26 23 27
REMARK SMILES IDX 24 28 25 29 26 30 27 31 28 32 29 34 30 35 31 36 32 37 37 38
REMARK SMILES IDX 33 39 36 40 34 41 35 42 38 44 39 45 40 46 41 48 42 49 43 50
REMARK SMILES IDX 44 51 49 52 45 53 48 54 46 55 47 56 50 58 51 59 52 60
REMARK H PARENT 14 8 11 11 9 14 9 15 28 33 35 43 40 47 47 57 52 61
ROOT
ATOM      1  O   UNL     1     -11.533 -16.238   4.380  1.00  0.00    -0.272 OA
ATOM      2  C   UNL     1     -11.996 -15.788   5.438  1.00  0.00     0.245 C 
ENDROOT
BRANCH   2   3
ATOM      3  C   UNL     1     -11.137 -14.797   6.262  1.00  0.00     0.168 C 
ATOM      4  C   UNL     1      -9.727 -15.342   6.466  1.00  0.00     0.041 C 
BRANCH   3   5
ATOM      5  N   UNL     1     -11.122 -13.434   5.755  1.00  0.00    -0.342 N 
ATOM      6  C   UNL     1     -10.749 -12.367   6.546  1.00  0.00     0.251 C 
ATOM      7  O   UNL     1     -10.446 -12.476   7.729  1.00  0.00    -0.272 OA
ATOM      8  H   UNL     1     -11.387 -13.214   4.798  1.00  0.00     0.164 HD
BRANCH   6   9
ATOM      9  C   UNL     1     -10.672 -11.046   5.764  1.00  0.00     0.219 C 
BRANCH   9  10
ATOM     10  O   UNL     1     -10.710  -9.896   6.617  1.00  0.00    -0.382 OA
ATOM     11  H   UNL     1      -9.776  -9.787   6.900  1.00  0.00     0.211 HD
ENDBRANCH   9  10
BRANCH   9  12
ATOM     12  C   UNL     1      -9.456 -10.978   4.802  1.00  0.00     0.089 C 
BRANCH  12  13
ATOM     13  N   UNL     1      -8.552 -12.110   5.111  1.00  0.00    -0.325 NA
ATOM     14  H   UNL     1      -8.101 -11.943   6.013  1.00  0.00     0.119 HD
ATOM     15  H   UNL     1      -7.790 -12.120   4.430  1.00  0.00     0.119 HD
ENDBRANCH  12  13
BRANCH  12  16
ATOM     16  C   UNL     1      -9.788 -10.960   3.291  1.00  0.00     0.022 C 
BRANCH  16  17
ATOM     17  C   UNL     1      -8.659 -10.705   2.282  1.00  0.00     0.002 C 
BRANCH  17  18
ATOM     18  C   UNL     1      -9.002 -11.043   0.833  1.00  0.00     0.000 C 
BRANCH  18  19
ATOM     19  C   UNL     1     -10.392 -10.566   0.392  1.00  0.00    -0.000 C 
BRANCH  19  20
ATOM     20  C   UNL     1     -11.233 -11.610  -0.349  1.00  0.00    -0.000 C 
BRANCH  20  21
ATOM     21  C   UNL     1     -12.522 -11.976   0.390  1.00  0.00    -0.003 C 
ATOM     22  C   UNL     1     -12.827 -13.461   0.272  1.00  0.00     0.004 C 
ENDBRANCH  20  21
ENDBRANCH  19  20
ENDBRANCH  18  19
ENDBRANCH  17  18
ENDBRANCH  16  17
ENDBRANCH  12  16
ENDBRANCH   9  12
ENDBRANCH   6   9
ENDBRANCH   3   5
ENDBRANCH   2   3
BRANCH   2  23
ATOM     23  N   UNL     1     -13.307 -16.079   5.802  1.00  0.00    -0.332 N 
ATOM     24  C   UNL     1     -13.684 -16.994   6.869  1.00  0.00     0.147 C 
BRANCH  23  25
ATOM     25  C   UNL     1     -14.440 -15.343   5.178  1.00  0.00     0.174 C 
BRANCH  25  26
ATOM     26  C   UNL     1     -14.306 -15.220   3.642  1.00  0.00     0.038 C 
BRANCH  26  27
ATOM     27  C   UNL     1     -15.084 -16.245   2.787  1.00  0.00    -0.015 C 
ATOM     28  C   UNL     1     -15.657 -15.628   1.512  1.00  0.00     0.007 C 
ATOM     29  C   UNL     1     -14.278 -17.500   2.461  1.00  0.00     0.007 C 
ENDBRANCH  26  27
ENDBRANCH  25  26
BRANCH  25  30
ATOM     30  C   UNL     1     -14.654 -13.989   5.894  1.00  0.00     0.243 C 
ATOM     31  O   UNL     1     -14.510 -13.866   7.109  1.00  0.00    -0.273 OA
ATOM     32  N   UNL     1     -15.018 -12.942   5.086  1.00  0.00    -0.342 N 
ATOM     33  H   UNL     1     -14.979 -13.089   4.074  1.00  0.00     0.164 HD
BRANCH  32  34
ATOM     34  C   UNL     1     -15.289 -11.594   5.594  1.00  0.00     0.175 C 
BRANCH  34  35
ATOM     35  C   UNL     1     -13.985 -10.832   5.878  1.00  0.00     0.070 C 
BRANCH  35  36
ATOM     36  C   UNL     1     -14.176  -9.688   6.847  1.00  0.00    -0.045 A 
ATOM     37  C   UNL     1     -14.637  -8.445   6.385  1.00  0.00     0.007 A 
ATOM     38  C   UNL     1     -13.878  -9.840   8.207  1.00  0.00     0.007 A 
ATOM     39  C   UNL     1     -14.803  -7.379   7.269  1.00  0.00     0.046 A 
ATOM     40  C   UNL     1     -14.043  -8.773   9.094  1.00  0.00     0.046 A 
ATOM     41  C   UNL     1     -14.506  -7.552   8.616  1.00  0.00     0.115 A 
BRANCH  41  42
ATOM     42  O   UNL     1     -14.679  -6.484   9.446  1.00  0.00    -0.508 OA
ATOM     43  H   UNL     1     -14.281  -6.700  10.306  1.00  0.00     0.293 HD
ENDBRANCH  41  42
ENDBRANCH  35  36
ENDBRANCH  34  35
BRANCH  34  44
ATOM     44  C   UNL     1     -16.172 -10.862   4.559  1.00  0.00     0.243 C 
ATOM     45  O   UNL     1     -17.374 -10.651   4.698  1.00  0.00    -0.273 OA
ATOM     46  N   UNL     1     -15.514 -10.571   3.383  1.00  0.00    -0.341 N 
ATOM     47  H   UNL     1     -14.549 -10.870   3.270  1.00  0.00     0.164 HD
BRANCH  46  48
ATOM     48  C   UNL     1     -16.163  -9.940   2.231  1.00  0.00     0.196 C 
BRANCH  48  49
ATOM     49  C   UNL     1     -15.388  -8.696   1.764  1.00  0.00     0.072 C 
BRANCH  49  50
ATOM     50  C   UNL     1     -16.007  -7.407   2.256  1.00  0.00    -0.045 A 
ATOM     51  C   UNL     1     -16.733  -6.598   1.370  1.00  0.00     0.007 A 
ATOM     52  C   UNL     1     -15.849  -6.993   3.585  1.00  0.00     0.007 A 
ATOM     53  C   UNL     1     -17.297  -5.400   1.809  1.00  0.00     0.046 A 
ATOM     54  C   UNL     1     -16.413  -5.793   4.024  1.00  0.00     0.046 A 
ATOM     55  C   UNL     1     -17.134  -5.007   3.132  1.00  0.00     0.115 A 
BRANCH  55  56
ATOM     56  O   UNL     1     -17.699  -3.828   3.521  1.00  0.00    -0.508 OA
ATOM     57  H   UNL     1     -18.590  -3.776   3.139  1.00  0.00     0.293 HD
ENDBRANCH  55  56
ENDBRANCH  49  50
ENDBRANCH  48  49
BRANCH  48  58
ATOM     58  C   UNL     1     -16.243 -10.957   1.084  1.00  0.00     0.326 C 
ATOM     59  O   UNL     1     -15.982 -12.148   1.134  1.00  0.00    -0.250 OA
BRANCH  58  60
ATOM     60  O   UNL     1     -16.668 -10.420  -0.087  1.00  0.00    -0.480 OA
ATOM     61  H   UNL     1     -17.646 -10.446  -0.006  1.00  0.00     0.296 HD
ENDBRANCH  58  60
ENDBRANCH  48  58
ENDBRANCH  46  48
ENDBRANCH  34  44
ENDBRANCH  32  34
ENDBRANCH  25  30
ENDBRANCH  23  25
ENDBRANCH   2  23
TORSDOF 28
ENDMDL
MODEL 42
REMARK VINA RESULT:    -6.812      2.530      5.868
REMARK INTER + INTRA:         -21.632
REMARK INTER:                 -17.055
REMARK INTRA:                  -4.576
REMARK UNBOUND:                -4.665
REMARK SMILES CCCCCCC[C@H](N)[C@H](O)C(=O)N[C@H](C)C(=O)N(C)[C@H](CC(C)C)C(=O)N[C@@H](Cc1ccc(O)cc1)C(=O)N[C@@H](Cc1ccc(O)cc1)C(=O)O
REMARK SMILES IDX 18 1 17 2 15 3 16 4 14 5 12 6 13 7 10 9 11 10 8 12 9 13 7 16
REMARK SMILES IDX 6 17 5 18 4 19 3 20 2 21 1 22 19 23 20 24 21 25 22 26 23 27
REMARK SMILES IDX 24 28 25 29 26 30 27 31 28 32 29 34 30 35 31 36 32 37 37 38
REMARK SMILES IDX 33 39 36 40 34 41 35 42 38 44 39 45 40 46 41 48 42 49 43 50
REMARK SMILES IDX 44 51 49 52 45 53 48 54 46 55 47 56 50 58 51 59 52 60
REMARK H PARENT 14 8 11 11 9 14 9 15 28 33 35 43 40 47 47 57 52 61
ROOT
ATOM      1  O   UNL     1     -16.522 -10.092   5.063  1.00  0.00    -0.272 OA
ATOM      2  C   UNL     1     -15.453 -10.719   5.025  1.00  0.00     0.245 C 
ENDROOT
BRANCH   2   3
ATOM      3  C   UNL     1     -14.125  -9.921   5.043  1.00  0.00     0.168 C 
ATOM      4  C   UNL     1     -13.838  -9.317   3.673  1.00  0.00     0.041 C 
BRANCH   3   5
ATOM      5  N   UNL     1     -14.021  -8.931   6.105  1.00  0.00    -0.342 N 
ATOM      6  C   UNL     1     -13.618  -9.270   7.379  1.00  0.00     0.251 C 
ATOM      7  O   UNL     1     -13.361 -10.419   7.724  1.00  0.00    -0.272 OA
ATOM      8  H   UNL     1     -14.242  -7.951   5.947  1.00  0.00     0.164 HD
BRANCH   6   9
ATOM      9  C   UNL     1     -13.444  -8.047   8.293  1.00  0.00     0.219 C 
BRANCH   9  10
ATOM     10  O   UNL     1     -12.131  -7.480   8.212  1.00  0.00    -0.382 OA
ATOM     11  H   UNL     1     -12.204  -6.652   8.736  1.00  0.00     0.211 HD
ENDBRANCH   9  10
BRANCH   9  12
ATOM     12  C   UNL     1     -14.528  -6.960   8.068  1.00  0.00     0.089 C 
BRANCH  12  13
ATOM     13  N   UNL     1     -14.868  -6.362   9.379  1.00  0.00    -0.325 NA
ATOM     14  H   UNL     1     -15.867  -6.484   9.555  1.00  0.00     0.119 HD
ATOM     15  H   UNL     1     -14.729  -5.350   9.328  1.00  0.00     0.119 HD
ENDBRANCH  12  13
BRANCH  12  16
ATOM     16  C   UNL     1     -14.173  -5.848   7.052  1.00  0.00     0.022 C 
BRANCH  16  17
ATOM     17  C   UNL     1     -15.193  -4.736   6.775  1.00  0.00     0.002 C 
BRANCH  17  18
ATOM     18  C   UNL     1     -16.018  -4.920   5.504  1.00  0.00     0.000 C 
BRANCH  18  19
ATOM     19  C   UNL     1     -15.975  -6.343   4.932  1.00  0.00    -0.000 C 
BRANCH  19  20
ATOM     20  C   UNL     1     -16.248  -6.449   3.429  1.00  0.00    -0.000 C 
BRANCH  20  21
ATOM     21  C   UNL     1     -17.078  -5.282   2.887  1.00  0.00    -0.003 C 
ATOM     22  C   UNL     1     -17.469  -5.508   1.434  1.00  0.00     0.004 C 
ENDBRANCH  20  21
ENDBRANCH  19  20
ENDBRANCH  18  19
ENDBRANCH  17  18
ENDBRANCH  16  17
ENDBRANCH  12  16
ENDBRANCH   9  12
ENDBRANCH   6   9
ENDBRANCH   3   5
ENDBRANCH   2   3
BRANCH   2  23
ATOM     23  N   UNL     1     -15.459 -12.108   5.090  1.00  0.00    -0.332 N 
ATOM     24  C   UNL     1     -15.464 -12.877   6.326  1.00  0.00     0.147 C 
BRANCH  23  25
ATOM     25  C   UNL     1     -15.592 -12.917   3.848  1.00  0.00     0.174 C 
BRANCH  25  26
ATOM     26  C   UNL     1     -17.065 -13.194   3.465  1.00  0.00     0.038 C 
BRANCH  26  27
ATOM     27  C   UNL     1     -17.499 -12.811   2.033  1.00  0.00    -0.015 C 
ATOM     28  C   UNL     1     -16.501 -11.877   1.349  1.00  0.00     0.007 C 
ATOM     29  C   UNL     1     -17.801 -14.016   1.146  1.00  0.00     0.007 C 
ENDBRANCH  26  27
ENDBRANCH  25  26
BRANCH  25  30
ATOM     30  C   UNL     1     -14.726 -14.194   3.949  1.00  0.00     0.243 C 
ATOM     31  O   UNL     1     -15.226 -15.310   4.074  1.00  0.00    -0.273 OA
ATOM     32  N   UNL     1     -13.370 -13.996   3.896  1.00  0.00    -0.342 N 
ATOM     33  H   UNL     1     -13.037 -13.061   3.649  1.00  0.00     0.164 HD
BRANCH  32  34
ATOM     34  C   UNL     1     -12.396 -15.086   4.003  1.00  0.00     0.175 C 
BRANCH  34  35
ATOM     35  C   UNL     1     -12.166 -15.766   2.645  1.00  0.00     0.070 C 
BRANCH  35  36
ATOM     36  C   UNL     1     -11.777 -14.787   1.560  1.00  0.00    -0.045 A 
ATOM     37  C   UNL     1     -12.753 -13.971   0.968  1.00  0.00     0.007 A 
ATOM     38  C   UNL     1     -10.452 -14.696   1.115  1.00  0.00     0.007 A 
ATOM     39  C   UNL     1     -12.407 -13.075  -0.044  1.00  0.00     0.046 A 
ATOM     40  C   UNL     1     -10.104 -13.800   0.101  1.00  0.00     0.046 A 
ATOM     41  C   UNL     1     -11.086 -12.996  -0.468  1.00  0.00     0.115 A 
BRANCH  41  42
ATOM     42  O   UNL     1     -10.790 -12.109  -1.461  1.00  0.00    -0.508 OA
ATOM     43  H   UNL     1     -11.047 -12.506  -2.310  1.00  0.00     0.293 HD
ENDBRANCH  41  42
ENDBRANCH  35  36
ENDBRANCH  34  35
BRANCH  34  44
ATOM     44  C   UNL     1     -11.089 -14.504   4.587  1.00  0.00     0.243 C 
ATOM     45  O   UNL     1     -10.006 -15.083   4.574  1.00  0.00    -0.273 OA
ATOM     46  N   UNL     1     -11.269 -13.310   5.253  1.00  0.00    -0.341 N 
ATOM     47  H   UNL     1     -12.208 -12.928   5.337  1.00  0.00     0.164 HD
BRANCH  46  48
ATOM     48  C   UNL     1     -10.189 -12.603   5.945  1.00  0.00     0.196 C 
BRANCH  48  49
ATOM     49  C   UNL     1     -10.123 -11.127   5.519  1.00  0.00     0.072 C 
BRANCH  49  50
ATOM     50  C   UNL     1      -9.657 -10.954   4.091  1.00  0.00    -0.045 A 
ATOM     51  C   UNL     1     -10.598 -10.812   3.061  1.00  0.00     0.007 A 
ATOM     52  C   UNL     1      -8.293 -10.955   3.773  1.00  0.00     0.007 A 
ATOM     53  C   UNL     1     -10.181 -10.665   1.738  1.00  0.00     0.046 A 
ATOM     54  C   UNL     1      -7.875 -10.809   2.448  1.00  0.00     0.046 A 
ATOM     55  C   UNL     1      -8.824 -10.664   1.442  1.00  0.00     0.115 A 
BRANCH  55  56
ATOM     56  O   UNL     1      -8.457 -10.520   0.136  1.00  0.00    -0.508 OA
ATOM     57  H   UNL     1      -8.543  -9.584  -0.104  1.00  0.00     0.293 HD
ENDBRANCH  55  56
ENDBRANCH  49  50
ENDBRANCH  48  49
BRANCH  48  58
ATOM     58  C   UNL     1     -10.426 -12.692   7.459  1.00  0.00     0.326 C 
ATOM     59  O   UNL     1      -9.582 -12.690   8.341  1.00  0.00    -0.250 OA
BRANCH  58  60
ATOM     60  O   UNL     1     -11.737 -12.764   7.799  1.00  0.00    -0.480 OA
ATOM     61  H   UNL     1     -12.097 -11.902   7.499  1.00  0.00     0.296 HD
ENDBRANCH  58  60
ENDBRANCH  48  58
ENDBRANCH  46  48
ENDBRANCH  34  44
ENDBRANCH  32  34
ENDBRANCH  25  30
ENDBRANCH  23  25
ENDBRANCH   2  23
TORSDOF 28
ENDMDL
MODEL 43
REMARK VINA RESULT:    -6.812      2.454      6.702
REMARK INTER + INTRA:         -21.631
REMARK INTER:                 -18.208
REMARK INTRA:                  -3.423
REMARK UNBOUND:                -4.665
REMARK SMILES CCCCCCC[C@H](N)[C@H](O)C(=O)N[C@H](C)C(=O)N(C)[C@H](CC(C)C)C(=O)N[C@@H](Cc1ccc(O)cc1)C(=O)N[C@@H](Cc1ccc(O)cc1)C(=O)O
REMARK SMILES IDX 18 1 17 2 15 3 16 4 14 5 12 6 13 7 10 9 11 10 8 12 9 13 7 16
REMARK SMILES IDX 6 17 5 18 4 19 3 20 2 21 1 22 19 23 20 24 21 25 22 26 23 27
REMARK SMILES IDX 24 28 25 29 26 30 27 31 28 32 29 34 30 35 31 36 32 37 37 38
REMARK SMILES IDX 33 39 36 40 34 41 35 42 38 44 39 45 40 46 41 48 42 49 43 50
REMARK SMILES IDX 44 51 49 52 45 53 48 54 46 55 47 56 50 58 51 59 52 60
REMARK H PARENT 14 8 11 11 9 14 9 15 28 33 35 43 40 47 47 57 52 61
ROOT
ATOM      1  O   UNL     1     -14.152  -6.920   4.460  1.00  0.00    -0.272 OA
ATOM      2  C   UNL     1     -15.028  -7.082   5.323  1.00  0.00     0.245 C 
ENDROOT
BRANCH   2   3
ATOM      3  C   UNL     1     -15.845  -5.852   5.790  1.00  0.00     0.168 C 
ATOM      4  C   UNL     1     -14.930  -4.793   6.398  1.00  0.00     0.041 C 
BRANCH   3   5
ATOM      5  N   UNL     1     -16.732  -5.289   4.784  1.00  0.00    -0.342 N 
ATOM      6  C   UNL     1     -16.740  -3.941   4.493  1.00  0.00     0.251 C 
ATOM      7  O   UNL     1     -16.043  -3.119   5.077  1.00  0.00    -0.272 OA
ATOM      8  H   UNL     1     -17.381  -5.868   4.257  1.00  0.00     0.164 HD
BRANCH   6   9
ATOM      9  C   UNL     1     -17.649  -3.596   3.302  1.00  0.00     0.219 C 
BRANCH   9  10
ATOM     10  O   UNL     1     -18.618  -2.589   3.621  1.00  0.00    -0.382 OA
ATOM     11  H   UNL     1     -18.714  -2.662   4.596  1.00  0.00     0.211 HD
ENDBRANCH   9  10
BRANCH   9  12
ATOM     12  C   UNL     1     -16.860  -3.215   2.023  1.00  0.00     0.089 C 
BRANCH  12  13
ATOM     13  N   UNL     1     -15.764  -2.295   2.407  1.00  0.00    -0.325 NA
ATOM     14  H   UNL     1     -14.936  -2.842   2.651  1.00  0.00     0.119 HD
ATOM     15  H   UNL     1     -16.026  -1.809   3.267  1.00  0.00     0.119 HD
ENDBRANCH  12  13
BRANCH  12  16
ATOM     16  C   UNL     1     -16.297  -4.396   1.196  1.00  0.00     0.022 C 
BRANCH  16  17
ATOM     17  C   UNL     1     -17.145  -5.665   1.035  1.00  0.00     0.002 C 
BRANCH  17  18
ATOM     18  C   UNL     1     -16.611  -6.894   1.769  1.00  0.00     0.000 C 
BRANCH  18  19
ATOM     19  C   UNL     1     -15.606  -7.720   0.956  1.00  0.00    -0.000 C 
BRANCH  19  20
ATOM     20  C   UNL     1     -14.906  -8.839   1.732  1.00  0.00    -0.000 C 
BRANCH  20  21
ATOM     21  C   UNL     1     -13.724  -9.446   0.972  1.00  0.00    -0.003 C 
ATOM     22  C   UNL     1     -14.042  -9.618  -0.505  1.00  0.00     0.004 C 
ENDBRANCH  20  21
ENDBRANCH  19  20
ENDBRANCH  18  19
ENDBRANCH  17  18
ENDBRANCH  16  17
ENDBRANCH  12  16
ENDBRANCH   9  12
ENDBRANCH   6   9
ENDBRANCH   3   5
ENDBRANCH   2   3
BRANCH   2  23
ATOM     23  N   UNL     1     -15.344  -8.364   5.762  1.00  0.00    -0.332 N 
ATOM     24  C   UNL     1     -16.353  -9.219   5.155  1.00  0.00     0.147 C 
BRANCH  23  25
ATOM     25  C   UNL     1     -14.545  -9.006   6.842  1.00  0.00     0.174 C 
BRANCH  25  26
ATOM     26  C   UNL     1     -13.797  -7.981   7.727  1.00  0.00     0.038 C 
BRANCH  26  27
ATOM     27  C   UNL     1     -14.624  -7.261   8.816  1.00  0.00    -0.015 C 
ATOM     28  C   UNL     1     -15.473  -8.228   9.641  1.00  0.00     0.007 C 
ATOM     29  C   UNL     1     -13.784  -6.371   9.728  1.00  0.00     0.007 C 
ENDBRANCH  26  27
ENDBRANCH  25  26
BRANCH  25  30
ATOM     30  C   UNL     1     -13.629 -10.100   6.248  1.00  0.00     0.243 C 
ATOM     31  O   UNL     1     -13.322 -11.107   6.885  1.00  0.00    -0.273 OA
ATOM     32  N   UNL     1     -13.180  -9.870   4.973  1.00  0.00    -0.342 N 
ATOM     33  H   UNL     1     -13.591  -9.085   4.460  1.00  0.00     0.164 HD
BRANCH  32  34
ATOM     34  C   UNL     1     -12.282 -10.784   4.262  1.00  0.00     0.175 C 
BRANCH  34  35
ATOM     35  C   UNL     1     -10.957 -10.966   5.018  1.00  0.00     0.070 C 
BRANCH  35  36
ATOM     36  C   UNL     1      -9.760 -11.015   4.096  1.00  0.00    -0.045 A 
ATOM     37  C   UNL     1      -9.943 -10.980   2.705  1.00  0.00     0.007 A 
ATOM     38  C   UNL     1      -8.460 -11.119   4.610  1.00  0.00     0.007 A 
ATOM     39  C   UNL     1      -8.845 -11.039   1.846  1.00  0.00     0.046 A 
ATOM     40  C   UNL     1      -7.361 -11.179   3.750  1.00  0.00     0.046 A 
ATOM     41  C   UNL     1      -7.564 -11.137   2.375  1.00  0.00     0.115 A 
BRANCH  41  42
ATOM     42  O   UNL     1      -6.518 -11.194   1.501  1.00  0.00    -0.508 OA
ATOM     43  H   UNL     1      -6.521 -10.382   0.969  1.00  0.00     0.293 HD
ENDBRANCH  41  42
ENDBRANCH  35  36
ENDBRANCH  34  35
BRANCH  34  44
ATOM     44  C   UNL     1     -13.023 -12.125   4.064  1.00  0.00     0.243 C 
ATOM     45  O   UNL     1     -13.967 -12.290   3.297  1.00  0.00    -0.273 OA
ATOM     46  N   UNL     1     -12.612 -13.113   4.934  1.00  0.00    -0.341 N 
ATOM     47  H   UNL     1     -11.905 -12.894   5.632  1.00  0.00     0.164 HD
BRANCH  46  48
ATOM     48  C   UNL     1     -13.214 -14.447   4.982  1.00  0.00     0.196 C 
BRANCH  48  49
ATOM     49  C   UNL     1     -12.139 -15.547   4.999  1.00  0.00     0.072 C 
BRANCH  49  50
ATOM     50  C   UNL     1     -10.971 -15.232   4.093  1.00  0.00    -0.045 A 
ATOM     51  C   UNL     1     -11.148 -15.224   2.701  1.00  0.00     0.007 A 
ATOM     52  C   UNL     1      -9.700 -14.968   4.620  1.00  0.00     0.007 A 
ATOM     53  C   UNL     1     -10.075 -14.948   1.854  1.00  0.00     0.046 A 
ATOM     54  C   UNL     1      -8.625 -14.693   3.772  1.00  0.00     0.046 A 
ATOM     55  C   UNL     1      -8.822 -14.685   2.395  1.00  0.00     0.115 A 
BRANCH  55  56
ATOM     56  O   UNL     1      -7.799 -14.422   1.533  1.00  0.00    -0.508 OA
ATOM     57  H   UNL     1      -7.111 -13.935   2.014  1.00  0.00     0.293 HD
ENDBRANCH  55  56
ENDBRANCH  49  50
ENDBRANCH  48  49
BRANCH  48  58
ATOM     58  C   UNL     1     -14.084 -14.558   6.242  1.00  0.00     0.326 C 
ATOM     59  O   UNL     1     -15.302 -14.612   6.297  1.00  0.00    -0.250 OA
BRANCH  58  60
ATOM     60  O   UNL     1     -13.366 -14.610   7.392  1.00  0.00    -0.480 OA
ATOM     61  H   UNL     1     -13.325 -15.571   7.590  1.00  0.00     0.296 HD
ENDBRANCH  58  60
ENDBRANCH  48  58
ENDBRANCH  46  48
ENDBRANCH  34  44
ENDBRANCH  32  34
ENDBRANCH  25  30
ENDBRANCH  23  25
ENDBRANCH   2  23
TORSDOF 28
ENDMDL
MODEL 44
REMARK VINA RESULT:    -6.751      3.877      8.168
REMARK INTER + INTRA:         -21.479
REMARK INTER:                 -17.389
REMARK INTRA:                  -4.090
REMARK UNBOUND:                -4.665
REMARK SMILES CCCCCCC[C@H](N)[C@H](O)C(=O)N[C@H](C)C(=O)N(C)[C@H](CC(C)C)C(=O)N[C@@H](Cc1ccc(O)cc1)C(=O)N[C@@H](Cc1ccc(O)cc1)C(=O)O
REMARK SMILES IDX 18 1 17 2 15 3 16 4 14 5 12 6 13 7 10 9 11 10 8 12 9 13 7 16
REMARK SMILES IDX 6 17 5 18 4 19 3 20 2 21 1 22 19 23 20 24 21 25 22 26 23 27
REMARK SMILES IDX 24 28 25 29 26 30 27 31 28 32 29 34 30 35 31 36 32 37 37 38
REMARK SMILES IDX 33 39 36 40 34 41 35 42 38 44 39 45 40 46 41 48 42 49 43 50
REMARK SMILES IDX 44 51 49 52 45 53 48 54 46 55 47 56 50 58 51 59 52 60
REMARK H PARENT 14 8 11 11 9 14 9 15 28 33 35 43 40 47 47 57 52 61
ROOT
ATOM      1  O   UNL     1     -12.758 -11.290   2.150  1.00  0.00    -0.272 OA
ATOM      2  C   UNL     1     -12.322 -12.248   1.494  1.00  0.00     0.245 C 
ENDROOT
BRANCH   2   3
ATOM      3  C   UNL     1     -12.171 -12.088  -0.039  1.00  0.00     0.168 C 
ATOM      4  C   UNL     1     -12.951 -10.877  -0.537  1.00  0.00     0.041 C 
BRANCH   3   5
ATOM      5  N   UNL     1     -10.798 -12.085  -0.520  1.00  0.00    -0.342 N 
ATOM      6  C   UNL     1     -10.322 -13.061  -1.370  1.00  0.00     0.251 C 
ATOM      7  O   UNL     1     -10.994 -14.016  -1.747  1.00  0.00    -0.272 OA
ATOM      8  H   UNL     1     -10.136 -11.362  -0.248  1.00  0.00     0.164 HD
BRANCH   6   9
ATOM      9  C   UNL     1      -8.893 -12.778  -1.860  1.00  0.00     0.219 C 
BRANCH   9  10
ATOM     10  O   UNL     1      -7.902 -13.503  -1.122  1.00  0.00    -0.382 OA
ATOM     11  H   UNL     1      -8.089 -13.264  -0.187  1.00  0.00     0.211 HD
ENDBRANCH   9  10
BRANCH   9  12
ATOM     12  C   UNL     1      -8.716 -13.001  -3.385  1.00  0.00     0.089 C 
BRANCH  12  13
ATOM     13  N   UNL     1      -8.084 -11.793  -3.963  1.00  0.00    -0.325 NA
ATOM     14  H   UNL     1      -7.253 -11.555  -3.418  1.00  0.00     0.119 HD
ATOM     15  H   UNL     1      -8.717 -10.999  -3.845  1.00  0.00     0.119 HD
ENDBRANCH  12  13
BRANCH  12  16
ATOM     16  C   UNL     1      -7.926 -14.265  -3.798  1.00  0.00     0.022 C 
BRANCH  16  17
ATOM     17  C   UNL     1      -8.679 -15.589  -3.983  1.00  0.00     0.002 C 
BRANCH  17  18
ATOM     18  C   UNL     1      -9.969 -15.489  -4.794  1.00  0.00     0.000 C 
BRANCH  18  19
ATOM     19  C   UNL     1      -9.750 -15.432  -6.312  1.00  0.00    -0.000 C 
BRANCH  19  20
ATOM     20  C   UNL     1     -10.632 -14.427  -7.058  1.00  0.00    -0.000 C 
BRANCH  20  21
ATOM     21  C   UNL     1      -9.857 -13.595  -8.084  1.00  0.00    -0.003 C 
ATOM     22  C   UNL     1      -9.113 -12.448  -7.418  1.00  0.00     0.004 C 
ENDBRANCH  20  21
ENDBRANCH  19  20
ENDBRANCH  18  19
ENDBRANCH  17  18
ENDBRANCH  16  17
ENDBRANCH  12  16
ENDBRANCH   9  12
ENDBRANCH   6   9
ENDBRANCH   3   5
ENDBRANCH   2   3
BRANCH   2  23
ATOM     23  N   UNL     1     -11.868 -13.389   2.148  1.00  0.00    -0.332 N 
ATOM     24  C   UNL     1     -11.776 -14.708   1.539  1.00  0.00     0.147 C 
BRANCH  23  25
ATOM     25  C   UNL     1     -11.308 -13.294   3.524  1.00  0.00     0.174 C 
BRANCH  25  26
ATOM     26  C   UNL     1     -10.110 -14.245   3.754  1.00  0.00     0.038 C 
BRANCH  26  27
ATOM     27  C   UNL     1      -8.702 -13.609   3.759  1.00  0.00    -0.015 C 
ATOM     28  C   UNL     1      -7.942 -13.861   2.457  1.00  0.00     0.007 C 
ATOM     29  C   UNL     1      -8.709 -12.120   4.097  1.00  0.00     0.007 C 
ENDBRANCH  26  27
ENDBRANCH  25  26
BRANCH  25  30
ATOM     30  C   UNL     1     -12.436 -13.451   4.569  1.00  0.00     0.243 C 
ATOM     31  O   UNL     1     -12.799 -14.555   4.973  1.00  0.00    -0.273 OA
ATOM     32  N   UNL     1     -13.006 -12.283   5.007  1.00  0.00    -0.342 N 
ATOM     33  H   UNL     1     -12.557 -11.405   4.733  1.00  0.00     0.164 HD
BRANCH  32  34
ATOM     34  C   UNL     1     -14.106 -12.241   5.975  1.00  0.00     0.175 C 
BRANCH  34  35
ATOM     35  C   UNL     1     -13.652 -11.632   7.310  1.00  0.00     0.070 C 
BRANCH  35  36
ATOM     36  C   UNL     1     -12.147 -11.592   7.454  1.00  0.00    -0.045 A 
ATOM     37  C   UNL     1     -11.444 -12.757   7.798  1.00  0.00     0.007 A 
ATOM     38  C   UNL     1     -11.439 -10.398   7.270  1.00  0.00     0.007 A 
ATOM     39  C   UNL     1     -10.057 -12.727   7.946  1.00  0.00     0.046 A 
ATOM     40  C   UNL     1     -10.050 -10.367   7.420  1.00  0.00     0.046 A 
ATOM     41  C   UNL     1      -9.371 -11.534   7.755  1.00  0.00     0.115 A 
BRANCH  41  42
ATOM     42  O   UNL     1      -8.017 -11.547   7.913  1.00  0.00    -0.508 OA
ATOM     43  H   UNL     1      -7.821 -11.698   8.852  1.00  0.00     0.293 HD
ENDBRANCH  41  42
ENDBRANCH  35  36
ENDBRANCH  34  35
BRANCH  34  44
ATOM     44  C   UNL     1     -15.270 -11.445   5.343  1.00  0.00     0.243 C 
ATOM     45  O   UNL     1     -16.430 -11.477   5.743  1.00  0.00    -0.273 OA
ATOM     46  N   UNL     1     -14.916 -10.781   4.187  1.00  0.00    -0.341 N 
ATOM     47  H   UNL     1     -13.969 -10.880   3.831  1.00  0.00     0.164 HD
BRANCH  46  48
ATOM     48  C   UNL     1     -15.865 -10.016   3.376  1.00  0.00     0.196 C 
BRANCH  48  49
ATOM     49  C   UNL     1     -15.172  -8.847   2.655  1.00  0.00     0.072 C 
BRANCH  49  50
ATOM     50  C   UNL     1     -15.727  -7.501   3.062  1.00  0.00    -0.045 A 
ATOM     51  C   UNL     1     -15.618  -7.073   4.393  1.00  0.00     0.007 A 
ATOM     52  C   UNL     1     -16.372  -6.677   2.131  1.00  0.00     0.007 A 
ATOM     53  C   UNL     1     -16.139  -5.839   4.782  1.00  0.00     0.046 A 
ATOM     54  C   UNL     1     -16.895  -5.442   2.521  1.00  0.00     0.046 A 
ATOM     55  C   UNL     1     -16.772  -5.032   3.844  1.00  0.00     0.115 A 
BRANCH  55  56
ATOM     56  O   UNL     1     -17.269  -3.835   4.265  1.00  0.00    -0.508 OA
ATOM     57  H   UNL     1     -18.017  -4.006   4.859  1.00  0.00     0.293 HD
ENDBRANCH  55  56
ENDBRANCH  49  50
ENDBRANCH  48  49
BRANCH  48  58
ATOM     58  C   UNL     1     -16.505 -10.951   2.341  1.00  0.00     0.326 C 
ATOM     59  O   UNL     1     -16.163 -11.115   1.181  1.00  0.00    -0.250 OA
BRANCH  58  60
ATOM     60  O   UNL     1     -17.554 -11.661   2.828  1.00  0.00    -0.480 OA
ATOM     61  H   UNL     1     -18.209 -10.966   3.059  1.00  0.00     0.296 HD
ENDBRANCH  58  60
ENDBRANCH  48  58
ENDBRANCH  46  48
ENDBRANCH  34  44
ENDBRANCH  32  34
ENDBRANCH  25  30
ENDBRANCH  23  25
ENDBRANCH   2  23
TORSDOF 28
ENDMDL
MODEL 45
REMARK VINA RESULT:    -6.736      4.056      8.997
REMARK INTER + INTRA:         -21.442
REMARK INTER:                 -16.533
REMARK INTRA:                  -4.908
REMARK UNBOUND:                -4.665
REMARK SMILES CCCCCCC[C@H](N)[C@H](O)C(=O)N[C@H](C)C(=O)N(C)[C@H](CC(C)C)C(=O)N[C@@H](Cc1ccc(O)cc1)C(=O)N[C@@H](Cc1ccc(O)cc1)C(=O)O
REMARK SMILES IDX 18 1 17 2 15 3 16 4 14 5 12 6 13 7 10 9 11 10 8 12 9 13 7 16
REMARK SMILES IDX 6 17 5 18 4 19 3 20 2 21 1 22 19 23 20 24 21 25 22 26 23 27
REMARK SMILES IDX 24 28 25 29 26 30 27 31 28 32 29 34 30 35 31 36 32 37 37 38
REMARK SMILES IDX 33 39 36 40 34 41 35 42 38 44 39 45 40 46 41 48 42 49 43 50
REMARK SMILES IDX 44 51 49 52 45 53 48 54 46 55 47 56 50 58 51 59 52 60
REMARK H PARENT 14 8 11 11 9 14 9 15 28 33 35 43 40 47 47 57 52 61
ROOT
ATOM      1  O   UNL     1     -12.030 -12.108   1.182  1.00  0.00    -0.272 OA
ATOM      2  C   UNL     1     -12.674 -11.170   1.674  1.00  0.00     0.245 C 
ENDROOT
BRANCH   2   3
ATOM      3  C   UNL     1     -14.036 -10.793   1.040  1.00  0.00     0.168 C 
ATOM      4  C   UNL     1     -13.873 -10.472  -0.441  1.00  0.00     0.041 C 
BRANCH   3   5
ATOM      5  N   UNL     1     -15.104 -11.752   1.273  1.00  0.00    -0.342 N 
ATOM      6  C   UNL     1     -16.328 -11.370   1.781  1.00  0.00     0.251 C 
ATOM      7  O   UNL     1     -16.593 -10.219   2.111  1.00  0.00    -0.272 OA
ATOM      8  H   UNL     1     -14.990 -12.742   1.070  1.00  0.00     0.164 HD
BRANCH   6   9
ATOM      9  C   UNL     1     -17.346 -12.521   1.808  1.00  0.00     0.219 C 
BRANCH   9  10
ATOM     10  O   UNL     1     -17.480 -13.170   0.538  1.00  0.00    -0.382 OA
ATOM     11  H   UNL     1     -17.930 -12.497  -0.019  1.00  0.00     0.211 HD
ENDBRANCH   9  10
BRANCH   9  12
ATOM     12  C   UNL     1     -17.066 -13.556   2.929  1.00  0.00     0.089 C 
BRANCH  12  13
ATOM     13  N   UNL     1     -15.788 -14.240   2.623  1.00  0.00    -0.325 NA
ATOM     14  H   UNL     1     -15.011 -13.610   2.831  1.00  0.00     0.119 HD
ATOM     15  H   UNL     1     -15.734 -14.407   1.616  1.00  0.00     0.119 HD
ENDBRANCH  12  13
BRANCH  12  16
ATOM     16  C   UNL     1     -17.040 -13.002   4.373  1.00  0.00     0.022 C 
BRANCH  16  17
ATOM     17  C   UNL     1     -15.689 -12.823   5.080  1.00  0.00     0.002 C 
BRANCH  17  18
ATOM     18  C   UNL     1     -15.285 -11.373   5.340  1.00  0.00     0.000 C 
BRANCH  18  19
ATOM     19  C   UNL     1     -15.127 -11.026   6.827  1.00  0.00    -0.000 C 
BRANCH  19  20
ATOM     20  C   UNL     1     -14.630  -9.606   7.113  1.00  0.00    -0.000 C 
BRANCH  20  21
ATOM     21  C   UNL     1     -13.747  -9.520   8.361  1.00  0.00    -0.003 C 
ATOM     22  C   UNL     1     -13.831  -8.146   9.006  1.00  0.00     0.004 C 
ENDBRANCH  20  21
ENDBRANCH  19  20
ENDBRANCH  18  19
ENDBRANCH  17  18
ENDBRANCH  16  17
ENDBRANCH  12  16
ENDBRANCH   9  12
ENDBRANCH   6   9
ENDBRANCH   3   5
ENDBRANCH   2   3
BRANCH   2  23
ATOM     23  N   UNL     1     -12.230 -10.560   2.843  1.00  0.00    -0.332 N 
ATOM     24  C   UNL     1     -12.612  -9.223   3.273  1.00  0.00     0.147 C 
BRANCH  23  25
ATOM     25  C   UNL     1     -11.407 -11.322   3.822  1.00  0.00     0.174 C 
BRANCH  25  26
ATOM     26  C   UNL     1     -11.560 -10.802   5.271  1.00  0.00     0.038 C 
BRANCH  26  27
ATOM     27  C   UNL     1     -11.528 -11.857   6.400  1.00  0.00    -0.015 C 
ATOM     28  C   UNL     1     -12.012 -13.229   5.931  1.00  0.00     0.007 C 
ATOM     29  C   UNL     1     -10.169 -11.971   7.085  1.00  0.00     0.007 C 
ENDBRANCH  26  27
ENDBRANCH  25  26
BRANCH  25  30
ATOM     30  C   UNL     1      -9.940 -11.396   3.340  1.00  0.00     0.243 C 
ATOM     31  O   UNL     1      -9.131 -10.500   3.579  1.00  0.00    -0.273 OA
ATOM     32  N   UNL     1      -9.606 -12.518   2.625  1.00  0.00    -0.342 N 
ATOM     33  H   UNL     1     -10.290 -13.278   2.590  1.00  0.00     0.164 HD
BRANCH  32  34
ATOM     34  C   UNL     1      -8.270 -12.744   2.067  1.00  0.00     0.175 C 
BRANCH  34  35
ATOM     35  C   UNL     1      -7.843 -14.213   2.218  1.00  0.00     0.070 C 
BRANCH  35  36
ATOM     36  C   UNL     1      -8.868 -15.047   2.954  1.00  0.00    -0.045 A 
ATOM     37  C   UNL     1      -8.791 -15.182   4.348  1.00  0.00     0.007 A 
ATOM     38  C   UNL     1      -9.887 -15.711   2.259  1.00  0.00     0.007 A 
ATOM     39  C   UNL     1      -9.724 -15.961   5.035  1.00  0.00     0.046 A 
ATOM     40  C   UNL     1     -10.820 -16.492   2.946  1.00  0.00     0.046 A 
ATOM     41  C   UNL     1     -10.730 -16.609   4.329  1.00  0.00     0.115 A 
BRANCH  41  42
ATOM     42  O   UNL     1     -11.619 -17.362   5.036  1.00  0.00    -0.508 OA
ATOM     43  H   UNL     1     -11.120 -18.015   5.555  1.00  0.00     0.293 HD
ENDBRANCH  41  42
ENDBRANCH  35  36
ENDBRANCH  34  35
BRANCH  34  44
ATOM     44  C   UNL     1      -8.287 -12.297   0.588  1.00  0.00     0.243 C 
ATOM     45  O   UNL     1      -8.128 -11.140   0.211  1.00  0.00    -0.273 OA
ATOM     46  N   UNL     1      -8.633 -13.306  -0.286  1.00  0.00    -0.341 N 
ATOM     47  H   UNL     1      -8.870 -14.222   0.086  1.00  0.00     0.164 HD
BRANCH  46  48
ATOM     48  C   UNL     1      -8.781 -13.106  -1.730  1.00  0.00     0.196 C 
BRANCH  48  49
ATOM     49  C   UNL     1      -7.725 -13.901  -2.516  1.00  0.00     0.072 C 
BRANCH  49  50
ATOM     50  C   UNL     1      -7.370 -13.250  -3.835  1.00  0.00    -0.045 A 
ATOM     51  C   UNL     1      -8.114 -12.155  -4.296  1.00  0.00     0.007 A 
ATOM     52  C   UNL     1      -6.318 -13.739  -4.619  1.00  0.00     0.007 A 
ATOM     53  C   UNL     1      -7.805 -11.555  -5.517  1.00  0.00     0.046 A 
ATOM     54  C   UNL     1      -6.009 -13.140  -5.843  1.00  0.00     0.046 A 
ATOM     55  C   UNL     1      -6.755 -12.051  -6.280  1.00  0.00     0.115 A 
BRANCH  55  56
ATOM     56  O   UNL     1      -6.487 -11.438  -7.468  1.00  0.00    -0.508 OA
ATOM     57  H   UNL     1      -5.526 -11.331  -7.547  1.00  0.00     0.293 HD
ENDBRANCH  55  56
ENDBRANCH  49  50
ENDBRANCH  48  49
BRANCH  48  58
ATOM     58  C   UNL     1     -10.185 -13.555  -2.154  1.00  0.00     0.326 C 
ATOM     59  O   UNL     1     -10.480 -14.546  -2.804  1.00  0.00    -0.250 OA
BRANCH  58  60
ATOM     60  O   UNL     1     -11.172 -12.730  -1.721  1.00  0.00    -0.480 OA
ATOM     61  H   UNL     1     -11.417 -13.109  -0.849  1.00  0.00     0.296 HD
ENDBRANCH  58  60
ENDBRANCH  48  58
ENDBRANCH  46  48
ENDBRANCH  34  44
ENDBRANCH  32  34
ENDBRANCH  25  30
ENDBRANCH  23  25
ENDBRANCH   2  23
TORSDOF 28
ENDMDL
MODEL 46
REMARK VINA RESULT:    -6.698      3.068      4.962
REMARK INTER + INTRA:         -21.347
REMARK INTER:                 -16.780
REMARK INTRA:                  -4.566
REMARK UNBOUND:                -4.665
REMARK SMILES CCCCCCC[C@H](N)[C@H](O)C(=O)N[C@H](C)C(=O)N(C)[C@H](CC(C)C)C(=O)N[C@@H](Cc1ccc(O)cc1)C(=O)N[C@@H](Cc1ccc(O)cc1)C(=O)O
REMARK SMILES IDX 18 1 17 2 15 3 16 4 14 5 12 6 13 7 10 9 11 10 8 12 9 13 7 16
REMARK SMILES IDX 6 17 5 18 4 19 3 20 2 21 1 22 19 23 20 24 21 25 22 26 23 27
REMARK SMILES IDX 24 28 25 29 26 30 27 31 28 32 29 34 30 35 31 36 32 37 37 38
REMARK SMILES IDX 33 39 36 40 34 41 35 42 38 44 39 45 40 46 41 48 42 49 43 50
REMARK SMILES IDX 44 51 49 52 45 53 48 54 46 55 47 56 50 58 51 59 52 60
REMARK H PARENT 14 8 11 11 9 14 9 15 28 33 35 43 40 47 47 57 52 61
ROOT
ATOM      1  O   UNL     1     -13.215 -11.220   3.618  1.00  0.00    -0.272 OA
ATOM      2  C   UNL     1     -12.825 -11.838   2.616  1.00  0.00     0.245 C 
ENDROOT
BRANCH   2   3
ATOM      3  C   UNL     1     -13.579 -11.632   1.278  1.00  0.00     0.168 C 
ATOM      4  C   UNL     1     -14.124 -12.956   0.754  1.00  0.00     0.041 C 
BRANCH   3   5
ATOM      5  N   UNL     1     -14.601 -10.598   1.306  1.00  0.00    -0.342 N 
ATOM      6  C   UNL     1     -14.361  -9.323   0.839  1.00  0.00     0.251 C 
ATOM      7  O   UNL     1     -13.273  -8.954   0.409  1.00  0.00    -0.272 OA
ATOM      8  H   UNL     1     -15.534 -10.775   1.672  1.00  0.00     0.164 HD
BRANCH   6   9
ATOM      9  C   UNL     1     -15.621  -8.444   0.834  1.00  0.00     0.219 C 
BRANCH   9  10
ATOM     10  O   UNL     1     -16.789  -9.155   0.406  1.00  0.00    -0.382 OA
ATOM     11  H   UNL     1     -16.428  -9.988   0.032  1.00  0.00     0.211 HD
ENDBRANCH   9  10
BRANCH   9  12
ATOM     12  C   UNL     1     -15.874  -7.735   2.190  1.00  0.00     0.089 C 
BRANCH  12  13
ATOM     13  N   UNL     1     -14.635  -7.815   2.998  1.00  0.00    -0.325 NA
ATOM     14  H   UNL     1     -14.031  -7.024   2.765  1.00  0.00     0.119 HD
ATOM     15  H   UNL     1     -14.109  -8.645   2.715  1.00  0.00     0.119 HD
ENDBRANCH  12  13
BRANCH  12  16
ATOM     16  C   UNL     1     -16.361  -6.268   2.108  1.00  0.00     0.022 C 
BRANCH  16  17
ATOM     17  C   UNL     1     -17.505  -5.913   1.148  1.00  0.00     0.002 C 
BRANCH  17  18
ATOM     18  C   UNL     1     -17.619  -4.431   0.800  1.00  0.00     0.000 C 
BRANCH  18  19
ATOM     19  C   UNL     1     -16.427  -3.586   1.271  1.00  0.00    -0.000 C 
BRANCH  19  20
ATOM     20  C   UNL     1     -16.797  -2.273   1.968  1.00  0.00    -0.000 C 
BRANCH  20  21
ATOM     21  C   UNL     1     -17.582  -2.484   3.265  1.00  0.00    -0.003 C 
ATOM     22  C   UNL     1     -16.738  -3.185   4.318  1.00  0.00     0.004 C 
ENDBRANCH  20  21
ENDBRANCH  19  20
ENDBRANCH  18  19
ENDBRANCH  17  18
ENDBRANCH  16  17
ENDBRANCH  12  16
ENDBRANCH   9  12
ENDBRANCH   6   9
ENDBRANCH   3   5
ENDBRANCH   2   3
BRANCH   2  23
ATOM     23  N   UNL     1     -11.662 -12.598   2.676  1.00  0.00    -0.332 N 
ATOM     24  C   UNL     1     -10.379 -12.191   2.121  1.00  0.00     0.147 C 
BRANCH  23  25
ATOM     25  C   UNL     1     -11.633 -13.866   3.455  1.00  0.00     0.174 C 
BRANCH  25  26
ATOM     26  C   UNL     1     -12.987 -14.614   3.437  1.00  0.00     0.038 C 
BRANCH  26  27
ATOM     27  C   UNL     1     -12.935 -16.156   3.520  1.00  0.00    -0.015 C 
ATOM     28  C   UNL     1     -11.648 -16.731   2.930  1.00  0.00     0.007 C 
ATOM     29  C   UNL     1     -13.168 -16.697   4.929  1.00  0.00     0.007 C 
ENDBRANCH  26  27
ENDBRANCH  25  26
BRANCH  25  30
ATOM     30  C   UNL     1     -11.085 -13.605   4.877  1.00  0.00     0.243 C 
ATOM     31  O   UNL     1     -10.188 -14.291   5.364  1.00  0.00    -0.273 OA
ATOM     32  N   UNL     1     -11.670 -12.568   5.557  1.00  0.00    -0.342 N 
ATOM     33  H   UNL     1     -12.306 -11.959   5.036  1.00  0.00     0.164 HD
BRANCH  32  34
ATOM     34  C   UNL     1     -11.298 -12.194   6.924  1.00  0.00     0.175 C 
BRANCH  34  35
ATOM     35  C   UNL     1      -9.953 -11.451   6.953  1.00  0.00     0.070 C 
BRANCH  35  36
ATOM     36  C   UNL     1      -9.049 -11.923   8.070  1.00  0.00    -0.045 A 
ATOM     37  C   UNL     1      -8.365 -10.989   8.862  1.00  0.00     0.007 A 
ATOM     38  C   UNL     1      -8.863 -13.290   8.315  1.00  0.00     0.007 A 
ATOM     39  C   UNL     1      -7.517 -11.415   9.885  1.00  0.00     0.046 A 
ATOM     40  C   UNL     1      -8.013 -13.718   9.338  1.00  0.00     0.046 A 
ATOM     41  C   UNL     1      -7.349 -12.775  10.116  1.00  0.00     0.115 A 
BRANCH  41  42
ATOM     42  O   UNL     1      -6.510 -13.149  11.123  1.00  0.00    -0.508 OA
ATOM     43  H   UNL     1      -5.619 -13.259  10.752  1.00  0.00     0.293 HD
ENDBRANCH  41  42
ENDBRANCH  35  36
ENDBRANCH  34  35
BRANCH  34  44
ATOM     44  C   UNL     1     -12.442 -11.340   7.515  1.00  0.00     0.243 C 
ATOM     45  O   UNL     1     -13.072 -11.630   8.528  1.00  0.00    -0.273 OA
ATOM     46  N   UNL     1     -12.791 -10.267   6.723  1.00  0.00    -0.341 N 
ATOM     47  H   UNL     1     -12.317 -10.134   5.833  1.00  0.00     0.164 HD
BRANCH  46  48
ATOM     48  C   UNL     1     -13.892  -9.354   7.042  1.00  0.00     0.196 C 
BRANCH  48  49
ATOM     49  C   UNL     1     -15.197 -10.123   7.309  1.00  0.00     0.072 C 
BRANCH  49  50
ATOM     50  C   UNL     1     -15.683 -10.883   6.096  1.00  0.00    -0.045 A 
ATOM     51  C   UNL     1     -16.328 -10.199   5.054  1.00  0.00     0.007 A 
ATOM     52  C   UNL     1     -15.519 -12.271   6.001  1.00  0.00     0.007 A 
ATOM     53  C   UNL     1     -16.792 -10.892   3.936  1.00  0.00     0.046 A 
ATOM     54  C   UNL     1     -15.985 -12.964   4.882  1.00  0.00     0.046 A 
ATOM     55  C   UNL     1     -16.617 -12.268   3.858  1.00  0.00     0.115 A 
BRANCH  55  56
ATOM     56  O   UNL     1     -17.087 -12.907   2.749  1.00  0.00    -0.508 OA
ATOM     57  H   UNL     1     -18.055 -12.948   2.806  1.00  0.00     0.293 HD
ENDBRANCH  55  56
ENDBRANCH  49  50
ENDBRANCH  48  49
BRANCH  48  58
ATOM     58  C   UNL     1     -13.515  -8.533   8.283  1.00  0.00     0.326 C 
ATOM     59  O   UNL     1     -14.165  -8.401   9.307  1.00  0.00    -0.250 OA
BRANCH  58  60
ATOM     60  O   UNL     1     -12.310  -7.918   8.180  1.00  0.00    -0.480 OA
ATOM     61  H   UNL     1     -12.534  -6.966   8.269  1.00  0.00     0.296 HD
ENDBRANCH  58  60
ENDBRANCH  48  58
ENDBRANCH  46  48
ENDBRANCH  34  44
ENDBRANCH  32  34
ENDBRANCH  25  30
ENDBRANCH  23  25
ENDBRANCH   2  23
TORSDOF 28
ENDMDL
MODEL 47
REMARK VINA RESULT:    -6.696      2.829      6.790
REMARK INTER + INTRA:         -21.343
REMARK INTER:                 -17.441
REMARK INTRA:                  -3.902
REMARK UNBOUND:                -4.665
REMARK SMILES CCCCCCC[C@H](N)[C@H](O)C(=O)N[C@H](C)C(=O)N(C)[C@H](CC(C)C)C(=O)N[C@@H](Cc1ccc(O)cc1)C(=O)N[C@@H](Cc1ccc(O)cc1)C(=O)O
REMARK SMILES IDX 18 1 17 2 15 3 16 4 14 5 12 6 13 7 10 9 11 10 8 12 9 13 7 16
REMARK SMILES IDX 6 17 5 18 4 19 3 20 2 21 1 22 19 23 20 24 21 25 22 26 23 27
REMARK SMILES IDX 24 28 25 29 26 30 27 31 28 32 29 34 30 35 31 36 32 37 37 38
REMARK SMILES IDX 33 39 36 40 34 41 35 42 38 44 39 45 40 46 41 48 42 49 43 50
REMARK SMILES IDX 44 51 49 52 45 53 48 54 46 55 47 56 50 58 51 59 52 60
REMARK H PARENT 14 8 11 11 9 14 9 15 28 33 35 43 40 47 47 57 52 61
ROOT
ATOM      1  O   UNL     1     -14.956 -13.004   3.813  1.00  0.00    -0.272 OA
ATOM      2  C   UNL     1     -15.151 -12.365   2.768  1.00  0.00     0.245 C 
ENDROOT
BRANCH   2   3
ATOM      3  C   UNL     1     -16.213 -11.238   2.776  1.00  0.00     0.168 C 
ATOM      4  C   UNL     1     -16.996 -11.241   4.084  1.00  0.00     0.041 C 
BRANCH   3   5
ATOM      5  N   UNL     1     -15.703  -9.915   2.452  1.00  0.00    -0.342 N 
ATOM      6  C   UNL     1     -16.016  -9.284   1.267  1.00  0.00     0.251 C 
ATOM      7  O   UNL     1     -16.703  -9.795   0.389  1.00  0.00    -0.272 OA
ATOM      8  H   UNL     1     -15.094  -9.405   3.088  1.00  0.00     0.164 HD
BRANCH   6   9
ATOM      9  C   UNL     1     -15.486  -7.842   1.203  1.00  0.00     0.219 C 
BRANCH   9  10
ATOM     10  O   UNL     1     -15.108  -7.451  -0.122  1.00  0.00    -0.382 OA
ATOM     11  H   UNL     1     -15.363  -8.224  -0.673  1.00  0.00     0.211 HD
ENDBRANCH   9  10
BRANCH   9  12
ATOM     12  C   UNL     1     -16.457  -6.807   1.827  1.00  0.00     0.089 C 
BRANCH  12  13
ATOM     13  N   UNL     1     -15.806  -6.213   3.018  1.00  0.00    -0.325 NA
ATOM     14  H   UNL     1     -16.398  -5.467   3.387  1.00  0.00     0.119 HD
ATOM     15  H   UNL     1     -14.942  -5.750   2.726  1.00  0.00     0.119 HD
ENDBRANCH  12  13
BRANCH  12  16
ATOM     16  C   UNL     1     -16.956  -5.689   0.881  1.00  0.00     0.022 C 
BRANCH  16  17
ATOM     17  C   UNL     1     -18.450  -5.336   0.864  1.00  0.00     0.002 C 
BRANCH  17  18
ATOM     18  C   UNL     1     -18.782  -3.968   0.273  1.00  0.00     0.000 C 
BRANCH  18  19
ATOM     19  C   UNL     1     -19.467  -3.011   1.258  1.00  0.00    -0.000 C 
BRANCH  19  20
ATOM     20  C   UNL     1     -18.621  -1.813   1.696  1.00  0.00    -0.000 C 
BRANCH  20  21
ATOM     21  C   UNL     1     -17.137  -1.970   1.355  1.00  0.00    -0.003 C 
ATOM     22  C   UNL     1     -16.330  -2.398   2.571  1.00  0.00     0.004 C 
ENDBRANCH  20  21
ENDBRANCH  19  20
ENDBRANCH  18  19
ENDBRANCH  17  18
ENDBRANCH  16  17
ENDBRANCH  12  16
ENDBRANCH   9  12
ENDBRANCH   6   9
ENDBRANCH   3   5
ENDBRANCH   2   3
BRANCH   2  23
ATOM     23  N   UNL     1     -14.340 -12.583   1.659  1.00  0.00    -0.332 N 
ATOM     24  C   UNL     1     -14.617 -13.555   0.612  1.00  0.00     0.147 C 
BRANCH  23  25
ATOM     25  C   UNL     1     -13.162 -11.708   1.407  1.00  0.00     0.174 C 
BRANCH  25  26
ATOM     26  C   UNL     1     -12.107 -12.370   0.489  1.00  0.00     0.038 C 
BRANCH  26  27
ATOM     27  C   UNL     1     -11.264 -11.429  -0.400  1.00  0.00    -0.015 C 
ATOM     28  C   UNL     1     -10.112 -10.778   0.365  1.00  0.00     0.007 C 
ATOM     29  C   UNL     1     -10.753 -12.095  -1.675  1.00  0.00     0.007 C 
ENDBRANCH  26  27
ENDBRANCH  25  26
BRANCH  25  30
ATOM     30  C   UNL     1     -12.586 -11.192   2.745  1.00  0.00     0.243 C 
ATOM     31  O   UNL     1     -12.700 -10.017   3.091  1.00  0.00    -0.273 OA
ATOM     32  N   UNL     1     -11.939 -12.126   3.512  1.00  0.00    -0.342 N 
ATOM     33  H   UNL     1     -12.009 -13.106   3.225  1.00  0.00     0.164 HD
BRANCH  32  34
ATOM     34  C   UNL     1     -11.308 -11.811   4.796  1.00  0.00     0.175 C 
BRANCH  34  35
ATOM     35  C   UNL     1     -12.122 -12.373   5.972  1.00  0.00     0.070 C 
BRANCH  35  36
ATOM     36  C   UNL     1     -12.964 -11.320   6.656  1.00  0.00    -0.045 A 
ATOM     37  C   UNL     1     -12.347 -10.232   7.292  1.00  0.00     0.007 A 
ATOM     38  C   UNL     1     -14.361 -11.424   6.686  1.00  0.00     0.007 A 
ATOM     39  C   UNL     1     -13.114  -9.263   7.938  1.00  0.00     0.046 A 
ATOM     40  C   UNL     1     -15.130 -10.454   7.334  1.00  0.00     0.046 A 
ATOM     41  C   UNL     1     -14.499  -9.381   7.953  1.00  0.00     0.115 A 
BRANCH  41  42
ATOM     42  O   UNL     1     -15.212  -8.414   8.598  1.00  0.00    -0.508 OA
ATOM     43  H   UNL     1     -16.149  -8.670   8.591  1.00  0.00     0.293 HD
ENDBRANCH  41  42
ENDBRANCH  35  36
ENDBRANCH  34  35
BRANCH  34  44
ATOM     44  C   UNL     1      -9.867 -12.371   4.772  1.00  0.00     0.243 C 
ATOM     45  O   UNL     1      -8.866 -11.723   5.064  1.00  0.00    -0.273 OA
ATOM     46  N   UNL     1      -9.784 -13.649   4.261  1.00  0.00    -0.341 N 
ATOM     47  H   UNL     1     -10.629 -14.102   3.923  1.00  0.00     0.164 HD
BRANCH  46  48
ATOM     48  C   UNL     1      -8.518 -14.362   4.077  1.00  0.00     0.196 C 
BRANCH  48  49
ATOM     49  C   UNL     1      -8.515 -15.702   4.831  1.00  0.00     0.072 C 
BRANCH  49  50
ATOM     50  C   UNL     1      -9.706 -15.855   5.749  1.00  0.00    -0.045 A 
ATOM     51  C   UNL     1     -10.849 -16.535   5.303  1.00  0.00     0.007 A 
ATOM     52  C   UNL     1      -9.698 -15.309   7.039  1.00  0.00     0.007 A 
ATOM     53  C   UNL     1     -11.959 -16.672   6.136  1.00  0.00     0.046 A 
ATOM     54  C   UNL     1     -10.810 -15.445   7.873  1.00  0.00     0.046 A 
ATOM     55  C   UNL     1     -11.932 -16.126   7.414  1.00  0.00     0.115 A 
BRANCH  55  56
ATOM     56  O   UNL     1     -13.038 -16.280   8.196  1.00  0.00    -0.508 OA
ATOM     57  H   UNL     1     -13.571 -17.006   7.834  1.00  0.00     0.293 HD
ENDBRANCH  55  56
ENDBRANCH  49  50
ENDBRANCH  48  49
BRANCH  48  58
ATOM     58  C   UNL     1      -8.300 -14.614   2.578  1.00  0.00     0.326 C 
ATOM     59  O   UNL     1      -9.105 -15.065   1.780  1.00  0.00    -0.250 OA
BRANCH  58  60
ATOM     60  O   UNL     1      -7.062 -14.266   2.145  1.00  0.00    -0.480 OA
ATOM     61  H   UNL     1      -6.766 -15.059   1.647  1.00  0.00     0.296 HD
ENDBRANCH  58  60
ENDBRANCH  48  58
ENDBRANCH  46  48
ENDBRANCH  34  44
ENDBRANCH  32  34
ENDBRANCH  25  30
ENDBRANCH  23  25
ENDBRANCH   2  23
TORSDOF 28
ENDMDL
MODEL 48
REMARK VINA RESULT:    -6.687      3.958      7.759
REMARK INTER + INTRA:         -21.321
REMARK INTER:                 -17.769
REMARK INTRA:                  -3.552
REMARK UNBOUND:                -4.665
REMARK SMILES CCCCCCC[C@H](N)[C@H](O)C(=O)N[C@H](C)C(=O)N(C)[C@H](CC(C)C)C(=O)N[C@@H](Cc1ccc(O)cc1)C(=O)N[C@@H](Cc1ccc(O)cc1)C(=O)O
REMARK SMILES IDX 18 1 17 2 15 3 16 4 14 5 12 6 13 7 10 9 11 10 8 12 9 13 7 16
REMARK SMILES IDX 6 17 5 18 4 19 3 20 2 21 1 22 19 23 20 24 21 25 22 26 23 27
REMARK SMILES IDX 24 28 25 29 26 30 27 31 28 32 29 34 30 35 31 36 32 37 37 38
REMARK SMILES IDX 33 39 36 40 34 41 35 42 38 44 39 45 40 46 41 48 42 49 43 50
REMARK SMILES IDX 44 51 49 52 45 53 48 54 46 55 47 56 50 58 51 59 52 60
REMARK H PARENT 14 8 11 11 9 14 9 15 28 33 35 43 40 47 47 57 52 61
ROOT
ATOM      1  O   UNL     1     -12.480 -10.527   2.375  1.00  0.00    -0.272 OA
ATOM      2  C   UNL     1     -12.577 -11.626   1.809  1.00  0.00     0.245 C 
ENDROOT
BRANCH   2   3
ATOM      3  C   UNL     1     -12.518 -11.670   0.262  1.00  0.00     0.168 C 
ATOM      4  C   UNL     1     -13.309 -10.515  -0.344  1.00  0.00     0.041 C 
BRANCH   3   5
ATOM      5  N   UNL     1     -11.178 -11.761  -0.297  1.00  0.00    -0.342 N 
ATOM      6  C   UNL     1     -10.749 -12.879  -0.981  1.00  0.00     0.251 C 
ATOM      7  O   UNL     1     -11.436 -13.883  -1.134  1.00  0.00    -0.272 OA
ATOM      8  H   UNL     1     -10.506 -11.004  -0.203  1.00  0.00     0.164 HD
BRANCH   6   9
ATOM      9  C   UNL     1      -9.355 -12.697  -1.602  1.00  0.00     0.219 C 
BRANCH   9  10
ATOM     10  O   UNL     1      -8.570 -13.894  -1.559  1.00  0.00    -0.382 OA
ATOM     11  H   UNL     1      -9.218 -14.586  -1.302  1.00  0.00     0.211 HD
ENDBRANCH   9  10
BRANCH   9  12
ATOM     12  C   UNL     1      -9.400 -12.119  -3.041  1.00  0.00     0.089 C 
BRANCH  12  13
ATOM     13  N   UNL     1      -8.746 -10.791  -3.033  1.00  0.00    -0.325 NA
ATOM     14  H   UNL     1      -9.225 -10.176  -3.693  1.00  0.00     0.119 HD
ATOM     15  H   UNL     1      -7.796 -10.888  -3.399  1.00  0.00     0.119 HD
ENDBRANCH  12  13
BRANCH  12  16
ATOM     16  C   UNL     1      -8.785 -13.008  -4.148  1.00  0.00     0.022 C 
BRANCH  16  17
ATOM     17  C   UNL     1      -7.339 -12.751  -4.595  1.00  0.00     0.002 C 
BRANCH  17  18
ATOM     18  C   UNL     1      -7.110 -12.807  -6.103  1.00  0.00     0.000 C 
BRANCH  18  19
ATOM     19  C   UNL     1      -8.332 -12.395  -6.936  1.00  0.00    -0.000 C 
BRANCH  19  20
ATOM     20  C   UNL     1      -8.834 -13.453  -7.922  1.00  0.00    -0.000 C 
BRANCH  20  21
ATOM     21  C   UNL     1      -9.799 -12.889  -8.967  1.00  0.00    -0.003 C 
ATOM     22  C   UNL     1     -10.040 -11.402  -8.754  1.00  0.00     0.004 C 
ENDBRANCH  20  21
ENDBRANCH  19  20
ENDBRANCH  18  19
ENDBRANCH  17  18
ENDBRANCH  16  17
ENDBRANCH  12  16
ENDBRANCH   9  12
ENDBRANCH   6   9
ENDBRANCH   3   5
ENDBRANCH   2   3
BRANCH   2  23
ATOM     23  N   UNL     1     -12.613 -12.795   2.561  1.00  0.00    -0.332 N 
ATOM     24  C   UNL     1     -11.509 -13.737   2.677  1.00  0.00     0.147 C 
BRANCH  23  25
ATOM     25  C   UNL     1     -13.786 -13.096   3.426  1.00  0.00     0.174 C 
BRANCH  25  26
ATOM     26  C   UNL     1     -15.085 -12.413   2.938  1.00  0.00     0.038 C 
BRANCH  26  27
ATOM     27  C   UNL     1     -16.421 -13.048   3.385  1.00  0.00    -0.015 C 
ATOM     28  C   UNL     1     -16.997 -12.380   4.633  1.00  0.00     0.007 C 
ATOM     29  C   UNL     1     -17.467 -13.105   2.274  1.00  0.00     0.007 C 
ENDBRANCH  26  27
ENDBRANCH  25  26
BRANCH  25  30
ATOM     30  C   UNL     1     -13.447 -12.801   4.905  1.00  0.00     0.243 C 
ATOM     31  O   UNL     1     -13.528 -13.666   5.776  1.00  0.00    -0.273 OA
ATOM     32  N   UNL     1     -13.058 -11.515   5.180  1.00  0.00    -0.342 N 
ATOM     33  H   UNL     1     -12.879 -10.895   4.386  1.00  0.00     0.164 HD
BRANCH  32  34
ATOM     34  C   UNL     1     -12.725 -11.049   6.528  1.00  0.00     0.175 C 
BRANCH  34  35
ATOM     35  C   UNL     1     -11.301 -10.474   6.585  1.00  0.00     0.070 C 
BRANCH  35  36
ATOM     36  C   UNL     1     -10.352 -11.340   7.382  1.00  0.00    -0.045 A 
ATOM     37  C   UNL     1      -9.272 -10.756   8.062  1.00  0.00     0.007 A 
ATOM     38  C   UNL     1     -10.520 -12.729   7.437  1.00  0.00     0.007 A 
ATOM     39  C   UNL     1      -8.383 -11.548   8.789  1.00  0.00     0.046 A 
ATOM     40  C   UNL     1      -9.629 -13.523   8.163  1.00  0.00     0.046 A 
ATOM     41  C   UNL     1      -8.569 -12.924   8.835  1.00  0.00     0.115 A 
BRANCH  41  42
ATOM     42  O   UNL     1      -7.676 -13.662   9.554  1.00  0.00    -0.508 OA
ATOM     43  H   UNL     1      -8.155 -14.100  10.277  1.00  0.00     0.293 HD
ENDBRANCH  41  42
ENDBRANCH  35  36
ENDBRANCH  34  35
BRANCH  34  44
ATOM     44  C   UNL     1     -13.785 -10.007   6.950  1.00  0.00     0.243 C 
ATOM     45  O   UNL     1     -14.834 -10.280   7.528  1.00  0.00    -0.273 OA
ATOM     46  N   UNL     1     -13.512  -8.733   6.500  1.00  0.00    -0.341 N 
ATOM     47  H   UNL     1     -12.688  -8.578   5.924  1.00  0.00     0.164 HD
BRANCH  46  48
ATOM     48  C   UNL     1     -14.405  -7.593   6.718  1.00  0.00     0.196 C 
BRANCH  48  49
ATOM     49  C   UNL     1     -15.810  -7.866   6.155  1.00  0.00     0.072 C 
BRANCH  49  50
ATOM     50  C   UNL     1     -15.862  -7.764   4.647  1.00  0.00    -0.045 A 
ATOM     51  C   UNL     1     -15.676  -8.911   3.862  1.00  0.00     0.007 A 
ATOM     52  C   UNL     1     -16.073  -6.532   4.015  1.00  0.00     0.007 A 
ATOM     53  C   UNL     1     -15.709  -8.827   2.470  1.00  0.00     0.046 A 
ATOM     54  C   UNL     1     -16.104  -6.447   2.621  1.00  0.00     0.046 A 
ATOM     55  C   UNL     1     -15.923  -7.597   1.860  1.00  0.00     0.115 A 
BRANCH  55  56
ATOM     56  O   UNL     1     -15.946  -7.557   0.497  1.00  0.00    -0.508 OA
ATOM     57  H   UNL     1     -16.374  -8.366   0.175  1.00  0.00     0.293 HD
ENDBRANCH  55  56
ENDBRANCH  49  50
ENDBRANCH  48  49
BRANCH  48  58
ATOM     58  C   UNL     1     -14.500  -7.313   8.224  1.00  0.00     0.326 C 
ATOM     59  O   UNL     1     -13.601  -6.953   8.967  1.00  0.00    -0.250 OA
BRANCH  58  60
ATOM     60  O   UNL     1     -15.747  -7.490   8.730  1.00  0.00    -0.480 OA
ATOM     61  H   UNL     1     -16.216  -6.668   8.466  1.00  0.00     0.296 HD
ENDBRANCH  58  60
ENDBRANCH  48  58
ENDBRANCH  46  48
ENDBRANCH  34  44
ENDBRANCH  32  34
ENDBRANCH  25  30
ENDBRANCH  23  25
ENDBRANCH   2  23
TORSDOF 28
ENDMDL
MODEL 49
REMARK VINA RESULT:    -6.603      3.097      7.619
REMARK INTER + INTRA:         -21.112
REMARK INTER:                 -17.107
REMARK INTRA:                  -4.005
REMARK UNBOUND:                -4.665
REMARK SMILES CCCCCCC[C@H](N)[C@H](O)C(=O)N[C@H](C)C(=O)N(C)[C@H](CC(C)C)C(=O)N[C@@H](Cc1ccc(O)cc1)C(=O)N[C@@H](Cc1ccc(O)cc1)C(=O)O
REMARK SMILES IDX 18 1 17 2 15 3 16 4 14 5 12 6 13 7 10 9 11 10 8 12 9 13 7 16
REMARK SMILES IDX 6 17 5 18 4 19 3 20 2 21 1 22 19 23 20 24 21 25 22 26 23 27
REMARK SMILES IDX 24 28 25 29 26 30 27 31 28 32 29 34 30 35 31 36 32 37 37 38
REMARK SMILES IDX 33 39 36 40 34 41 35 42 38 44 39 45 40 46 41 48 42 49 43 50
REMARK SMILES IDX 44 51 49 52 45 53 48 54 46 55 47 56 50 58 51 59 52 60
REMARK H PARENT 14 8 11 11 9 14 9 15 28 33 35 43 40 47 47 57 52 61
ROOT
ATOM      1  O   UNL     1     -14.876 -13.089   3.720  1.00  0.00    -0.272 OA
ATOM      2  C   UNL     1     -15.135 -12.518   2.650  1.00  0.00     0.245 C 
ENDROOT
BRANCH   2   3
ATOM      3  C   UNL     1     -16.248 -11.440   2.636  1.00  0.00     0.168 C 
ATOM      4  C   UNL     1     -17.102 -11.527   3.896  1.00  0.00     0.041 C 
BRANCH   3   5
ATOM      5  N   UNL     1     -15.781 -10.084   2.391  1.00  0.00    -0.342 N 
ATOM      6  C   UNL     1     -16.020  -9.438   1.196  1.00  0.00     0.251 C 
ATOM      7  O   UNL     1     -16.597  -9.959   0.248  1.00  0.00    -0.272 OA
ATOM      8  H   UNL     1     -15.260  -9.561   3.091  1.00  0.00     0.164 HD
BRANCH   6   9
ATOM      9  C   UNL     1     -15.563  -7.970   1.214  1.00  0.00     0.219 C 
BRANCH   9  10
ATOM     10  O   UNL     1     -15.560  -7.377  -0.091  1.00  0.00    -0.382 OA
ATOM     11  H   UNL     1     -14.607  -7.214  -0.268  1.00  0.00     0.211 HD
ENDBRANCH   9  10
BRANCH   9  12
ATOM     12  C   UNL     1     -16.362  -7.095   2.214  1.00  0.00     0.089 C 
BRANCH  12  13
ATOM     13  N   UNL     1     -15.576  -6.976   3.463  1.00  0.00    -0.325 NA
ATOM     14  H   UNL     1     -15.834  -7.736   4.096  1.00  0.00     0.119 HD
ATOM     15  H   UNL     1     -15.852  -6.120   3.948  1.00  0.00     0.119 HD
ENDBRANCH  12  13
BRANCH  12  16
ATOM     16  C   UNL     1     -16.773  -5.691   1.709  1.00  0.00     0.022 C 
BRANCH  16  17
ATOM     17  C   UNL     1     -18.165  -5.496   1.093  1.00  0.00     0.002 C 
BRANCH  17  18
ATOM     18  C   UNL     1     -18.343  -4.207   0.295  1.00  0.00     0.000 C 
BRANCH  18  19
ATOM     19  C   UNL     1     -19.289  -3.192   0.949  1.00  0.00    -0.000 C 
BRANCH  19  20
ATOM     20  C   UNL     1     -18.607  -1.955   1.541  1.00  0.00    -0.000 C 
BRANCH  20  21
ATOM     21  C   UNL     1     -17.087  -1.964   1.360  1.00  0.00    -0.003 C 
ATOM     22  C   UNL     1     -16.375  -2.264   2.670  1.00  0.00     0.004 C 
ENDBRANCH  20  21
ENDBRANCH  19  20
ENDBRANCH  18  19
ENDBRANCH  17  18
ENDBRANCH  16  17
ENDBRANCH  12  16
ENDBRANCH   9  12
ENDBRANCH   6   9
ENDBRANCH   3   5
ENDBRANCH   2   3
BRANCH   2  23
ATOM     23  N   UNL     1     -14.354 -12.761   1.525  1.00  0.00    -0.332 N 
ATOM     24  C   UNL     1     -14.639 -13.779   0.526  1.00  0.00     0.147 C 
BRANCH  23  25
ATOM     25  C   UNL     1     -13.205 -11.871   1.203  1.00  0.00     0.174 C 
BRANCH  25  26
ATOM     26  C   UNL     1     -12.136 -12.562   0.325  1.00  0.00     0.038 C 
BRANCH  26  27
ATOM     27  C   UNL     1     -11.195 -11.644  -0.486  1.00  0.00    -0.015 C 
ATOM     28  C   UNL     1      -9.999 -11.161   0.334  1.00  0.00     0.007 C 
ATOM     29  C   UNL     1     -10.730 -12.262  -1.802  1.00  0.00     0.007 C 
ENDBRANCH  26  27
ENDBRANCH  25  26
BRANCH  25  30
ATOM     30  C   UNL     1     -12.637 -11.245   2.497  1.00  0.00     0.243 C 
ATOM     31  O   UNL     1     -12.756 -10.046   2.746  1.00  0.00    -0.273 OA
ATOM     32  N   UNL     1     -11.990 -12.111   3.341  1.00  0.00    -0.342 N 
ATOM     33  H   UNL     1     -12.056 -13.111   3.135  1.00  0.00     0.164 HD
BRANCH  32  34
ATOM     34  C   UNL     1     -11.367 -11.690   4.598  1.00  0.00     0.175 C 
BRANCH  34  35
ATOM     35  C   UNL     1     -12.223 -12.091   5.809  1.00  0.00     0.070 C 
BRANCH  35  36
ATOM     36  C   UNL     1     -12.979 -10.923   6.402  1.00  0.00    -0.045 A 
ATOM     37  C   UNL     1     -14.221 -10.546   5.868  1.00  0.00     0.007 A 
ATOM     38  C   UNL     1     -12.447 -10.191   7.472  1.00  0.00     0.007 A 
ATOM     39  C   UNL     1     -14.919  -9.462   6.400  1.00  0.00     0.046 A 
ATOM     40  C   UNL     1     -13.145  -9.105   8.004  1.00  0.00     0.046 A 
ATOM     41  C   UNL     1     -14.377  -8.751   7.464  1.00  0.00     0.115 A 
BRANCH  41  42
ATOM     42  O   UNL     1     -15.090  -7.696   7.952  1.00  0.00    -0.508 OA
ATOM     43  H   UNL     1     -14.760  -7.492   8.843  1.00  0.00     0.293 HD
ENDBRANCH  41  42
ENDBRANCH  35  36
ENDBRANCH  34  35
BRANCH  34  44
ATOM     44  C   UNL     1      -9.952 -12.308   4.662  1.00  0.00     0.243 C 
ATOM     45  O   UNL     1      -8.992 -11.788   5.222  1.00  0.00    -0.273 OA
ATOM     46  N   UNL     1      -9.821 -13.457   3.910  1.00  0.00    -0.341 N 
ATOM     47  H   UNL     1     -10.617 -13.786   3.368  1.00  0.00     0.164 HD
BRANCH  46  48
ATOM     48  C   UNL     1      -8.558 -14.184   3.762  1.00  0.00     0.196 C 
BRANCH  48  49
ATOM     49  C   UNL     1      -8.795 -15.698   3.639  1.00  0.00     0.072 C 
BRANCH  49  50
ATOM     50  C   UNL     1      -7.624 -16.513   4.142  1.00  0.00    -0.045 A 
ATOM     51  C   UNL     1      -6.850 -17.256   3.239  1.00  0.00     0.007 A 
ATOM     52  C   UNL     1      -7.309 -16.556   5.506  1.00  0.00     0.007 A 
ATOM     53  C   UNL     1      -5.776 -18.021   3.693  1.00  0.00     0.046 A 
ATOM     54  C   UNL     1      -6.235 -17.323   5.961  1.00  0.00     0.046 A 
ATOM     55  C   UNL     1      -5.476 -18.049   5.050  1.00  0.00     0.115 A 
BRANCH  55  56
ATOM     56  O   UNL     1      -4.420 -18.811   5.453  1.00  0.00    -0.508 OA
ATOM     57  H   UNL     1      -4.340 -18.737   6.417  1.00  0.00     0.293 HD
ENDBRANCH  55  56
ENDBRANCH  49  50
ENDBRANCH  48  49
BRANCH  48  58
ATOM     58  C   UNL     1      -7.832 -13.673   2.510  1.00  0.00     0.326 C 
ATOM     59  O   UNL     1      -7.716 -14.244   1.438  1.00  0.00    -0.250 OA
BRANCH  58  60
ATOM     60  O   UNL     1      -7.291 -12.438   2.664  1.00  0.00    -0.480 OA
ATOM     61  H   UNL     1      -6.586 -12.582   3.333  1.00  0.00     0.296 HD
ENDBRANCH  58  60
ENDBRANCH  48  58
ENDBRANCH  46  48
ENDBRANCH  34  44
ENDBRANCH  32  34
ENDBRANCH  25  30
ENDBRANCH  23  25
ENDBRANCH   2  23
TORSDOF 28
ENDMDL
MODEL 50
REMARK VINA RESULT:    -6.558      2.725      9.197
REMARK INTER + INTRA:         -21.000
REMARK INTER:                 -15.160
REMARK INTRA:                  -5.840
REMARK UNBOUND:                -4.665
REMARK SMILES CCCCCCC[C@H](N)[C@H](O)C(=O)N[C@H](C)C(=O)N(C)[C@H](CC(C)C)C(=O)N[C@@H](Cc1ccc(O)cc1)C(=O)N[C@@H](Cc1ccc(O)cc1)C(=O)O
REMARK SMILES IDX 18 1 17 2 15 3 16 4 14 5 12 6 13 7 10 9 11 10 8 12 9 13 7 16
REMARK SMILES IDX 6 17 5 18 4 19 3 20 2 21 1 22 19 23 20 24 21 25 22 26 23 27
REMARK SMILES IDX 24 28 25 29 26 30 27 31 28 32 29 34 30 35 31 36 32 37 37 38
REMARK SMILES IDX 33 39 36 40 34 41 35 42 38 44 39 45 40 46 41 48 42 49 43 50
REMARK SMILES IDX 44 51 49 52 45 53 48 54 46 55 47 56 50 58 51 59 52 60
REMARK H PARENT 14 8 11 11 9 14 9 15 28 33 35 43 40 47 47 57 52 61
ROOT
ATOM      1  O   UNL     1     -13.169 -11.980   0.297  1.00  0.00    -0.272 OA
ATOM      2  C   UNL     1     -14.197 -11.989   0.990  1.00  0.00     0.245 C 
ENDROOT
BRANCH   2   3
ATOM      3  C   UNL     1     -14.578 -13.294   1.733  1.00  0.00     0.168 C 
ATOM      4  C   UNL     1     -15.803 -13.942   1.097  1.00  0.00     0.041 C 
BRANCH   3   5
ATOM      5  N   UNL     1     -13.488 -14.242   1.901  1.00  0.00    -0.342 N 
ATOM      6  C   UNL     1     -12.797 -14.354   3.088  1.00  0.00     0.251 C 
ATOM      7  O   UNL     1     -13.013 -13.647   4.066  1.00  0.00    -0.272 OA
ATOM      8  H   UNL     1     -13.194 -14.859   1.147  1.00  0.00     0.164 HD
BRANCH   6   9
ATOM      9  C   UNL     1     -11.788 -15.515   3.081  1.00  0.00     0.219 C 
BRANCH   9  10
ATOM     10  O   UNL     1     -10.739 -15.341   4.042  1.00  0.00    -0.382 OA
ATOM     11  H   UNL     1     -10.940 -16.015   4.727  1.00  0.00     0.211 HD
ENDBRANCH   9  10
BRANCH   9  12
ATOM     12  C   UNL     1     -12.458 -16.904   3.243  1.00  0.00     0.089 C 
BRANCH  12  13
ATOM     13  N   UNL     1     -11.503 -17.939   2.785  1.00  0.00    -0.325 NA
ATOM     14  H   UNL     1     -11.691 -18.813   3.281  1.00  0.00     0.119 HD
ATOM     15  H   UNL     1     -10.559 -17.668   3.072  1.00  0.00     0.119 HD
ENDBRANCH  12  13
BRANCH  12  16
ATOM     16  C   UNL     1     -12.975 -17.247   4.661  1.00  0.00     0.022 C 
BRANCH  16  17
ATOM     17  C   UNL     1     -14.372 -17.861   4.818  1.00  0.00     0.002 C 
BRANCH  17  18
ATOM     18  C   UNL     1     -15.408 -16.948   5.471  1.00  0.00     0.000 C 
BRANCH  18  19
ATOM     19  C   UNL     1     -15.821 -15.752   4.603  1.00  0.00    -0.000 C 
BRANCH  19  20
ATOM     20  C   UNL     1     -16.018 -14.436   5.361  1.00  0.00    -0.000 C 
BRANCH  20  21
ATOM     21  C   UNL     1     -17.110 -13.551   4.754  1.00  0.00    -0.003 C 
ATOM     22  C   UNL     1     -16.651 -12.106   4.636  1.00  0.00     0.004 C 
ENDBRANCH  20  21
ENDBRANCH  19  20
ENDBRANCH  18  19
ENDBRANCH  17  18
ENDBRANCH  16  17
ENDBRANCH  12  16
ENDBRANCH   9  12
ENDBRANCH   6   9
ENDBRANCH   3   5
ENDBRANCH   2   3
BRANCH   2  23
ATOM     23  N   UNL     1     -14.914 -10.813   1.187  1.00  0.00    -0.332 N 
ATOM     24  C   UNL     1     -15.885 -10.271   0.248  1.00  0.00     0.147 C 
BRANCH  23  25
ATOM     25  C   UNL     1     -14.815 -10.080   2.479  1.00  0.00     0.174 C 
BRANCH  25  26
ATOM     26  C   UNL     1     -15.693  -8.808   2.518  1.00  0.00     0.038 C 
BRANCH  26  27
ATOM     27  C   UNL     1     -15.504  -7.863   3.726  1.00  0.00    -0.015 C 
ATOM     28  C   UNL     1     -16.099  -6.477   3.483  1.00  0.00     0.007 C 
ATOM     29  C   UNL     1     -16.019  -8.447   5.039  1.00  0.00     0.007 C 
ENDBRANCH  26  27
ENDBRANCH  25  26
BRANCH  25  30
ATOM     30  C   UNL     1     -13.332  -9.824   2.833  1.00  0.00     0.243 C 
ATOM     31  O   UNL     1     -12.663  -8.972   2.250  1.00  0.00    -0.273 OA
ATOM     32  N   UNL     1     -12.815 -10.610   3.830  1.00  0.00    -0.342 N 
ATOM     33  H   UNL     1     -13.468 -11.193   4.360  1.00  0.00     0.164 HD
BRANCH  32  34
ATOM     34  C   UNL     1     -11.423 -10.525   4.278  1.00  0.00     0.175 C 
BRANCH  34  35
ATOM     35  C   UNL     1     -11.289 -10.900   5.762  1.00  0.00     0.070 C 
BRANCH  35  36
ATOM     36  C   UNL     1     -12.494 -10.492   6.579  1.00  0.00    -0.045 A 
ATOM     37  C   UNL     1     -12.495  -9.267   7.263  1.00  0.00     0.007 A 
ATOM     38  C   UNL     1     -13.610 -11.332   6.684  1.00  0.00     0.007 A 
ATOM     39  C   UNL     1     -13.596  -8.887   8.031  1.00  0.00     0.046 A 
ATOM     40  C   UNL     1     -14.713 -10.953   7.454  1.00  0.00     0.046 A 
ATOM     41  C   UNL     1     -14.696  -9.732   8.120  1.00  0.00     0.115 A 
BRANCH  41  42
ATOM     42  O   UNL     1     -15.750  -9.326   8.882  1.00  0.00    -0.508 OA
ATOM     43  H   UNL     1     -15.406  -9.015   9.737  1.00  0.00     0.293 HD
ENDBRANCH  41  42
ENDBRANCH  35  36
ENDBRANCH  34  35
BRANCH  34  44
ATOM     44  C   UNL     1     -10.571 -11.443   3.371  1.00  0.00     0.243 C 
ATOM     45  O   UNL     1      -9.963 -12.435   3.764  1.00  0.00    -0.273 OA
ATOM     46  N   UNL     1     -10.442 -10.973   2.081  1.00  0.00    -0.341 N 
ATOM     47  H   UNL     1     -10.869 -10.084   1.834  1.00  0.00     0.164 HD
BRANCH  46  48
ATOM     48  C   UNL     1      -9.628 -11.636   1.060  1.00  0.00     0.196 C 
BRANCH  48  49
ATOM     49  C   UNL     1     -10.038 -11.196  -0.355  1.00  0.00     0.072 C 
BRANCH  49  50
ATOM     50  C   UNL     1      -9.946 -12.319  -1.363  1.00  0.00    -0.045 A 
ATOM     51  C   UNL     1     -10.536 -13.560  -1.082  1.00  0.00     0.007 A 
ATOM     52  C   UNL     1      -9.260 -12.148  -2.572  1.00  0.00     0.007 A 
ATOM     53  C   UNL     1     -10.446 -14.608  -1.999  1.00  0.00     0.046 A 
ATOM     54  C   UNL     1      -9.169 -13.198  -3.490  1.00  0.00     0.046 A 
ATOM     55  C   UNL     1      -9.765 -14.419  -3.195  1.00  0.00     0.115 A 
BRANCH  55  56
ATOM     56  O   UNL     1      -9.699 -15.469  -4.063  1.00  0.00    -0.508 OA
ATOM     57  H   UNL     1      -8.903 -15.365  -4.608  1.00  0.00     0.293 HD
ENDBRANCH  55  56
ENDBRANCH  49  50
ENDBRANCH  48  49
BRANCH  48  58
ATOM     58  C   UNL     1      -8.151 -11.293   1.299  1.00  0.00     0.326 C 
ATOM     59  O   UNL     1      -7.577 -10.256   1.008  1.00  0.00    -0.250 OA
BRANCH  58  60
ATOM     60  O   UNL     1      -7.458 -12.283   1.916  1.00  0.00    -0.480 OA
ATOM     61  H   UNL     1      -6.865 -11.795   2.528  1.00  0.00     0.296 HD
ENDBRANCH  58  60
ENDBRANCH  48  58
ENDBRANCH  46  48
ENDBRANCH  34  44
ENDBRANCH  32  34
ENDBRANCH  25  30
ENDBRANCH  23  25
ENDBRANCH   2  23
TORSDOF 28
ENDMDL
