MODEL 1
REMARK VINA RESULT:    -1.616      0.000      0.000
REMARK INTER + INTRA:          -3.923
REMARK INTER:                  -2.892
REMARK INTRA:                  -1.031
REMARK UNBOUND:                -1.031
REMARK SMILES CC[C@H](C)[C@H]1NC(=O)c2coc(n2)[C@H](C(C)C)NC(=O)[C@H]([C@@H](C)O)NC(=O)[C@H](C)NC(=O)c2csc1n2
REMARK SMILES IDX 11 1 13 2 12 3 9 4 10 5 7 6 6 7 8 8 5 10 36 11 35 12 34 13
REMARK SMILES IDX 37 14 33 15 31 16 32 17 30 18 28 20 29 21 3 23 4 24 2 25
REMARK SMILES IDX 1 26 14 27 18 28 19 29 20 30 21 32 25 33 26 34 27 35 22 38
REMARK SMILES IDX 23 39 24 40 15 42 16 43 17 44
REMARK H PARENT 6 9 30 19 18 31 25 36 24 41
REMARK Flexibility Score:   94.900
ROOT
ATOM      1  O   UNL     1       8.489  12.118 -10.375  1.00  0.00    -0.446 OA
ATOM      2  N   UNL     1       8.202   9.956 -10.944  1.00  0.00    -0.207 NA
ATOM      3  C   UNL     1       8.789  10.806 -10.121  1.00  0.00     0.217 A 
ATOM      4  C   UNL     1       7.445  10.759 -11.778  1.00  0.00     0.167 A 
ATOM      5  C   UNL     1       7.624  12.075 -11.426  1.00  0.00     0.231 A 
ENDROOT
BRANCH   4   6
ATOM      6  C   UNL     1       6.633  10.235 -12.862  1.00  0.00     0.273 C 
ATOM      7  N   UNL     1       5.292  10.400 -12.621  1.00  0.00    -0.341 N 
ATOM      8  O   UNL     1       7.098   9.689 -13.856  1.00  0.00    -0.267 OA
ATOM      9  H   UNL     1       5.052  10.786 -11.712  1.00  0.00     0.164 HD
BRANCH   7  10
ATOM     10  C   UNL     1       4.260   9.756 -13.410  1.00  0.00     0.145 C 
BRANCH  10  11
ATOM     11  C   UNL     1       4.044   8.363 -12.835  1.00  0.00     0.116 A 
ATOM     12  S   UNL     1       2.890   7.309 -13.560  1.00  0.00    -0.124 S 
ATOM     13  C   UNL     1       3.298   6.096 -12.428  1.00  0.00     0.101 A 
ATOM     14  N   UNL     1       4.695   7.862 -11.798  1.00  0.00    -0.234 NA
ATOM     15  C   UNL     1       4.281   6.547 -11.569  1.00  0.00     0.139 A 
BRANCH  15  16
ATOM     16  C   UNL     1       4.865   5.732 -10.502  1.00  0.00     0.271 C 
ATOM     17  O   UNL     1       4.508   4.581 -10.273  1.00  0.00    -0.267 OA
ATOM     18  N   UNL     1       5.849   6.382  -9.787  1.00  0.00    -0.339 N 
ATOM     19  H   UNL     1       5.975   7.368 -10.001  1.00  0.00     0.164 HD
BRANCH  18  20
ATOM     20  C   UNL     1       6.495   5.750  -8.645  1.00  0.00     0.168 CG0
ATOM     21  C   UNL     1       7.831   5.117  -9.041  1.00  0.00     0.041 C 
ATOM     22  G   UNL     1       6.764   6.733  -7.495  1.00  0.00     0.000 G0
ENDBRANCH  18  20
ENDBRANCH  15  16
ENDBRANCH  10  11
BRANCH  10  23
ATOM     23  C   UNL     1       2.951  10.587 -13.453  1.00  0.00     0.015 C 
ATOM     24  C   UNL     1       1.681   9.721 -13.507  1.00  0.00     0.010 C 
BRANCH  23  25
ATOM     25  C   UNL     1       2.828  11.573 -12.269  1.00  0.00     0.002 C 
ATOM     26  C   UNL     1       2.022  11.032 -11.096  1.00  0.00     0.004 C 
ENDBRANCH  23  25
ENDBRANCH  10  23
ENDBRANCH   7  10
ENDBRANCH   4   6
BRANCH   3  27
ATOM     27  C   UNL     1       9.755  10.478  -9.016  1.00  0.00     0.171 C 
BRANCH  27  28
ATOM     28  N   UNL     1       9.231   9.325  -8.291  1.00  0.00    -0.342 N 
ATOM     29  C   UNL     1       9.293   9.213  -6.920  1.00  0.00     0.245 C 
ATOM     30  O   UNL     1       9.783  10.083  -6.203  1.00  0.00    -0.273 OA
ATOM     31  H   UNL     1       8.709   8.618  -8.808  1.00  0.00     0.164 HD
BRANCH  29  32
ATOM     32  C   UNL     1       8.571   7.985  -6.326  1.00  0.00     0.200 C 
BRANCH  32  33
ATOM     33  N   UNL     1       8.106   7.142  -7.434  1.00  0.00    -0.340 N 
ATOM     34  C   UNL     1       6.788   6.745  -7.527  1.00  0.00     0.243 CG0
ATOM     35  O   UNL     1       5.963   7.022  -6.659  1.00  0.00    -0.273 OA
ATOM     36  H   UNL     1       8.770   6.872  -8.150  1.00  0.00     0.164 HD
ATOM     37  G   UNL     1       6.469   5.754  -8.659  1.00  0.00     0.000 G0
ENDBRANCH  32  33
BRANCH  32  38
ATOM     38  C   UNL     1       9.476   7.224  -5.329  1.00  0.00     0.143 C 
ATOM     39  C   UNL     1      10.627   6.470  -5.985  1.00  0.00     0.041 C 
BRANCH  38  40
ATOM     40  O   UNL     1      10.013   8.139  -4.354  1.00  0.00    -0.391 OA
ATOM     41  H   UNL     1       9.777   7.782  -3.477  1.00  0.00     0.211 HD
ENDBRANCH  38  40
ENDBRANCH  32  38
ENDBRANCH  29  32
ENDBRANCH  27  28
BRANCH  27  42
ATOM     42  C   UNL     1      11.241  10.279  -9.403  1.00  0.00     0.015 C 
ATOM     43  C   UNL     1      12.231  11.246  -8.744  1.00  0.00     0.010 C 
ATOM     44  C   UNL     1      11.697   8.830  -9.199  1.00  0.00     0.010 C 
ENDBRANCH  27  42
ENDBRANCH   3  27
TORSDOF 5
ENDMDL
MODEL 2
REMARK VINA RESULT:    -1.509      2.740      6.180
REMARK INTER + INTRA:          -3.731
REMARK INTER:                  -3.259
REMARK INTRA:                  -0.472
REMARK UNBOUND:                -1.031
REMARK SMILES CC[C@H](C)[C@H]1NC(=O)c2coc(n2)[C@H](C(C)C)NC(=O)[C@H]([C@@H](C)O)NC(=O)[C@H](C)NC(=O)c2csc1n2
REMARK SMILES IDX 11 1 13 2 12 3 9 4 10 5 7 6 6 7 8 8 5 10 36 11 35 12 34 13
REMARK SMILES IDX 37 14 33 15 31 16 32 17 30 18 28 20 29 21 3 23 4 24 2 25
REMARK SMILES IDX 1 26 14 27 18 28 19 29 20 30 21 32 25 33 26 34 27 35 22 38
REMARK SMILES IDX 23 39 24 40 15 42 16 43 17 44
REMARK H PARENT 6 9 30 19 18 31 25 36 24 41
REMARK Flexibility Score:   94.900
ROOT
ATOM      1  O   UNL     1       8.753   6.914  -7.036  1.00  0.00    -0.446 OA
ATOM      2  N   UNL     1       7.179   7.262  -8.611  1.00  0.00    -0.207 NA
ATOM      3  C   UNL     1       8.437   7.451  -8.256  1.00  0.00     0.217 A 
ATOM      4  C   UNL     1       6.638   6.531  -7.569  1.00  0.00     0.167 A 
ATOM      5  C   UNL     1       7.601   6.321  -6.613  1.00  0.00     0.231 A 
ENDROOT
BRANCH   4   6
ATOM      6  C   UNL     1       5.248   6.107  -7.534  1.00  0.00     0.273 C 
ATOM      7  N   UNL     1       5.125   4.751  -7.705  1.00  0.00    -0.341 N 
ATOM      8  O   UNL     1       4.308   6.879  -7.394  1.00  0.00    -0.267 OA
ATOM      9  H   UNL     1       5.987   4.251  -7.902  1.00  0.00     0.164 HD
BRANCH   7  10
ATOM     10  C   UNL     1       3.856   4.098  -7.958  1.00  0.00     0.145 C 
BRANCH  10  11
ATOM     11  C   UNL     1       3.536   4.269  -9.436  1.00  0.00     0.116 A 
ATOM     12  S   UNL     1       2.307   3.304 -10.162  1.00  0.00    -0.124 S 
ATOM     13  C   UNL     1       2.567   4.105 -11.649  1.00  0.00     0.101 A 
ATOM     14  N   UNL     1       4.127   5.134 -10.244  1.00  0.00    -0.234 NA
ATOM     15  C   UNL     1       3.561   5.056 -11.518  1.00  0.00     0.139 A 
BRANCH  15  16
ATOM     16  C   UNL     1       3.998   5.930 -12.610  1.00  0.00     0.271 C 
ATOM     17  O   UNL     1       4.394   5.500 -13.688  1.00  0.00    -0.267 OA
ATOM     18  N   UNL     1       3.918   7.272 -12.305  1.00  0.00    -0.339 N 
ATOM     19  H   UNL     1       3.681   7.496 -11.342  1.00  0.00     0.164 HD
BRANCH  18  20
ATOM     20  C   UNL     1       4.374   8.287 -13.245  1.00  0.00     0.168 CG0
ATOM     21  C   UNL     1       3.569   9.580 -13.103  1.00  0.00     0.041 C 
ATOM     22  G   UNL     1       5.861   8.638 -13.067  1.00  0.00     0.000 G0
ENDBRANCH  18  20
ENDBRANCH  15  16
ENDBRANCH  10  11
BRANCH  10  23
ATOM     23  C   UNL     1       3.867   2.608  -7.524  1.00  0.00     0.015 C 
ATOM     24  C   UNL     1       4.911   1.763  -8.274  1.00  0.00     0.010 C 
BRANCH  23  25
ATOM     25  C   UNL     1       4.084   2.429  -6.004  1.00  0.00     0.002 C 
ATOM     26  C   UNL     1       3.157   3.274  -5.143  1.00  0.00     0.004 C 
ENDBRANCH  23  25
ENDBRANCH  10  23
ENDBRANCH   7  10
ENDBRANCH   4   6
BRANCH   3  27
ATOM     27  C   UNL     1       9.489   8.215  -9.013  1.00  0.00     0.171 C 
BRANCH  27  28
ATOM     28  N   UNL     1       8.809   9.179  -9.871  1.00  0.00    -0.342 N 
ATOM     29  C   UNL     1       8.324   8.857 -11.119  1.00  0.00     0.245 C 
ATOM     30  O   UNL     1       8.414   7.727 -11.597  1.00  0.00    -0.273 OA
ATOM     31  H   UNL     1       8.596  10.103  -9.497  1.00  0.00     0.164 HD
BRANCH  29  32
ATOM     32  C   UNL     1       7.522   9.973 -11.823  1.00  0.00     0.200 C 
BRANCH  32  33
ATOM     33  N   UNL     1       6.152   9.490 -12.037  1.00  0.00    -0.340 N 
ATOM     34  C   UNL     1       5.852   8.624 -13.068  1.00  0.00     0.243 CG0
ATOM     35  O   UNL     1       6.698   8.270 -13.887  1.00  0.00    -0.273 OA
ATOM     36  H   UNL     1       5.427   9.790 -11.397  1.00  0.00     0.164 HD
ATOM     37  G   UNL     1       4.359   8.310 -13.261  1.00  0.00     0.000 G0
ENDBRANCH  32  33
BRANCH  32  38
ATOM     38  C   UNL     1       7.577  11.297 -11.026  1.00  0.00     0.143 C 
ATOM     39  C   UNL     1       8.921  12.012 -11.099  1.00  0.00     0.041 C 
BRANCH  38  40
ATOM     40  O   UNL     1       6.546  12.192 -11.487  1.00  0.00    -0.391 OA
ATOM     41  H   UNL     1       5.702  11.851 -11.134  1.00  0.00     0.211 HD
ENDBRANCH  38  40
ENDBRANCH  32  38
ENDBRANCH  29  32
ENDBRANCH  27  28
BRANCH  27  42
ATOM     42  C   UNL     1      10.618   8.881  -8.189  1.00  0.00     0.015 C 
ATOM     43  C   UNL     1      11.898   8.054  -8.032  1.00  0.00     0.010 C 
ATOM     44  C   UNL     1      10.952  10.284  -8.707  1.00  0.00     0.010 C 
ENDBRANCH  27  42
ENDBRANCH   3  27
TORSDOF 5
ENDMDL
MODEL 3
REMARK VINA RESULT:    -1.391      2.366      7.018
REMARK INTER + INTRA:          -3.521
REMARK INTER:                  -3.936
REMARK INTRA:                   0.415
REMARK UNBOUND:                -1.031
REMARK SMILES CC[C@H](C)[C@H]1NC(=O)c2coc(n2)[C@H](C(C)C)NC(=O)[C@H]([C@@H](C)O)NC(=O)[C@H](C)NC(=O)c2csc1n2
REMARK SMILES IDX 11 1 13 2 12 3 9 4 10 5 7 6 6 7 8 8 5 10 36 11 35 12 34 13
REMARK SMILES IDX 37 14 33 15 31 16 32 17 30 18 28 20 29 21 3 23 4 24 2 25
REMARK SMILES IDX 1 26 14 27 18 28 19 29 20 30 21 32 25 33 26 34 27 35 22 38
REMARK SMILES IDX 23 39 24 40 15 42 16 43 17 44
REMARK H PARENT 6 9 30 19 18 31 25 36 24 41
REMARK Flexibility Score:   94.900
ROOT
ATOM      1  O   UNL     1       7.429  11.087 -13.567  1.00  0.00    -0.446 OA
ATOM      2  N   UNL     1       6.493  11.012 -11.518  1.00  0.00    -0.207 NA
ATOM      3  C   UNL     1       6.286  10.973 -12.822  1.00  0.00     0.217 A 
ATOM      4  C   UNL     1       7.867  11.134 -11.396  1.00  0.00     0.167 A 
ATOM      5  C   UNL     1       8.431  11.178 -12.648  1.00  0.00     0.231 A 
ENDROOT
BRANCH   4   6
ATOM      6  C   UNL     1       8.545  11.228 -10.115  1.00  0.00     0.273 C 
ATOM      7  N   UNL     1       9.341  10.136  -9.878  1.00  0.00    -0.341 N 
ATOM      8  O   UNL     1       8.396  12.163  -9.337  1.00  0.00    -0.267 OA
ATOM      9  H   UNL     1       9.292   9.396 -10.573  1.00  0.00     0.164 HD
BRANCH   7  10
ATOM     10  C   UNL     1       9.932   9.853  -8.585  1.00  0.00     0.145 C 
BRANCH  10  11
ATOM     11  C   UNL     1       9.024   8.862  -7.871  1.00  0.00     0.116 A 
ATOM     12  S   UNL     1       8.948   8.860  -6.149  1.00  0.00    -0.124 S 
ATOM     13  C   UNL     1       7.788   7.606  -6.209  1.00  0.00     0.101 A 
ATOM     14  N   UNL     1       8.247   7.977  -8.472  1.00  0.00    -0.234 NA
ATOM     15  C   UNL     1       7.518   7.260  -7.519  1.00  0.00     0.139 A 
BRANCH  15  16
ATOM     16  C   UNL     1       6.546   6.235  -7.905  1.00  0.00     0.271 C 
ATOM     17  O   UNL     1       5.885   5.604  -7.087  1.00  0.00    -0.267 OA
ATOM     18  N   UNL     1       6.447   6.055  -9.269  1.00  0.00    -0.339 N 
ATOM     19  H   UNL     1       7.126   6.559  -9.834  1.00  0.00     0.164 HD
BRANCH  18  20
ATOM     20  C   UNL     1       5.580   5.030  -9.834  1.00  0.00     0.168 CG0
ATOM     21  C   UNL     1       4.317   4.843  -8.990  1.00  0.00     0.041 C 
ATOM     22  G   UNL     1       5.140   5.351 -11.272  1.00  0.00     0.000 G0
ENDBRANCH  18  20
ENDBRANCH  15  16
ENDBRANCH  10  11
BRANCH  10  23
ATOM     23  C   UNL     1      11.390   9.338  -8.707  1.00  0.00     0.015 C 
ATOM     24  C   UNL     1      12.444  10.440  -8.508  1.00  0.00     0.010 C 
BRANCH  23  25
ATOM     25  C   UNL     1      11.698   8.177  -7.735  1.00  0.00     0.002 C 
ATOM     26  C   UNL     1      12.706   7.171  -8.272  1.00  0.00     0.004 C 
ENDBRANCH  23  25
ENDBRANCH  10  23
ENDBRANCH   7  10
ENDBRANCH   4   6
BRANCH   3  27
ATOM     27  C   UNL     1       4.961  10.873 -13.527  1.00  0.00     0.171 C 
BRANCH  27  28
ATOM     28  N   UNL     1       4.423   9.540 -13.280  1.00  0.00    -0.342 N 
ATOM     29  C   UNL     1       5.200   8.403 -13.306  1.00  0.00     0.245 C 
ATOM     30  O   UNL     1       6.410   8.430 -13.525  1.00  0.00    -0.273 OA
ATOM     31  H   UNL     1       3.453   9.451 -12.979  1.00  0.00     0.164 HD
BRANCH  29  32
ATOM     32  C   UNL     1       4.480   7.102 -12.893  1.00  0.00     0.200 C 
BRANCH  32  33
ATOM     33  N   UNL     1       5.004   6.680 -11.588  1.00  0.00    -0.340 N 
ATOM     34  C   UNL     1       5.135   5.345 -11.267  1.00  0.00     0.243 CG0
ATOM     35  O   UNL     1       4.762   4.454 -12.028  1.00  0.00    -0.273 OA
ATOM     36  H   UNL     1       5.291   7.393 -10.927  1.00  0.00     0.164 HD
ATOM     37  G   UNL     1       5.565   5.046  -9.822  1.00  0.00     0.000 G0
ENDBRANCH  32  33
BRANCH  32  38
ATOM     38  C   UNL     1       2.944   7.280 -12.897  1.00  0.00     0.143 C 
ATOM     39  C   UNL     1       2.170   5.999 -13.185  1.00  0.00     0.041 C 
BRANCH  38  40
ATOM     40  O   UNL     1       2.506   7.816 -11.633  1.00  0.00    -0.391 OA
ATOM     41  H   UNL     1       1.673   8.294 -11.806  1.00  0.00     0.211 HD
ENDBRANCH  38  40
ENDBRANCH  32  38
ENDBRANCH  29  32
ENDBRANCH  27  28
BRANCH  27  42
ATOM     42  C   UNL     1       3.913  11.974 -13.234  1.00  0.00     0.015 C 
ATOM     43  C   UNL     1       2.535  11.761 -13.871  1.00  0.00     0.010 C 
ATOM     44  C   UNL     1       3.767  12.241 -11.732  1.00  0.00     0.010 C 
ENDBRANCH  27  42
ENDBRANCH   3  27
TORSDOF 5
ENDMDL
MODEL 4
REMARK VINA RESULT:    -1.219      2.596      7.282
REMARK INTER + INTRA:          -3.212
REMARK INTER:                  -2.133
REMARK INTRA:                  -1.079
REMARK UNBOUND:                -1.031
REMARK SMILES CC[C@H](C)[C@H]1NC(=O)c2coc(n2)[C@H](C(C)C)NC(=O)[C@H]([C@@H](C)O)NC(=O)[C@H](C)NC(=O)c2csc1n2
REMARK SMILES IDX 11 1 13 2 12 3 9 4 10 5 7 6 6 7 8 8 5 10 36 11 35 12 34 13
REMARK SMILES IDX 37 14 33 15 31 16 32 17 30 18 28 20 29 21 3 23 4 24 2 25
REMARK SMILES IDX 1 26 14 27 18 28 19 29 20 30 21 32 25 33 26 34 27 35 22 38
REMARK SMILES IDX 23 39 24 40 15 42 16 43 17 44
REMARK H PARENT 6 9 30 19 18 31 25 36 24 41
REMARK Flexibility Score:   94.900
ROOT
ATOM      1  O   UNL     1       6.405   8.300 -13.875  1.00  0.00    -0.446 OA
ATOM      2  N   UNL     1       6.259   8.223 -11.627  1.00  0.00    -0.207 NA
ATOM      3  C   UNL     1       5.749   7.816 -12.775  1.00  0.00     0.217 A 
ATOM      4  C   UNL     1       7.339   9.007 -11.995  1.00  0.00     0.167 A 
ATOM      5  C   UNL     1       7.422   9.049 -13.366  1.00  0.00     0.231 A 
ENDROOT
BRANCH   4   6
ATOM      6  C   UNL     1       8.194   9.681 -11.034  1.00  0.00     0.273 C 
ATOM      7  N   UNL     1       8.956   8.792 -10.319  1.00  0.00    -0.341 N 
ATOM      8  O   UNL     1       8.207  10.895 -10.873  1.00  0.00    -0.267 OA
ATOM      9  H   UNL     1       8.771   7.809 -10.497  1.00  0.00     0.164 HD
BRANCH   7  10
ATOM     10  C   UNL     1       9.708   9.166  -9.136  1.00  0.00     0.145 C 
BRANCH  10  11
ATOM     11  C   UNL     1       8.967   8.614  -7.927  1.00  0.00     0.116 A 
ATOM     12  S   UNL     1       9.048   9.448  -6.421  1.00  0.00    -0.124 S 
ATOM     13  C   UNL     1       8.011   8.280  -5.727  1.00  0.00     0.101 A 
ATOM     14  N   UNL     1       8.226   7.518  -7.927  1.00  0.00    -0.234 NA
ATOM     15  C   UNL     1       7.658   7.329  -6.664  1.00  0.00     0.139 A 
BRANCH  15  16
ATOM     16  C   UNL     1       6.757   6.208  -6.386  1.00  0.00     0.271 C 
ATOM     17  O   UNL     1       6.724   5.636  -5.302  1.00  0.00    -0.267 OA
ATOM     18  N   UNL     1       5.956   5.867  -7.455  1.00  0.00    -0.339 N 
ATOM     19  H   UNL     1       6.157   6.343  -8.330  1.00  0.00     0.164 HD
BRANCH  18  20
ATOM     20  C   UNL     1       5.045   4.733  -7.383  1.00  0.00     0.168 CG0
ATOM     21  C   UNL     1       3.602   5.191  -7.163  1.00  0.00     0.041 C 
ATOM     22  G   UNL     1       5.074   3.866  -8.652  1.00  0.00     0.000 G0
ENDBRANCH  18  20
ENDBRANCH  15  16
ENDBRANCH  10  11
BRANCH  10  23
ATOM     23  C   UNL     1      11.180   8.681  -9.200  1.00  0.00     0.015 C 
ATOM     24  C   UNL     1      12.202   9.800  -8.937  1.00  0.00     0.010 C 
BRANCH  23  25
ATOM     25  C   UNL     1      11.467   7.511  -8.231  1.00  0.00     0.002 C 
ATOM     26  C   UNL     1      11.992   7.950  -6.871  1.00  0.00     0.004 C 
ENDBRANCH  23  25
ENDBRANCH  10  23
ENDBRANCH   7  10
ENDBRANCH   4   6
BRANCH   3  27
ATOM     27  C   UNL     1       4.534   6.951 -12.971  1.00  0.00     0.171 C 
BRANCH  27  28
ATOM     28  N   UNL     1       4.550   5.918 -11.941  1.00  0.00    -0.342 N 
ATOM     29  C   UNL     1       4.158   4.619 -12.178  1.00  0.00     0.245 C 
ATOM     30  O   UNL     1       3.779   4.230 -13.282  1.00  0.00    -0.273 OA
ATOM     31  H   UNL     1       4.959   6.137 -11.033  1.00  0.00     0.164 HD
BRANCH  29  32
ATOM     32  C   UNL     1       4.367   3.642 -11.002  1.00  0.00     0.200 C 
BRANCH  32  33
ATOM     33  N   UNL     1       4.541   4.428  -9.775  1.00  0.00    -0.340 N 
ATOM     34  C   UNL     1       5.062   3.862  -8.630  1.00  0.00     0.243 CG0
ATOM     35  O   UNL     1       5.343   2.667  -8.566  1.00  0.00    -0.273 OA
ATOM     36  H   UNL     1       4.290   5.409  -9.788  1.00  0.00     0.164 HD
ATOM     37  G   UNL     1       5.061   4.760  -7.382  1.00  0.00     0.000 G0
ENDBRANCH  32  33
BRANCH  32  38
ATOM     38  C   UNL     1       3.211   2.619 -10.905  1.00  0.00     0.143 C 
ATOM     39  C   UNL     1       1.824   3.232 -11.059  1.00  0.00     0.041 C 
BRANCH  38  40
ATOM     40  O   UNL     1       3.380   1.588 -11.897  1.00  0.00    -0.391 OA
ATOM     41  H   UNL     1       2.907   1.890 -12.696  1.00  0.00     0.211 HD
ENDBRANCH  38  40
ENDBRANCH  32  38
ENDBRANCH  29  32
ENDBRANCH  27  28
BRANCH  27  42
ATOM     42  C   UNL     1       3.159   7.659 -13.046  1.00  0.00     0.015 C 
ATOM     43  C   UNL     1       2.065   7.076 -12.144  1.00  0.00     0.010 C 
ATOM     44  C   UNL     1       3.280   9.170 -12.825  1.00  0.00     0.010 C 
ENDBRANCH  27  42
ENDBRANCH   3  27
TORSDOF 5
ENDMDL
MODEL 5
REMARK VINA RESULT:     1.227      2.574      5.878
REMARK INTER + INTRA:           1.163
REMARK INTER:                  -2.332
REMARK INTRA:                   3.495
REMARK UNBOUND:                -1.031
REMARK SMILES CC[C@H](C)[C@H]1NC(=O)c2coc(n2)[C@H](C(C)C)NC(=O)[C@H]([C@@H](C)O)NC(=O)[C@H](C)NC(=O)c2csc1n2
REMARK SMILES IDX 11 1 13 2 12 3 9 4 10 5 7 6 6 7 8 8 5 10 36 11 35 12 34 13
REMARK SMILES IDX 37 14 33 15 31 16 32 17 30 18 28 20 29 21 3 23 4 24 2 25
REMARK SMILES IDX 1 26 14 27 18 28 19 29 20 30 21 32 25 33 26 34 27 35 22 38
REMARK SMILES IDX 23 39 24 40 15 42 16 43 17 44
REMARK H PARENT 6 9 30 19 18 31 25 36 24 41
REMARK Flexibility Score:   94.900
ROOT
ATOM      1  O   UNL     1       8.841   7.148  -6.087  1.00  0.00    -0.446 OA
ATOM      2  N   UNL     1       7.894   7.046  -8.130  1.00  0.00    -0.207 NA
ATOM      3  C   UNL     1       8.980   7.337  -7.437  1.00  0.00     0.217 A 
ATOM      4  C   UNL     1       6.989   6.611  -7.177  1.00  0.00     0.167 A 
ATOM      5  C   UNL     1       7.572   6.676  -5.935  1.00  0.00     0.231 A 
ENDROOT
BRANCH   4   6
ATOM      6  C   UNL     1       5.635   6.196  -7.499  1.00  0.00     0.273 C 
ATOM      7  N   UNL     1       5.599   4.919  -8.000  1.00  0.00    -0.341 N 
ATOM      8  O   UNL     1       4.654   6.916  -7.361  1.00  0.00    -0.267 OA
ATOM      9  H   UNL     1       6.502   4.477  -8.145  1.00  0.00     0.164 HD
BRANCH   7  10
ATOM     10  C   UNL     1       4.424   4.347  -8.628  1.00  0.00     0.145 C 
BRANCH  10  11
ATOM     11  C   UNL     1       4.481   4.693 -10.109  1.00  0.00     0.116 A 
ATOM     12  S   UNL     1       4.327   3.442 -11.285  1.00  0.00    -0.124 S 
ATOM     13  C   UNL     1       4.447   4.608 -12.530  1.00  0.00     0.101 A 
ATOM     14  N   UNL     1       4.628   5.913 -10.598  1.00  0.00    -0.234 NA
ATOM     15  C   UNL     1       4.593   5.873 -11.994  1.00  0.00     0.139 A 
BRANCH  15  16
ATOM     16  C   UNL     1       4.695   7.090 -12.802  1.00  0.00     0.271 C 
ATOM     17  O   UNL     1       3.968   7.313 -13.764  1.00  0.00    -0.267 OA
ATOM     18  N   UNL     1       5.682   7.953 -12.375  1.00  0.00    -0.339 N 
ATOM     19  H   UNL     1       6.289   7.604 -11.637  1.00  0.00     0.164 HD
BRANCH  18  20
ATOM     20  C   UNL     1       5.974   9.183 -13.099  1.00  0.00     0.168 CG0
ATOM     21  C   UNL     1       4.701   9.992 -13.357  1.00  0.00     0.041 C 
ATOM     22  G   UNL     1       6.965  10.091 -12.352  1.00  0.00     0.000 G0
ENDBRANCH  18  20
ENDBRANCH  15  16
ENDBRANCH  10  11
BRANCH  10  23
ATOM     23  C   UNL     1       4.312   2.820  -8.381  1.00  0.00     0.015 C 
ATOM     24  C   UNL     1       4.126   2.455  -6.899  1.00  0.00     0.010 C 
BRANCH  23  25
ATOM     25  C   UNL     1       3.177   2.163  -9.199  1.00  0.00     0.002 C 
ATOM     26  C   UNL     1       1.816   2.214  -8.519  1.00  0.00     0.004 C 
ENDBRANCH  23  25
ENDBRANCH  10  23
ENDBRANCH   7  10
ENDBRANCH   4   6
BRANCH   3  27
ATOM     27  C   UNL     1      10.276   7.884  -7.969  1.00  0.00     0.171 C 
BRANCH  27  28
ATOM     28  N   UNL     1       9.996   8.532  -9.246  1.00  0.00    -0.342 N 
ATOM     29  C   UNL     1       8.964   9.426  -9.420  1.00  0.00     0.245 C 
ATOM     30  O   UNL     1       8.209   9.757  -8.507  1.00  0.00    -0.273 OA
ATOM     31  H   UNL     1      10.648   8.395 -10.018  1.00  0.00     0.164 HD
BRANCH  29  32
ATOM     32  C   UNL     1       8.905  10.104 -10.805  1.00  0.00     0.200 C 
BRANCH  32  33
ATOM     33  N   UNL     1       7.924   9.387 -11.629  1.00  0.00    -0.340 N 
ATOM     34  C   UNL     1       6.980  10.065 -12.371  1.00  0.00     0.243 CG0
ATOM     35  O   UNL     1       6.876  11.289 -12.328  1.00  0.00    -0.273 OA
ATOM     36  H   UNL     1       7.965   8.375 -11.660  1.00  0.00     0.164 HD
ATOM     37  G   UNL     1       5.932   9.189 -13.076  1.00  0.00     0.000 G0
ENDBRANCH  32  33
BRANCH  32  38
ATOM     38  C   UNL     1       8.599  11.615 -10.682  1.00  0.00     0.143 C 
ATOM     39  C   UNL     1       8.983  12.221  -9.337  1.00  0.00     0.041 C 
BRANCH  38  40
ATOM     40  O   UNL     1       9.270  12.341 -11.730  1.00  0.00    -0.391 OA
ATOM     41  H   UNL     1       9.538  13.198 -11.348  1.00  0.00     0.211 HD
ENDBRANCH  38  40
ENDBRANCH  32  38
ENDBRANCH  29  32
ENDBRANCH  27  28
BRANCH  27  42
ATOM     42  C   UNL     1      11.100   8.802  -7.033  1.00  0.00     0.015 C 
ATOM     43  C   UNL     1      12.401   8.197  -6.493  1.00  0.00     0.010 C 
ATOM     44  C   UNL     1      11.374  10.169  -7.668  1.00  0.00     0.010 C 
ENDBRANCH  27  42
ENDBRANCH   3  27
TORSDOF 5
ENDMDL
