MODEL 1
REMARK VINA RESULT:    -5.423      0.000      0.000
REMARK INTER + INTRA:         -20.482
REMARK INTER:                 -13.507
REMARK INTRA:                  -6.976
REMARK UNBOUND:                -6.976
REMARK SMILES CCCCCCC[C@H](N)[C@H](O)C(=O)N[C@H](C)C(=O)N(C)[C@H](CC(C)C)C(=O)N[C@@H](Cc1ccc(O)cc1)C(=O)N[C@@H](Cc1ccc(O)cc1)C(=O)O
REMARK SMILES IDX 18 1 17 2 15 3 16 4 14 5 12 6 13 7 10 9 11 10 8 12 9 13 7 16
REMARK SMILES IDX 6 17 5 18 4 19 3 20 2 21 1 22 19 23 20 24 21 25 22 26 23 27
REMARK SMILES IDX 24 28 25 29 26 30 27 31 28 32 29 34 30 35 31 36 32 37 37 38
REMARK SMILES IDX 33 39 36 40 34 41 35 42 38 44 39 45 40 46 41 48 42 49 43 50
REMARK SMILES IDX 44 51 49 52 45 53 48 54 46 55 47 56 50 58 51 59 52 60
REMARK H PARENT 14 8 11 11 9 14 9 15 28 33 35 43 40 47 47 57 52 61
ROOT
ATOM      1  O   UNL     1      -7.160  -1.591  12.360  1.00  0.00    -0.272 OA
ATOM      2  C   UNL     1      -8.151  -1.356  11.652  1.00  0.00     0.245 C 
ENDROOT
BRANCH   2   3
ATOM      3  C   UNL     1      -8.687  -2.481  10.732  1.00  0.00     0.168 C 
ATOM      4  C   UNL     1      -8.652  -2.047   9.270  1.00  0.00     0.041 C 
BRANCH   3   5
ATOM      5  N   UNL     1      -8.063  -3.780  10.927  1.00  0.00    -0.342 N 
ATOM      6  C   UNL     1      -8.785  -4.953  10.856  1.00  0.00     0.251 C 
ATOM      7  O   UNL     1      -9.996  -4.991  10.667  1.00  0.00    -0.272 OA
ATOM      8  H   UNL     1      -7.069  -3.873  11.125  1.00  0.00     0.164 HD
BRANCH   6   9
ATOM      9  C   UNL     1      -7.897  -6.204  10.951  1.00  0.00     0.219 C 
BRANCH   9  10
ATOM     10  O   UNL     1      -8.531  -7.278  11.656  1.00  0.00    -0.382 OA
ATOM     11  H   UNL     1      -7.940  -8.045  11.488  1.00  0.00     0.211 HD
ENDBRANCH   9  10
BRANCH   9  12
ATOM     12  C   UNL     1      -7.370  -6.683   9.574  1.00  0.00     0.089 C 
BRANCH  12  13
ATOM     13  N   UNL     1      -7.800  -5.710   8.544  1.00  0.00    -0.325 NA
ATOM     14  H   UNL     1      -6.975  -5.302   8.102  1.00  0.00     0.119 HD
ATOM     15  H   UNL     1      -8.271  -4.928   9.004  1.00  0.00     0.119 HD
ENDBRANCH  12  13
BRANCH  12  16
ATOM     16  C   UNL     1      -5.844  -6.920   9.477  1.00  0.00     0.022 C 
BRANCH  16  17
ATOM     17  C   UNL     1      -5.224  -7.246   8.111  1.00  0.00     0.002 C 
BRANCH  17  18
ATOM     18  C   UNL     1      -3.986  -6.427   7.752  1.00  0.00     0.000 C 
BRANCH  18  19
ATOM     19  C   UNL     1      -3.289  -6.881   6.463  1.00  0.00    -0.000 C 
BRANCH  19  20
ATOM     20  C   UNL     1      -1.828  -6.443   6.326  1.00  0.00    -0.000 C 
BRANCH  20  21
ATOM     21  C   UNL     1      -1.521  -5.794   4.974  1.00  0.00    -0.003 C 
ATOM     22  C   UNL     1      -0.390  -4.783   5.087  1.00  0.00     0.004 C 
ENDBRANCH  20  21
ENDBRANCH  19  20
ENDBRANCH  18  19
ENDBRANCH  17  18
ENDBRANCH  16  17
ENDBRANCH  12  16
ENDBRANCH   9  12
ENDBRANCH   6   9
ENDBRANCH   3   5
ENDBRANCH   2   3
BRANCH   2  23
ATOM     23  N   UNL     1      -8.830  -0.149  11.783  1.00  0.00    -0.332 N 
ATOM     24  C   UNL     1     -10.252  -0.028  12.067  1.00  0.00     0.147 C 
BRANCH  23  25
ATOM     25  C   UNL     1      -8.083   1.138  11.764  1.00  0.00     0.174 C 
BRANCH  25  26
ATOM     26  C   UNL     1      -9.010   2.374  11.833  1.00  0.00     0.038 C 
BRANCH  26  27
ATOM     27  C   UNL     1      -8.776   3.362  12.998  1.00  0.00    -0.015 C 
ATOM     28  C   UNL     1      -8.044   2.715  14.174  1.00  0.00     0.007 C 
ATOM     29  C   UNL     1      -8.074   4.649  12.571  1.00  0.00     0.007 C 
ENDBRANCH  26  27
ENDBRANCH  25  26
BRANCH  25  30
ATOM     30  C   UNL     1      -7.099   1.166  10.572  1.00  0.00     0.243 C 
ATOM     31  O   UNL     1      -7.459   1.486   9.440  1.00  0.00    -0.273 OA
ATOM     32  N   UNL     1      -5.808   0.803  10.859  1.00  0.00    -0.342 N 
ATOM     33  H   UNL     1      -5.557   0.688  11.844  1.00  0.00     0.164 HD
BRANCH  32  34
ATOM     34  C   UNL     1      -4.748   0.745   9.849  1.00  0.00     0.175 C 
BRANCH  34  35
ATOM     35  C   UNL     1      -3.376   1.068  10.460  1.00  0.00     0.070 C 
BRANCH  35  36
ATOM     36  C   UNL     1      -2.351   1.461   9.420  1.00  0.00    -0.045 A 
ATOM     37  C   UNL     1      -1.003   1.113   9.597  1.00  0.00     0.007 A 
ATOM     38  C   UNL     1      -2.722   2.192   8.284  1.00  0.00     0.007 A 
ATOM     39  C   UNL     1      -0.048   1.482   8.650  1.00  0.00     0.046 A 
ATOM     40  C   UNL     1      -1.766   2.563   7.336  1.00  0.00     0.046 A 
ATOM     41  C   UNL     1      -0.436   2.203   7.527  1.00  0.00     0.115 A 
BRANCH  41  42
ATOM     42  O   UNL     1       0.529   2.547   6.627  1.00  0.00    -0.508 OA
ATOM     43  H   UNL     1       0.929   1.732   6.283  1.00  0.00     0.293 HD
ENDBRANCH  41  42
ENDBRANCH  35  36
ENDBRANCH  34  35
BRANCH  34  44
ATOM     44  C   UNL     1      -4.777  -0.659   9.205  1.00  0.00     0.243 C 
ATOM     45  O   UNL     1      -5.491  -0.973   8.257  1.00  0.00    -0.273 OA
ATOM     46  N   UNL     1      -4.013  -1.588   9.880  1.00  0.00    -0.341 N 
ATOM     47  H   UNL     1      -3.531  -1.307  10.730  1.00  0.00     0.164 HD
BRANCH  46  48
ATOM     48  C   UNL     1      -3.938  -3.000   9.498  1.00  0.00     0.196 C 
BRANCH  48  49
ATOM     49  C   UNL     1      -2.594  -3.328   8.826  1.00  0.00     0.072 C 
BRANCH  49  50
ATOM     50  C   UNL     1      -2.437  -2.656   7.481  1.00  0.00    -0.045 A 
ATOM     51  C   UNL     1      -3.331  -2.954   6.442  1.00  0.00     0.007 A 
ATOM     52  C   UNL     1      -1.394  -1.751   7.244  1.00  0.00     0.007 A 
ATOM     53  C   UNL     1      -3.189  -2.351   5.193  1.00  0.00     0.046 A 
ATOM     54  C   UNL     1      -1.251  -1.148   5.992  1.00  0.00     0.046 A 
ATOM     55  C   UNL     1      -2.151  -1.453   4.977  1.00  0.00     0.115 A 
BRANCH  55  56
ATOM     56  O   UNL     1      -2.045  -0.886   3.741  1.00  0.00    -0.508 OA
ATOM     57  H   UNL     1      -1.731   0.025   3.848  1.00  0.00     0.293 HD
ENDBRANCH  55  56
ENDBRANCH  49  50
ENDBRANCH  48  49
BRANCH  48  58
ATOM     58  C   UNL     1      -4.111  -3.867  10.753  1.00  0.00     0.326 C 
ATOM     59  O   UNL     1      -3.337  -4.707  11.183  1.00  0.00    -0.250 OA
BRANCH  58  60
ATOM     60  O   UNL     1      -5.263  -3.620  11.426  1.00  0.00    -0.480 OA
ATOM     61  H   UNL     1      -5.949  -4.036  10.861  1.00  0.00     0.296 HD
ENDBRANCH  58  60
ENDBRANCH  48  58
ENDBRANCH  46  48
ENDBRANCH  34  44
ENDBRANCH  32  34
ENDBRANCH  25  30
ENDBRANCH  23  25
ENDBRANCH   2  23
TORSDOF 28
ENDMDL
MODEL 2
REMARK VINA RESULT:    -5.067      2.346      4.567
REMARK INTER + INTRA:         -19.596
REMARK INTER:                 -13.017
REMARK INTRA:                  -6.579
REMARK UNBOUND:                -6.976
REMARK SMILES CCCCCCC[C@H](N)[C@H](O)C(=O)N[C@H](C)C(=O)N(C)[C@H](CC(C)C)C(=O)N[C@@H](Cc1ccc(O)cc1)C(=O)N[C@@H](Cc1ccc(O)cc1)C(=O)O
REMARK SMILES IDX 18 1 17 2 15 3 16 4 14 5 12 6 13 7 10 9 11 10 8 12 9 13 7 16
REMARK SMILES IDX 6 17 5 18 4 19 3 20 2 21 1 22 19 23 20 24 21 25 22 26 23 27
REMARK SMILES IDX 24 28 25 29 26 30 27 31 28 32 29 34 30 35 31 36 32 37 37 38
REMARK SMILES IDX 33 39 36 40 34 41 35 42 38 44 39 45 40 46 41 48 42 49 43 50
REMARK SMILES IDX 44 51 49 52 45 53 48 54 46 55 47 56 50 58 51 59 52 60
REMARK H PARENT 14 8 11 11 9 14 9 15 28 33 35 43 40 47 47 57 52 61
ROOT
ATOM      1  O   UNL     1      -9.598  -1.543   8.730  1.00  0.00    -0.272 OA
ATOM      2  C   UNL     1      -9.192  -2.111   9.754  1.00  0.00     0.245 C 
ENDROOT
BRANCH   2   3
ATOM      3  C   UNL     1      -9.558  -3.601   9.969  1.00  0.00     0.168 C 
ATOM      4  C   UNL     1     -10.968  -3.891   9.466  1.00  0.00     0.041 C 
BRANCH   3   5
ATOM      5  N   UNL     1      -8.589  -4.550   9.443  1.00  0.00    -0.342 N 
ATOM      6  C   UNL     1      -8.287  -5.723  10.101  1.00  0.00     0.251 C 
ATOM      7  O   UNL     1      -8.770  -6.034  11.185  1.00  0.00    -0.272 OA
ATOM      8  H   UNL     1      -8.097  -4.384   8.568  1.00  0.00     0.164 HD
BRANCH   6   9
ATOM      9  C   UNL     1      -7.349  -6.634   9.293  1.00  0.00     0.219 C 
BRANCH   9  10
ATOM     10  O   UNL     1      -6.421  -5.897   8.488  1.00  0.00    -0.382 OA
ATOM     11  H   UNL     1      -6.788  -4.985   8.489  1.00  0.00     0.211 HD
ENDBRANCH   9  10
BRANCH   9  12
ATOM     12  C   UNL     1      -6.608  -7.677  10.170  1.00  0.00     0.089 C 
BRANCH  12  13
ATOM     13  N   UNL     1      -7.529  -8.806  10.432  1.00  0.00    -0.325 NA
ATOM     14  H   UNL     1      -7.144  -9.389  11.178  1.00  0.00     0.119 HD
ATOM     15  H   UNL     1      -7.555  -9.411   9.608  1.00  0.00     0.119 HD
ENDBRANCH  12  13
BRANCH  12  16
ATOM     16  C   UNL     1      -5.266  -8.205   9.609  1.00  0.00     0.022 C 
BRANCH  16  17
ATOM     17  C   UNL     1      -4.205  -8.733  10.583  1.00  0.00     0.002 C 
BRANCH  17  18
ATOM     18  C   UNL     1      -2.999  -9.400   9.924  1.00  0.00     0.000 C 
BRANCH  18  19
ATOM     19  C   UNL     1      -2.632  -8.812   8.555  1.00  0.00    -0.000 C 
BRANCH  19  20
ATOM     20  C   UNL     1      -1.391  -9.423   7.897  1.00  0.00    -0.000 C 
BRANCH  20  21
ATOM     21  C   UNL     1      -0.635  -8.433   7.007  1.00  0.00    -0.003 C 
ATOM     22  C   UNL     1      -1.558  -7.792   5.983  1.00  0.00     0.004 C 
ENDBRANCH  20  21
ENDBRANCH  19  20
ENDBRANCH  18  19
ENDBRANCH  17  18
ENDBRANCH  16  17
ENDBRANCH  12  16
ENDBRANCH   9  12
ENDBRANCH   6   9
ENDBRANCH   3   5
ENDBRANCH   2   3
BRANCH   2  23
ATOM     23  N   UNL     1      -8.327  -1.451  10.620  1.00  0.00    -0.332 N 
ATOM     24  C   UNL     1      -8.747  -0.509  11.647  1.00  0.00     0.147 C 
BRANCH  23  25
ATOM     25  C   UNL     1      -6.876  -1.780  10.628  1.00  0.00     0.174 C 
BRANCH  25  26
ATOM     26  C   UNL     1      -6.277  -1.833  12.053  1.00  0.00     0.038 C 
BRANCH  26  27
ATOM     27  C   UNL     1      -5.878  -3.224  12.594  1.00  0.00    -0.015 C 
ATOM     28  C   UNL     1      -7.032  -3.927  13.308  1.00  0.00     0.007 C 
ATOM     29  C   UNL     1      -5.269  -4.136  11.532  1.00  0.00     0.007 C 
ENDBRANCH  26  27
ENDBRANCH  25  26
BRANCH  25  30
ATOM     30  C   UNL     1      -6.112  -0.840   9.668  1.00  0.00     0.243 C 
ATOM     31  O   UNL     1      -6.562   0.256   9.336  1.00  0.00    -0.273 OA
ATOM     32  N   UNL     1      -4.908  -1.310   9.209  1.00  0.00    -0.342 N 
ATOM     33  H   UNL     1      -4.538  -2.162   9.638  1.00  0.00     0.164 HD
BRANCH  32  34
ATOM     34  C   UNL     1      -4.062  -0.567   8.271  1.00  0.00     0.175 C 
BRANCH  34  35
ATOM     35  C   UNL     1      -2.751  -0.121   8.936  1.00  0.00     0.070 C 
BRANCH  35  36
ATOM     36  C   UNL     1      -2.529  -0.766  10.286  1.00  0.00    -0.045 A 
ATOM     37  C   UNL     1      -2.883  -0.081  11.458  1.00  0.00     0.007 A 
ATOM     38  C   UNL     1      -1.952  -2.039  10.388  1.00  0.00     0.007 A 
ATOM     39  C   UNL     1      -2.670  -0.663  12.708  1.00  0.00     0.046 A 
ATOM     40  C   UNL     1      -1.737  -2.622  11.639  1.00  0.00     0.046 A 
ATOM     41  C   UNL     1      -2.100  -1.928  12.789  1.00  0.00     0.115 A 
BRANCH  41  42
ATOM     42  O   UNL     1      -1.906  -2.460  14.029  1.00  0.00    -0.508 OA
ATOM     43  H   UNL     1      -1.870  -1.731  14.671  1.00  0.00     0.293 HD
ENDBRANCH  41  42
ENDBRANCH  35  36
ENDBRANCH  34  35
BRANCH  34  44
ATOM     44  C   UNL     1      -3.808  -1.466   7.040  1.00  0.00     0.243 C 
ATOM     45  O   UNL     1      -4.689  -2.039   6.406  1.00  0.00    -0.273 OA
ATOM     46  N   UNL     1      -2.470  -1.681   6.784  1.00  0.00    -0.341 N 
ATOM     47  H   UNL     1      -1.776  -1.278   7.410  1.00  0.00     0.164 HD
BRANCH  46  48
ATOM     48  C   UNL     1      -1.984  -2.552   5.711  1.00  0.00     0.196 C 
BRANCH  48  49
ATOM     49  C   UNL     1      -2.443  -4.005   5.919  1.00  0.00     0.072 C 
BRANCH  49  50
ATOM     50  C   UNL     1      -2.021  -4.562   7.260  1.00  0.00    -0.045 A 
ATOM     51  C   UNL     1      -0.659  -4.670   7.574  1.00  0.00     0.007 A 
ATOM     52  C   UNL     1      -2.973  -4.996   8.192  1.00  0.00     0.007 A 
ATOM     53  C   UNL     1      -0.257  -5.195   8.803  1.00  0.00     0.046 A 
ATOM     54  C   UNL     1      -2.570  -5.523   9.421  1.00  0.00     0.046 A 
ATOM     55  C   UNL     1      -1.215  -5.617   9.717  1.00  0.00     0.115 A 
BRANCH  55  56
ATOM     56  O   UNL     1      -0.781  -6.126  10.905  1.00  0.00    -0.508 OA
ATOM     57  H   UNL     1       0.149  -6.385  10.805  1.00  0.00     0.293 HD
ENDBRANCH  55  56
ENDBRANCH  49  50
ENDBRANCH  48  49
BRANCH  48  58
ATOM     58  C   UNL     1      -2.514  -2.032   4.368  1.00  0.00     0.326 C 
ATOM     59  O   UNL     1      -2.269  -0.958   3.843  1.00  0.00    -0.250 OA
BRANCH  58  60
ATOM     60  O   UNL     1      -3.329  -2.909   3.731  1.00  0.00    -0.480 OA
ATOM     61  H   UNL     1      -3.984  -2.328   3.287  1.00  0.00     0.296 HD
ENDBRANCH  58  60
ENDBRANCH  48  58
ENDBRANCH  46  48
ENDBRANCH  34  44
ENDBRANCH  32  34
ENDBRANCH  25  30
ENDBRANCH  23  25
ENDBRANCH   2  23
TORSDOF 28
ENDMDL
MODEL 3
REMARK VINA RESULT:    -5.047      3.567      7.667
REMARK INTER + INTRA:         -19.546
REMARK INTER:                 -13.325
REMARK INTRA:                  -6.221
REMARK UNBOUND:                -6.976
REMARK SMILES CCCCCCC[C@H](N)[C@H](O)C(=O)N[C@H](C)C(=O)N(C)[C@H](CC(C)C)C(=O)N[C@@H](Cc1ccc(O)cc1)C(=O)N[C@@H](Cc1ccc(O)cc1)C(=O)O
REMARK SMILES IDX 18 1 17 2 15 3 16 4 14 5 12 6 13 7 10 9 11 10 8 12 9 13 7 16
REMARK SMILES IDX 6 17 5 18 4 19 3 20 2 21 1 22 19 23 20 24 21 25 22 26 23 27
REMARK SMILES IDX 24 28 25 29 26 30 27 31 28 32 29 34 30 35 31 36 32 37 37 38
REMARK SMILES IDX 33 39 36 40 34 41 35 42 38 44 39 45 40 46 41 48 42 49 43 50
REMARK SMILES IDX 44 51 49 52 45 53 48 54 46 55 47 56 50 58 51 59 52 60
REMARK H PARENT 14 8 11 11 9 14 9 15 28 33 35 43 40 47 47 57 52 61
ROOT
ATOM      1  O   UNL     1      -3.173   1.258   7.208  1.00  0.00    -0.272 OA
ATOM      2  C   UNL     1      -2.900   0.207   7.807  1.00  0.00     0.245 C 
ENDROOT
BRANCH   2   3
ATOM      3  C   UNL     1      -1.644  -0.589   7.373  1.00  0.00     0.168 C 
ATOM      4  C   UNL     1      -0.778  -0.935   8.580  1.00  0.00     0.041 C 
BRANCH   3   5
ATOM      5  N   UNL     1      -1.915  -1.756   6.548  1.00  0.00    -0.342 N 
ATOM      6  C   UNL     1      -2.088  -1.658   5.184  1.00  0.00     0.251 C 
ATOM      7  O   UNL     1      -2.070  -0.594   4.574  1.00  0.00    -0.272 OA
ATOM      8  H   UNL     1      -1.988  -2.689   6.946  1.00  0.00     0.164 HD
BRANCH   6   9
ATOM      9  C   UNL     1      -2.220  -3.029   4.501  1.00  0.00     0.219 C 
BRANCH   9  10
ATOM     10  O   UNL     1      -2.875  -2.953   3.230  1.00  0.00    -0.382 OA
ATOM     11  H   UNL     1      -2.913  -3.888   2.933  1.00  0.00     0.211 HD
ENDBRANCH   9  10
BRANCH   9  12
ATOM     12  C   UNL     1      -0.869  -3.782   4.381  1.00  0.00     0.089 C 
BRANCH  12  13
ATOM     13  N   UNL     1       0.218  -2.780   4.294  1.00  0.00    -0.325 NA
ATOM     14  H   UNL     1       1.084  -3.247   4.021  1.00  0.00     0.119 HD
ATOM     15  H   UNL     1       0.399  -2.405   5.228  1.00  0.00     0.119 HD
ENDBRANCH  12  13
BRANCH  12  16
ATOM     16  C   UNL     1      -0.561  -4.804   5.501  1.00  0.00     0.022 C 
BRANCH  16  17
ATOM     17  C   UNL     1      -0.149  -6.232   5.115  1.00  0.00     0.002 C 
BRANCH  17  18
ATOM     18  C   UNL     1       1.330  -6.553   5.317  1.00  0.00     0.000 C 
BRANCH  18  19
ATOM     19  C   UNL     1       2.055  -5.590   6.267  1.00  0.00    -0.000 C 
BRANCH  19  20
ATOM     20  C   UNL     1       3.538  -5.366   5.959  1.00  0.00    -0.000 C 
BRANCH  20  21
ATOM     21  C   UNL     1       4.200  -6.573   5.289  1.00  0.00    -0.003 C 
ATOM     22  C   UNL     1       4.767  -7.537   6.319  1.00  0.00     0.004 C 
ENDBRANCH  20  21
ENDBRANCH  19  20
ENDBRANCH  18  19
ENDBRANCH  17  18
ENDBRANCH  16  17
ENDBRANCH  12  16
ENDBRANCH   9  12
ENDBRANCH   6   9
ENDBRANCH   3   5
ENDBRANCH   2   3
BRANCH   2  23
ATOM     23  N   UNL     1      -3.641  -0.170   8.922  1.00  0.00    -0.332 N 
ATOM     24  C   UNL     1      -3.736   0.603  10.151  1.00  0.00     0.147 C 
BRANCH  23  25
ATOM     25  C   UNL     1      -4.516  -1.374   8.869  1.00  0.00     0.174 C 
BRANCH  25  26
ATOM     26  C   UNL     1      -5.995  -1.058   9.195  1.00  0.00     0.038 C 
BRANCH  26  27
ATOM     27  C   UNL     1      -6.996  -2.232   9.111  1.00  0.00    -0.015 C 
ATOM     28  C   UNL     1      -8.421  -1.812   9.472  1.00  0.00     0.007 C 
ATOM     29  C   UNL     1      -6.974  -2.954   7.766  1.00  0.00     0.007 C 
ENDBRANCH  26  27
ENDBRANCH  25  26
BRANCH  25  30
ATOM     30  C   UNL     1      -3.917  -2.505   9.736  1.00  0.00     0.243 C 
ATOM     31  O   UNL     1      -3.548  -2.312  10.893  1.00  0.00    -0.273 OA
ATOM     32  N   UNL     1      -3.819  -3.730   9.127  1.00  0.00    -0.342 N 
ATOM     33  H   UNL     1      -4.274  -3.845   8.218  1.00  0.00     0.164 HD
BRANCH  32  34
ATOM     34  C   UNL     1      -3.251  -4.910   9.785  1.00  0.00     0.175 C 
BRANCH  34  35
ATOM     35  C   UNL     1      -4.137  -6.148   9.574  1.00  0.00     0.070 C 
BRANCH  35  36
ATOM     36  C   UNL     1      -5.585  -5.898   9.929  1.00  0.00    -0.045 A 
ATOM     37  C   UNL     1      -5.918  -5.351  11.177  1.00  0.00     0.007 A 
ATOM     38  C   UNL     1      -6.611  -6.226   9.033  1.00  0.00     0.007 A 
ATOM     39  C   UNL     1      -7.253  -5.130  11.518  1.00  0.00     0.046 A 
ATOM     40  C   UNL     1      -7.948  -6.006   9.374  1.00  0.00     0.046 A 
ATOM     41  C   UNL     1      -8.256  -5.458  10.615  1.00  0.00     0.115 A 
BRANCH  41  42
ATOM     42  O   UNL     1      -9.548  -5.229  10.988  1.00  0.00    -0.508 OA
ATOM     43  H   UNL     1      -9.853  -4.419  10.547  1.00  0.00     0.293 HD
ENDBRANCH  41  42
ENDBRANCH  35  36
ENDBRANCH  34  35
BRANCH  34  44
ATOM     44  C   UNL     1      -1.822  -5.122   9.238  1.00  0.00     0.243 C 
ATOM     45  O   UNL     1      -1.185  -4.278   8.615  1.00  0.00    -0.273 OA
ATOM     46  N   UNL     1      -1.359  -6.411   9.399  1.00  0.00    -0.341 N 
ATOM     47  H   UNL     1      -1.971  -7.107   9.818  1.00  0.00     0.164 HD
BRANCH  46  48
ATOM     48  C   UNL     1      -0.060  -6.869   8.900  1.00  0.00     0.196 C 
BRANCH  48  49
ATOM     49  C   UNL     1       0.972  -6.970  10.036  1.00  0.00     0.072 C 
BRANCH  49  50
ATOM     50  C   UNL     1       2.127  -6.010   9.860  1.00  0.00    -0.045 A 
ATOM     51  C   UNL     1       1.901  -4.627   9.916  1.00  0.00     0.007 A 
ATOM     52  C   UNL     1       3.424  -6.480   9.619  1.00  0.00     0.007 A 
ATOM     53  C   UNL     1       2.957  -3.732   9.742  1.00  0.00     0.046 A 
ATOM     54  C   UNL     1       4.481  -5.584   9.444  1.00  0.00     0.046 A 
ATOM     55  C   UNL     1       4.238  -4.216   9.508  1.00  0.00     0.115 A 
BRANCH  55  56
ATOM     56  O   UNL     1       5.241  -3.308   9.341  1.00  0.00    -0.508 OA
ATOM     57  H   UNL     1       5.612  -3.099  10.213  1.00  0.00     0.293 HD
ENDBRANCH  55  56
ENDBRANCH  49  50
ENDBRANCH  48  49
BRANCH  48  58
ATOM     58  C   UNL     1      -0.235  -8.243   8.239  1.00  0.00     0.326 C 
ATOM     59  O   UNL     1      -1.165  -8.615   7.542  1.00  0.00    -0.250 OA
BRANCH  58  60
ATOM     60  O   UNL     1       0.795  -9.094   8.479  1.00  0.00    -0.480 OA
ATOM     61  H   UNL     1       1.367  -8.588   9.095  1.00  0.00     0.296 HD
ENDBRANCH  58  60
ENDBRANCH  48  58
ENDBRANCH  46  48
ENDBRANCH  34  44
ENDBRANCH  32  34
ENDBRANCH  25  30
ENDBRANCH  23  25
ENDBRANCH   2  23
TORSDOF 28
ENDMDL
MODEL 4
REMARK VINA RESULT:    -5.027      3.618      8.420
REMARK INTER + INTRA:         -19.497
REMARK INTER:                 -15.780
REMARK INTRA:                  -3.717
REMARK UNBOUND:                -6.976
REMARK SMILES CCCCCCC[C@H](N)[C@H](O)C(=O)N[C@H](C)C(=O)N(C)[C@H](CC(C)C)C(=O)N[C@@H](Cc1ccc(O)cc1)C(=O)N[C@@H](Cc1ccc(O)cc1)C(=O)O
REMARK SMILES IDX 18 1 17 2 15 3 16 4 14 5 12 6 13 7 10 9 11 10 8 12 9 13 7 16
REMARK SMILES IDX 6 17 5 18 4 19 3 20 2 21 1 22 19 23 20 24 21 25 22 26 23 27
REMARK SMILES IDX 24 28 25 29 26 30 27 31 28 32 29 34 30 35 31 36 32 37 37 38
REMARK SMILES IDX 33 39 36 40 34 41 35 42 38 44 39 45 40 46 41 48 42 49 43 50
REMARK SMILES IDX 44 51 49 52 45 53 48 54 46 55 47 56 50 58 51 59 52 60
REMARK H PARENT 14 8 11 11 9 14 9 15 28 33 35 43 40 47 47 57 52 61
ROOT
ATOM      1  O   UNL     1      -6.245  -0.374   9.160  1.00  0.00    -0.272 OA
ATOM      2  C   UNL     1      -6.921  -0.872  10.072  1.00  0.00     0.245 C 
ENDROOT
BRANCH   2   3
ATOM      3  C   UNL     1      -8.376  -0.378  10.270  1.00  0.00     0.168 C 
ATOM      4  C   UNL     1      -8.551   0.252  11.648  1.00  0.00     0.041 C 
BRANCH   3   5
ATOM      5  N   UNL     1      -8.878   0.485   9.212  1.00  0.00    -0.342 N 
ATOM      6  C   UNL     1     -10.127   0.307   8.658  1.00  0.00     0.251 C 
ATOM      7  O   UNL     1     -10.885  -0.603   8.978  1.00  0.00    -0.272 OA
ATOM      8  H   UNL     1      -8.325   1.254   8.840  1.00  0.00     0.164 HD
BRANCH   6   9
ATOM      9  C   UNL     1     -10.501   1.418   7.663  1.00  0.00     0.219 C 
BRANCH   9  10
ATOM     10  O   UNL     1     -11.310   0.941   6.581  1.00  0.00    -0.382 OA
ATOM     11  H   UNL     1     -12.220   1.208   6.839  1.00  0.00     0.211 HD
ENDBRANCH   9  10
BRANCH   9  12
ATOM     12  C   UNL     1     -11.158   2.648   8.342  1.00  0.00     0.089 C 
BRANCH  12  13
ATOM     13  N   UNL     1     -11.477   2.293   9.744  1.00  0.00    -0.325 NA
ATOM     14  H   UNL     1     -12.378   1.812   9.772  1.00  0.00     0.119 HD
ATOM     15  H   UNL     1     -11.616   3.153  10.280  1.00  0.00     0.119 HD
ENDBRANCH  12  13
BRANCH  12  16
ATOM     16  C   UNL     1     -10.342   3.962   8.299  1.00  0.00     0.022 C 
BRANCH  16  17
ATOM     17  C   UNL     1     -10.338   4.797   7.011  1.00  0.00     0.002 C 
BRANCH  17  18
ATOM     18  C   UNL     1      -8.953   5.188   6.501  1.00  0.00     0.000 C 
BRANCH  18  19
ATOM     19  C   UNL     1      -8.501   4.410   5.259  1.00  0.00    -0.000 C 
BRANCH  19  20
ATOM     20  C   UNL     1      -9.570   3.510   4.632  1.00  0.00    -0.000 C 
BRANCH  20  21
ATOM     21  C   UNL     1     -10.342   4.194   3.500  1.00  0.00    -0.003 C 
ATOM     22  C   UNL     1      -9.645   5.467   3.045  1.00  0.00     0.004 C 
ENDBRANCH  20  21
ENDBRANCH  19  20
ENDBRANCH  18  19
ENDBRANCH  17  18
ENDBRANCH  16  17
ENDBRANCH  12  16
ENDBRANCH   9  12
ENDBRANCH   6   9
ENDBRANCH   3   5
ENDBRANCH   2   3
BRANCH   2  23
ATOM     23  N   UNL     1      -6.415  -1.935  10.813  1.00  0.00    -0.332 N 
ATOM     24  C   UNL     1      -5.643  -1.794  12.038  1.00  0.00     0.147 C 
BRANCH  23  25
ATOM     25  C   UNL     1      -6.758  -3.336  10.446  1.00  0.00     0.174 C 
BRANCH  25  26
ATOM     26  C   UNL     1      -7.752  -3.992  11.433  1.00  0.00     0.038 C 
BRANCH  26  27
ATOM     27  C   UNL     1      -8.645  -5.125  10.880  1.00  0.00    -0.015 C 
ATOM     28  C   UNL     1      -8.643  -5.177   9.352  1.00  0.00     0.007 C 
ATOM     29  C   UNL     1      -8.317  -6.496  11.464  1.00  0.00     0.007 C 
ENDBRANCH  26  27
ENDBRANCH  25  26
BRANCH  25  30
ATOM     30  C   UNL     1      -5.468  -4.159  10.225  1.00  0.00     0.243 C 
ATOM     31  O   UNL     1      -4.915  -4.760  11.144  1.00  0.00    -0.273 OA
ATOM     32  N   UNL     1      -4.983  -4.169   8.942  1.00  0.00    -0.342 N 
ATOM     33  H   UNL     1      -5.573  -3.766   8.210  1.00  0.00     0.164 HD
BRANCH  32  34
ATOM     34  C   UNL     1      -3.758  -4.872   8.554  1.00  0.00     0.175 C 
BRANCH  34  35
ATOM     35  C   UNL     1      -4.075  -6.175   7.804  1.00  0.00     0.070 C 
BRANCH  35  36
ATOM     36  C   UNL     1      -4.239  -7.358   8.731  1.00  0.00    -0.045 A 
ATOM     37  C   UNL     1      -5.509  -7.687   9.230  1.00  0.00     0.007 A 
ATOM     38  C   UNL     1      -3.134  -8.125   9.120  1.00  0.00     0.007 A 
ATOM     39  C   UNL     1      -5.668  -8.769  10.097  1.00  0.00     0.046 A 
ATOM     40  C   UNL     1      -3.292  -9.207   9.989  1.00  0.00     0.046 A 
ATOM     41  C   UNL     1      -4.560  -9.520  10.469  1.00  0.00     0.115 A 
BRANCH  41  42
ATOM     42  O   UNL     1      -4.758 -10.567  11.320  1.00  0.00    -0.508 OA
ATOM     43  H   UNL     1      -3.920 -11.049  11.410  1.00  0.00     0.293 HD
ENDBRANCH  41  42
ENDBRANCH  35  36
ENDBRANCH  34  35
BRANCH  34  44
ATOM     44  C   UNL     1      -2.902  -3.908   7.701  1.00  0.00     0.243 C 
ATOM     45  O   UNL     1      -2.488  -2.820   8.089  1.00  0.00    -0.273 OA
ATOM     46  N   UNL     1      -2.747  -4.322   6.395  1.00  0.00    -0.341 N 
ATOM     47  H   UNL     1      -3.209  -5.175   6.089  1.00  0.00     0.164 HD
BRANCH  46  48
ATOM     48  C   UNL     1      -2.034  -3.541   5.381  1.00  0.00     0.196 C 
BRANCH  48  49
ATOM     49  C   UNL     1      -1.291  -4.454   4.392  1.00  0.00     0.072 C 
BRANCH  49  50
ATOM     50  C   UNL     1      -0.166  -5.226   5.045  1.00  0.00    -0.045 A 
ATOM     51  C   UNL     1      -0.089  -6.617   4.886  1.00  0.00     0.007 A 
ATOM     52  C   UNL     1       0.795  -4.575   5.829  1.00  0.00     0.007 A 
ATOM     53  C   UNL     1       0.937  -7.341   5.494  1.00  0.00     0.046 A 
ATOM     54  C   UNL     1       1.821  -5.300   6.439  1.00  0.00     0.046 A 
ATOM     55  C   UNL     1       1.883  -6.678   6.265  1.00  0.00     0.115 A 
BRANCH  55  56
ATOM     56  O   UNL     1       2.868  -7.422   6.844  1.00  0.00    -0.508 OA
ATOM     57  H   UNL     1       3.696  -7.260   6.366  1.00  0.00     0.293 HD
ENDBRANCH  55  56
ENDBRANCH  49  50
ENDBRANCH  48  49
BRANCH  48  58
ATOM     58  C   UNL     1      -3.044  -2.671   4.620  1.00  0.00     0.326 C 
ATOM     59  O   UNL     1      -3.799  -1.834   5.087  1.00  0.00    -0.250 OA
BRANCH  58  60
ATOM     60  O   UNL     1      -3.045  -2.890   3.280  1.00  0.00    -0.480 OA
ATOM     61  H   UNL     1      -2.195  -3.355   3.127  1.00  0.00     0.296 HD
ENDBRANCH  58  60
ENDBRANCH  48  58
ENDBRANCH  46  48
ENDBRANCH  34  44
ENDBRANCH  32  34
ENDBRANCH  25  30
ENDBRANCH  23  25
ENDBRANCH   2  23
TORSDOF 28
ENDMDL
MODEL 5
REMARK VINA RESULT:    -4.960      3.618      8.767
REMARK INTER + INTRA:         -19.329
REMARK INTER:                 -14.685
REMARK INTRA:                  -4.644
REMARK UNBOUND:                -6.976
REMARK SMILES CCCCCCC[C@H](N)[C@H](O)C(=O)N[C@H](C)C(=O)N(C)[C@H](CC(C)C)C(=O)N[C@@H](Cc1ccc(O)cc1)C(=O)N[C@@H](Cc1ccc(O)cc1)C(=O)O
REMARK SMILES IDX 18 1 17 2 15 3 16 4 14 5 12 6 13 7 10 9 11 10 8 12 9 13 7 16
REMARK SMILES IDX 6 17 5 18 4 19 3 20 2 21 1 22 19 23 20 24 21 25 22 26 23 27
REMARK SMILES IDX 24 28 25 29 26 30 27 31 28 32 29 34 30 35 31 36 32 37 37 38
REMARK SMILES IDX 33 39 36 40 34 41 35 42 38 44 39 45 40 46 41 48 42 49 43 50
REMARK SMILES IDX 44 51 49 52 45 53 48 54 46 55 47 56 50 58 51 59 52 60
REMARK H PARENT 14 8 11 11 9 14 9 15 28 33 35 43 40 47 47 57 52 61
ROOT
ATOM      1  O   UNL     1      -4.464  -6.496   8.223  1.00  0.00    -0.272 OA
ATOM      2  C   UNL     1      -4.543  -7.016   9.346  1.00  0.00     0.245 C 
ENDROOT
BRANCH   2   3
ATOM      3  C   UNL     1      -5.861  -7.729   9.741  1.00  0.00     0.168 C 
ATOM      4  C   UNL     1      -5.572  -9.026  10.488  1.00  0.00     0.041 C 
BRANCH   3   5
ATOM      5  N   UNL     1      -6.817  -6.895  10.453  1.00  0.00    -0.342 N 
ATOM      6  C   UNL     1      -7.749  -6.126   9.789  1.00  0.00     0.251 C 
ATOM      7  O   UNL     1      -7.818  -6.052   8.566  1.00  0.00    -0.272 OA
ATOM      8  H   UNL     1      -6.834  -6.846  11.469  1.00  0.00     0.164 HD
BRANCH   6   9
ATOM      9  C   UNL     1      -8.743  -5.441  10.741  1.00  0.00     0.219 C 
BRANCH   9  10
ATOM     10  O   UNL     1      -8.106  -4.884  11.897  1.00  0.00    -0.382 OA
ATOM     11  H   UNL     1      -8.839  -4.796  12.545  1.00  0.00     0.211 HD
ENDBRANCH   9  10
BRANCH   9  12
ATOM     12  C   UNL     1      -9.630  -4.382  10.037  1.00  0.00     0.089 C 
BRANCH  12  13
ATOM     13  N   UNL     1     -11.011  -4.511  10.555  1.00  0.00    -0.325 NA
ATOM     14  H   UNL     1     -11.188  -3.763  11.229  1.00  0.00     0.119 HD
ATOM     15  H   UNL     1     -11.084  -5.377  11.094  1.00  0.00     0.119 HD
ENDBRANCH  12  13
BRANCH  12  16
ATOM     16  C   UNL     1      -9.154  -2.914  10.151  1.00  0.00     0.022 C 
BRANCH  16  17
ATOM     17  C   UNL     1      -9.261  -1.997   8.924  1.00  0.00     0.002 C 
BRANCH  17  18
ATOM     18  C   UNL     1     -10.434  -1.021   8.950  1.00  0.00     0.000 C 
BRANCH  18  19
ATOM     19  C   UNL     1     -10.029   0.448   8.769  1.00  0.00    -0.000 C 
BRANCH  19  20
ATOM     20  C   UNL     1     -11.060   1.323   8.051  1.00  0.00    -0.000 C 
BRANCH  20  21
ATOM     21  C   UNL     1     -10.428   2.486   7.281  1.00  0.00    -0.003 C 
ATOM     22  C   UNL     1     -10.783   2.431   5.803  1.00  0.00     0.004 C 
ENDBRANCH  20  21
ENDBRANCH  19  20
ENDBRANCH  18  19
ENDBRANCH  17  18
ENDBRANCH  16  17
ENDBRANCH  12  16
ENDBRANCH   9  12
ENDBRANCH   6   9
ENDBRANCH   3   5
ENDBRANCH   2   3
BRANCH   2  23
ATOM     23  N   UNL     1      -3.426  -7.060  10.173  1.00  0.00    -0.332 N 
ATOM     24  C   UNL     1      -3.396  -6.577  11.546  1.00  0.00     0.147 C 
BRANCH  23  25
ATOM     25  C   UNL     1      -2.184  -7.745   9.723  1.00  0.00     0.174 C 
BRANCH  25  26
ATOM     26  C   UNL     1      -1.335  -8.288  10.897  1.00  0.00     0.038 C 
BRANCH  26  27
ATOM     27  C   UNL     1      -1.389  -9.810  11.154  1.00  0.00    -0.015 C 
ATOM     28  C   UNL     1      -1.921 -10.149  12.546  1.00  0.00     0.007 C 
ATOM     29  C   UNL     1      -2.157 -10.580  10.083  1.00  0.00     0.007 C 
ENDBRANCH  26  27
ENDBRANCH  25  26
BRANCH  25  30
ATOM     30  C   UNL     1      -1.395  -6.834   8.755  1.00  0.00     0.243 C 
ATOM     31  O   UNL     1      -0.872  -5.785   9.130  1.00  0.00    -0.273 OA
ATOM     32  N   UNL     1      -1.323  -7.268   7.456  1.00  0.00    -0.342 N 
ATOM     33  H   UNL     1      -1.659  -8.214   7.254  1.00  0.00     0.164 HD
BRANCH  32  34
ATOM     34  C   UNL     1      -0.640  -6.521   6.397  1.00  0.00     0.175 C 
BRANCH  34  35
ATOM     35  C   UNL     1      -0.042  -7.465   5.343  1.00  0.00     0.070 C 
BRANCH  35  36
ATOM     36  C   UNL     1       1.460  -7.596   5.460  1.00  0.00    -0.045 A 
ATOM     37  C   UNL     1       2.208  -6.574   6.063  1.00  0.00     0.007 A 
ATOM     38  C   UNL     1       2.125  -8.719   4.952  1.00  0.00     0.007 A 
ATOM     39  C   UNL     1       3.596  -6.679   6.164  1.00  0.00     0.046 A 
ATOM     40  C   UNL     1       3.514  -8.825   5.051  1.00  0.00     0.046 A 
ATOM     41  C   UNL     1       4.237  -7.804   5.658  1.00  0.00     0.115 A 
BRANCH  41  42
ATOM     42  O   UNL     1       5.595  -7.866   5.773  1.00  0.00    -0.508 OA
ATOM     43  H   UNL     1       5.863  -8.798   5.712  1.00  0.00     0.293 HD
ENDBRANCH  41  42
ENDBRANCH  35  36
ENDBRANCH  34  35
BRANCH  34  44
ATOM     44  C   UNL     1      -1.655  -5.533   5.778  1.00  0.00     0.243 C 
ATOM     45  O   UNL     1      -2.448  -5.821   4.885  1.00  0.00    -0.273 OA
ATOM     46  N   UNL     1      -1.507  -4.239   6.230  1.00  0.00    -0.341 N 
ATOM     47  H   UNL     1      -0.758  -4.027   6.884  1.00  0.00     0.164 HD
BRANCH  46  48
ATOM     48  C   UNL     1      -2.309  -3.116   5.738  1.00  0.00     0.196 C 
BRANCH  48  49
ATOM     49  C   UNL     1      -2.492  -2.041   6.822  1.00  0.00     0.072 C 
BRANCH  49  50
ATOM     50  C   UNL     1      -3.356  -2.513   7.969  1.00  0.00    -0.045 A 
ATOM     51  C   UNL     1      -2.778  -2.765   9.222  1.00  0.00     0.007 A 
ATOM     52  C   UNL     1      -4.730  -2.726   7.797  1.00  0.00     0.007 A 
ATOM     53  C   UNL     1      -3.563  -3.213  10.285  1.00  0.00     0.046 A 
ATOM     54  C   UNL     1      -5.515  -3.177   8.861  1.00  0.00     0.046 A 
ATOM     55  C   UNL     1      -4.924  -3.415  10.097  1.00  0.00     0.115 A 
BRANCH  55  56
ATOM     56  O   UNL     1      -5.655  -3.856  11.160  1.00  0.00    -0.508 OA
ATOM     57  H   UNL     1      -6.110  -3.096  11.555  1.00  0.00     0.293 HD
ENDBRANCH  55  56
ENDBRANCH  49  50
ENDBRANCH  48  49
BRANCH  48  58
ATOM     58  C   UNL     1      -1.611  -2.502   4.516  1.00  0.00     0.326 C 
ATOM     59  O   UNL     1      -2.129  -2.146   3.471  1.00  0.00    -0.250 OA
BRANCH  58  60
ATOM     60  O   UNL     1      -0.272  -2.350   4.678  1.00  0.00    -0.480 OA
ATOM     61  H   UNL     1      -0.068  -1.559   4.133  1.00  0.00     0.296 HD
ENDBRANCH  58  60
ENDBRANCH  48  58
ENDBRANCH  46  48
ENDBRANCH  34  44
ENDBRANCH  32  34
ENDBRANCH  25  30
ENDBRANCH  23  25
ENDBRANCH   2  23
TORSDOF 28
ENDMDL
MODEL 6
REMARK VINA RESULT:    -4.789      4.046      9.245
REMARK INTER + INTRA:         -18.903
REMARK INTER:                 -13.512
REMARK INTRA:                  -5.391
REMARK UNBOUND:                -6.976
REMARK SMILES CCCCCCC[C@H](N)[C@H](O)C(=O)N[C@H](C)C(=O)N(C)[C@H](CC(C)C)C(=O)N[C@@H](Cc1ccc(O)cc1)C(=O)N[C@@H](Cc1ccc(O)cc1)C(=O)O
REMARK SMILES IDX 18 1 17 2 15 3 16 4 14 5 12 6 13 7 10 9 11 10 8 12 9 13 7 16
REMARK SMILES IDX 6 17 5 18 4 19 3 20 2 21 1 22 19 23 20 24 21 25 22 26 23 27
REMARK SMILES IDX 24 28 25 29 26 30 27 31 28 32 29 34 30 35 31 36 32 37 37 38
REMARK SMILES IDX 33 39 36 40 34 41 35 42 38 44 39 45 40 46 41 48 42 49 43 50
REMARK SMILES IDX 44 51 49 52 45 53 48 54 46 55 47 56 50 58 51 59 52 60
REMARK H PARENT 14 8 11 11 9 14 9 15 28 33 35 43 40 47 47 57 52 61
ROOT
ATOM      1  O   UNL     1       1.738  -3.957   9.432  1.00  0.00    -0.272 OA
ATOM      2  C   UNL     1       0.847  -3.587  10.211  1.00  0.00     0.245 C 
ENDROOT
BRANCH   2   3
ATOM      3  C   UNL     1       0.558  -2.070  10.339  1.00  0.00     0.168 C 
ATOM      4  C   UNL     1       1.527  -1.415  11.317  1.00  0.00     0.041 C 
BRANCH   3   5
ATOM      5  N   UNL     1       0.494  -1.351   9.076  1.00  0.00    -0.342 N 
ATOM      6  C   UNL     1      -0.684  -0.809   8.606  1.00  0.00     0.251 C 
ATOM      7  O   UNL     1      -1.759  -0.924   9.185  1.00  0.00    -0.272 OA
ATOM      8  H   UNL     1       1.315  -1.222   8.490  1.00  0.00     0.164 HD
BRANCH   6   9
ATOM      9  C   UNL     1      -0.487   0.024   7.330  1.00  0.00     0.219 C 
BRANCH   9  10
ATOM     10  O   UNL     1      -1.724   0.339   6.679  1.00  0.00    -0.382 OA
ATOM     11  H   UNL     1      -1.478   0.394   5.729  1.00  0.00     0.211 HD
ENDBRANCH   9  10
BRANCH   9  12
ATOM     12  C   UNL     1       0.355   1.306   7.563  1.00  0.00     0.089 C 
BRANCH  12  13
ATOM     13  N   UNL     1       1.262   1.487   6.407  1.00  0.00    -0.325 NA
ATOM     14  H   UNL     1       1.231   0.650   5.821  1.00  0.00     0.119 HD
ATOM     15  H   UNL     1       2.225   1.539   6.746  1.00  0.00     0.119 HD
ENDBRANCH  12  13
BRANCH  12  16
ATOM     16  C   UNL     1      -0.446   2.606   7.818  1.00  0.00     0.022 C 
BRANCH  16  17
ATOM     17  C   UNL     1      -0.519   3.668   6.713  1.00  0.00     0.002 C 
BRANCH  17  18
ATOM     18  C   UNL     1      -1.911   3.898   6.130  1.00  0.00     0.000 C 
BRANCH  18  19
ATOM     19  C   UNL     1      -2.246   5.373   5.875  1.00  0.00    -0.000 C 
BRANCH  19  20
ATOM     20  C   UNL     1      -1.445   6.375   6.711  1.00  0.00    -0.000 C 
BRANCH  20  21
ATOM     21  C   UNL     1      -0.401   7.140   5.894  1.00  0.00    -0.003 C 
ATOM     22  C   UNL     1      -0.663   7.011   4.401  1.00  0.00     0.004 C 
ENDBRANCH  20  21
ENDBRANCH  19  20
ENDBRANCH  18  19
ENDBRANCH  17  18
ENDBRANCH  16  17
ENDBRANCH  12  16
ENDBRANCH   9  12
ENDBRANCH   6   9
ENDBRANCH   3   5
ENDBRANCH   2   3
BRANCH   2  23
ATOM     23  N   UNL     1       0.050  -4.528  10.854  1.00  0.00    -0.332 N 
ATOM     24  C   UNL     1       0.559  -5.637  11.647  1.00  0.00     0.147 C 
BRANCH  23  25
ATOM     25  C   UNL     1      -1.430  -4.373  10.871  1.00  0.00     0.174 C 
BRANCH  25  26
ATOM     26  C   UNL     1      -2.106  -5.169  12.012  1.00  0.00     0.038 C 
BRANCH  26  27
ATOM     27  C   UNL     1      -3.471  -5.821  11.698  1.00  0.00    -0.015 C 
ATOM     28  C   UNL     1      -3.425  -7.346  11.783  1.00  0.00     0.007 C 
ATOM     29  C   UNL     1      -4.616  -5.270  12.544  1.00  0.00     0.007 C 
ENDBRANCH  26  27
ENDBRANCH  25  26
BRANCH  25  30
ATOM     30  C   UNL     1      -2.013  -4.677   9.471  1.00  0.00     0.243 C 
ATOM     31  O   UNL     1      -1.559  -5.571   8.758  1.00  0.00    -0.273 OA
ATOM     32  N   UNL     1      -3.059  -3.882   9.079  1.00  0.00    -0.342 N 
ATOM     33  H   UNL     1      -3.470  -3.260   9.780  1.00  0.00     0.164 HD
BRANCH  32  34
ATOM     34  C   UNL     1      -3.717  -4.009   7.776  1.00  0.00     0.175 C 
BRANCH  34  35
ATOM     35  C   UNL     1      -5.239  -3.835   7.899  1.00  0.00     0.070 C 
BRANCH  35  36
ATOM     36  C   UNL     1      -5.900  -4.977   8.638  1.00  0.00    -0.045 A 
ATOM     37  C   UNL     1      -6.925  -4.716   9.559  1.00  0.00     0.007 A 
ATOM     38  C   UNL     1      -5.487  -6.300   8.434  1.00  0.00     0.007 A 
ATOM     39  C   UNL     1      -7.532  -5.762  10.256  1.00  0.00     0.046 A 
ATOM     40  C   UNL     1      -6.092  -7.348   9.132  1.00  0.00     0.046 A 
ATOM     41  C   UNL     1      -7.111  -7.068  10.037  1.00  0.00     0.115 A 
BRANCH  41  42
ATOM     42  O   UNL     1      -7.727  -8.061  10.740  1.00  0.00    -0.508 OA
ATOM     43  H   UNL     1      -8.391  -8.475  10.164  1.00  0.00     0.293 HD
ENDBRANCH  41  42
ENDBRANCH  35  36
ENDBRANCH  34  35
BRANCH  34  44
ATOM     44  C   UNL     1      -3.092  -2.966   6.821  1.00  0.00     0.243 C 
ATOM     45  O   UNL     1      -3.562  -1.852   6.608  1.00  0.00    -0.273 OA
ATOM     46  N   UNL     1      -2.011  -3.448   6.115  1.00  0.00    -0.341 N 
ATOM     47  H   UNL     1      -1.731  -4.417   6.240  1.00  0.00     0.164 HD
BRANCH  46  48
ATOM     48  C   UNL     1      -1.297  -2.666   5.102  1.00  0.00     0.196 C 
BRANCH  48  49
ATOM     49  C   UNL     1      -0.212  -3.507   4.408  1.00  0.00     0.072 C 
BRANCH  49  50
ATOM     50  C   UNL     1       0.051  -4.816   5.117  1.00  0.00    -0.045 A 
ATOM     51  C   UNL     1      -0.782  -5.919   4.880  1.00  0.00     0.007 A 
ATOM     52  C   UNL     1       1.108  -4.942   6.028  1.00  0.00     0.007 A 
ATOM     53  C   UNL     1      -0.556  -7.128   5.538  1.00  0.00     0.046 A 
ATOM     54  C   UNL     1       1.333  -6.153   6.688  1.00  0.00     0.046 A 
ATOM     55  C   UNL     1       0.499  -7.237   6.436  1.00  0.00     0.115 A 
BRANCH  55  56
ATOM     56  O   UNL     1       0.684  -8.435   7.059  1.00  0.00    -0.508 OA
ATOM     57  H   UNL     1      -0.117  -8.643   7.566  1.00  0.00     0.293 HD
ENDBRANCH  55  56
ENDBRANCH  49  50
ENDBRANCH  48  49
BRANCH  48  58
ATOM     58  C   UNL     1      -2.304  -2.163   4.059  1.00  0.00     0.326 C 
ATOM     59  O   UNL     1      -3.114  -2.827   3.433  1.00  0.00    -0.250 OA
BRANCH  58  60
ATOM     60  O   UNL     1      -2.253  -0.821   3.861  1.00  0.00    -0.480 OA
ATOM     61  H   UNL     1      -2.458  -0.726   2.905  1.00  0.00     0.296 HD
ENDBRANCH  58  60
ENDBRANCH  48  58
ENDBRANCH  46  48
ENDBRANCH  34  44
ENDBRANCH  32  34
ENDBRANCH  25  30
ENDBRANCH  23  25
ENDBRANCH   2  23
TORSDOF 28
ENDMDL
MODEL 7
REMARK VINA RESULT:    -4.661      3.565      7.542
REMARK INTER + INTRA:         -18.586
REMARK INTER:                 -12.736
REMARK INTRA:                  -5.851
REMARK UNBOUND:                -6.976
REMARK SMILES CCCCCCC[C@H](N)[C@H](O)C(=O)N[C@H](C)C(=O)N(C)[C@H](CC(C)C)C(=O)N[C@@H](Cc1ccc(O)cc1)C(=O)N[C@@H](Cc1ccc(O)cc1)C(=O)O
REMARK SMILES IDX 18 1 17 2 15 3 16 4 14 5 12 6 13 7 10 9 11 10 8 12 9 13 7 16
REMARK SMILES IDX 6 17 5 18 4 19 3 20 2 21 1 22 19 23 20 24 21 25 22 26 23 27
REMARK SMILES IDX 24 28 25 29 26 30 27 31 28 32 29 34 30 35 31 36 32 37 37 38
REMARK SMILES IDX 33 39 36 40 34 41 35 42 38 44 39 45 40 46 41 48 42 49 43 50
REMARK SMILES IDX 44 51 49 52 45 53 48 54 46 55 47 56 50 58 51 59 52 60
REMARK H PARENT 14 8 11 11 9 14 9 15 28 33 35 43 40 47 47 57 52 61
ROOT
ATOM      1  O   UNL     1      -3.248   1.081   7.332  1.00  0.00    -0.272 OA
ATOM      2  C   UNL     1      -3.050   0.101   8.065  1.00  0.00     0.245 C 
ENDROOT
BRANCH   2   3
ATOM      3  C   UNL     1      -1.718  -0.677   7.918  1.00  0.00     0.168 C 
ATOM      4  C   UNL     1      -1.064  -0.893   9.278  1.00  0.00     0.041 C 
BRANCH   3   5
ATOM      5  N   UNL     1      -1.814  -1.915   7.160  1.00  0.00    -0.342 N 
ATOM      6  C   UNL     1      -1.710  -1.937   5.785  1.00  0.00     0.251 C 
ATOM      7  O   UNL     1      -1.574  -0.928   5.101  1.00  0.00    -0.272 OA
ATOM      8  H   UNL     1      -1.962  -2.813   7.616  1.00  0.00     0.164 HD
BRANCH   6   9
ATOM      9  C   UNL     1      -1.698  -3.364   5.213  1.00  0.00     0.219 C 
BRANCH   9  10
ATOM     10  O   UNL     1      -2.558  -3.511   4.077  1.00  0.00    -0.382 OA
ATOM     11  H   UNL     1      -2.470  -4.461   3.842  1.00  0.00     0.211 HD
ENDBRANCH   9  10
BRANCH   9  12
ATOM     12  C   UNL     1      -0.270  -3.879   4.893  1.00  0.00     0.089 C 
BRANCH  12  13
ATOM     13  N   UNL     1       0.501  -2.770   4.285  1.00  0.00    -0.325 NA
ATOM     14  H   UNL     1       1.160  -2.402   4.974  1.00  0.00     0.119 HD
ATOM     15  H   UNL     1      -0.135  -1.996   4.083  1.00  0.00     0.119 HD
ENDBRANCH  12  13
BRANCH  12  16
ATOM     16  C   UNL     1       0.515  -4.483   6.082  1.00  0.00     0.022 C 
BRANCH  16  17
ATOM     17  C   UNL     1       1.443  -5.680   5.833  1.00  0.00     0.002 C 
BRANCH  17  18
ATOM     18  C   UNL     1       0.747  -6.940   5.324  1.00  0.00     0.000 C 
BRANCH  18  19
ATOM     19  C   UNL     1       0.216  -7.853   6.438  1.00  0.00    -0.000 C 
BRANCH  19  20
ATOM     20  C   UNL     1      -1.280  -8.172   6.359  1.00  0.00    -0.000 C 
BRANCH  20  21
ATOM     21  C   UNL     1      -2.089  -7.082   5.651  1.00  0.00    -0.003 C 
ATOM     22  C   UNL     1      -3.253  -6.610   6.510  1.00  0.00     0.004 C 
ENDBRANCH  20  21
ENDBRANCH  19  20
ENDBRANCH  18  19
ENDBRANCH  17  18
ENDBRANCH  16  17
ENDBRANCH  12  16
ENDBRANCH   9  12
ENDBRANCH   6   9
ENDBRANCH   3   5
ENDBRANCH   2   3
BRANCH   2  23
ATOM     23  N   UNL     1      -3.955  -0.208   9.074  1.00  0.00    -0.332 N 
ATOM     24  C   UNL     1      -4.310   0.686  10.167  1.00  0.00     0.147 C 
BRANCH  23  25
ATOM     25  C   UNL     1      -4.738  -1.473   9.021  1.00  0.00     0.174 C 
BRANCH  25  26
ATOM     26  C   UNL     1      -6.257  -1.250   9.214  1.00  0.00     0.038 C 
BRANCH  26  27
ATOM     27  C   UNL     1      -7.160  -2.502   9.159  1.00  0.00    -0.015 C 
ATOM     28  C   UNL     1      -8.620  -2.183   9.484  1.00  0.00     0.007 C 
ATOM     29  C   UNL     1      -7.058  -3.268   7.843  1.00  0.00     0.007 C 
ENDBRANCH  26  27
ENDBRANCH  25  26
BRANCH  25  30
ATOM     30  C   UNL     1      -4.135  -2.513   9.992  1.00  0.00     0.243 C 
ATOM     31  O   UNL     1      -3.997  -2.280  11.191  1.00  0.00    -0.273 OA
ATOM     32  N   UNL     1      -3.760  -3.705   9.426  1.00  0.00    -0.342 N 
ATOM     33  H   UNL     1      -4.036  -3.876   8.456  1.00  0.00     0.164 HD
BRANCH  32  34
ATOM     34  C   UNL     1      -3.146  -4.796  10.188  1.00  0.00     0.175 C 
BRANCH  34  35
ATOM     35  C   UNL     1      -3.925  -6.109  10.010  1.00  0.00     0.070 C 
BRANCH  35  36
ATOM     36  C   UNL     1      -5.402  -5.955  10.293  1.00  0.00    -0.045 A 
ATOM     37  C   UNL     1      -5.830  -5.353  11.486  1.00  0.00     0.007 A 
ATOM     38  C   UNL     1      -6.360  -6.428   9.387  1.00  0.00     0.007 A 
ATOM     39  C   UNL     1      -7.191  -5.219  11.762  1.00  0.00     0.046 A 
ATOM     40  C   UNL     1      -7.723  -6.295   9.663  1.00  0.00     0.046 A 
ATOM     41  C   UNL     1      -8.126  -5.690  10.849  1.00  0.00     0.115 A 
BRANCH  41  42
ATOM     42  O   UNL     1      -9.446  -5.543  11.157  1.00  0.00    -0.508 OA
ATOM     43  H   UNL     1      -9.565  -5.762  12.097  1.00  0.00     0.293 HD
ENDBRANCH  41  42
ENDBRANCH  35  36
ENDBRANCH  34  35
BRANCH  34  44
ATOM     44  C   UNL     1      -1.676  -4.930   9.731  1.00  0.00     0.243 C 
ATOM     45  O   UNL     1      -1.276  -4.682   8.597  1.00  0.00    -0.273 OA
ATOM     46  N   UNL     1      -0.853  -5.488  10.687  1.00  0.00    -0.341 N 
ATOM     47  H   UNL     1      -1.256  -5.786  11.572  1.00  0.00     0.164 HD
BRANCH  46  48
ATOM     48  C   UNL     1       0.565  -5.776  10.460  1.00  0.00     0.196 C 
BRANCH  48  49
ATOM     49  C   UNL     1       1.463  -4.892  11.342  1.00  0.00     0.072 C 
BRANCH  49  50
ATOM     50  C   UNL     1       2.761  -4.521  10.661  1.00  0.00    -0.045 A 
ATOM     51  C   UNL     1       2.911  -4.727   9.282  1.00  0.00     0.007 A 
ATOM     52  C   UNL     1       3.832  -3.991  11.391  1.00  0.00     0.007 A 
ATOM     53  C   UNL     1       4.109  -4.401   8.645  1.00  0.00     0.046 A 
ATOM     54  C   UNL     1       5.032  -3.665  10.754  1.00  0.00     0.046 A 
ATOM     55  C   UNL     1       5.160  -3.873   9.385  1.00  0.00     0.115 A 
BRANCH  55  56
ATOM     56  O   UNL     1       6.314  -3.569   8.726  1.00  0.00    -0.508 OA
ATOM     57  H   UNL     1       6.881  -3.054   9.322  1.00  0.00     0.293 HD
ENDBRANCH  55  56
ENDBRANCH  49  50
ENDBRANCH  48  49
BRANCH  48  58
ATOM     58  C   UNL     1       0.830  -7.255  10.775  1.00  0.00     0.326 C 
ATOM     59  O   UNL     1       1.062  -8.150   9.978  1.00  0.00    -0.250 OA
BRANCH  58  60
ATOM     60  O   UNL     1       0.805  -7.539  12.102  1.00  0.00    -0.480 OA
ATOM     61  H   UNL     1      -0.012  -7.094  12.413  1.00  0.00     0.296 HD
ENDBRANCH  58  60
ENDBRANCH  48  58
ENDBRANCH  46  48
ENDBRANCH  34  44
ENDBRANCH  32  34
ENDBRANCH  25  30
ENDBRANCH  23  25
ENDBRANCH   2  23
TORSDOF 28
ENDMDL
MODEL 8
REMARK VINA RESULT:    -4.625      2.239      4.257
REMARK INTER + INTRA:         -18.496
REMARK INTER:                 -13.663
REMARK INTRA:                  -4.832
REMARK UNBOUND:                -6.976
REMARK SMILES CCCCCCC[C@H](N)[C@H](O)C(=O)N[C@H](C)C(=O)N(C)[C@H](CC(C)C)C(=O)N[C@@H](Cc1ccc(O)cc1)C(=O)N[C@@H](Cc1ccc(O)cc1)C(=O)O
REMARK SMILES IDX 18 1 17 2 15 3 16 4 14 5 12 6 13 7 10 9 11 10 8 12 9 13 7 16
REMARK SMILES IDX 6 17 5 18 4 19 3 20 2 21 1 22 19 23 20 24 21 25 22 26 23 27
REMARK SMILES IDX 24 28 25 29 26 30 27 31 28 32 29 34 30 35 31 36 32 37 37 38
REMARK SMILES IDX 33 39 36 40 34 41 35 42 38 44 39 45 40 46 41 48 42 49 43 50
REMARK SMILES IDX 44 51 49 52 45 53 48 54 46 55 47 56 50 58 51 59 52 60
REMARK H PARENT 14 8 11 11 9 14 9 15 28 33 35 43 40 47 47 57 52 61
ROOT
ATOM      1  O   UNL     1      -8.917  -1.980   8.769  1.00  0.00    -0.272 OA
ATOM      2  C   UNL     1      -8.561  -2.488   9.843  1.00  0.00     0.245 C 
ENDROOT
BRANCH   2   3
ATOM      3  C   UNL     1      -8.989  -3.944  10.152  1.00  0.00     0.168 C 
ATOM      4  C   UNL     1     -10.452  -4.169   9.782  1.00  0.00     0.041 C 
BRANCH   3   5
ATOM      5  N   UNL     1      -8.124  -4.969   9.588  1.00  0.00    -0.342 N 
ATOM      6  C   UNL     1      -7.874  -6.154  10.246  1.00  0.00     0.251 C 
ATOM      7  O   UNL     1      -8.320  -6.417  11.358  1.00  0.00    -0.272 OA
ATOM      8  H   UNL     1      -7.669  -4.849   8.686  1.00  0.00     0.164 HD
BRANCH   6   9
ATOM      9  C   UNL     1      -7.052  -7.141   9.402  1.00  0.00     0.219 C 
BRANCH   9  10
ATOM     10  O   UNL     1      -6.233  -6.485   8.427  1.00  0.00    -0.382 OA
ATOM     11  H   UNL     1      -6.885  -6.068   7.821  1.00  0.00     0.211 HD
ENDBRANCH   9  10
BRANCH   9  12
ATOM     12  C   UNL     1      -6.209  -8.120  10.260  1.00  0.00     0.089 C 
BRANCH  12  13
ATOM     13  N   UNL     1      -6.785  -9.477  10.122  1.00  0.00    -0.325 NA
ATOM     14  H   UNL     1      -7.082  -9.620   9.155  1.00  0.00     0.119 HD
ATOM     15  H   UNL     1      -7.644  -9.530  10.675  1.00  0.00     0.119 HD
ENDBRANCH  12  13
BRANCH  12  16
ATOM     16  C   UNL     1      -4.692  -8.154   9.957  1.00  0.00     0.022 C 
BRANCH  16  17
ATOM     17  C   UNL     1      -3.857  -9.342  10.454  1.00  0.00     0.002 C 
BRANCH  17  18
ATOM     18  C   UNL     1      -2.512  -9.522   9.753  1.00  0.00     0.000 C 
BRANCH  18  19
ATOM     19  C   UNL     1      -2.453  -8.912   8.347  1.00  0.00    -0.000 C 
BRANCH  19  20
ATOM     20  C   UNL     1      -1.077  -8.955   7.676  1.00  0.00    -0.000 C 
BRANCH  20  21
ATOM     21  C   UNL     1      -1.068  -8.319   6.284  1.00  0.00    -0.003 C 
ATOM     22  C   UNL     1       0.343  -8.230   5.723  1.00  0.00     0.004 C 
ENDBRANCH  20  21
ENDBRANCH  19  20
ENDBRANCH  18  19
ENDBRANCH  17  18
ENDBRANCH  16  17
ENDBRANCH  12  16
ENDBRANCH   9  12
ENDBRANCH   6   9
ENDBRANCH   3   5
ENDBRANCH   2   3
BRANCH   2  23
ATOM     23  N   UNL     1      -7.695  -1.799  10.685  1.00  0.00    -0.332 N 
ATOM     24  C   UNL     1      -8.117  -0.919  11.764  1.00  0.00     0.147 C 
BRANCH  23  25
ATOM     25  C   UNL     1      -6.226  -2.032  10.605  1.00  0.00     0.174 C 
BRANCH  25  26
ATOM     26  C   UNL     1      -5.545  -2.062  11.993  1.00  0.00     0.038 C 
BRANCH  26  27
ATOM     27  C   UNL     1      -4.854  -3.381  12.405  1.00  0.00    -0.015 C 
ATOM     28  C   UNL     1      -4.928  -4.446  11.312  1.00  0.00     0.007 C 
ATOM     29  C   UNL     1      -3.413  -3.190  12.873  1.00  0.00     0.007 C 
ENDBRANCH  26  27
ENDBRANCH  25  26
BRANCH  25  30
ATOM     30  C   UNL     1      -5.582  -1.032   9.617  1.00  0.00     0.243 C 
ATOM     31  O   UNL     1      -6.116   0.040   9.337  1.00  0.00    -0.273 OA
ATOM     32  N   UNL     1      -4.385  -1.422   9.075  1.00  0.00    -0.342 N 
ATOM     33  H   UNL     1      -3.938  -2.257   9.463  1.00  0.00     0.164 HD
BRANCH  32  34
ATOM     34  C   UNL     1      -3.645  -0.614   8.101  1.00  0.00     0.175 C 
BRANCH  34  35
ATOM     35  C   UNL     1      -2.306  -0.131   8.679  1.00  0.00     0.070 C 
BRANCH  35  36
ATOM     36  C   UNL     1      -1.962   1.280   8.256  1.00  0.00    -0.045 A 
ATOM     37  C   UNL     1      -2.832   2.337   8.563  1.00  0.00     0.007 A 
ATOM     38  C   UNL     1      -0.790   1.549   7.537  1.00  0.00     0.007 A 
ATOM     39  C   UNL     1      -2.530   3.639   8.165  1.00  0.00     0.046 A 
ATOM     40  C   UNL     1      -0.487   2.853   7.137  1.00  0.00     0.046 A 
ATOM     41  C   UNL     1      -1.361   3.887   7.456  1.00  0.00     0.115 A 
BRANCH  41  42
ATOM     42  O   UNL     1      -1.104   5.173   7.083  1.00  0.00    -0.508 OA
ATOM     43  H   UNL     1      -1.769   5.749   7.496  1.00  0.00     0.293 HD
ENDBRANCH  41  42
ENDBRANCH  35  36
ENDBRANCH  34  35
BRANCH  34  44
ATOM     44  C   UNL     1      -3.450  -1.463   6.825  1.00  0.00     0.243 C 
ATOM     45  O   UNL     1      -4.366  -1.947   6.167  1.00  0.00    -0.273 OA
ATOM     46  N   UNL     1      -2.128  -1.747   6.551  1.00  0.00    -0.341 N 
ATOM     47  H   UNL     1      -1.410  -1.421   7.193  1.00  0.00     0.164 HD
BRANCH  46  48
ATOM     48  C   UNL     1      -1.700  -2.591   5.433  1.00  0.00     0.196 C 
BRANCH  48  49
ATOM     49  C   UNL     1      -2.159  -4.047   5.623  1.00  0.00     0.072 C 
BRANCH  49  50
ATOM     50  C   UNL     1      -1.682  -4.642   6.928  1.00  0.00    -0.045 A 
ATOM     51  C   UNL     1      -2.610  -4.965   7.929  1.00  0.00     0.007 A 
ATOM     52  C   UNL     1      -0.319  -4.858   7.167  1.00  0.00     0.007 A 
ATOM     53  C   UNL     1      -2.180  -5.503   9.143  1.00  0.00     0.046 A 
ATOM     54  C   UNL     1       0.111  -5.395   8.382  1.00  0.00     0.046 A 
ATOM     55  C   UNL     1      -0.824  -5.714   9.360  1.00  0.00     0.115 A 
BRANCH  55  56
ATOM     56  O   UNL     1      -0.446  -6.239  10.561  1.00  0.00    -0.508 OA
ATOM     57  H   UNL     1       0.404  -6.692  10.442  1.00  0.00     0.293 HD
ENDBRANCH  55  56
ENDBRANCH  49  50
ENDBRANCH  48  49
BRANCH  48  58
ATOM     58  C   UNL     1      -2.289  -2.031   4.131  1.00  0.00     0.326 C 
ATOM     59  O   UNL     1      -2.195  -0.891   3.708  1.00  0.00    -0.250 OA
BRANCH  58  60
ATOM     60  O   UNL     1      -2.968  -2.954   3.404  1.00  0.00    -0.480 OA
ATOM     61  H   UNL     1      -3.818  -2.504   3.205  1.00  0.00     0.296 HD
ENDBRANCH  58  60
ENDBRANCH  48  58
ENDBRANCH  46  48
ENDBRANCH  34  44
ENDBRANCH  32  34
ENDBRANCH  25  30
ENDBRANCH  23  25
ENDBRANCH   2  23
TORSDOF 28
ENDMDL
MODEL 9
REMARK VINA RESULT:    -4.620      3.256      6.949
REMARK INTER + INTRA:         -18.482
REMARK INTER:                 -14.625
REMARK INTRA:                  -3.857
REMARK UNBOUND:                -6.976
REMARK SMILES CCCCCCC[C@H](N)[C@H](O)C(=O)N[C@H](C)C(=O)N(C)[C@H](CC(C)C)C(=O)N[C@@H](Cc1ccc(O)cc1)C(=O)N[C@@H](Cc1ccc(O)cc1)C(=O)O
REMARK SMILES IDX 18 1 17 2 15 3 16 4 14 5 12 6 13 7 10 9 11 10 8 12 9 13 7 16
REMARK SMILES IDX 6 17 5 18 4 19 3 20 2 21 1 22 19 23 20 24 21 25 22 26 23 27
REMARK SMILES IDX 24 28 25 29 26 30 27 31 28 32 29 34 30 35 31 36 32 37 37 38
REMARK SMILES IDX 33 39 36 40 34 41 35 42 38 44 39 45 40 46 41 48 42 49 43 50
REMARK SMILES IDX 44 51 49 52 45 53 48 54 46 55 47 56 50 58 51 59 52 60
REMARK H PARENT 14 8 11 11 9 14 9 15 28 33 35 43 40 47 47 57 52 61
ROOT
ATOM      1  O   UNL     1      -5.395  -1.764  11.974  1.00  0.00    -0.272 OA
ATOM      2  C   UNL     1      -5.504  -2.998  11.914  1.00  0.00     0.245 C 
ENDROOT
BRANCH   2   3
ATOM      3  C   UNL     1      -6.856  -3.642  12.312  1.00  0.00     0.168 C 
ATOM      4  C   UNL     1      -7.335  -3.109  13.658  1.00  0.00     0.041 C 
BRANCH   3   5
ATOM      5  N   UNL     1      -7.894  -3.560  11.296  1.00  0.00    -0.342 N 
ATOM      6  C   UNL     1      -8.692  -4.640  10.982  1.00  0.00     0.251 C 
ATOM      7  O   UNL     1      -8.565  -5.746  11.494  1.00  0.00    -0.272 OA
ATOM      8  H   UNL     1      -8.070  -2.702  10.777  1.00  0.00     0.164 HD
BRANCH   6   9
ATOM      9  C   UNL     1      -9.809  -4.284   9.987  1.00  0.00     0.219 C 
BRANCH   9  10
ATOM     10  O   UNL     1     -11.110  -4.641  10.468  1.00  0.00    -0.382 OA
ATOM     11  H   UNL     1     -11.032  -4.542  11.442  1.00  0.00     0.211 HD
ENDBRANCH   9  10
BRANCH   9  12
ATOM     12  C   UNL     1      -9.775  -2.799   9.539  1.00  0.00     0.089 C 
BRANCH  12  13
ATOM     13  N   UNL     1      -8.658  -2.625   8.582  1.00  0.00    -0.325 NA
ATOM     14  H   UNL     1      -8.243  -1.701   8.715  1.00  0.00     0.119 HD
ATOM     15  H   UNL     1      -9.035  -2.614   7.632  1.00  0.00     0.119 HD
ENDBRANCH  12  13
BRANCH  12  16
ATOM     16  C   UNL     1     -11.086  -2.244   8.932  1.00  0.00     0.022 C 
BRANCH  16  17
ATOM     17  C   UNL     1     -11.052  -0.910   8.175  1.00  0.00     0.002 C 
BRANCH  17  18
ATOM     18  C   UNL     1     -11.117   0.334   9.058  1.00  0.00     0.000 C 
BRANCH  18  19
ATOM     19  C   UNL     1     -11.516   1.612   8.308  1.00  0.00    -0.000 C 
BRANCH  19  20
ATOM     20  C   UNL     1     -10.437   2.189   7.387  1.00  0.00    -0.000 C 
BRANCH  20  21
ATOM     21  C   UNL     1     -10.831   2.157   5.908  1.00  0.00    -0.003 C 
ATOM     22  C   UNL     1     -10.044   3.179   5.102  1.00  0.00     0.004 C 
ENDBRANCH  20  21
ENDBRANCH  19  20
ENDBRANCH  18  19
ENDBRANCH  17  18
ENDBRANCH  16  17
ENDBRANCH  12  16
ENDBRANCH   9  12
ENDBRANCH   6   9
ENDBRANCH   3   5
ENDBRANCH   2   3
BRANCH   2  23
ATOM     23  N   UNL     1      -4.471  -3.763  11.384  1.00  0.00    -0.332 N 
ATOM     24  C   UNL     1      -3.115  -3.798  11.911  1.00  0.00     0.147 C 
BRANCH  23  25
ATOM     25  C   UNL     1      -4.739  -4.724  10.279  1.00  0.00     0.174 C 
BRANCH  25  26
ATOM     26  C   UNL     1      -3.657  -5.823  10.161  1.00  0.00     0.038 C 
BRANCH  26  27
ATOM     27  C   UNL     1      -4.063  -7.253  10.581  1.00  0.00    -0.015 C 
ATOM     28  C   UNL     1      -3.664  -8.302   9.543  1.00  0.00     0.007 C 
ATOM     29  C   UNL     1      -3.554  -7.647  11.965  1.00  0.00     0.007 C 
ENDBRANCH  26  27
ENDBRANCH  25  26
BRANCH  25  30
ATOM     30  C   UNL     1      -4.995  -3.960   8.960  1.00  0.00     0.243 C 
ATOM     31  O   UNL     1      -6.127  -3.823   8.497  1.00  0.00    -0.273 OA
ATOM     32  N   UNL     1      -3.881  -3.453   8.341  1.00  0.00    -0.342 N 
ATOM     33  H   UNL     1      -2.998  -3.484   8.857  1.00  0.00     0.164 HD
BRANCH  32  34
ATOM     34  C   UNL     1      -3.931  -2.725   7.071  1.00  0.00     0.175 C 
BRANCH  34  35
ATOM     35  C   UNL     1      -3.690  -1.222   7.278  1.00  0.00     0.070 C 
BRANCH  35  36
ATOM     36  C   UNL     1      -2.629  -0.937   8.317  1.00  0.00    -0.045 A 
ATOM     37  C   UNL     1      -3.002  -0.637   9.636  1.00  0.00     0.007 A 
ATOM     38  C   UNL     1      -1.270  -0.946   7.978  1.00  0.00     0.007 A 
ATOM     39  C   UNL     1      -2.031  -0.359  10.599  1.00  0.00     0.046 A 
ATOM     40  C   UNL     1      -0.297  -0.667   8.941  1.00  0.00     0.046 A 
ATOM     41  C   UNL     1      -0.687  -0.377  10.244  1.00  0.00     0.115 A 
BRANCH  41  42
ATOM     42  O   UNL     1       0.230  -0.097  11.213  1.00  0.00    -0.508 OA
ATOM     43  H   UNL     1       1.098  -0.412  10.912  1.00  0.00     0.293 HD
ENDBRANCH  41  42
ENDBRANCH  35  36
ENDBRANCH  34  35
BRANCH  34  44
ATOM     44  C   UNL     1      -2.886  -3.351   6.119  1.00  0.00     0.243 C 
ATOM     45  O   UNL     1      -2.829  -3.134   4.912  1.00  0.00    -0.273 OA
ATOM     46  N   UNL     1      -2.086  -4.295   6.727  1.00  0.00    -0.341 N 
ATOM     47  H   UNL     1      -2.250  -4.526   7.704  1.00  0.00     0.164 HD
BRANCH  46  48
ATOM     48  C   UNL     1      -1.070  -5.071   6.013  1.00  0.00     0.196 C 
BRANCH  48  49
ATOM     49  C   UNL     1      -0.216  -5.903   6.984  1.00  0.00     0.072 C 
BRANCH  49  50
ATOM     50  C   UNL     1       1.088  -6.358   6.369  1.00  0.00    -0.045 A 
ATOM     51  C   UNL     1       2.189  -5.490   6.341  1.00  0.00     0.007 A 
ATOM     52  C   UNL     1       1.212  -7.634   5.803  1.00  0.00     0.007 A 
ATOM     53  C   UNL     1       3.393  -5.894   5.764  1.00  0.00     0.046 A 
ATOM     54  C   UNL     1       2.417  -8.038   5.224  1.00  0.00     0.046 A 
ATOM     55  C   UNL     1       3.498  -7.164   5.210  1.00  0.00     0.115 A 
BRANCH  55  56
ATOM     56  O   UNL     1       4.692  -7.519   4.655  1.00  0.00    -0.508 OA
ATOM     57  H   UNL     1       4.813  -7.008   3.839  1.00  0.00     0.293 HD
ENDBRANCH  55  56
ENDBRANCH  49  50
ENDBRANCH  48  49
BRANCH  48  58
ATOM     58  C   UNL     1      -1.766  -6.003   5.011  1.00  0.00     0.326 C 
ATOM     59  O   UNL     1      -2.527  -6.923   5.263  1.00  0.00    -0.250 OA
BRANCH  58  60
ATOM     60  O   UNL     1      -1.477  -5.718   3.717  1.00  0.00    -0.480 OA
ATOM     61  H   UNL     1      -0.498  -5.639   3.715  1.00  0.00     0.296 HD
ENDBRANCH  58  60
ENDBRANCH  48  58
ENDBRANCH  46  48
ENDBRANCH  34  44
ENDBRANCH  32  34
ENDBRANCH  25  30
ENDBRANCH  23  25
ENDBRANCH   2  23
TORSDOF 28
ENDMDL
MODEL 10
REMARK VINA RESULT:    -4.617      3.755     10.242
REMARK INTER + INTRA:         -18.476
REMARK INTER:                 -15.764
REMARK INTRA:                  -2.712
REMARK UNBOUND:                -6.976
REMARK SMILES CCCCCCC[C@H](N)[C@H](O)C(=O)N[C@H](C)C(=O)N(C)[C@H](CC(C)C)C(=O)N[C@@H](Cc1ccc(O)cc1)C(=O)N[C@@H](Cc1ccc(O)cc1)C(=O)O
REMARK SMILES IDX 18 1 17 2 15 3 16 4 14 5 12 6 13 7 10 9 11 10 8 12 9 13 7 16
REMARK SMILES IDX 6 17 5 18 4 19 3 20 2 21 1 22 19 23 20 24 21 25 22 26 23 27
REMARK SMILES IDX 24 28 25 29 26 30 27 31 28 32 29 34 30 35 31 36 32 37 37 38
REMARK SMILES IDX 33 39 36 40 34 41 35 42 38 44 39 45 40 46 41 48 42 49 43 50
REMARK SMILES IDX 44 51 49 52 45 53 48 54 46 55 47 56 50 58 51 59 52 60
REMARK H PARENT 14 8 11 11 9 14 9 15 28 33 35 43 40 47 47 57 52 61
ROOT
ATOM      1  O   UNL     1      -0.229  -0.794   5.972  1.00  0.00    -0.272 OA
ATOM      2  C   UNL     1      -1.340  -0.619   6.494  1.00  0.00     0.245 C 
ENDROOT
BRANCH   2   3
ATOM      3  C   UNL     1      -1.580   0.676   7.309  1.00  0.00     0.168 C 
ATOM      4  C   UNL     1      -0.454   0.901   8.312  1.00  0.00     0.041 C 
BRANCH   3   5
ATOM      5  N   UNL     1      -1.838   1.863   6.509  1.00  0.00    -0.342 N 
ATOM      6  C   UNL     1      -2.676   2.867   6.944  1.00  0.00     0.251 C 
ATOM      7  O   UNL     1      -3.294   2.821   8.003  1.00  0.00    -0.272 OA
ATOM      8  H   UNL     1      -1.409   1.998   5.596  1.00  0.00     0.164 HD
BRANCH   6   9
ATOM      9  C   UNL     1      -2.687   4.083   6.004  1.00  0.00     0.219 C 
BRANCH   9  10
ATOM     10  O   UNL     1      -3.977   4.700   5.912  1.00  0.00    -0.382 OA
ATOM     11  H   UNL     1      -3.899   5.282   5.125  1.00  0.00     0.211 HD
ENDBRANCH   9  10
BRANCH   9  12
ATOM     12  C   UNL     1      -1.599   5.132   6.354  1.00  0.00     0.089 C 
BRANCH  12  13
ATOM     13  N   UNL     1      -0.625   4.506   7.277  1.00  0.00    -0.325 NA
ATOM     14  H   UNL     1      -0.915   4.682   8.241  1.00  0.00     0.119 HD
ATOM     15  H   UNL     1       0.276   4.979   7.179  1.00  0.00     0.119 HD
ENDBRANCH  12  13
BRANCH  12  16
ATOM     16  C   UNL     1      -0.859   5.767   5.152  1.00  0.00     0.022 C 
BRANCH  16  17
ATOM     17  C   UNL     1      -0.979   7.279   4.915  1.00  0.00     0.002 C 
BRANCH  17  18
ATOM     18  C   UNL     1      -2.370   7.759   4.508  1.00  0.00     0.000 C 
BRANCH  18  19
ATOM     19  C   UNL     1      -2.398   8.547   3.191  1.00  0.00    -0.000 C 
BRANCH  19  20
ATOM     20  C   UNL     1      -1.256   8.232   2.221  1.00  0.00    -0.000 C 
BRANCH  20  21
ATOM     21  C   UNL     1      -0.562   9.487   1.685  1.00  0.00    -0.003 C 
ATOM     22  C   UNL     1      -0.576  10.609   2.712  1.00  0.00     0.004 C 
ENDBRANCH  20  21
ENDBRANCH  19  20
ENDBRANCH  18  19
ENDBRANCH  17  18
ENDBRANCH  16  17
ENDBRANCH  12  16
ENDBRANCH   9  12
ENDBRANCH   6   9
ENDBRANCH   3   5
ENDBRANCH   2   3
BRANCH   2  23
ATOM     23  N   UNL     1      -2.376  -1.512   6.241  1.00  0.00    -0.332 N 
ATOM     24  C   UNL     1      -3.460  -1.275   5.299  1.00  0.00     0.147 C 
BRANCH  23  25
ATOM     25  C   UNL     1      -2.363  -2.869   6.853  1.00  0.00     0.174 C 
BRANCH  25  26
ATOM     26  C   UNL     1      -2.489  -4.002   5.807  1.00  0.00     0.038 C 
BRANCH  26  27
ATOM     27  C   UNL     1      -1.181  -4.495   5.148  1.00  0.00    -0.015 C 
ATOM     28  C   UNL     1      -1.309  -5.909   4.582  1.00  0.00     0.007 C 
ATOM     29  C   UNL     1      -0.637  -3.539   4.090  1.00  0.00     0.007 C 
ENDBRANCH  26  27
ENDBRANCH  25  26
BRANCH  25  30
ATOM     30  C   UNL     1      -3.410  -2.951   7.987  1.00  0.00     0.243 C 
ATOM     31  O   UNL     1      -3.241  -2.390   9.069  1.00  0.00    -0.273 OA
ATOM     32  N   UNL     1      -4.529  -3.693   7.709  1.00  0.00    -0.342 N 
ATOM     33  H   UNL     1      -4.661  -4.008   6.744  1.00  0.00     0.164 HD
BRANCH  32  34
ATOM     34  C   UNL     1      -5.612  -3.902   8.674  1.00  0.00     0.175 C 
BRANCH  34  35
ATOM     35  C   UNL     1      -6.987  -3.846   7.991  1.00  0.00     0.070 C 
BRANCH  35  36
ATOM     36  C   UNL     1      -8.098  -3.466   8.944  1.00  0.00    -0.045 A 
ATOM     37  C   UNL     1      -8.346  -2.115   9.231  1.00  0.00     0.007 A 
ATOM     38  C   UNL     1      -8.877  -4.449   9.568  1.00  0.00     0.007 A 
ATOM     39  C   UNL     1      -9.360  -1.756  10.119  1.00  0.00     0.046 A 
ATOM     40  C   UNL     1      -9.892  -4.090  10.459  1.00  0.00     0.046 A 
ATOM     41  C   UNL     1     -10.124  -2.745  10.726  1.00  0.00     0.115 A 
BRANCH  41  42
ATOM     42  O   UNL     1     -11.103  -2.352  11.590  1.00  0.00    -0.508 OA
ATOM     43  H   UNL     1     -10.801  -2.534  12.495  1.00  0.00     0.293 HD
ENDBRANCH  41  42
ENDBRANCH  35  36
ENDBRANCH  34  35
BRANCH  34  44
ATOM     44  C   UNL     1      -5.372  -5.257   9.376  1.00  0.00     0.243 C 
ATOM     45  O   UNL     1      -4.795  -5.388  10.452  1.00  0.00    -0.273 OA
ATOM     46  N   UNL     1      -5.752  -6.344   8.618  1.00  0.00    -0.341 N 
ATOM     47  H   UNL     1      -6.119  -6.189   7.682  1.00  0.00     0.164 HD
BRANCH  46  48
ATOM     48  C   UNL     1      -5.560  -7.732   9.045  1.00  0.00     0.196 C 
BRANCH  48  49
ATOM     49  C   UNL     1      -4.259  -7.896   9.847  1.00  0.00     0.072 C 
BRANCH  49  50
ATOM     50  C   UNL     1      -3.137  -8.486   9.023  1.00  0.00    -0.045 A 
ATOM     51  C   UNL     1      -2.700  -7.827   7.865  1.00  0.00     0.007 A 
ATOM     52  C   UNL     1      -2.537  -9.698   9.386  1.00  0.00     0.007 A 
ATOM     53  C   UNL     1      -1.675  -8.369   7.089  1.00  0.00     0.046 A 
ATOM     54  C   UNL     1      -1.511 -10.241   8.608  1.00  0.00     0.046 A 
ATOM     55  C   UNL     1      -1.088  -9.570   7.466  1.00  0.00     0.115 A 
BRANCH  55  56
ATOM     56  O   UNL     1      -0.091 -10.067   6.680  1.00  0.00    -0.508 OA
ATOM     57  H   UNL     1      -0.409 -10.093   5.763  1.00  0.00     0.293 HD
ENDBRANCH  55  56
ENDBRANCH  49  50
ENDBRANCH  48  49
BRANCH  48  58
ATOM     58  C   UNL     1      -6.755  -8.158   9.909  1.00  0.00     0.326 C 
ATOM     59  O   UNL     1      -7.573  -7.431  10.449  1.00  0.00    -0.250 OA
BRANCH  58  60
ATOM     60  O   UNL     1      -6.874  -9.503  10.042  1.00  0.00    -0.480 OA
ATOM     61  H   UNL     1      -6.309  -9.853   9.320  1.00  0.00     0.296 HD
ENDBRANCH  58  60
ENDBRANCH  48  58
ENDBRANCH  46  48
ENDBRANCH  34  44
ENDBRANCH  32  34
ENDBRANCH  25  30
ENDBRANCH  23  25
ENDBRANCH   2  23
TORSDOF 28
ENDMDL
