MODEL 1
REMARK VINA RESULT:    -5.062      0.000      0.000
REMARK INTER + INTRA:         -11.390
REMARK INTER:                  -9.056
REMARK INTRA:                  -2.333
REMARK UNBOUND:                -2.333
REMARK SMILES CC[C@H](C)[C@H]1NC(=O)c2coc(n2)[C@H](C(C)C)NC(=O)[C@H]([C@@H](C)O)NC(=O)[C@H](C)NC(=O)c2csc1n2
REMARK SMILES IDX 11 1 13 2 12 3 9 4 10 5 7 6 6 7 8 8 5 10 36 11 35 12 34 13
REMARK SMILES IDX 37 14 33 15 31 16 32 17 30 18 28 20 29 21 3 23 4 24 2 25
REMARK SMILES IDX 1 26 14 27 18 28 19 29 20 30 21 32 25 33 26 34 27 35 22 38
REMARK SMILES IDX 23 39 24 40 15 42 16 43 17 44
REMARK H PARENT 6 9 30 19 18 31 25 36 24 41
REMARK Flexibility Score:   94.900
ROOT
ATOM      1  O   UNL     1     -12.751   2.904  -7.265  1.00  0.00    -0.446 OA
ATOM      2  N   UNL     1     -12.440   3.735  -9.337  1.00  0.00    -0.207 NA
ATOM      3  C   UNL     1     -13.162   2.937  -8.571  1.00  0.00     0.217 A 
ATOM      4  C   UNL     1     -11.509   4.285  -8.473  1.00  0.00     0.167 A 
ATOM      5  C   UNL     1     -11.705   3.775  -7.212  1.00  0.00     0.231 A 
ENDROOT
BRANCH   4   6
ATOM      6  C   UNL     1     -10.488   5.225  -8.900  1.00  0.00     0.273 C 
ATOM      7  N   UNL     1     -10.785   6.509  -8.519  1.00  0.00    -0.341 N 
ATOM      8  O   UNL     1      -9.497   4.903  -9.544  1.00  0.00    -0.267 OA
ATOM      9  H   UNL     1     -11.688   6.637  -8.070  1.00  0.00     0.164 HD
BRANCH   7  10
ATOM     10  C   UNL     1     -10.074   7.669  -9.020  1.00  0.00     0.145 C 
BRANCH  10  11
ATOM     11  C   UNL     1     -10.924   8.290 -10.119  1.00  0.00     0.116 A 
ATOM     12  S   UNL     1     -10.424   9.766 -10.855  1.00  0.00    -0.124 S 
ATOM     13  C   UNL     1     -11.788   9.707 -11.883  1.00  0.00     0.101 A 
ATOM     14  N   UNL     1     -12.049   7.776 -10.590  1.00  0.00    -0.234 NA
ATOM     15  C   UNL     1     -12.543   8.580 -11.620  1.00  0.00     0.139 A 
BRANCH  15  16
ATOM     16  C   UNL     1     -13.763   8.230 -12.352  1.00  0.00     0.271 C 
ATOM     17  O   UNL     1     -14.234   8.938 -13.235  1.00  0.00    -0.267 OA
ATOM     18  N   UNL     1     -14.320   7.034 -11.952  1.00  0.00    -0.339 N 
ATOM     19  H   UNL     1     -13.899   6.597 -11.137  1.00  0.00     0.164 HD
BRANCH  18  20
ATOM     20  C   UNL     1     -15.573   6.558 -12.523  1.00  0.00     0.168 CG0
ATOM     21  C   UNL     1     -15.328   5.485 -13.586  1.00  0.00     0.041 C 
ATOM     22  G   UNL     1     -16.520   5.965 -11.466  1.00  0.00     0.000 G0
ENDBRANCH  18  20
ENDBRANCH  15  16
ENDBRANCH  10  11
BRANCH  10  23
ATOM     23  C   UNL     1      -9.733   8.679  -7.893  1.00  0.00     0.015 C 
ATOM     24  C   UNL     1     -10.967   9.160  -7.112  1.00  0.00     0.010 C 
BRANCH  23  25
ATOM     25  C   UNL     1      -8.696   8.127  -6.889  1.00  0.00     0.002 C 
ATOM     26  C   UNL     1      -7.735   9.179  -6.351  1.00  0.00     0.004 C 
ENDBRANCH  23  25
ENDBRANCH  10  23
ENDBRANCH   7  10
ENDBRANCH   4   6
BRANCH   3  27
ATOM     27  C   UNL     1     -14.306   2.060  -8.999  1.00  0.00     0.171 C 
BRANCH  27  28
ATOM     28  N   UNL     1     -15.226   2.878  -9.783  1.00  0.00    -0.342 N 
ATOM     29  C   UNL     1     -16.588   2.873  -9.581  1.00  0.00     0.245 C 
ATOM     30  O   UNL     1     -17.129   2.190  -8.714  1.00  0.00    -0.273 OA
ATOM     31  H   UNL     1     -14.841   3.553 -10.442  1.00  0.00     0.164 HD
BRANCH  29  32
ATOM     32  C   UNL     1     -17.382   3.898 -10.418  1.00  0.00     0.200 C 
BRANCH  32  33
ATOM     33  N   UNL     1     -16.440   4.611 -11.290  1.00  0.00    -0.340 N 
ATOM     34  C   UNL     1     -16.531   5.974 -11.479  1.00  0.00     0.243 CG0
ATOM     35  O   UNL     1     -17.437   6.640 -10.982  1.00  0.00    -0.273 OA
ATOM     36  H   UNL     1     -15.700   4.084 -11.738  1.00  0.00     0.164 HD
ATOM     37  G   UNL     1     -15.570   6.568 -12.521  1.00  0.00     0.000 G0
ENDBRANCH  32  33
BRANCH  32  38
ATOM     38  C   UNL     1     -18.532   3.220 -11.200  1.00  0.00     0.143 C 
ATOM     39  C   UNL     1     -18.097   2.016 -12.026  1.00  0.00     0.041 C 
BRANCH  38  40
ATOM     40  O   UNL     1     -19.572   2.812 -10.291  1.00  0.00    -0.391 OA
ATOM     41  H   UNL     1     -19.196   2.870  -9.392  1.00  0.00     0.211 HD
ENDBRANCH  38  40
ENDBRANCH  32  38
ENDBRANCH  29  32
ENDBRANCH  27  28
BRANCH  27  42
ATOM     42  C   UNL     1     -13.959   0.738  -9.726  1.00  0.00     0.015 C 
ATOM     43  C   UNL     1     -12.500   0.283  -9.608  1.00  0.00     0.010 C 
ATOM     44  C   UNL     1     -14.904  -0.400  -9.327  1.00  0.00     0.010 C 
ENDBRANCH  27  42
ENDBRANCH   3  27
TORSDOF 5
ENDMDL
MODEL 2
REMARK VINA RESULT:    -4.940      4.016      7.547
REMARK INTER + INTRA:         -11.173
REMARK INTER:                  -8.899
REMARK INTRA:                  -2.273
REMARK UNBOUND:                -2.333
REMARK SMILES CC[C@H](C)[C@H]1NC(=O)c2coc(n2)[C@H](C(C)C)NC(=O)[C@H]([C@@H](C)O)NC(=O)[C@H](C)NC(=O)c2csc1n2
REMARK SMILES IDX 11 1 13 2 12 3 9 4 10 5 7 6 6 7 8 8 5 10 36 11 35 12 34 13
REMARK SMILES IDX 37 14 33 15 31 16 32 17 30 18 28 20 29 21 3 23 4 24 2 25
REMARK SMILES IDX 1 26 14 27 18 28 19 29 20 30 21 32 25 33 26 34 27 35 22 38
REMARK SMILES IDX 23 39 24 40 15 42 16 43 17 44
REMARK H PARENT 6 9 30 19 18 31 25 36 24 41
REMARK Flexibility Score:   94.900
ROOT
ATOM      1  O   UNL     1     -13.571   7.455  -9.434  1.00  0.00    -0.446 OA
ATOM      2  N   UNL     1     -15.414   6.235  -9.878  1.00  0.00    -0.207 NA
ATOM      3  C   UNL     1     -14.098   6.305  -9.961  1.00  0.00     0.217 A 
ATOM      4  C   UNL     1     -15.776   7.404  -9.231  1.00  0.00     0.167 A 
ATOM      5  C   UNL     1     -14.649   8.142  -8.963  1.00  0.00     0.231 A 
ENDROOT
BRANCH   4   6
ATOM      6  C   UNL     1     -17.155   7.754  -8.938  1.00  0.00     0.273 C 
ATOM      7  N   UNL     1     -17.725   6.880  -8.048  1.00  0.00    -0.341 N 
ATOM      8  O   UNL     1     -17.737   8.703  -9.450  1.00  0.00    -0.267 OA
ATOM      9  H   UNL     1     -17.150   6.087  -7.779  1.00  0.00     0.164 HD
BRANCH   7  10
ATOM     10  C   UNL     1     -19.148   6.846  -7.772  1.00  0.00     0.145 C 
BRANCH  10  11
ATOM     11  C   UNL     1     -19.634   5.428  -8.036  1.00  0.00     0.116 A 
ATOM     12  S   UNL     1     -21.324   5.113  -8.163  1.00  0.00    -0.124 S 
ATOM     13  C   UNL     1     -20.987   3.466  -8.472  1.00  0.00     0.101 A 
ATOM     14  N   UNL     1     -18.850   4.375  -8.198  1.00  0.00    -0.234 NA
ATOM     15  C   UNL     1     -19.623   3.243  -8.466  1.00  0.00     0.139 A 
BRANCH  15  16
ATOM     16  C   UNL     1     -19.013   1.938  -8.726  1.00  0.00     0.271 C 
ATOM     17  O   UNL     1     -19.629   0.883  -8.620  1.00  0.00    -0.267 OA
ATOM     18  N   UNL     1     -17.687   2.014  -9.099  1.00  0.00    -0.339 N 
ATOM     19  H   UNL     1     -17.262   2.935  -9.042  1.00  0.00     0.164 HD
BRANCH  18  20
ATOM     20  C   UNL     1     -16.899   0.812  -9.333  1.00  0.00     0.168 CG0
ATOM     21  C   UNL     1     -16.711   0.550 -10.829  1.00  0.00     0.041 C 
ATOM     22  G   UNL     1     -15.504   0.882  -8.689  1.00  0.00     0.000 G0
ENDBRANCH  18  20
ENDBRANCH  15  16
ENDBRANCH  10  11
BRANCH  10  23
ATOM     23  C   UNL     1     -19.478   7.326  -6.334  1.00  0.00     0.015 C 
ATOM     24  C   UNL     1     -18.262   7.313  -5.394  1.00  0.00     0.010 C 
BRANCH  23  25
ATOM     25  C   UNL     1     -20.112   8.735  -6.305  1.00  0.00     0.002 C 
ATOM     26  C   UNL     1     -19.223   9.800  -5.676  1.00  0.00     0.004 C 
ENDBRANCH  23  25
ENDBRANCH  10  23
ENDBRANCH   7  10
ENDBRANCH   4   6
BRANCH   3  27
ATOM     27  C   UNL     1     -13.175   5.305 -10.601  1.00  0.00     0.171 C 
BRANCH  27  28
ATOM     28  N   UNL     1     -13.532   3.983 -10.100  1.00  0.00    -0.342 N 
ATOM     29  C   UNL     1     -12.629   3.152  -9.474  1.00  0.00     0.245 C 
ATOM     30  O   UNL     1     -11.457   3.470  -9.278  1.00  0.00    -0.273 OA
ATOM     31  H   UNL     1     -14.510   3.697 -10.124  1.00  0.00     0.164 HD
BRANCH  29  32
ATOM     32  C   UNL     1     -13.222   1.849  -8.898  1.00  0.00     0.200 C 
BRANCH  32  33
ATOM     33  N   UNL     1     -14.628   1.760  -9.310  1.00  0.00    -0.340 N 
ATOM     34  C   UNL     1     -15.499   0.881  -8.700  1.00  0.00     0.243 CG0
ATOM     35  O   UNL     1     -15.126   0.092  -7.834  1.00  0.00    -0.273 OA
ATOM     36  H   UNL     1     -14.959   2.377 -10.043  1.00  0.00     0.164 HD
ATOM     37  G   UNL     1     -16.903   0.795  -9.321  1.00  0.00     0.000 G0
ENDBRANCH  32  33
BRANCH  32  38
ATOM     38  C   UNL     1     -12.392   0.615  -9.320  1.00  0.00     0.143 C 
ATOM     39  C   UNL     1     -12.337   0.387 -10.826  1.00  0.00     0.041 C 
BRANCH  38  40
ATOM     40  O   UNL     1     -11.047   0.730  -8.816  1.00  0.00    -0.391 OA
ATOM     41  H   UNL     1     -10.846   1.684  -8.770  1.00  0.00     0.211 HD
ENDBRANCH  38  40
ENDBRANCH  32  38
ENDBRANCH  29  32
ENDBRANCH  27  28
BRANCH  27  42
ATOM     42  C   UNL     1     -13.070   5.319 -12.146  1.00  0.00     0.015 C 
ATOM     43  C   UNL     1     -14.350   4.940 -12.899  1.00  0.00     0.010 C 
ATOM     44  C   UNL     1     -12.519   6.649 -12.671  1.00  0.00     0.010 C 
ENDBRANCH  27  42
ENDBRANCH   3  27
TORSDOF 5
ENDMDL
MODEL 3
REMARK VINA RESULT:    -4.886     13.645     17.278
REMARK INTER + INTRA:         -11.076
REMARK INTER:                  -9.136
REMARK INTRA:                  -1.940
REMARK UNBOUND:                -2.333
REMARK SMILES CC[C@H](C)[C@H]1NC(=O)c2coc(n2)[C@H](C(C)C)NC(=O)[C@H]([C@@H](C)O)NC(=O)[C@H](C)NC(=O)c2csc1n2
REMARK SMILES IDX 11 1 13 2 12 3 9 4 10 5 7 6 6 7 8 8 5 10 36 11 35 12 34 13
REMARK SMILES IDX 37 14 33 15 31 16 32 17 30 18 28 20 29 21 3 23 4 24 2 25
REMARK SMILES IDX 1 26 14 27 18 28 19 29 20 30 21 32 25 33 26 34 27 35 22 38
REMARK SMILES IDX 23 39 24 40 15 42 16 43 17 44
REMARK H PARENT 6 9 30 19 18 31 25 36 24 41
REMARK Flexibility Score:   94.900
ROOT
ATOM      1  O   UNL     1      -5.029   4.222  -0.456  1.00  0.00    -0.446 OA
ATOM      2  N   UNL     1      -4.606   5.068   1.590  1.00  0.00    -0.207 NA
ATOM      3  C   UNL     1      -5.526   4.801   0.681  1.00  0.00     0.217 A 
ATOM      4  C   UNL     1      -3.428   4.609   1.025  1.00  0.00     0.167 A 
ATOM      5  C   UNL     1      -3.693   4.095  -0.221  1.00  0.00     0.231 A 
ENDROOT
BRANCH   4   6
ATOM      6  C   UNL     1      -2.138   4.714   1.684  1.00  0.00     0.273 C 
ATOM      7  N   UNL     1      -1.599   3.480   1.948  1.00  0.00    -0.341 N 
ATOM      8  O   UNL     1      -1.616   5.780   1.987  1.00  0.00    -0.267 OA
ATOM      9  H   UNL     1      -2.188   2.684   1.723  1.00  0.00     0.164 HD
BRANCH   7  10
ATOM     10  C   UNL     1      -0.449   3.286   2.810  1.00  0.00     0.145 C 
BRANCH  10  11
ATOM     11  C   UNL     1      -0.915   3.472   4.247  1.00  0.00     0.116 A 
ATOM     12  S   UNL     1       0.170   4.117   5.420  1.00  0.00    -0.124 S 
ATOM     13  C   UNL     1      -1.064   4.026   6.600  1.00  0.00     0.101 A 
ATOM     14  N   UNL     1      -2.127   3.186   4.694  1.00  0.00    -0.234 NA
ATOM     15  C   UNL     1      -2.224   3.519   6.047  1.00  0.00     0.139 A 
BRANCH  15  16
ATOM     16  C   UNL     1      -3.471   3.344   6.795  1.00  0.00     0.271 C 
ATOM     17  O   UNL     1      -3.497   3.056   7.987  1.00  0.00    -0.267 OA
ATOM     18  N   UNL     1      -4.603   3.535   6.031  1.00  0.00    -0.339 N 
ATOM     19  H   UNL     1      -4.450   3.659   5.034  1.00  0.00     0.164 HD
BRANCH  18  20
ATOM     20  C   UNL     1      -5.933   3.335   6.590  1.00  0.00     0.168 CG0
ATOM     21  C   UNL     1      -6.592   4.669   6.948  1.00  0.00     0.041 C 
ATOM     22  G   UNL     1      -6.875   2.588   5.632  1.00  0.00     0.000 G0
ENDBRANCH  18  20
ENDBRANCH  15  16
ENDBRANCH  10  11
BRANCH  10  23
ATOM     23  C   UNL     1       0.229   1.910   2.581  1.00  0.00     0.015 C 
ATOM     24  C   UNL     1       1.746   1.929   2.833  1.00  0.00     0.010 C 
BRANCH  23  25
ATOM     25  C   UNL     1      -0.399   0.784   3.434  1.00  0.00     0.002 C 
ATOM     26  C   UNL     1      -0.199  -0.612   2.860  1.00  0.00     0.004 C 
ENDBRANCH  23  25
ENDBRANCH  10  23
ENDBRANCH   7  10
ENDBRANCH   4   6
BRANCH   3  27
ATOM     27  C   UNL     1      -6.995   5.114   0.759  1.00  0.00     0.171 C 
BRANCH  27  28
ATOM     28  N   UNL     1      -7.507   4.546   2.001  1.00  0.00    -0.342 N 
ATOM     29  C   UNL     1      -7.839   3.216   2.133  1.00  0.00     0.245 C 
ATOM     30  O   UNL     1      -7.713   2.405   1.217  1.00  0.00    -0.273 OA
ATOM     31  H   UNL     1      -7.530   5.131   2.836  1.00  0.00     0.164 HD
BRANCH  29  32
ATOM     32  C   UNL     1      -8.240   2.774   3.557  1.00  0.00     0.200 C 
BRANCH  32  33
ATOM     33  N   UNL     1      -7.247   3.303   4.500  1.00  0.00    -0.340 N 
ATOM     34  C   UNL     1      -6.871   2.589   5.619  1.00  0.00     0.243 CG0
ATOM     35  O   UNL     1      -7.393   1.515   5.910  1.00  0.00    -0.273 OA
ATOM     36  H   UNL     1      -6.821   4.201   4.303  1.00  0.00     0.164 HD
ATOM     37  G   UNL     1      -5.929   3.319   6.590  1.00  0.00     0.000 G0
ENDBRANCH  32  33
BRANCH  32  38
ATOM     38  C   UNL     1      -9.685   3.206   3.897  1.00  0.00     0.143 C 
ATOM     39  C   UNL     1     -10.618   3.261   2.693  1.00  0.00     0.041 C 
BRANCH  38  40
ATOM     40  O   UNL     1     -10.246   2.317   4.883  1.00  0.00    -0.391 OA
ATOM     41  H   UNL     1     -10.775   1.658   4.395  1.00  0.00     0.211 HD
ENDBRANCH  38  40
ENDBRANCH  32  38
ENDBRANCH  29  32
ENDBRANCH  27  28
BRANCH  27  42
ATOM     42  C   UNL     1      -7.419   6.595   0.594  1.00  0.00     0.015 C 
ATOM     43  C   UNL     1      -7.566   7.390   1.896  1.00  0.00     0.010 C 
ATOM     44  C   UNL     1      -6.511   7.344  -0.387  1.00  0.00     0.010 C 
ENDBRANCH  27  42
ENDBRANCH   3  27
TORSDOF 5
ENDMDL
MODEL 4
REMARK VINA RESULT:    -4.778      9.733     13.846
REMARK INTER + INTRA:         -10.882
REMARK INTER:                  -8.259
REMARK INTRA:                  -2.624
REMARK UNBOUND:                -2.333
REMARK SMILES CC[C@H](C)[C@H]1NC(=O)c2coc(n2)[C@H](C(C)C)NC(=O)[C@H]([C@@H](C)O)NC(=O)[C@H](C)NC(=O)c2csc1n2
REMARK SMILES IDX 11 1 13 2 12 3 9 4 10 5 7 6 6 7 8 8 5 10 36 11 35 12 34 13
REMARK SMILES IDX 37 14 33 15 31 16 32 17 30 18 28 20 29 21 3 23 4 24 2 25
REMARK SMILES IDX 1 26 14 27 18 28 19 29 20 30 21 32 25 33 26 34 27 35 22 38
REMARK SMILES IDX 23 39 24 40 15 42 16 43 17 44
REMARK H PARENT 6 9 30 19 18 31 25 36 24 41
REMARK Flexibility Score:   94.900
ROOT
ATOM      1  O   UNL     1      -8.112   0.598  -8.358  1.00  0.00    -0.446 OA
ATOM      2  N   UNL     1      -6.552  -1.012  -8.592  1.00  0.00    -0.207 NA
ATOM      3  C   UNL     1      -6.830   0.273  -8.714  1.00  0.00     0.217 A 
ATOM      4  C   UNL     1      -7.720  -1.567  -8.099  1.00  0.00     0.167 A 
ATOM      5  C   UNL     1      -8.666  -0.581  -7.958  1.00  0.00     0.231 A 
ENDROOT
BRANCH   4   6
ATOM      6  C   UNL     1      -7.871  -2.985  -7.823  1.00  0.00     0.273 C 
ATOM      7  N   UNL     1      -7.854  -3.248  -6.477  1.00  0.00    -0.341 N 
ATOM      8  O   UNL     1      -7.974  -3.838  -8.697  1.00  0.00    -0.267 OA
ATOM      9  H   UNL     1      -7.668  -2.451  -5.875  1.00  0.00     0.164 HD
BRANCH   7  10
ATOM     10  C   UNL     1      -7.737  -4.586  -5.932  1.00  0.00     0.145 C 
BRANCH  10  11
ATOM     11  C   UNL     1      -6.282  -4.799  -5.541  1.00  0.00     0.116 A 
ATOM     12  S   UNL     1      -5.709  -6.391  -5.213  1.00  0.00    -0.124 S 
ATOM     13  C   UNL     1      -4.145  -5.762  -4.933  1.00  0.00     0.101 A 
ATOM     14  N   UNL     1      -5.376  -3.840  -5.439  1.00  0.00    -0.234 NA
ATOM     15  C   UNL     1      -4.137  -4.391  -5.105  1.00  0.00     0.139 A 
BRANCH  15  16
ATOM     16  C   UNL     1      -2.938  -3.561  -4.963  1.00  0.00     0.271 C 
ATOM     17  O   UNL     1      -1.932  -3.942  -4.375  1.00  0.00    -0.267 OA
ATOM     18  N   UNL     1      -3.055  -2.321  -5.553  1.00  0.00    -0.339 N 
ATOM     19  H   UNL     1      -3.976  -2.083  -5.911  1.00  0.00     0.164 HD
BRANCH  18  20
ATOM     20  C   UNL     1      -1.987  -1.335  -5.454  1.00  0.00     0.168 CG0
ATOM     21  C   UNL     1      -1.123  -1.322  -6.718  1.00  0.00     0.041 C 
ATOM     22  G   UNL     1      -2.514   0.091  -5.230  1.00  0.00     0.000 G0
ENDBRANCH  18  20
ENDBRANCH  15  16
ENDBRANCH  10  11
BRANCH  10  23
ATOM     23  C   UNL     1      -8.709  -4.823  -4.746  1.00  0.00     0.015 C 
ATOM     24  C   UNL     1      -8.809  -3.622  -3.791  1.00  0.00     0.010 C 
BRANCH  23  25
ATOM     25  C   UNL     1     -10.133  -5.208  -5.207  1.00  0.00     0.002 C 
ATOM     26  C   UNL     1     -10.164  -6.091  -6.447  1.00  0.00     0.004 C 
ENDBRANCH  23  25
ENDBRANCH  10  23
ENDBRANCH   7  10
ENDBRANCH   4   6
BRANCH   3  27
ATOM     27  C   UNL     1      -5.921   1.352  -9.236  1.00  0.00     0.171 C 
BRANCH  27  28
ATOM     28  N   UNL     1      -4.773   1.442  -8.340  1.00  0.00    -0.342 N 
ATOM     29  C   UNL     1      -4.770   2.222  -7.205  1.00  0.00     0.245 C 
ATOM     30  O   UNL     1      -5.742   2.889  -6.854  1.00  0.00    -0.273 OA
ATOM     31  H   UNL     1      -3.975   0.829  -8.503  1.00  0.00     0.164 HD
BRANCH  29  32
ATOM     32  C   UNL     1      -3.516   2.087  -6.315  1.00  0.00     0.200 C 
BRANCH  32  33
ATOM     33  N   UNL     1      -3.076   0.687  -6.348  1.00  0.00    -0.340 N 
ATOM     34  C   UNL     1      -2.528   0.083  -5.236  1.00  0.00     0.243 CG0
ATOM     35  O   UNL     1      -2.325   0.702  -4.194  1.00  0.00    -0.273 OA
ATOM     36  H   UNL     1      -3.202   0.159  -7.204  1.00  0.00     0.164 HD
ATOM     37  G   UNL     1      -1.985  -1.339  -5.450  1.00  0.00     0.000 G0
ENDBRANCH  32  33
BRANCH  32  38
ATOM     38  C   UNL     1      -2.410   3.078  -6.746  1.00  0.00     0.143 C 
ATOM     39  C   UNL     1      -1.322   2.457  -7.614  1.00  0.00     0.041 C 
BRANCH  38  40
ATOM     40  O   UNL     1      -2.992   4.191  -7.451  1.00  0.00    -0.391 OA
ATOM     41  H   UNL     1      -2.469   4.310  -8.266  1.00  0.00     0.211 HD
ENDBRANCH  38  40
ENDBRANCH  32  38
ENDBRANCH  29  32
ENDBRANCH  27  28
BRANCH  27  42
ATOM     42  C   UNL     1      -5.481   1.259 -10.717  1.00  0.00     0.015 C 
ATOM     43  C   UNL     1      -4.122   0.593 -10.962  1.00  0.00     0.010 C 
ATOM     44  C   UNL     1      -6.556   0.608 -11.594  1.00  0.00     0.010 C 
ENDBRANCH  27  42
ENDBRANCH   3  27
TORSDOF 5
ENDMDL
MODEL 5
REMARK VINA RESULT:    -4.385      3.612      7.358
REMARK INTER + INTRA:         -10.179
REMARK INTER:                  -8.062
REMARK INTRA:                  -2.118
REMARK UNBOUND:                -2.333
REMARK SMILES CC[C@H](C)[C@H]1NC(=O)c2coc(n2)[C@H](C(C)C)NC(=O)[C@H]([C@@H](C)O)NC(=O)[C@H](C)NC(=O)c2csc1n2
REMARK SMILES IDX 11 1 13 2 12 3 9 4 10 5 7 6 6 7 8 8 5 10 36 11 35 12 34 13
REMARK SMILES IDX 37 14 33 15 31 16 32 17 30 18 28 20 29 21 3 23 4 24 2 25
REMARK SMILES IDX 1 26 14 27 18 28 19 29 20 30 21 32 25 33 26 34 27 35 22 38
REMARK SMILES IDX 23 39 24 40 15 42 16 43 17 44
REMARK H PARENT 6 9 30 19 18 31 25 36 24 41
REMARK Flexibility Score:   94.900
ROOT
ATOM      1  O   UNL     1     -15.704   9.098 -15.380  1.00  0.00    -0.446 OA
ATOM      2  N   UNL     1     -14.648   9.888 -13.551  1.00  0.00    -0.207 NA
ATOM      3  C   UNL     1     -15.503   9.001 -14.029  1.00  0.00     0.217 A 
ATOM      4  C   UNL     1     -14.238  10.598 -14.667  1.00  0.00     0.167 A 
ATOM      5  C   UNL     1     -14.884  10.112 -15.777  1.00  0.00     0.231 A 
ENDROOT
BRANCH   4   6
ATOM      6  C   UNL     1     -13.293  11.699 -14.603  1.00  0.00     0.273 C 
ATOM      7  N   UNL     1     -12.058  11.339 -15.081  1.00  0.00    -0.341 N 
ATOM      8  O   UNL     1     -13.568  12.804 -14.151  1.00  0.00    -0.267 OA
ATOM      9  H   UNL     1     -11.952  10.361 -15.337  1.00  0.00     0.164 HD
BRANCH   7  10
ATOM     10  C   UNL     1     -10.873  12.156 -14.908  1.00  0.00     0.145 C 
BRANCH  10  11
ATOM     11  C   UNL     1     -10.282  11.826 -13.545  1.00  0.00     0.116 A 
ATOM     12  S   UNL     1      -9.313  12.995 -12.729  1.00  0.00    -0.124 S 
ATOM     13  C   UNL     1      -9.134  11.917 -11.414  1.00  0.00     0.101 A 
ATOM     14  N   UNL     1     -10.460  10.687 -12.897  1.00  0.00    -0.234 NA
ATOM     15  C   UNL     1      -9.814  10.739 -11.659  1.00  0.00     0.139 A 
BRANCH  15  16
ATOM     16  C   UNL     1      -9.876   9.625 -10.711  1.00  0.00     0.271 C 
ATOM     17  O   UNL     1      -9.032   9.444  -9.841  1.00  0.00    -0.267 OA
ATOM     18  N   UNL     1     -10.972   8.807 -10.893  1.00  0.00    -0.339 N 
ATOM     19  H   UNL     1     -11.537   8.998 -11.716  1.00  0.00     0.164 HD
BRANCH  18  20
ATOM     20  C   UNL     1     -11.162   7.610 -10.085  1.00  0.00     0.168 CG0
ATOM     21  C   UNL     1     -12.111   7.874  -8.914  1.00  0.00     0.041 C 
ATOM     22  G   UNL     1     -11.730   6.432 -10.894  1.00  0.00     0.000 G0
ENDBRANCH  18  20
ENDBRANCH  15  16
ENDBRANCH  10  11
BRANCH  10  23
ATOM     23  C   UNL     1      -9.852  11.958 -16.059  1.00  0.00     0.015 C 
ATOM     24  C   UNL     1     -10.335  10.977 -17.140  1.00  0.00     0.010 C 
BRANCH  23  25
ATOM     25  C   UNL     1      -9.453  13.287 -16.740  1.00  0.00     0.002 C 
ATOM     26  C   UNL     1     -10.463  13.784 -17.765  1.00  0.00     0.004 C 
ENDBRANCH  23  25
ENDBRANCH  10  23
ENDBRANCH   7  10
ENDBRANCH   4   6
BRANCH   3  27
ATOM     27  C   UNL     1     -16.281   7.979 -13.246  1.00  0.00     0.171 C 
BRANCH  27  28
ATOM     28  N   UNL     1     -15.333   7.224 -12.433  1.00  0.00    -0.342 N 
ATOM     29  C   UNL     1     -14.827   6.002 -12.817  1.00  0.00     0.245 C 
ATOM     30  O   UNL     1     -15.124   5.464 -13.882  1.00  0.00    -0.273 OA
ATOM     31  H   UNL     1     -14.953   7.658 -11.593  1.00  0.00     0.164 HD
BRANCH  29  32
ATOM     32  C   UNL     1     -13.741   5.418 -11.890  1.00  0.00     0.200 C 
BRANCH  32  33
ATOM     33  N   UNL     1     -13.042   6.532 -11.238  1.00  0.00    -0.340 N 
ATOM     34  C   UNL     1     -11.713   6.434 -10.881  1.00  0.00     0.243 CG0
ATOM     35  O   UNL     1     -11.075   5.394 -11.032  1.00  0.00    -0.273 OA
ATOM     36  H   UNL     1     -13.551   7.393 -11.072  1.00  0.00     0.164 HD
ATOM     37  G   UNL     1     -11.147   7.621 -10.085  1.00  0.00     0.000 G0
ENDBRANCH  32  33
BRANCH  32  38
ATOM     38  C   UNL     1     -14.340   4.410 -10.882  1.00  0.00     0.143 C 
ATOM     39  C   UNL     1     -15.758   3.962 -11.218  1.00  0.00     0.041 C 
BRANCH  38  40
ATOM     40  O   UNL     1     -13.494   3.248 -10.783  1.00  0.00    -0.391 OA
ATOM     41  H   UNL     1     -12.989   3.199 -11.617  1.00  0.00     0.211 HD
ENDBRANCH  38  40
ENDBRANCH  32  38
ENDBRANCH  29  32
ENDBRANCH  27  28
BRANCH  27  42
ATOM     42  C   UNL     1     -17.477   8.485 -12.403  1.00  0.00     0.015 C 
ATOM     43  C   UNL     1     -17.122   9.048 -11.022  1.00  0.00     0.010 C 
ATOM     44  C   UNL     1     -18.342   9.485 -13.178  1.00  0.00     0.010 C 
ENDBRANCH  27  42
ENDBRANCH   3  27
TORSDOF 5
ENDMDL
MODEL 6
REMARK VINA RESULT:    -4.317     10.846     15.116
REMARK INTER + INTRA:         -10.058
REMARK INTER:                  -7.715
REMARK INTRA:                  -2.343
REMARK UNBOUND:                -2.333
REMARK SMILES CC[C@H](C)[C@H]1NC(=O)c2coc(n2)[C@H](C(C)C)NC(=O)[C@H]([C@@H](C)O)NC(=O)[C@H](C)NC(=O)c2csc1n2
REMARK SMILES IDX 11 1 13 2 12 3 9 4 10 5 7 6 6 7 8 8 5 10 36 11 35 12 34 13
REMARK SMILES IDX 37 14 33 15 31 16 32 17 30 18 28 20 29 21 3 23 4 24 2 25
REMARK SMILES IDX 1 26 14 27 18 28 19 29 20 30 21 32 25 33 26 34 27 35 22 38
REMARK SMILES IDX 23 39 24 40 15 42 16 43 17 44
REMARK H PARENT 6 9 30 19 18 31 25 36 24 41
REMARK Flexibility Score:   94.900
ROOT
ATOM      1  O   UNL     1      -7.083  -0.248  -8.179  1.00  0.00    -0.446 OA
ATOM      2  N   UNL     1      -5.942  -2.115  -8.723  1.00  0.00    -0.207 NA
ATOM      3  C   UNL     1      -5.935  -0.794  -8.690  1.00  0.00     0.217 A 
ATOM      4  C   UNL     1      -7.163  -2.462  -8.173  1.00  0.00     0.167 A 
ATOM      5  C   UNL     1      -7.853  -1.321  -7.843  1.00  0.00     0.231 A 
ENDROOT
BRANCH   4   6
ATOM      6  C   UNL     1      -7.605  -3.838  -8.025  1.00  0.00     0.273 C 
ATOM      7  N   UNL     1      -7.720  -4.197  -6.706  1.00  0.00    -0.341 N 
ATOM      8  O   UNL     1      -7.820  -4.586  -8.971  1.00  0.00    -0.267 OA
ATOM      9  H   UNL     1      -7.418  -3.500  -6.032  1.00  0.00     0.164 HD
BRANCH   7  10
ATOM     10  C   UNL     1      -7.900  -5.568  -6.272  1.00  0.00     0.145 C 
BRANCH  10  11
ATOM     11  C   UNL     1      -6.574  -6.047  -5.696  1.00  0.00     0.116 A 
ATOM     12  S   UNL     1      -6.523  -7.488  -4.752  1.00  0.00    -0.124 S 
ATOM     13  C   UNL     1      -4.833  -7.305  -4.579  1.00  0.00     0.101 A 
ATOM     14  N   UNL     1      -5.410  -5.444  -5.870  1.00  0.00    -0.234 NA
ATOM     15  C   UNL     1      -4.398  -6.174  -5.243  1.00  0.00     0.139 A 
BRANCH  15  16
ATOM     16  C   UNL     1      -2.996  -5.757  -5.305  1.00  0.00     0.271 C 
ATOM     17  O   UNL     1      -2.076  -6.454  -4.892  1.00  0.00    -0.267 OA
ATOM     18  N   UNL     1      -2.816  -4.513  -5.873  1.00  0.00    -0.339 N 
ATOM     19  H   UNL     1      -3.664  -3.990  -6.074  1.00  0.00     0.164 HD
BRANCH  18  20
ATOM     20  C   UNL     1      -1.494  -3.907  -5.958  1.00  0.00     0.168 CG0
ATOM     21  C   UNL     1      -0.885  -4.092  -7.349  1.00  0.00     0.041 C 
ATOM     22  G   UNL     1      -1.511  -2.401  -5.649  1.00  0.00     0.000 G0
ENDBRANCH  18  20
ENDBRANCH  15  16
ENDBRANCH  10  11
BRANCH  10  23
ATOM     23  C   UNL     1      -9.070  -5.715  -5.264  1.00  0.00     0.015 C 
ATOM     24  C   UNL     1      -9.155  -4.556  -4.257  1.00  0.00     0.010 C 
BRANCH  23  25
ATOM     25  C   UNL     1     -10.442  -5.869  -5.958  1.00  0.00     0.002 C 
ATOM     26  C   UNL     1     -10.457  -6.904  -7.075  1.00  0.00     0.004 C 
ENDBRANCH  23  25
ENDBRANCH  10  23
ENDBRANCH   7  10
ENDBRANCH   4   6
BRANCH   3  27
ATOM     27  C   UNL     1      -4.851   0.121  -9.191  1.00  0.00     0.171 C 
BRANCH  27  28
ATOM     28  N   UNL     1      -3.629  -0.192  -8.458  1.00  0.00    -0.342 N 
ATOM     29  C   UNL     1      -3.289   0.425  -7.275  1.00  0.00     0.245 C 
ATOM     30  O   UNL     1      -3.999   1.276  -6.740  1.00  0.00    -0.273 OA
ATOM     31  H   UNL     1      -3.049  -0.966  -8.779  1.00  0.00     0.164 HD
BRANCH  29  32
ATOM     32  C   UNL     1      -2.026  -0.129  -6.581  1.00  0.00     0.200 C 
BRANCH  32  33
ATOM     33  N   UNL     1      -2.057  -1.594  -6.669  1.00  0.00    -0.340 N 
ATOM     34  C   UNL     1      -1.538  -2.382  -5.663  1.00  0.00     0.243 CG0
ATOM     35  O   UNL     1      -0.973  -1.899  -4.685  1.00  0.00    -0.273 OA
ATOM     36  H   UNL     1      -2.490  -2.022  -7.479  1.00  0.00     0.164 HD
ATOM     37  G   UNL     1      -1.512  -3.893  -5.948  1.00  0.00     0.000 G0
ENDBRANCH  32  33
BRANCH  32  38
ATOM     38  C   UNL     1      -0.738   0.484  -7.178  1.00  0.00     0.143 C 
ATOM     39  C   UNL     1      -0.890   1.932  -7.630  1.00  0.00     0.041 C 
BRANCH  38  40
ATOM     40  O   UNL     1       0.336   0.403  -6.222  1.00  0.00    -0.391 OA
ATOM     41  H   UNL     1       0.901   1.185  -6.369  1.00  0.00     0.211 HD
ENDBRANCH  38  40
ENDBRANCH  32  38
ENDBRANCH  29  32
ENDBRANCH  27  28
BRANCH  27  42
ATOM     42  C   UNL     1      -4.604   0.163 -10.719  1.00  0.00     0.015 C 
ATOM     43  C   UNL     1      -5.770   0.691 -11.563  1.00  0.00     0.010 C 
ATOM     44  C   UNL     1      -3.313   0.911 -11.069  1.00  0.00     0.010 C 
ENDBRANCH  27  42
ENDBRANCH   3  27
TORSDOF 5
ENDMDL
MODEL 7
REMARK VINA RESULT:    -4.284      4.393      6.999
REMARK INTER + INTRA:          -9.998
REMARK INTER:                  -7.743
REMARK INTRA:                  -2.255
REMARK UNBOUND:                -2.333
REMARK SMILES CC[C@H](C)[C@H]1NC(=O)c2coc(n2)[C@H](C(C)C)NC(=O)[C@H]([C@@H](C)O)NC(=O)[C@H](C)NC(=O)c2csc1n2
REMARK SMILES IDX 11 1 13 2 12 3 9 4 10 5 7 6 6 7 8 8 5 10 36 11 35 12 34 13
REMARK SMILES IDX 37 14 33 15 31 16 32 17 30 18 28 20 29 21 3 23 4 24 2 25
REMARK SMILES IDX 1 26 14 27 18 28 19 29 20 30 21 32 25 33 26 34 27 35 22 38
REMARK SMILES IDX 23 39 24 40 15 42 16 43 17 44
REMARK H PARENT 6 9 30 19 18 31 25 36 24 41
REMARK Flexibility Score:   94.900
ROOT
ATOM      1  O   UNL     1     -13.870   6.959 -10.235  1.00  0.00    -0.446 OA
ATOM      2  N   UNL     1     -16.077   6.506 -10.304  1.00  0.00    -0.207 NA
ATOM      3  C   UNL     1     -14.854   6.037 -10.475  1.00  0.00     0.217 A 
ATOM      4  C   UNL     1     -15.885   7.815  -9.899  1.00  0.00     0.167 A 
ATOM      5  C   UNL     1     -14.539   8.085  -9.858  1.00  0.00     0.231 A 
ENDROOT
BRANCH   4   6
ATOM      6  C   UNL     1     -16.980   8.724  -9.608  1.00  0.00     0.273 C 
ATOM      7  N   UNL     1     -17.197   8.846  -8.259  1.00  0.00    -0.341 N 
ATOM      8  O   UNL     1     -17.640   9.289 -10.472  1.00  0.00    -0.267 OA
ATOM      9  H   UNL     1     -16.632   8.245  -7.666  1.00  0.00     0.164 HD
BRANCH   7  10
ATOM     10  C   UNL     1     -18.371   9.487  -7.700  1.00  0.00     0.145 C 
BRANCH  10  11
ATOM     11  C   UNL     1     -19.388   8.397  -7.392  1.00  0.00     0.116 A 
ATOM     12  S   UNL     1     -20.983   8.829  -6.903  1.00  0.00    -0.124 S 
ATOM     13  C   UNL     1     -21.399   7.173  -6.823  1.00  0.00     0.101 A 
ATOM     14  N   UNL     1     -19.157   7.097  -7.483  1.00  0.00    -0.234 NA
ATOM     15  C   UNL     1     -20.319   6.386  -7.172  1.00  0.00     0.139 A 
BRANCH  15  16
ATOM     16  C   UNL     1     -20.364   4.923  -7.227  1.00  0.00     0.271 C 
ATOM     17  O   UNL     1     -21.292   4.269  -6.766  1.00  0.00    -0.267 OA
ATOM     18  N   UNL     1     -19.267   4.362  -7.847  1.00  0.00    -0.339 N 
ATOM     19  H   UNL     1     -18.516   5.003  -8.087  1.00  0.00     0.164 HD
BRANCH  18  20
ATOM     20  C   UNL     1     -19.108   2.917  -7.935  1.00  0.00     0.168 CG0
ATOM     21  C   UNL     1     -19.575   2.386  -9.292  1.00  0.00     0.041 C 
ATOM     22  G   UNL     1     -17.652   2.466  -7.729  1.00  0.00     0.000 G0
ENDBRANCH  18  20
ENDBRANCH  15  16
ENDBRANCH  10  11
BRANCH  10  23
ATOM     23  C   UNL     1     -18.032  10.348  -6.454  1.00  0.00     0.015 C 
ATOM     24  C   UNL     1     -16.945   9.726  -5.562  1.00  0.00     0.010 C 
BRANCH  23  25
ATOM     25  C   UNL     1     -17.609  11.788  -6.820  1.00  0.00     0.002 C 
ATOM     26  C   UNL     1     -18.241  12.860  -5.944  1.00  0.00     0.004 C 
ENDBRANCH  23  25
ENDBRANCH  10  23
ENDBRANCH   7  10
ENDBRANCH   4   6
BRANCH   3  27
ATOM     27  C   UNL     1     -14.468   4.660 -10.942  1.00  0.00     0.171 C 
BRANCH  27  28
ATOM     28  N   UNL     1     -15.219   3.693 -10.149  1.00  0.00    -0.342 N 
ATOM     29  C   UNL     1     -14.715   2.460  -9.802  1.00  0.00     0.245 C 
ATOM     30  O   UNL     1     -13.587   2.088 -10.121  1.00  0.00    -0.273 OA
ATOM     31  H   UNL     1     -16.115   3.975  -9.753  1.00  0.00     0.164 HD
BRANCH  29  32
ATOM     32  C   UNL     1     -15.604   1.627  -8.854  1.00  0.00     0.200 C 
BRANCH  32  33
ATOM     33  N   UNL     1     -16.965   2.177  -8.897  1.00  0.00    -0.340 N 
ATOM     34  C   UNL     1     -17.657   2.467  -7.739  1.00  0.00     0.243 CG0
ATOM     35  O   UNL     1     -17.195   2.220  -6.627  1.00  0.00    -0.273 OA
ATOM     36  H   UNL     1     -17.384   2.362  -9.800  1.00  0.00     0.164 HD
ATOM     37  G   UNL     1     -19.118   2.906  -7.929  1.00  0.00     0.000 G0
ENDBRANCH  32  33
BRANCH  32  38
ATOM     38  C   UNL     1     -15.550   0.122  -9.205  1.00  0.00     0.143 C 
ATOM     39  C   UNL     1     -16.098  -0.215 -10.587  1.00  0.00     0.041 C 
BRANCH  38  40
ATOM     40  O   UNL     1     -14.195  -0.358  -9.109  1.00  0.00    -0.391 OA
ATOM     41  H   UNL     1     -13.842  -0.030  -8.261  1.00  0.00     0.211 HD
ENDBRANCH  38  40
ENDBRANCH  32  38
ENDBRANCH  29  32
ENDBRANCH  27  28
BRANCH  27  42
ATOM     42  C   UNL     1     -14.578   4.364 -12.458  1.00  0.00     0.015 C 
ATOM     43  C   UNL     1     -15.922   3.790 -12.922  1.00  0.00     0.010 C 
ATOM     44  C   UNL     1     -14.197   5.580 -13.308  1.00  0.00     0.010 C 
ENDBRANCH  27  42
ENDBRANCH   3  27
TORSDOF 5
ENDMDL
MODEL 8
REMARK VINA RESULT:    -4.258     11.496     14.382
REMARK INTER + INTRA:          -9.951
REMARK INTER:                  -7.449
REMARK INTRA:                  -2.502
REMARK UNBOUND:                -2.333
REMARK SMILES CC[C@H](C)[C@H]1NC(=O)c2coc(n2)[C@H](C(C)C)NC(=O)[C@H]([C@@H](C)O)NC(=O)[C@H](C)NC(=O)c2csc1n2
REMARK SMILES IDX 11 1 13 2 12 3 9 4 10 5 7 6 6 7 8 8 5 10 36 11 35 12 34 13
REMARK SMILES IDX 37 14 33 15 31 16 32 17 30 18 28 20 29 21 3 23 4 24 2 25
REMARK SMILES IDX 1 26 14 27 18 28 19 29 20 30 21 32 25 33 26 34 27 35 22 38
REMARK SMILES IDX 23 39 24 40 15 42 16 43 17 44
REMARK H PARENT 6 9 30 19 18 31 25 36 24 41
REMARK Flexibility Score:   94.900
ROOT
ATOM      1  O   UNL     1      -4.849  -0.181 -11.697  1.00  0.00    -0.446 OA
ATOM      2  N   UNL     1      -3.718  -0.069  -9.750  1.00  0.00    -0.207 NA
ATOM      3  C   UNL     1      -4.788  -0.530 -10.374  1.00  0.00     0.217 A 
ATOM      4  C   UNL     1      -3.016   0.604 -10.734  1.00  0.00     0.167 A 
ATOM      5  C   UNL     1      -3.710   0.532 -11.917  1.00  0.00     0.231 A 
ENDROOT
BRANCH   4   6
ATOM      6  C   UNL     1      -1.760   1.291 -10.485  1.00  0.00     0.273 C 
ATOM      7  N   UNL     1      -0.689   0.436 -10.555  1.00  0.00    -0.341 N 
ATOM      8  O   UNL     1      -1.681   2.484 -10.219  1.00  0.00    -0.267 OA
ATOM      9  H   UNL     1      -0.916  -0.545 -10.693  1.00  0.00     0.164 HD
BRANCH   7  10
ATOM     10  C   UNL     1       0.643   0.796 -10.109  1.00  0.00     0.145 C 
BRANCH  10  11
ATOM     11  C   UNL     1       1.030  -0.163  -8.993  1.00  0.00     0.116 A 
ATOM     12  S   UNL     1       2.605  -0.076  -8.299  1.00  0.00    -0.124 S 
ATOM     13  C   UNL     1       2.194  -1.340  -7.225  1.00  0.00     0.101 A 
ATOM     14  N   UNL     1       0.235  -1.086  -8.476  1.00  0.00    -0.234 NA
ATOM     15  C   UNL     1       0.895  -1.757  -7.444  1.00  0.00     0.139 A 
BRANCH  15  16
ATOM     16  C   UNL     1       0.237  -2.809  -6.666  1.00  0.00     0.271 C 
ATOM     17  O   UNL     1       0.772  -3.364  -5.712  1.00  0.00    -0.267 OA
ATOM     18  N   UNL     1      -1.034  -3.108  -7.108  1.00  0.00    -0.339 N 
ATOM     19  H   UNL     1      -1.321  -2.658  -7.974  1.00  0.00     0.164 HD
BRANCH  18  20
ATOM     20  C   UNL     1      -1.814  -4.176  -6.497  1.00  0.00     0.168 CG0
ATOM     21  C   UNL     1      -2.710  -3.640  -5.378  1.00  0.00     0.041 C 
ATOM     22  G   UNL     1      -2.712  -4.909  -7.507  1.00  0.00     0.000 G0
ENDBRANCH  18  20
ENDBRANCH  15  16
ENDBRANCH  10  11
BRANCH  10  23
ATOM     23  C   UNL     1       1.670   0.796 -11.272  1.00  0.00     0.015 C 
ATOM     24  C   UNL     1       1.369  -0.259 -12.350  1.00  0.00     0.010 C 
BRANCH  23  25
ATOM     25  C   UNL     1       1.801   2.177 -11.955  1.00  0.00     0.002 C 
ATOM     26  C   UNL     1       1.857   3.345 -10.980  1.00  0.00     0.004 C 
ENDBRANCH  23  25
ENDBRANCH  10  23
ENDBRANCH   7  10
ENDBRANCH   4   6
BRANCH   3  27
ATOM     27  C   UNL     1      -5.918  -1.319  -9.772  1.00  0.00     0.171 C 
BRANCH  27  28
ATOM     28  N   UNL     1      -5.346  -2.493  -9.121  1.00  0.00    -0.342 N 
ATOM     29  C   UNL     1      -5.639  -3.780  -9.511  1.00  0.00     0.245 C 
ATOM     30  O   UNL     1      -6.393  -4.037 -10.448  1.00  0.00    -0.273 OA
ATOM     31  H   UNL     1      -4.625  -2.358  -8.413  1.00  0.00     0.164 HD
BRANCH  29  32
ATOM     32  C   UNL     1      -4.839  -4.886  -8.789  1.00  0.00     0.200 C 
BRANCH  32  33
ATOM     33  N   UNL     1      -3.856  -4.243  -7.909  1.00  0.00    -0.340 N 
ATOM     34  C   UNL     1      -2.700  -4.894  -7.531  1.00  0.00     0.243 CG0
ATOM     35  O   UNL     1      -2.472  -6.057  -7.859  1.00  0.00    -0.273 OA
ATOM     36  H   UNL     1      -4.031  -3.295  -7.597  1.00  0.00     0.164 HD
ATOM     37  G   UNL     1      -1.828  -4.160  -6.500  1.00  0.00     0.000 G0
ENDBRANCH  32  33
BRANCH  32  38
ATOM     38  C   UNL     1      -5.774  -5.861  -8.038  1.00  0.00     0.143 C 
ATOM     39  C   UNL     1      -6.687  -5.188  -7.019  1.00  0.00     0.041 C 
BRANCH  38  40
ATOM     40  O   UNL     1      -6.585  -6.591  -8.979  1.00  0.00    -0.391 OA
ATOM     41  H   UNL     1      -6.052  -6.686  -9.792  1.00  0.00     0.211 HD
ENDBRANCH  38  40
ENDBRANCH  32  38
ENDBRANCH  29  32
ENDBRANCH  27  28
BRANCH  27  42
ATOM     42  C   UNL     1      -6.894  -0.567  -8.835  1.00  0.00     0.015 C 
ATOM     43  C   UNL     1      -7.514   0.710  -9.413  1.00  0.00     0.010 C 
ATOM     44  C   UNL     1      -7.990  -1.489  -8.289  1.00  0.00     0.010 C 
ENDBRANCH  27  42
ENDBRANCH   3  27
TORSDOF 5
ENDMDL
MODEL 9
REMARK VINA RESULT:    -4.254      2.826      6.773
REMARK INTER + INTRA:          -9.945
REMARK INTER:                  -7.789
REMARK INTRA:                  -2.156
REMARK UNBOUND:                -2.333
REMARK SMILES CC[C@H](C)[C@H]1NC(=O)c2coc(n2)[C@H](C(C)C)NC(=O)[C@H]([C@@H](C)O)NC(=O)[C@H](C)NC(=O)c2csc1n2
REMARK SMILES IDX 11 1 13 2 12 3 9 4 10 5 7 6 6 7 8 8 5 10 36 11 35 12 34 13
REMARK SMILES IDX 37 14 33 15 31 16 32 17 30 18 28 20 29 21 3 23 4 24 2 25
REMARK SMILES IDX 1 26 14 27 18 28 19 29 20 30 21 32 25 33 26 34 27 35 22 38
REMARK SMILES IDX 23 39 24 40 15 42 16 43 17 44
REMARK H PARENT 6 9 30 19 18 31 25 36 24 41
REMARK Flexibility Score:   94.900
ROOT
ATOM      1  O   UNL     1      -9.314   7.486  -7.679  1.00  0.00    -0.446 OA
ATOM      2  N   UNL     1     -11.355   6.556  -7.898  1.00  0.00    -0.207 NA
ATOM      3  C   UNL     1     -10.624   7.647  -8.042  1.00  0.00     0.217 A 
ATOM      4  C   UNL     1     -10.461   5.608  -7.433  1.00  0.00     0.167 A 
ATOM      5  C   UNL     1      -9.220   6.180  -7.302  1.00  0.00     0.231 A 
ENDROOT
BRANCH   4   6
ATOM      6  C   UNL     1     -10.845   4.243  -7.118  1.00  0.00     0.273 C 
ATOM      7  N   UNL     1     -10.258   3.339  -7.968  1.00  0.00    -0.341 N 
ATOM      8  O   UNL     1     -11.619   3.947  -6.216  1.00  0.00    -0.267 OA
ATOM      9  H   UNL     1      -9.712   3.738  -8.726  1.00  0.00     0.164 HD
BRANCH   7  10
ATOM     10  C   UNL     1     -10.654   1.947  -8.040  1.00  0.00     0.145 C 
BRANCH  10  11
ATOM     11  C   UNL     1     -11.860   1.858  -8.964  1.00  0.00     0.116 A 
ATOM     12  S   UNL     1     -12.739   0.380  -9.083  1.00  0.00    -0.124 S 
ATOM     13  C   UNL     1     -13.820   1.120 -10.181  1.00  0.00     0.101 A 
ATOM     14  N   UNL     1     -12.322   2.852  -9.704  1.00  0.00    -0.234 NA
ATOM     15  C   UNL     1     -13.463   2.438 -10.396  1.00  0.00     0.139 A 
BRANCH  15  16
ATOM     16  C   UNL     1     -14.209   3.350 -11.266  1.00  0.00     0.271 C 
ATOM     17  O   UNL     1     -14.889   2.961 -12.210  1.00  0.00    -0.267 OA
ATOM     18  N   UNL     1     -14.072   4.677 -10.920  1.00  0.00    -0.339 N 
ATOM     19  H   UNL     1     -13.393   4.878 -10.190  1.00  0.00     0.164 HD
BRANCH  18  20
ATOM     20  C   UNL     1     -14.687   5.732 -11.715  1.00  0.00     0.168 CG0
ATOM     21  C   UNL     1     -15.703   6.527 -10.892  1.00  0.00     0.041 C 
ATOM     22  G   UNL     1     -13.660   6.725 -12.281  1.00  0.00     0.000 G0
ENDBRANCH  18  20
ENDBRANCH  15  16
ENDBRANCH  10  11
BRANCH  10  23
ATOM     23  C   UNL     1      -9.489   1.029  -8.496  1.00  0.00     0.015 C 
ATOM     24  C   UNL     1      -8.211   1.803  -8.860  1.00  0.00     0.010 C 
BRANCH  23  25
ATOM     25  C   UNL     1      -9.133  -0.051  -7.450  1.00  0.00     0.002 C 
ATOM     26  C   UNL     1      -8.004  -0.979  -7.878  1.00  0.00     0.004 C 
ENDBRANCH  23  25
ENDBRANCH  10  23
ENDBRANCH   7  10
ENDBRANCH   4   6
BRANCH   3  27
ATOM     27  C   UNL     1     -11.095   9.001  -8.499  1.00  0.00     0.171 C 
BRANCH  27  28
ATOM     28  N   UNL     1     -11.941   8.807  -9.672  1.00  0.00    -0.342 N 
ATOM     29  C   UNL     1     -11.648   9.349 -10.903  1.00  0.00     0.245 C 
ATOM     30  O   UNL     1     -10.641  10.025 -11.109  1.00  0.00    -0.273 OA
ATOM     31  H   UNL     1     -12.731   8.165  -9.606  1.00  0.00     0.164 HD
BRANCH  29  32
ATOM     32  C   UNL     1     -12.589   8.929 -12.051  1.00  0.00     0.200 C 
BRANCH  32  33
ATOM     33  N   UNL     1     -13.465   7.857 -11.559  1.00  0.00    -0.340 N 
ATOM     34  C   UNL     1     -13.658   6.701 -12.286  1.00  0.00     0.243 CG0
ATOM     35  O   UNL     1     -13.161   6.542 -13.399  1.00  0.00    -0.273 OA
ATOM     36  H   UNL     1     -13.913   7.973 -10.658  1.00  0.00     0.164 HD
ATOM     37  G   UNL     1     -14.704   5.726 -11.721  1.00  0.00     0.000 G0
ENDBRANCH  32  33
BRANCH  32  38
ATOM     38  C   UNL     1     -13.373  10.138 -12.611  1.00  0.00     0.143 C 
ATOM     39  C   UNL     1     -14.772   9.796 -13.110  1.00  0.00     0.041 C 
BRANCH  38  40
ATOM     40  O   UNL     1     -13.473  11.168 -11.608  1.00  0.00    -0.391 OA
ATOM     41  H   UNL     1     -12.661  11.113 -11.070  1.00  0.00     0.211 HD
ENDBRANCH  38  40
ENDBRANCH  32  38
ENDBRANCH  29  32
ENDBRANCH  27  28
BRANCH  27  42
ATOM     42  C   UNL     1     -11.778   9.910  -7.448  1.00  0.00     0.015 C 
ATOM     43  C   UNL     1     -13.311   9.933  -7.490  1.00  0.00     0.010 C 
ATOM     44  C   UNL     1     -11.291   9.609  -6.027  1.00  0.00     0.010 C 
ENDBRANCH  27  42
ENDBRANCH   3  27
TORSDOF 5
ENDMDL
MODEL 10
REMARK VINA RESULT:    -3.938     10.203     12.426
REMARK INTER + INTRA:          -9.380
REMARK INTER:                  -6.753
REMARK INTRA:                  -2.626
REMARK UNBOUND:                -2.333
REMARK SMILES CC[C@H](C)[C@H]1NC(=O)c2coc(n2)[C@H](C(C)C)NC(=O)[C@H]([C@@H](C)O)NC(=O)[C@H](C)NC(=O)c2csc1n2
REMARK SMILES IDX 11 1 13 2 12 3 9 4 10 5 7 6 6 7 8 8 5 10 36 11 35 12 34 13
REMARK SMILES IDX 37 14 33 15 31 16 32 17 30 18 28 20 29 21 3 23 4 24 2 25
REMARK SMILES IDX 1 26 14 27 18 28 19 29 20 30 21 32 25 33 26 34 27 35 22 38
REMARK SMILES IDX 23 39 24 40 15 42 16 43 17 44
REMARK H PARENT 6 9 30 19 18 31 25 36 24 41
REMARK Flexibility Score:   94.900
ROOT
ATOM      1  O   UNL     1      -2.466  -4.905  -4.761  1.00  0.00    -0.446 OA
ATOM      2  N   UNL     1      -3.247  -2.795  -4.622  1.00  0.00    -0.207 NA
ATOM      3  C   UNL     1      -3.529  -4.080  -4.505  1.00  0.00     0.217 A 
ATOM      4  C   UNL     1      -1.903  -2.772  -4.951  1.00  0.00     0.167 A 
ATOM      5  C   UNL     1      -1.434  -4.060  -5.034  1.00  0.00     0.231 A 
ENDROOT
BRANCH   4   6
ATOM      6  C   UNL     1      -1.166  -1.543  -5.192  1.00  0.00     0.273 C 
ATOM      7  N   UNL     1      -1.728  -0.475  -4.538  1.00  0.00    -0.341 N 
ATOM      8  O   UNL     1      -0.180  -1.475  -5.915  1.00  0.00    -0.267 OA
ATOM      9  H   UNL     1      -2.598  -0.666  -4.051  1.00  0.00     0.164 HD
BRANCH   7  10
ATOM     10  C   UNL     1      -1.350   0.900  -4.797  1.00  0.00     0.145 C 
BRANCH  10  11
ATOM     11  C   UNL     1      -2.250   1.424  -5.907  1.00  0.00     0.116 A 
ATOM     12  S   UNL     1      -1.943   2.973  -6.596  1.00  0.00    -0.124 S 
ATOM     13  C   UNL     1      -3.258   2.750  -7.665  1.00  0.00     0.101 A 
ATOM     14  N   UNL     1      -3.277   0.769  -6.422  1.00  0.00    -0.234 NA
ATOM     15  C   UNL     1      -3.853   1.521  -7.449  1.00  0.00     0.139 A 
BRANCH  15  16
ATOM     16  C   UNL     1      -4.991   1.022  -8.225  1.00  0.00     0.271 C 
ATOM     17  O   UNL     1      -5.727   1.757  -8.873  1.00  0.00    -0.267 OA
ATOM     18  N   UNL     1      -5.147  -0.346  -8.154  1.00  0.00    -0.339 N 
ATOM     19  H   UNL     1      -4.541  -0.829  -7.496  1.00  0.00     0.164 HD
BRANCH  18  20
ATOM     20  C   UNL     1      -6.265  -1.013  -8.808  1.00  0.00     0.168 CG0
ATOM     21  C   UNL     1      -5.781  -2.116  -9.750  1.00  0.00     0.041 C 
ATOM     22  G   UNL     1      -7.247  -1.645  -7.808  1.00  0.00     0.000 G0
ENDBRANCH  18  20
ENDBRANCH  15  16
ENDBRANCH  10  11
BRANCH  10  23
ATOM     23  C   UNL     1      -1.416   1.777  -3.519  1.00  0.00     0.015 C 
ATOM     24  C   UNL     1      -2.502   1.327  -2.528  1.00  0.00     0.010 C 
BRANCH  23  25
ATOM     25  C   UNL     1      -0.064   1.849  -2.773  1.00  0.00     0.002 C 
ATOM     26  C   UNL     1       0.917   2.851  -3.365  1.00  0.00     0.004 C 
ENDBRANCH  23  25
ENDBRANCH  10  23
ENDBRANCH   7  10
ENDBRANCH   4   6
BRANCH   3  27
ATOM     27  C   UNL     1      -4.866  -4.690  -4.184  1.00  0.00     0.171 C 
BRANCH  27  28
ATOM     28  N   UNL     1      -5.758  -4.429  -5.309  1.00  0.00    -0.342 N 
ATOM     29  C   UNL     1      -7.053  -3.988  -5.150  1.00  0.00     0.245 C 
ATOM     30  O   UNL     1      -7.549  -3.766  -4.047  1.00  0.00    -0.273 OA
ATOM     31  H   UNL     1      -5.381  -4.480  -6.255  1.00  0.00     0.164 HD
BRANCH  29  32
ATOM     32  C   UNL     1      -7.798  -3.645  -6.458  1.00  0.00     0.200 C 
BRANCH  32  33
ATOM     33  N   UNL     1      -6.887  -2.882  -7.320  1.00  0.00    -0.340 N 
ATOM     34  C   UNL     1      -7.243  -1.648  -7.824  1.00  0.00     0.243 CG0
ATOM     35  O   UNL     1      -8.356  -1.163  -7.629  1.00  0.00    -0.273 OA
ATOM     36  H   UNL     1      -5.974  -3.270  -7.525  1.00  0.00     0.164 HD
ATOM     37  G   UNL     1      -6.254  -1.025  -8.822  1.00  0.00     0.000 G0
ENDBRANCH  32  33
BRANCH  32  38
ATOM     38  C   UNL     1      -8.353  -4.915  -7.142  1.00  0.00     0.143 C 
ATOM     39  C   UNL     1      -7.592  -5.331  -8.395  1.00  0.00     0.041 C 
BRANCH  38  40
ATOM     40  O   UNL     1      -8.357  -6.015  -6.211  1.00  0.00    -0.391 OA
ATOM     41  H   UNL     1      -8.371  -6.832  -6.744  1.00  0.00     0.211 HD
ENDBRANCH  38  40
ENDBRANCH  32  38
ENDBRANCH  29  32
ENDBRANCH  27  28
BRANCH  27  42
ATOM     42  C   UNL     1      -4.890  -6.182  -3.773  1.00  0.00     0.015 C 
ATOM     43  C   UNL     1      -5.827  -6.533  -2.611  1.00  0.00     0.010 C 
ATOM     44  C   UNL     1      -5.159  -7.102  -4.968  1.00  0.00     0.010 C 
ENDBRANCH  27  42
ENDBRANCH   3  27
TORSDOF 5
ENDMDL
