MODEL 1
REMARK VINA RESULT:    -5.881      0.000      0.000
REMARK INTER + INTRA:         -26.626
REMARK INTER:                 -17.570
REMARK INTRA:                  -9.057
REMARK UNBOUND:                -9.057
REMARK SMILES C=C1C(=O)N[C@H](C)C(=O)N[C@@H](CC(C)C)C(=O)N[C@@H](C(=O)O)[C@H](C)C(=O)N[C@@H](CCCN=C(N)N)C(=O)N[C@@H](/C=C/C(C)=C/[C@H](C)[C@H](Cc2ccccc2)OC)[C@H](C)C(=O)N[C@@H](C(=O)O)CCC(=O)N1C
REMARK SMILES IDX 39 1 38 2 37 3 36 4 28 6 27 7 25 8 26 9 23 11 24 12 19 13
REMARK SMILES IDX 18 14 16 15 17 16 11 18 10 19 8 20 9 21 12 24 13 25 14 26
REMARK SMILES IDX 15 27 20 28 21 29 22 30 29 32 30 33 31 34 32 35 33 36 34 37
REMARK SMILES IDX 35 38 57 43 58 44 59 45 60 46 61 47 62 49 66 50 67 51 68 52
REMARK SMILES IDX 69 53 70 54 71 55 2 56 1 57 3 58 4 59 5 60 6 62 7 63 63 65
REMARK SMILES IDX 64 66 65 67 40 69 41 70 42 71 44 72 43 73 45 74 46 75 47 76
REMARK SMILES IDX 55 77 56 78 48 79 49 80 50 81 54 82 51 83 53 84 52 85
REMARK H PARENT 38 5 27 10 18 17 10 22 22 31 34 39 34 40 35 41 35 42 61 48
REMARK H PARENT 5 61 65 68
REMARK Flexibility Score:  369.900
ROOT
ATOM      1  C   UNL     1       1.774  11.034   4.600  1.00  0.00     0.117 C 
ENDROOT
BRANCH   1   2
ATOM      2  N   UNL     1       2.453  10.821   5.879  1.00  0.00    -0.347 N 
ATOM      3  O   UNL     1       1.391  12.467   7.075  1.00  0.00    -0.273 OA
ATOM      4  C   UNL     1       2.141  11.497   7.042  1.00  0.00     0.243 C 
ATOM      5  H   UNL     1       3.163  10.107   5.949  1.00  0.00     0.164 HD
BRANCH   4   6
ATOM      6  C   UNL     1       2.950  11.021   8.276  1.00  0.00     0.171 C 
BRANCH   6   7
ATOM      7  N   UNL     1       2.843   9.562   8.429  1.00  0.00    -0.344 N 
ATOM      8  C   UNL     1       2.741   8.992   9.680  1.00  0.00     0.226 C 
ATOM      9  O   UNL     1       2.756   9.655  10.710  1.00  0.00    -0.275 OA
ATOM     10  H   UNL     1       2.895   8.976   7.605  1.00  0.00     0.164 HD
BRANCH   8  11
ATOM     11  C   UNL     1       2.584   7.482   9.669  1.00  0.00     0.109 C 
ATOM     12  C   UNL     1       3.594   6.841  10.620  1.00  0.00     0.021 C 
BRANCH  11  13
ATOM     13  C   UNL     1       1.112   7.109   9.939  1.00  0.00     0.204 C 
BRANCH  13  14
ATOM     14  N   UNL     1       0.462   8.055  10.850  1.00  0.00    -0.340 N 
ATOM     15  C   UNL     1      -0.636   7.723  11.615  1.00  0.00     0.243 C 
ATOM     16  O   UNL     1      -1.111   6.589  11.631  1.00  0.00    -0.273 OA
ATOM     17  H   UNL     1       0.708   9.045  10.772  1.00  0.00     0.164 HD
BRANCH  15  18
ATOM     18  C   UNL     1      -1.275   8.934  12.338  1.00  0.00     0.171 C 
BRANCH  18  19
ATOM     19  N   UNL     1      -1.943   8.407  13.526  1.00  0.00    -0.343 N 
ATOM     20  C   UNL     1      -3.199   8.838  13.908  1.00  0.00     0.242 CG0
ATOM     21  O   UNL     1      -3.756   9.776  13.344  1.00  0.00    -0.273 OA
ATOM     22  H   UNL     1      -1.472   7.711  14.093  1.00  0.00     0.164 HD
ATOM     23  G   UNL     1      -3.773   8.111  15.142  1.00  0.00     0.000 G0
ENDBRANCH  18  19
BRANCH  18  24
ATOM     24  C   UNL     1      -0.207   9.971  12.706  1.00  0.00     0.038 C 
BRANCH  24  25
ATOM     25  C   UNL     1      -0.699  11.433  12.701  1.00  0.00    -0.015 C 
ATOM     26  C   UNL     1       0.278  12.378  12.001  1.00  0.00     0.007 C 
ATOM     27  C   UNL     1      -0.930  11.904  14.139  1.00  0.00     0.007 C 
ENDBRANCH  24  25
ENDBRANCH  18  24
ENDBRANCH  15  18
ENDBRANCH  13  14
BRANCH  13  28
ATOM     28  C   UNL     1       0.262   7.047   8.666  1.00  0.00     0.327 C 
ATOM     29  O   UNL     1      -0.092   6.035   8.081  1.00  0.00    -0.250 OA
BRANCH  28  30
ATOM     30  O   UNL     1       0.010   8.263   8.139  1.00  0.00    -0.480 OA
ATOM     31  H   UNL     1      -0.510   8.072   7.331  1.00  0.00     0.296 HD
ENDBRANCH  28  30
ENDBRANCH  13  28
ENDBRANCH  11  13
ENDBRANCH   8  11
ENDBRANCH   6   7
BRANCH   6  32
ATOM     32  C   UNL     1       4.413  11.449   8.113  1.00  0.00     0.037 C 
BRANCH  32  33
ATOM     33  C   UNL     1       5.358  10.246   7.991  1.00  0.00     0.026 C 
BRANCH  33  34
ATOM     34  C   UNL     1       6.105  10.222   6.656  1.00  0.00     0.146 C 
BRANCH  34  35
ATOM     35  N   UNL     1       5.657  11.347   5.847  1.00  0.00    -0.254 NA
ATOM     36  C   UNL     1       6.515  11.964   5.123  1.00  0.00     0.185 C 
ATOM     37  N   UNL     1       6.112  12.998   4.370  1.00  0.00    -0.370 N 
ATOM     38  N   UNL     1       7.832  11.727   4.988  1.00  0.00    -0.370 N 
ATOM     39  H   UNL     1       5.128  13.233   4.409  1.00  0.00     0.159 HD
ATOM     40  H   UNL     1       6.678  13.417   3.652  1.00  0.00     0.159 HD
ATOM     41  H   UNL     1       8.429  12.370   4.495  1.00  0.00     0.159 HD
ATOM     42  H   UNL     1       8.276  10.987   5.509  1.00  0.00     0.159 HD
ENDBRANCH  34  35
ENDBRANCH  33  34
ENDBRANCH  32  33
ENDBRANCH   6  32
ENDBRANCH   4   6
ENDBRANCH   1   2
BRANCH   1  43
ATOM     43  C   UNL     1       0.690   9.931   4.425  1.00  0.00     0.102 C 
ATOM     44  C   UNL     1      -0.607  10.220   5.200  1.00  0.00     0.020 C 
BRANCH  43  45
ATOM     45  C   UNL     1       1.274   8.540   4.687  1.00  0.00     0.225 C 
ATOM     46  O   UNL     1       1.692   8.183   5.784  1.00  0.00    -0.275 OA
ATOM     47  N   UNL     1       1.390   7.729   3.581  1.00  0.00    -0.342 N 
ATOM     48  H   UNL     1       0.908   7.974   2.728  1.00  0.00     0.164 HD
BRANCH  47  49
ATOM     49  C   UNL     1       1.899   6.358   3.686  1.00  0.00     0.192 C 
BRANCH  49  50
ATOM     50  C   UNL     1       2.741   6.025   2.452  1.00  0.00     0.047 C 
BRANCH  50  51
ATOM     51  C   UNL     1       2.258   6.770   1.200  1.00  0.00     0.103 C 
BRANCH  51  52
ATOM     52  C   UNL     1       1.910   5.813   0.062  1.00  0.00     0.226 C 
ATOM     53  O   UNL     1       1.101   4.903   0.256  1.00  0.00    -0.275 OA
BRANCH  52  54
ATOM     54  N   UNL     1       2.495   6.087  -1.189  1.00  0.00    -0.311 N 
ATOM     55  C   UNL     1       3.872   5.671  -1.486  1.00  0.00     0.153 C 
BRANCH  54  56
ATOM     56  C   UNL     1       1.785   6.759  -2.197  1.00  0.00     0.102 C 
ATOM     57  C   UNL     1       0.447   6.789  -2.307  1.00  0.00     0.043 C 
BRANCH  56  58
ATOM     58  C   UNL     1       2.511   7.567  -3.248  1.00  0.00     0.268 C 
ATOM     59  O   UNL     1       3.239   8.513  -2.980  1.00  0.00    -0.268 OA
ATOM     60  N   UNL     1       2.321   7.090  -4.523  1.00  0.00    -0.339 N 
ATOM     61  H   UNL     1       1.694   6.307  -4.662  1.00  0.00     0.164 HD
BRANCH  60  62
ATOM     62  C   UNL     1       2.982   7.686  -5.684  1.00  0.00     0.168 CG0
ATOM     63  C   UNL     1       4.401   7.154  -5.838  1.00  0.00     0.041 C 
ATOM     64  G   UNL     1       2.986   9.222  -5.544  1.00  0.00     0.000 G0
ENDBRANCH  60  62
ENDBRANCH  56  58
ENDBRANCH  54  56
ENDBRANCH  52  54
ENDBRANCH  51  52
ENDBRANCH  50  51
ENDBRANCH  49  50
BRANCH  49  65
ATOM     65  C   UNL     1       0.756   5.338   3.813  1.00  0.00     0.326 C 
ATOM     66  O   UNL     1      -0.279   5.505   4.442  1.00  0.00    -0.250 OA
BRANCH  65  67
ATOM     67  O   UNL     1       0.988   4.154   3.205  1.00  0.00    -0.480 OA
ATOM     68  H   UNL     1       1.140   3.536   3.952  1.00  0.00     0.296 HD
ENDBRANCH  65  67
ENDBRANCH  49  65
ENDBRANCH  47  49
ENDBRANCH  43  45
ENDBRANCH   1  43
BRANCH   1  69
ATOM     69  C   UNL     1       2.868  11.159   3.555  1.00  0.00    -0.001 C 
ATOM     70  C   UNL     1       2.977  12.094   2.594  1.00  0.00     0.001 C 
BRANCH  70  71
ATOM     71  C   UNL     1       4.049  12.218   1.604  1.00  0.00    -0.055 C 
ATOM     72  C   UNL     1       4.659  11.085   1.196  1.00  0.00    -0.018 C 
ATOM     73  C   UNL     1       4.389  13.598   1.107  1.00  0.00     0.044 C 
BRANCH  72  74
ATOM     74  C   UNL     1       5.787  10.909   0.189  1.00  0.00     0.038 C 
ATOM     75  C   UNL     1       5.148  10.865  -1.204  1.00  0.00     0.015 C 
BRANCH  74  76
ATOM     76  C   UNL     1       6.605   9.640   0.572  1.00  0.00     0.128 C 
BRANCH  76  77
ATOM     77  O   UNL     1       7.500   9.293  -0.498  1.00  0.00    -0.381 OA
ATOM     78  C   UNL     1       7.461   7.916  -0.851  1.00  0.00     0.195 C 
ENDBRANCH  76  77
BRANCH  76  79
ATOM     79  C   UNL     1       7.321   9.743   1.943  1.00  0.00     0.068 C 
BRANCH  79  80
ATOM     80  C   UNL     1       6.943   8.748   3.013  1.00  0.00    -0.045 A 
ATOM     81  C   UNL     1       5.601   8.511   3.337  1.00  0.00     0.004 A 
ATOM     82  C   UNL     1       7.939   8.062   3.725  1.00  0.00     0.004 A 
ATOM     83  C   UNL     1       5.260   7.599   4.339  1.00  0.00     0.000 A 
ATOM     84  C   UNL     1       7.598   7.151   4.727  1.00  0.00     0.000 A 
ATOM     85  C   UNL     1       6.259   6.919   5.032  1.00  0.00     0.000 A 
ENDBRANCH  79  80
ENDBRANCH  76  79
ENDBRANCH  74  76
ENDBRANCH  72  74
ENDBRANCH  70  71
ENDBRANCH   1  69
TORSDOF 17
ENDMDL
MODEL 2
REMARK VINA RESULT:    -5.787      1.612      2.813
REMARK INTER + INTRA:         -26.347
REMARK INTER:                 -18.643
REMARK INTRA:                  -7.704
REMARK UNBOUND:                -9.057
REMARK SMILES C=C1C(=O)N[C@H](C)C(=O)N[C@@H](CC(C)C)C(=O)N[C@@H](C(=O)O)[C@H](C)C(=O)N[C@@H](CCCN=C(N)N)C(=O)N[C@@H](/C=C/C(C)=C/[C@H](C)[C@H](Cc2ccccc2)OC)[C@H](C)C(=O)N[C@@H](C(=O)O)CCC(=O)N1C
REMARK SMILES IDX 39 1 38 2 37 3 36 4 28 6 27 7 25 8 26 9 23 11 24 12 19 13
REMARK SMILES IDX 18 14 16 15 17 16 11 18 10 19 8 20 9 21 12 24 13 25 14 26
REMARK SMILES IDX 15 27 20 28 21 29 22 30 29 32 30 33 31 34 32 35 33 36 34 37
REMARK SMILES IDX 35 38 57 43 58 44 59 45 60 46 61 47 62 49 66 50 67 51 68 52
REMARK SMILES IDX 69 53 70 54 71 55 2 56 1 57 3 58 4 59 5 60 6 62 7 63 63 65
REMARK SMILES IDX 64 66 65 67 40 69 41 70 42 71 44 72 43 73 45 74 46 75 47 76
REMARK SMILES IDX 55 77 56 78 48 79 49 80 50 81 54 82 51 83 53 84 52 85
REMARK H PARENT 38 5 27 10 18 17 10 22 22 31 34 39 34 40 35 41 35 42 61 48
REMARK H PARENT 5 61 65 68
REMARK Flexibility Score:  369.900
ROOT
ATOM      1  C   UNL     1       1.446  11.130   4.371  1.00  0.00     0.117 C 
ENDROOT
BRANCH   1   2
ATOM      2  N   UNL     1       2.130  10.983   5.657  1.00  0.00    -0.347 N 
ATOM      3  O   UNL     1       1.019  12.640   6.793  1.00  0.00    -0.273 OA
ATOM      4  C   UNL     1       1.796  11.691   6.795  1.00  0.00     0.243 C 
ATOM      5  H   UNL     1       2.859  10.293   5.753  1.00  0.00     0.164 HD
BRANCH   4   6
ATOM      6  C   UNL     1       2.618  11.285   8.045  1.00  0.00     0.171 C 
BRANCH   6   7
ATOM      7  N   UNL     1       2.615   9.823   8.209  1.00  0.00    -0.344 N 
ATOM      8  C   UNL     1       2.224   9.250   9.400  1.00  0.00     0.226 C 
ATOM      9  O   UNL     1       1.886   9.915  10.373  1.00  0.00    -0.275 OA
ATOM     10  H   UNL     1       2.952   9.243   7.451  1.00  0.00     0.164 HD
BRANCH   8  11
ATOM     11  C   UNL     1       2.223   7.732   9.394  1.00  0.00     0.109 C 
ATOM     12  C   UNL     1       3.272   7.201  10.371  1.00  0.00     0.021 C 
BRANCH  11  13
ATOM     13  C   UNL     1       0.792   7.210   9.634  1.00  0.00     0.204 C 
BRANCH  13  14
ATOM     14  N   UNL     1       0.131   7.902  10.745  1.00  0.00    -0.340 N 
ATOM     15  C   UNL     1       0.130   7.417  12.035  1.00  0.00     0.243 C 
ATOM     16  O   UNL     1       0.737   6.397  12.357  1.00  0.00    -0.273 OA
ATOM     17  H   UNL     1      -0.512   8.666  10.521  1.00  0.00     0.164 HD
BRANCH  15  18
ATOM     18  C   UNL     1      -0.801   8.202  12.991  1.00  0.00     0.171 C 
BRANCH  18  19
ATOM     19  N   UNL     1      -0.461   9.615  12.839  1.00  0.00    -0.343 N 
ATOM     20  C   UNL     1      -0.229  10.430  13.931  1.00  0.00     0.242 CG0
ATOM     21  O   UNL     1      -0.427  10.040  15.079  1.00  0.00    -0.273 OA
ATOM     22  H   UNL     1      -0.398  10.015  11.910  1.00  0.00     0.164 HD
ATOM     23  G   UNL     1       0.194  11.870  13.572  1.00  0.00     0.000 G0
ENDBRANCH  18  19
BRANCH  18  24
ATOM     24  C   UNL     1      -2.273   7.938  12.651  1.00  0.00     0.038 C 
BRANCH  24  25
ATOM     25  C   UNL     1      -3.174   7.649  13.870  1.00  0.00    -0.015 C 
ATOM     26  C   UNL     1      -3.756   8.923  14.482  1.00  0.00     0.007 C 
ATOM     27  C   UNL     1      -2.377   6.885  14.930  1.00  0.00     0.007 C 
ENDBRANCH  24  25
ENDBRANCH  18  24
ENDBRANCH  15  18
ENDBRANCH  13  14
BRANCH  13  28
ATOM     28  C   UNL     1      -0.115   7.351   8.408  1.00  0.00     0.327 C 
ATOM     29  O   UNL     1      -0.938   8.233   8.215  1.00  0.00    -0.250 OA
BRANCH  28  30
ATOM     30  O   UNL     1      -0.017   6.311   7.555  1.00  0.00    -0.480 OA
ATOM     31  H   UNL     1      -0.095   6.719   6.668  1.00  0.00     0.296 HD
ENDBRANCH  28  30
ENDBRANCH  13  28
ENDBRANCH  11  13
ENDBRANCH   8  11
ENDBRANCH   6   7
BRANCH   6  32
ATOM     32  C   UNL     1       4.049  11.816   7.901  1.00  0.00     0.037 C 
BRANCH  32  33
ATOM     33  C   UNL     1       5.094  10.807   8.396  1.00  0.00     0.026 C 
BRANCH  33  34
ATOM     34  C   UNL     1       5.734  10.019   7.253  1.00  0.00     0.146 C 
BRANCH  34  35
ATOM     35  N   UNL     1       5.254   8.645   7.303  1.00  0.00    -0.254 NA
ATOM     36  C   UNL     1       4.710   8.145   6.256  1.00  0.00     0.185 C 
ATOM     37  N   UNL     1       4.269   6.878   6.290  1.00  0.00    -0.370 N 
ATOM     38  N   UNL     1       4.498   8.719   5.059  1.00  0.00    -0.370 N 
ATOM     39  H   UNL     1       4.403   6.374   7.157  1.00  0.00     0.159 HD
ATOM     40  H   UNL     1       3.993   6.364   5.472  1.00  0.00     0.159 HD
ATOM     41  H   UNL     1       3.933   8.268   4.358  1.00  0.00     0.159 HD
ATOM     42  H   UNL     1       4.765   9.678   4.895  1.00  0.00     0.159 HD
ENDBRANCH  34  35
ENDBRANCH  33  34
ENDBRANCH  32  33
ENDBRANCH   6  32
ENDBRANCH   4   6
ENDBRANCH   1   2
BRANCH   1  43
ATOM     43  C   UNL     1       0.388   9.996   4.241  1.00  0.00     0.102 C 
ATOM     44  C   UNL     1      -0.926  10.297   4.982  1.00  0.00     0.020 C 
BRANCH  43  45
ATOM     45  C   UNL     1       0.996   8.633   4.585  1.00  0.00     0.225 C 
ATOM     46  O   UNL     1       1.349   8.323   5.719  1.00  0.00    -0.275 OA
ATOM     47  N   UNL     1       1.216   7.796   3.515  1.00  0.00    -0.342 N 
ATOM     48  H   UNL     1       0.787   8.000   2.624  1.00  0.00     0.164 HD
BRANCH  47  49
ATOM     49  C   UNL     1       1.760   6.447   3.697  1.00  0.00     0.192 C 
BRANCH  49  50
ATOM     50  C   UNL     1       2.590   6.057   2.471  1.00  0.00     0.047 C 
BRANCH  50  51
ATOM     51  C   UNL     1       2.152   6.811   1.209  1.00  0.00     0.103 C 
BRANCH  51  52
ATOM     52  C   UNL     1       1.960   5.874   0.018  1.00  0.00     0.226 C 
ATOM     53  O   UNL     1       1.152   4.947   0.096  1.00  0.00    -0.275 OA
BRANCH  52  54
ATOM     54  N   UNL     1       2.683   6.185  -1.148  1.00  0.00    -0.311 N 
ATOM     55  C   UNL     1       4.124   5.912  -1.240  1.00  0.00     0.153 C 
BRANCH  54  56
ATOM     56  C   UNL     1       2.058   6.762  -2.266  1.00  0.00     0.102 C 
ATOM     57  C   UNL     1       0.735   6.749  -2.498  1.00  0.00     0.043 C 
BRANCH  56  58
ATOM     58  C   UNL     1       2.862   7.506  -3.306  1.00  0.00     0.268 C 
ATOM     59  O   UNL     1       3.273   8.647  -3.144  1.00  0.00    -0.268 OA
ATOM     60  N   UNL     1       3.139   6.749  -4.419  1.00  0.00    -0.339 N 
ATOM     61  H   UNL     1       2.753   5.815  -4.481  1.00  0.00     0.164 HD
BRANCH  60  62
ATOM     62  C   UNL     1       3.957   7.254  -5.521  1.00  0.00     0.168 CG0
ATOM     63  C   UNL     1       3.091   7.905  -6.592  1.00  0.00     0.041 C 
ATOM     64  G   UNL     1       4.788   6.099  -6.118  1.00  0.00     0.000 G0
ENDBRANCH  60  62
ENDBRANCH  56  58
ENDBRANCH  54  56
ENDBRANCH  52  54
ENDBRANCH  51  52
ENDBRANCH  50  51
ENDBRANCH  49  50
BRANCH  49  65
ATOM     65  C   UNL     1       0.646   5.410   3.909  1.00  0.00     0.326 C 
ATOM     66  O   UNL     1       0.644   4.269   3.471  1.00  0.00    -0.250 OA
BRANCH  65  67
ATOM     67  O   UNL     1      -0.425   5.866   4.597  1.00  0.00    -0.480 OA
ATOM     68  H   UNL     1      -1.149   5.851   3.934  1.00  0.00     0.296 HD
ENDBRANCH  65  67
ENDBRANCH  49  65
ENDBRANCH  47  49
ENDBRANCH  43  45
ENDBRANCH   1  43
BRANCH   1  69
ATOM     69  C   UNL     1       2.536  11.239   3.321  1.00  0.00    -0.001 C 
ATOM     70  C   UNL     1       3.037  12.363   2.778  1.00  0.00     0.001 C 
BRANCH  70  71
ATOM     71  C   UNL     1       4.105  12.457   1.780  1.00  0.00    -0.055 C 
ATOM     72  C   UNL     1       4.590  11.306   1.270  1.00  0.00    -0.018 C 
ATOM     73  C   UNL     1       4.580  13.832   1.388  1.00  0.00     0.044 C 
BRANCH  72  74
ATOM     74  C   UNL     1       5.683  11.098   0.231  1.00  0.00     0.038 C 
ATOM     75  C   UNL     1       5.083  10.242  -0.891  1.00  0.00     0.015 C 
BRANCH  74  76
ATOM     76  C   UNL     1       6.928  10.478   0.930  1.00  0.00     0.128 C 
BRANCH  76  77
ATOM     77  O   UNL     1       6.716   9.074   1.156  1.00  0.00    -0.381 OA
ATOM     78  C   UNL     1       7.022   8.656   2.480  1.00  0.00     0.195 C 
ENDBRANCH  76  77
BRANCH  76  79
ATOM     79  C   UNL     1       8.267  10.773   0.209  1.00  0.00     0.068 C 
BRANCH  79  80
ATOM     80  C   UNL     1       8.918   9.650  -0.562  1.00  0.00    -0.045 A 
ATOM     81  C   UNL     1       9.890   8.835   0.032  1.00  0.00     0.004 A 
ATOM     82  C   UNL     1       8.575   9.423  -1.904  1.00  0.00     0.004 A 
ATOM     83  C   UNL     1      10.497   7.807  -0.693  1.00  0.00     0.000 A 
ATOM     84  C   UNL     1       9.184   8.395  -2.628  1.00  0.00     0.000 A 
ATOM     85  C   UNL     1      10.143   7.587  -2.022  1.00  0.00     0.000 A 
ENDBRANCH  79  80
ENDBRANCH  76  79
ENDBRANCH  74  76
ENDBRANCH  72  74
ENDBRANCH  70  71
ENDBRANCH   1  69
TORSDOF 17
ENDMDL
MODEL 3
REMARK VINA RESULT:    -5.757      6.099      9.951
REMARK INTER + INTRA:         -26.257
REMARK INTER:                 -18.340
REMARK INTRA:                  -7.917
REMARK UNBOUND:                -9.057
REMARK SMILES C=C1C(=O)N[C@H](C)C(=O)N[C@@H](CC(C)C)C(=O)N[C@@H](C(=O)O)[C@H](C)C(=O)N[C@@H](CCCN=C(N)N)C(=O)N[C@@H](/C=C/C(C)=C/[C@H](C)[C@H](Cc2ccccc2)OC)[C@H](C)C(=O)N[C@@H](C(=O)O)CCC(=O)N1C
REMARK SMILES IDX 39 1 38 2 37 3 36 4 28 6 27 7 25 8 26 9 23 11 24 12 19 13
REMARK SMILES IDX 18 14 16 15 17 16 11 18 10 19 8 20 9 21 12 24 13 25 14 26
REMARK SMILES IDX 15 27 20 28 21 29 22 30 29 32 30 33 31 34 32 35 33 36 34 37
REMARK SMILES IDX 35 38 57 43 58 44 59 45 60 46 61 47 62 49 66 50 67 51 68 52
REMARK SMILES IDX 69 53 70 54 71 55 2 56 1 57 3 58 4 59 5 60 6 62 7 63 63 65
REMARK SMILES IDX 64 66 65 67 40 69 41 70 42 71 44 72 43 73 45 74 46 75 47 76
REMARK SMILES IDX 55 77 56 78 48 79 49 80 50 81 54 82 51 83 53 84 52 85
REMARK H PARENT 38 5 27 10 18 17 10 22 22 31 34 39 34 40 35 41 35 42 61 48
REMARK H PARENT 5 61 65 68
REMARK Flexibility Score:  369.900
ROOT
ATOM      1  C   UNL     1       3.012   5.742   5.509  1.00  0.00     0.117 C 
ENDROOT
BRANCH   1   2
ATOM      2  N   UNL     1       4.048   4.861   6.051  1.00  0.00    -0.347 N 
ATOM      3  O   UNL     1       3.214   4.673   8.182  1.00  0.00    -0.273 OA
ATOM      4  C   UNL     1       4.016   4.322   7.323  1.00  0.00     0.243 C 
ATOM      5  H   UNL     1       4.815   4.579   5.461  1.00  0.00     0.164 HD
BRANCH   4   6
ATOM      6  C   UNL     1       5.189   3.353   7.618  1.00  0.00     0.171 C 
BRANCH   6   7
ATOM      7  N   UNL     1       5.298   2.339   6.557  1.00  0.00    -0.344 N 
ATOM      8  C   UNL     1       4.826   1.060   6.756  1.00  0.00     0.226 C 
ATOM      9  O   UNL     1       4.321   0.700   7.813  1.00  0.00    -0.275 OA
ATOM     10  H   UNL     1       5.770   2.581   5.695  1.00  0.00     0.164 HD
BRANCH   8  11
ATOM     11  C   UNL     1       4.962   0.148   5.550  1.00  0.00     0.109 C 
ATOM     12  C   UNL     1       6.137   0.598   4.681  1.00  0.00     0.021 C 
BRANCH  11  13
ATOM     13  C   UNL     1       5.022  -1.321   6.011  1.00  0.00     0.204 C 
BRANCH  13  14
ATOM     14  N   UNL     1       3.693  -1.937   6.067  1.00  0.00    -0.340 N 
ATOM     15  C   UNL     1       3.353  -2.901   6.991  1.00  0.00     0.243 C 
ATOM     16  O   UNL     1       4.124  -3.269   7.875  1.00  0.00    -0.273 OA
ATOM     17  H   UNL     1       3.061  -1.789   5.275  1.00  0.00     0.164 HD
BRANCH  15  18
ATOM     18  C   UNL     1       1.972  -3.551   6.728  1.00  0.00     0.171 C 
BRANCH  18  19
ATOM     19  N   UNL     1       2.230  -4.818   6.046  1.00  0.00    -0.343 N 
ATOM     20  C   UNL     1       2.152  -4.935   4.672  1.00  0.00     0.242 CG0
ATOM     21  O   UNL     1       1.734  -4.017   3.971  1.00  0.00    -0.273 OA
ATOM     22  H   UNL     1       2.467  -5.638   6.593  1.00  0.00     0.164 HD
ATOM     23  G   UNL     1       2.534  -6.328   4.129  1.00  0.00     0.000 G0
ENDBRANCH  18  19
BRANCH  18  24
ATOM     24  C   UNL     1       1.214  -3.764   8.044  1.00  0.00     0.038 C 
BRANCH  24  25
ATOM     25  C   UNL     1      -0.187  -3.119   8.093  1.00  0.00    -0.015 C 
ATOM     26  C   UNL     1      -0.611  -2.539   6.743  1.00  0.00     0.007 C 
ATOM     27  C   UNL     1      -0.209  -2.018   9.156  1.00  0.00     0.007 C 
ENDBRANCH  24  25
ENDBRANCH  18  24
ENDBRANCH  15  18
ENDBRANCH  13  14
BRANCH  13  28
ATOM     28  C   UNL     1       5.893  -2.202   5.109  1.00  0.00     0.327 C 
ATOM     29  O   UNL     1       5.523  -2.804   4.112  1.00  0.00    -0.250 OA
BRANCH  28  30
ATOM     30  O   UNL     1       7.145  -2.368   5.581  1.00  0.00    -0.480 OA
ATOM     31  H   UNL     1       7.455  -3.195   5.157  1.00  0.00     0.296 HD
ENDBRANCH  28  30
ENDBRANCH  13  28
ENDBRANCH  11  13
ENDBRANCH   8  11
ENDBRANCH   6   7
BRANCH   6  32
ATOM     32  C   UNL     1       6.487   4.158   7.743  1.00  0.00     0.037 C 
BRANCH  32  33
ATOM     33  C   UNL     1       7.551   3.701   6.734  1.00  0.00     0.026 C 
BRANCH  33  34
ATOM     34  C   UNL     1       8.644   2.850   7.382  1.00  0.00     0.146 C 
BRANCH  34  35
ATOM     35  N   UNL     1       8.367   1.445   7.114  1.00  0.00    -0.254 NA
ATOM     36  C   UNL     1       8.288   0.635   8.103  1.00  0.00     0.185 C 
ATOM     37  N   UNL     1       8.028  -0.661   7.867  1.00  0.00    -0.370 N 
ATOM     38  N   UNL     1       8.432   0.887   9.416  1.00  0.00    -0.370 N 
ATOM     39  H   UNL     1       7.897  -0.929   6.900  1.00  0.00     0.159 HD
ATOM     40  H   UNL     1       7.781  -1.318   8.587  1.00  0.00     0.159 HD
ATOM     41  H   UNL     1       8.486   0.139  10.087  1.00  0.00     0.159 HD
ATOM     42  H   UNL     1       8.646   1.818   9.738  1.00  0.00     0.159 HD
ENDBRANCH  34  35
ENDBRANCH  33  34
ENDBRANCH  32  33
ENDBRANCH   6  32
ENDBRANCH   4   6
ENDBRANCH   1   2
BRANCH   1  43
ATOM     43  C   UNL     1       1.755   4.885   5.183  1.00  0.00     0.102 C 
ATOM     44  C   UNL     1       2.003   3.820   4.101  1.00  0.00     0.020 C 
BRANCH  43  45
ATOM     45  C   UNL     1       0.538   5.775   4.910  1.00  0.00     0.225 C 
ATOM     46  O   UNL     1      -0.490   5.362   4.383  1.00  0.00    -0.275 OA
ATOM     47  N   UNL     1       0.701   7.108   5.210  1.00  0.00    -0.342 N 
ATOM     48  H   UNL     1       1.484   7.402   5.777  1.00  0.00     0.164 HD
BRANCH  47  49
ATOM     49  C   UNL     1      -0.391   8.071   5.035  1.00  0.00     0.192 C 
BRANCH  49  50
ATOM     50  C   UNL     1       0.164   9.379   4.464  1.00  0.00     0.047 C 
BRANCH  50  51
ATOM     51  C   UNL     1       1.658   9.560   4.768  1.00  0.00     0.103 C 
BRANCH  51  52
ATOM     52  C   UNL     1       1.890  10.320   6.072  1.00  0.00     0.226 C 
ATOM     53  O   UNL     1       1.092  11.192   6.420  1.00  0.00    -0.275 OA
BRANCH  52  54
ATOM     54  N   UNL     1       2.989   9.910   6.849  1.00  0.00    -0.311 N 
ATOM     55  C   UNL     1       2.909   8.719   7.705  1.00  0.00     0.153 C 
BRANCH  54  56
ATOM     56  C   UNL     1       4.202  10.619   6.832  1.00  0.00     0.102 C 
ATOM     57  C   UNL     1       4.837  11.029   5.722  1.00  0.00     0.043 C 
BRANCH  56  58
ATOM     58  C   UNL     1       4.883  11.022   8.119  1.00  0.00     0.268 C 
ATOM     59  O   UNL     1       5.895  10.479   8.541  1.00  0.00    -0.268 OA
ATOM     60  N   UNL     1       4.288  12.101   8.729  1.00  0.00    -0.339 N 
ATOM     61  H   UNL     1       3.445  12.488   8.321  1.00  0.00     0.164 HD
BRANCH  60  62
ATOM     62  C   UNL     1       4.821  12.695   9.954  1.00  0.00     0.168 CG0
ATOM     63  C   UNL     1       3.869  12.483  11.125  1.00  0.00     0.041 C 
ATOM     64  G   UNL     1       5.082  14.199   9.728  1.00  0.00     0.000 G0
ENDBRANCH  60  62
ENDBRANCH  56  58
ENDBRANCH  54  56
ENDBRANCH  52  54
ENDBRANCH  51  52
ENDBRANCH  50  51
ENDBRANCH  49  50
BRANCH  49  65
ATOM     65  C   UNL     1      -1.110   8.360   6.362  1.00  0.00     0.326 C 
ATOM     66  O   UNL     1      -0.609   8.281   7.474  1.00  0.00    -0.250 OA
BRANCH  65  67
ATOM     67  O   UNL     1      -2.419   8.671   6.238  1.00  0.00    -0.480 OA
ATOM     68  H   UNL     1      -2.458   9.617   6.496  1.00  0.00     0.296 HD
ENDBRANCH  65  67
ENDBRANCH  49  65
ENDBRANCH  47  49
ENDBRANCH  43  45
ENDBRANCH   1  43
BRANCH   1  69
ATOM     69  C   UNL     1       3.670   6.533   4.393  1.00  0.00    -0.001 C 
ATOM     70  C   UNL     1       4.622   7.476   4.511  1.00  0.00     0.001 C 
BRANCH  70  71
ATOM     71  C   UNL     1       5.265   8.217   3.424  1.00  0.00    -0.055 C 
ATOM     72  C   UNL     1       4.467   8.817   2.516  1.00  0.00    -0.018 C 
ATOM     73  C   UNL     1       6.770   8.265   3.402  1.00  0.00     0.044 C 
BRANCH  72  74
ATOM     74  C   UNL     1       4.848   9.647   1.298  1.00  0.00     0.038 C 
ATOM     75  C   UNL     1       4.596  11.117   1.655  1.00  0.00     0.015 C 
BRANCH  74  76
ATOM     76  C   UNL     1       4.048   9.127   0.067  1.00  0.00     0.128 C 
BRANCH  76  77
ATOM     77  O   UNL     1       4.394   9.890  -1.101  1.00  0.00    -0.381 OA
ATOM     78  C   UNL     1       5.442   9.313  -1.869  1.00  0.00     0.195 C 
ENDBRANCH  76  77
BRANCH  76  79
ATOM     79  C   UNL     1       4.163   7.598  -0.158  1.00  0.00     0.068 C 
BRANCH  79  80
ATOM     80  C   UNL     1       2.897   6.779  -0.108  1.00  0.00    -0.045 A 
ATOM     81  C   UNL     1       2.215   6.431  -1.282  1.00  0.00     0.004 A 
ATOM     82  C   UNL     1       2.365   6.374   1.125  1.00  0.00     0.004 A 
ATOM     83  C   UNL     1       1.036   5.685  -1.226  1.00  0.00     0.000 A 
ATOM     84  C   UNL     1       1.185   5.628   1.180  1.00  0.00     0.000 A 
ATOM     85  C   UNL     1       0.522   5.282   0.005  1.00  0.00     0.000 A 
ENDBRANCH  79  80
ENDBRANCH  76  79
ENDBRANCH  74  76
ENDBRANCH  72  74
ENDBRANCH  70  71
ENDBRANCH   1  69
TORSDOF 17
ENDMDL
MODEL 4
REMARK VINA RESULT:    -5.658      3.123     12.477
REMARK INTER + INTRA:         -25.961
REMARK INTER:                 -21.458
REMARK INTRA:                  -4.503
REMARK UNBOUND:                -9.057
REMARK SMILES C=C1C(=O)N[C@H](C)C(=O)N[C@@H](CC(C)C)C(=O)N[C@@H](C(=O)O)[C@H](C)C(=O)N[C@@H](CCCN=C(N)N)C(=O)N[C@@H](/C=C/C(C)=C/[C@H](C)[C@H](Cc2ccccc2)OC)[C@H](C)C(=O)N[C@@H](C(=O)O)CCC(=O)N1C
REMARK SMILES IDX 39 1 38 2 37 3 36 4 28 6 27 7 25 8 26 9 23 11 24 12 19 13
REMARK SMILES IDX 18 14 16 15 17 16 11 18 10 19 8 20 9 21 12 24 13 25 14 26
REMARK SMILES IDX 15 27 20 28 21 29 22 30 29 32 30 33 31 34 32 35 33 36 34 37
REMARK SMILES IDX 35 38 57 43 58 44 59 45 60 46 61 47 62 49 66 50 67 51 68 52
REMARK SMILES IDX 69 53 70 54 71 55 2 56 1 57 3 58 4 59 5 60 6 62 7 63 63 65
REMARK SMILES IDX 64 66 65 67 40 69 41 70 42 71 44 72 43 73 45 74 46 75 47 76
REMARK SMILES IDX 55 77 56 78 48 79 49 80 50 81 54 82 51 83 53 84 52 85
REMARK H PARENT 38 5 27 10 18 17 10 22 22 31 34 39 34 40 35 41 35 42 61 48
REMARK H PARENT 5 61 65 68
REMARK Flexibility Score:  369.900
ROOT
ATOM      1  C   UNL     1       5.271   8.434   3.442  1.00  0.00     0.117 C 
ENDROOT
BRANCH   1   2
ATOM      2  N   UNL     1       5.325   8.926   2.065  1.00  0.00    -0.347 N 
ATOM      3  O   UNL     1       3.631   7.637   1.206  1.00  0.00    -0.273 OA
ATOM      4  C   UNL     1       4.436   8.553   1.075  1.00  0.00     0.243 C 
ATOM      5  H   UNL     1       6.014   9.618   1.814  1.00  0.00     0.164 HD
BRANCH   4   6
ATOM      6  C   UNL     1       4.660   9.285  -0.272  1.00  0.00     0.171 C 
BRANCH   6   7
ATOM      7  N   UNL     1       4.092   8.505  -1.383  1.00  0.00    -0.344 N 
ATOM      8  C   UNL     1       4.898   8.035  -2.396  1.00  0.00     0.226 C 
ATOM      9  O   UNL     1       6.103   8.256  -2.438  1.00  0.00    -0.275 OA
ATOM     10  H   UNL     1       3.091   8.360  -1.418  1.00  0.00     0.164 HD
BRANCH   8  11
ATOM     11  C   UNL     1       4.172   7.202  -3.438  1.00  0.00     0.109 C 
ATOM     12  C   UNL     1       3.649   5.911  -2.808  1.00  0.00     0.021 C 
BRANCH  11  13
ATOM     13  C   UNL     1       3.102   8.061  -4.139  1.00  0.00     0.204 C 
BRANCH  13  14
ATOM     14  N   UNL     1       3.368   8.212  -5.573  1.00  0.00    -0.340 N 
ATOM     15  C   UNL     1       4.060   7.274  -6.309  1.00  0.00     0.243 C 
ATOM     16  O   UNL     1       4.450   6.213  -5.826  1.00  0.00    -0.273 OA
ATOM     17  H   UNL     1       3.207   9.130  -5.998  1.00  0.00     0.164 HD
BRANCH  15  18
ATOM     18  C   UNL     1       4.399   7.742  -7.745  1.00  0.00     0.171 C 
BRANCH  18  19
ATOM     19  N   UNL     1       4.774   9.152  -7.649  1.00  0.00    -0.343 N 
ATOM     20  C   UNL     1       5.529   9.774  -8.624  1.00  0.00     0.242 CG0
ATOM     21  O   UNL     1       6.032   9.140  -9.550  1.00  0.00    -0.273 OA
ATOM     22  H   UNL     1       4.479   9.691  -6.842  1.00  0.00     0.164 HD
ATOM     23  G   UNL     1       5.758  11.281  -8.389  1.00  0.00     0.000 G0
ENDBRANCH  18  19
BRANCH  18  24
ATOM     24  C   UNL     1       5.535   6.898  -8.335  1.00  0.00     0.038 C 
BRANCH  24  25
ATOM     25  C   UNL     1       5.070   5.688  -9.174  1.00  0.00    -0.015 C 
ATOM     26  C   UNL     1       5.897   4.432  -8.897  1.00  0.00     0.007 C 
ATOM     27  C   UNL     1       5.144   6.036 -10.663  1.00  0.00     0.007 C 
ENDBRANCH  24  25
ENDBRANCH  18  24
ENDBRANCH  15  18
ENDBRANCH  13  14
BRANCH  13  28
ATOM     28  C   UNL     1       1.685   7.496  -3.998  1.00  0.00     0.327 C 
ATOM     29  O   UNL     1       1.025   6.972  -4.882  1.00  0.00    -0.250 OA
BRANCH  28  30
ATOM     30  O   UNL     1       1.141   7.730  -2.787  1.00  0.00    -0.480 OA
ATOM     31  H   UNL     1       0.185   7.561  -2.915  1.00  0.00     0.296 HD
ENDBRANCH  28  30
ENDBRANCH  13  28
ENDBRANCH  11  13
ENDBRANCH   8  11
ENDBRANCH   6   7
BRANCH   6  32
ATOM     32  C   UNL     1       4.024  10.678  -0.199  1.00  0.00     0.037 C 
BRANCH  32  33
ATOM     33  C   UNL     1       5.047  11.764   0.163  1.00  0.00     0.026 C 
BRANCH  33  34
ATOM     34  C   UNL     1       5.433  12.628  -1.038  1.00  0.00     0.146 C 
BRANCH  34  35
ATOM     35  N   UNL     1       6.885  12.724  -1.101  1.00  0.00    -0.254 NA
ATOM     36  C   UNL     1       7.517  11.962  -1.914  1.00  0.00     0.185 C 
ATOM     37  N   UNL     1       8.855  12.045  -1.983  1.00  0.00    -0.370 N 
ATOM     38  N   UNL     1       7.027  11.038  -2.759  1.00  0.00    -0.370 N 
ATOM     39  H   UNL     1       9.299  12.728  -1.382  1.00  0.00     0.159 HD
ATOM     40  H   UNL     1       9.402  11.615  -2.708  1.00  0.00     0.159 HD
ATOM     41  H   UNL     1       7.638  10.403  -3.248  1.00  0.00     0.159 HD
ATOM     42  H   UNL     1       6.037  10.856  -2.802  1.00  0.00     0.159 HD
ENDBRANCH  34  35
ENDBRANCH  33  34
ENDBRANCH  32  33
ENDBRANCH   6  32
ENDBRANCH   4   6
ENDBRANCH   1   2
BRANCH   1  43
ATOM     43  C   UNL     1       4.375   9.394   4.276  1.00  0.00     0.102 C 
ATOM     44  C   UNL     1       5.001   9.803   5.620  1.00  0.00     0.020 C 
BRANCH  43  45
ATOM     45  C   UNL     1       2.948   8.850   4.396  1.00  0.00     0.225 C 
ATOM     46  O   UNL     1       1.992   9.543   4.733  1.00  0.00    -0.275 OA
ATOM     47  N   UNL     1       2.811   7.496   4.192  1.00  0.00    -0.342 N 
ATOM     48  H   UNL     1       3.568   6.975   3.772  1.00  0.00     0.164 HD
BRANCH  47  49
ATOM     49  C   UNL     1       1.500   6.843   4.239  1.00  0.00     0.192 C 
BRANCH  49  50
ATOM     50  C   UNL     1       1.332   6.121   5.579  1.00  0.00     0.047 C 
BRANCH  50  51
ATOM     51  C   UNL     1      -0.023   6.419   6.236  1.00  0.00     0.103 C 
BRANCH  51  52
ATOM     52  C   UNL     1       0.007   7.711   7.051  1.00  0.00     0.226 C 
ATOM     53  O   UNL     1      -0.741   8.642   6.746  1.00  0.00    -0.275 OA
BRANCH  52  54
ATOM     54  N   UNL     1       0.856   7.725   8.173  1.00  0.00    -0.311 N 
ATOM     55  C   UNL     1       2.089   8.523   8.178  1.00  0.00     0.153 C 
BRANCH  54  56
ATOM     56  C   UNL     1       0.556   6.983   9.327  1.00  0.00     0.102 C 
ATOM     57  C   UNL     1       1.080   5.784   9.629  1.00  0.00     0.043 C 
BRANCH  56  58
ATOM     58  C   UNL     1      -0.384   7.529  10.376  1.00  0.00     0.268 C 
ATOM     59  O   UNL     1      -1.601   7.413  10.311  1.00  0.00    -0.268 OA
ATOM     60  N   UNL     1       0.269   8.108  11.438  1.00  0.00    -0.339 N 
ATOM     61  H   UNL     1       1.279   8.175  11.411  1.00  0.00     0.164 HD
BRANCH  60  62
ATOM     62  C   UNL     1      -0.448   8.645  12.594  1.00  0.00     0.168 CG0
ATOM     63  C   UNL     1      -0.832   7.535  13.564  1.00  0.00     0.041 C 
ATOM     64  G   UNL     1      -1.700   9.410  12.117  1.00  0.00     0.000 G0
ENDBRANCH  60  62
ENDBRANCH  56  58
ENDBRANCH  54  56
ENDBRANCH  52  54
ENDBRANCH  51  52
ENDBRANCH  50  51
ENDBRANCH  49  50
BRANCH  49  65
ATOM     65  C   UNL     1       1.327   5.834   3.093  1.00  0.00     0.326 C 
ATOM     66  O   UNL     1       0.281   5.284   2.781  1.00  0.00    -0.250 OA
BRANCH  65  67
ATOM     67  O   UNL     1       2.469   5.520   2.442  1.00  0.00    -0.480 OA
ATOM     68  H   UNL     1       3.066   5.212   3.157  1.00  0.00     0.296 HD
ENDBRANCH  65  67
ENDBRANCH  49  65
ENDBRANCH  47  49
ENDBRANCH  43  45
ENDBRANCH   1  43
BRANCH   1  69
ATOM     69  C   UNL     1       6.710   8.216   3.871  1.00  0.00    -0.001 C 
ATOM     70  C   UNL     1       7.224   7.139   4.491  1.00  0.00     0.001 C 
BRANCH  70  71
ATOM     71  C   UNL     1       8.620   6.931   4.881  1.00  0.00    -0.055 C 
ATOM     72  C   UNL     1       9.572   7.573   4.172  1.00  0.00    -0.018 C 
ATOM     73  C   UNL     1       8.894   6.022   6.051  1.00  0.00     0.044 C 
BRANCH  72  74
ATOM     74  C   UNL     1      11.084   7.550   4.348  1.00  0.00     0.038 C 
ATOM     75  C   UNL     1      11.459   8.769   5.199  1.00  0.00     0.015 C 
BRANCH  74  76
ATOM     76  C   UNL     1      11.751   7.505   2.941  1.00  0.00     0.128 C 
BRANCH  76  77
ATOM     77  O   UNL     1      13.175   7.367   3.078  1.00  0.00    -0.381 OA
ATOM     78  C   UNL     1      13.628   6.022   3.005  1.00  0.00     0.195 C 
ENDBRANCH  76  77
BRANCH  76  79
ATOM     79  C   UNL     1      11.135   6.452   1.986  1.00  0.00     0.068 C 
BRANCH  79  80
ATOM     80  C   UNL     1      10.734   6.901   0.602  1.00  0.00    -0.045 A 
ATOM     81  C   UNL     1       9.598   6.375  -0.027  1.00  0.00     0.004 A 
ATOM     82  C   UNL     1      11.514   7.840  -0.091  1.00  0.00     0.004 A 
ATOM     83  C   UNL     1       9.242   6.786  -1.313  1.00  0.00     0.000 A 
ATOM     84  C   UNL     1      11.157   8.249  -1.377  1.00  0.00     0.000 A 
ATOM     85  C   UNL     1      10.020   7.724  -1.987  1.00  0.00     0.000 A 
ENDBRANCH  79  80
ENDBRANCH  76  79
ENDBRANCH  74  76
ENDBRANCH  72  74
ENDBRANCH  70  71
ENDBRANCH   1  69
TORSDOF 17
ENDMDL
MODEL 5
REMARK VINA RESULT:    -5.655      1.753      2.864
REMARK INTER + INTRA:         -25.951
REMARK INTER:                 -18.623
REMARK INTRA:                  -7.328
REMARK UNBOUND:                -9.057
REMARK SMILES C=C1C(=O)N[C@H](C)C(=O)N[C@@H](CC(C)C)C(=O)N[C@@H](C(=O)O)[C@H](C)C(=O)N[C@@H](CCCN=C(N)N)C(=O)N[C@@H](/C=C/C(C)=C/[C@H](C)[C@H](Cc2ccccc2)OC)[C@H](C)C(=O)N[C@@H](C(=O)O)CCC(=O)N1C
REMARK SMILES IDX 39 1 38 2 37 3 36 4 28 6 27 7 25 8 26 9 23 11 24 12 19 13
REMARK SMILES IDX 18 14 16 15 17 16 11 18 10 19 8 20 9 21 12 24 13 25 14 26
REMARK SMILES IDX 15 27 20 28 21 29 22 30 29 32 30 33 31 34 32 35 33 36 34 37
REMARK SMILES IDX 35 38 57 43 58 44 59 45 60 46 61 47 62 49 66 50 67 51 68 52
REMARK SMILES IDX 69 53 70 54 71 55 2 56 1 57 3 58 4 59 5 60 6 62 7 63 63 65
REMARK SMILES IDX 64 66 65 67 40 69 41 70 42 71 44 72 43 73 45 74 46 75 47 76
REMARK SMILES IDX 55 77 56 78 48 79 49 80 50 81 54 82 51 83 53 84 52 85
REMARK H PARENT 38 5 27 10 18 17 10 22 22 31 34 39 34 40 35 41 35 42 61 48
REMARK H PARENT 5 61 65 68
REMARK Flexibility Score:  369.900
ROOT
ATOM      1  C   UNL     1       0.853  11.219   4.848  1.00  0.00     0.117 C 
ENDROOT
BRANCH   1   2
ATOM      2  N   UNL     1       1.787  10.916   5.933  1.00  0.00    -0.347 N 
ATOM      3  O   UNL     1       1.364  12.760   7.234  1.00  0.00    -0.273 OA
ATOM      4  C   UNL     1       1.901  11.667   7.087  1.00  0.00     0.243 C 
ATOM      5  H   UNL     1       2.356  10.085   5.878  1.00  0.00     0.164 HD
BRANCH   4   6
ATOM      6  C   UNL     1       2.902  11.081   8.115  1.00  0.00     0.171 C 
BRANCH   6   7
ATOM      7  N   UNL     1       2.798   9.614   8.156  1.00  0.00    -0.344 N 
ATOM      8  C   UNL     1       2.213   8.980   9.231  1.00  0.00     0.226 C 
ATOM      9  O   UNL     1       1.778   9.590  10.200  1.00  0.00    -0.275 OA
ATOM     10  H   UNL     1       3.207   9.072   7.405  1.00  0.00     0.164 HD
BRANCH   8  11
ATOM     11  C   UNL     1       2.132   7.469   9.098  1.00  0.00     0.109 C 
ATOM     12  C   UNL     1       3.247   6.961   8.185  1.00  0.00     0.021 C 
BRANCH  11  13
ATOM     13  C   UNL     1       2.095   6.824  10.498  1.00  0.00     0.204 C 
BRANCH  13  14
ATOM     14  N   UNL     1       0.818   7.057  11.180  1.00  0.00    -0.340 N 
ATOM     15  C   UNL     1       0.700   7.107  12.552  1.00  0.00     0.243 C 
ATOM     16  O   UNL     1       1.671   7.020  13.302  1.00  0.00    -0.273 OA
ATOM     17  H   UNL     1      -0.041   6.986  10.628  1.00  0.00     0.164 HD
BRANCH  15  18
ATOM     18  C   UNL     1      -0.767   7.154  13.045  1.00  0.00     0.171 C 
BRANCH  18  19
ATOM     19  N   UNL     1      -0.725   7.573  14.445  1.00  0.00    -0.343 N 
ATOM     20  C   UNL     1      -1.090   6.723  15.471  1.00  0.00     0.242 CG0
ATOM     21  O   UNL     1      -1.593   5.624  15.248  1.00  0.00    -0.273 OA
ATOM     22  H   UNL     1      -0.425   8.514  14.674  1.00  0.00     0.164 HD
ATOM     23  G   UNL     1      -0.904   7.314  16.884  1.00  0.00     0.000 G0
ENDBRANCH  18  19
BRANCH  18  24
ATOM     24  C   UNL     1      -1.594   8.124  12.193  1.00  0.00     0.038 C 
BRANCH  24  25
ATOM     25  C   UNL     1      -1.992   9.433  12.909  1.00  0.00    -0.015 C 
ATOM     26  C   UNL     1      -3.474   9.765  12.740  1.00  0.00     0.007 C 
ATOM     27  C   UNL     1      -1.140  10.589  12.378  1.00  0.00     0.007 C 
ENDBRANCH  24  25
ENDBRANCH  18  24
ENDBRANCH  15  18
ENDBRANCH  13  14
BRANCH  13  28
ATOM     28  C   UNL     1       2.326   5.310  10.471  1.00  0.00     0.327 C 
ATOM     29  O   UNL     1       1.774   4.508   9.734  1.00  0.00    -0.250 OA
BRANCH  28  30
ATOM     30  O   UNL     1       3.147   4.883  11.452  1.00  0.00    -0.480 OA
ATOM     31  H   UNL     1       3.902   4.479  10.975  1.00  0.00     0.296 HD
ENDBRANCH  28  30
ENDBRANCH  13  28
ENDBRANCH  11  13
ENDBRANCH   8  11
ENDBRANCH   6   7
BRANCH   6  32
ATOM     32  C   UNL     1       4.323  11.519   7.741  1.00  0.00     0.037 C 
BRANCH  32  33
ATOM     33  C   UNL     1       5.240  10.322   7.450  1.00  0.00     0.026 C 
BRANCH  33  34
ATOM     34  C   UNL     1       5.420  10.073   5.952  1.00  0.00     0.146 C 
BRANCH  34  35
ATOM     35  N   UNL     1       4.541   8.984   5.548  1.00  0.00    -0.254 NA
ATOM     36  C   UNL     1       5.016   8.055   4.805  1.00  0.00     0.185 C 
ATOM     37  N   UNL     1       4.217   7.044   4.431  1.00  0.00    -0.370 N 
ATOM     38  N   UNL     1       6.260   7.921   4.312  1.00  0.00    -0.370 N 
ATOM     39  H   UNL     1       3.265   7.068   4.772  1.00  0.00     0.159 HD
ATOM     40  H   UNL     1       4.553   6.199   4.001  1.00  0.00     0.159 HD
ATOM     41  H   UNL     1       6.475   7.218   3.624  1.00  0.00     0.159 HD
ATOM     42  H   UNL     1       6.964   8.618   4.500  1.00  0.00     0.159 HD
ENDBRANCH  34  35
ENDBRANCH  33  34
ENDBRANCH  32  33
ENDBRANCH   6  32
ENDBRANCH   4   6
ENDBRANCH   1   2
BRANCH   1  43
ATOM     43  C   UNL     1      -0.088   9.996   4.648  1.00  0.00     0.102 C 
ATOM     44  C   UNL     1      -1.279   9.975   5.620  1.00  0.00     0.020 C 
BRANCH  43  45
ATOM     45  C   UNL     1       0.709   8.689   4.614  1.00  0.00     0.225 C 
ATOM     46  O   UNL     1       1.489   8.355   5.502  1.00  0.00    -0.275 OA
ATOM     47  N   UNL     1       0.571   7.941   3.467  1.00  0.00    -0.342 N 
ATOM     48  H   UNL     1      -0.179   8.147   2.823  1.00  0.00     0.164 HD
BRANCH  47  49
ATOM     49  C   UNL     1       1.246   6.649   3.310  1.00  0.00     0.192 C 
BRANCH  49  50
ATOM     50  C   UNL     1       0.892   6.046   1.948  1.00  0.00     0.047 C 
BRANCH  50  51
ATOM     51  C   UNL     1       2.138   5.734   1.108  1.00  0.00     0.103 C 
BRANCH  51  52
ATOM     52  C   UNL     1       1.823   5.674  -0.386  1.00  0.00     0.226 C 
ATOM     53  O   UNL     1       0.726   5.256  -0.761  1.00  0.00    -0.275 OA
BRANCH  52  54
ATOM     54  N   UNL     1       2.805   6.184  -1.254  1.00  0.00    -0.311 N 
ATOM     55  C   UNL     1       4.029   5.424  -1.541  1.00  0.00     0.153 C 
BRANCH  54  56
ATOM     56  C   UNL     1       2.651   7.431  -1.883  1.00  0.00     0.102 C 
ATOM     57  C   UNL     1       3.175   8.585  -1.439  1.00  0.00     0.043 C 
BRANCH  56  58
ATOM     58  C   UNL     1       1.890   7.555  -3.182  1.00  0.00     0.268 C 
ATOM     59  O   UNL     1       0.668   7.530  -3.247  1.00  0.00    -0.268 OA
ATOM     60  N   UNL     1       2.705   7.766  -4.268  1.00  0.00    -0.339 N 
ATOM     61  H   UNL     1       3.709   7.763  -4.131  1.00  0.00     0.164 HD
BRANCH  60  62
ATOM     62  C   UNL     1       2.172   7.976  -5.613  1.00  0.00     0.168 CG0
ATOM     63  C   UNL     1       3.241   7.729  -6.670  1.00  0.00     0.041 C 
ATOM     64  G   UNL     1       1.611   9.408  -5.729  1.00  0.00     0.000 G0
ENDBRANCH  60  62
ENDBRANCH  56  58
ENDBRANCH  54  56
ENDBRANCH  52  54
ENDBRANCH  51  52
ENDBRANCH  50  51
ENDBRANCH  49  50
BRANCH  49  65
ATOM     65  C   UNL     1       0.851   5.663   4.420  1.00  0.00     0.326 C 
ATOM     66  O   UNL     1       1.626   5.093   5.174  1.00  0.00    -0.250 OA
BRANCH  65  67
ATOM     67  O   UNL     1      -0.472   5.396   4.493  1.00  0.00    -0.480 OA
ATOM     68  H   UNL     1      -0.870   6.020   3.848  1.00  0.00     0.296 HD
ENDBRANCH  65  67
ENDBRANCH  49  65
ENDBRANCH  47  49
ENDBRANCH  43  45
ENDBRANCH   1  43
BRANCH   1  69
ATOM     69  C   UNL     1       1.699  11.693   3.681  1.00  0.00    -0.001 C 
ATOM     70  C   UNL     1       2.971  11.354   3.403  1.00  0.00     0.001 C 
BRANCH  70  71
ATOM     71  C   UNL     1       3.771  11.801   2.261  1.00  0.00    -0.055 C 
ATOM     72  C   UNL     1       4.898  11.114   1.977  1.00  0.00    -0.018 C 
ATOM     73  C   UNL     1       3.275  12.989   1.478  1.00  0.00     0.044 C 
BRANCH  72  74
ATOM     74  C   UNL     1       5.911  11.344   0.864  1.00  0.00     0.038 C 
ATOM     75  C   UNL     1       5.185  11.101  -0.465  1.00  0.00     0.015 C 
BRANCH  74  76
ATOM     76  C   UNL     1       7.144  10.425   1.112  1.00  0.00     0.128 C 
BRANCH  76  77
ATOM     77  O   UNL     1       7.438  10.369   2.518  1.00  0.00    -0.381 OA
ATOM     78  C   UNL     1       8.780   9.997   2.806  1.00  0.00     0.195 C 
ENDBRANCH  76  77
BRANCH  76  79
ATOM     79  C   UNL     1       7.023   9.021   0.468  1.00  0.00     0.068 C 
BRANCH  79  80
ATOM     80  C   UNL     1       8.028   8.641  -0.592  1.00  0.00    -0.045 A 
ATOM     81  C   UNL     1       8.728   7.429  -0.521  1.00  0.00     0.004 A 
ATOM     82  C   UNL     1       8.298   9.515  -1.656  1.00  0.00     0.004 A 
ATOM     83  C   UNL     1       9.666   7.091  -1.499  1.00  0.00     0.000 A 
ATOM     84  C   UNL     1       9.237   9.176  -2.633  1.00  0.00     0.000 A 
ATOM     85  C   UNL     1       9.920   7.964  -2.555  1.00  0.00     0.000 A 
ENDBRANCH  79  80
ENDBRANCH  76  79
ENDBRANCH  74  76
ENDBRANCH  72  74
ENDBRANCH  70  71
ENDBRANCH   1  69
TORSDOF 17
ENDMDL
MODEL 6
REMARK VINA RESULT:    -5.640      4.374     12.851
REMARK INTER + INTRA:         -25.907
REMARK INTER:                 -21.280
REMARK INTRA:                  -4.628
REMARK UNBOUND:                -9.057
REMARK SMILES C=C1C(=O)N[C@H](C)C(=O)N[C@@H](CC(C)C)C(=O)N[C@@H](C(=O)O)[C@H](C)C(=O)N[C@@H](CCCN=C(N)N)C(=O)N[C@@H](/C=C/C(C)=C/[C@H](C)[C@H](Cc2ccccc2)OC)[C@H](C)C(=O)N[C@@H](C(=O)O)CCC(=O)N1C
REMARK SMILES IDX 39 1 38 2 37 3 36 4 28 6 27 7 25 8 26 9 23 11 24 12 19 13
REMARK SMILES IDX 18 14 16 15 17 16 11 18 10 19 8 20 9 21 12 24 13 25 14 26
REMARK SMILES IDX 15 27 20 28 21 29 22 30 29 32 30 33 31 34 32 35 33 36 34 37
REMARK SMILES IDX 35 38 57 43 58 44 59 45 60 46 61 47 62 49 66 50 67 51 68 52
REMARK SMILES IDX 69 53 70 54 71 55 2 56 1 57 3 58 4 59 5 60 6 62 7 63 63 65
REMARK SMILES IDX 64 66 65 67 40 69 41 70 42 71 44 72 43 73 45 74 46 75 47 76
REMARK SMILES IDX 55 77 56 78 48 79 49 80 50 81 54 82 51 83 53 84 52 85
REMARK H PARENT 38 5 27 10 18 17 10 22 22 31 34 39 34 40 35 41 35 42 61 48
REMARK H PARENT 5 61 65 68
REMARK Flexibility Score:  369.900
ROOT
ATOM      1  C   UNL     1       3.647   5.005   7.159  1.00  0.00     0.117 C 
ENDROOT
BRANCH   1   2
ATOM      2  N   UNL     1       3.588   5.880   5.987  1.00  0.00    -0.347 N 
ATOM      3  O   UNL     1       1.908   4.789   4.866  1.00  0.00    -0.273 OA
ATOM      4  C   UNL     1       2.658   5.754   4.974  1.00  0.00     0.243 C 
ATOM      5  H   UNL     1       4.226   6.659   5.919  1.00  0.00     0.164 HD
BRANCH   4   6
ATOM      6  C   UNL     1       2.759   6.861   3.894  1.00  0.00     0.171 C 
BRANCH   6   7
ATOM      7  N   UNL     1       2.690   6.273   2.547  1.00  0.00    -0.344 N 
ATOM      8  C   UNL     1       3.020   7.020   1.436  1.00  0.00     0.226 C 
ATOM      9  O   UNL     1       3.358   8.195   1.508  1.00  0.00    -0.275 OA
ATOM     10  H   UNL     1       2.351   5.325   2.441  1.00  0.00     0.164 HD
BRANCH   8  11
ATOM     11  C   UNL     1       2.952   6.256   0.126  1.00  0.00     0.109 C 
ATOM     12  C   UNL     1       1.594   5.567  -0.012  1.00  0.00     0.021 C 
BRANCH  11  13
ATOM     13  C   UNL     1       3.326   7.190  -1.043  1.00  0.00     0.204 C 
BRANCH  13  14
ATOM     14  N   UNL     1       4.680   7.735  -0.901  1.00  0.00    -0.340 N 
ATOM     15  C   UNL     1       5.014   9.016  -1.284  1.00  0.00     0.243 C 
ATOM     16  O   UNL     1       4.184   9.814  -1.715  1.00  0.00    -0.273 OA
ATOM     17  H   UNL     1       5.441   7.083  -0.695  1.00  0.00     0.164 HD
BRANCH  15  18
ATOM     18  C   UNL     1       6.536   9.298  -1.236  1.00  0.00     0.171 C 
BRANCH  18  19
ATOM     19  N   UNL     1       6.695  10.640  -0.677  1.00  0.00    -0.343 N 
ATOM     20  C   UNL     1       7.059  11.717  -1.462  1.00  0.00     0.242 CG0
ATOM     21  O   UNL     1       7.394  11.574  -2.636  1.00  0.00    -0.273 OA
ATOM     22  H   UNL     1       6.542  10.787   0.314  1.00  0.00     0.164 HD
ATOM     23  G   UNL     1       7.100  13.065  -0.713  1.00  0.00     0.000 G0
ENDBRANCH  18  19
BRANCH  18  24
ATOM     24  C   UNL     1       7.255   8.246  -0.383  1.00  0.00     0.038 C 
BRANCH  24  25
ATOM     25  C   UNL     1       8.692   7.917  -0.842  1.00  0.00    -0.015 C 
ATOM     26  C   UNL     1       8.988   8.430  -2.252  1.00  0.00     0.007 C 
ATOM     27  C   UNL     1       8.917   6.404  -0.787  1.00  0.00     0.007 C 
ENDBRANCH  24  25
ENDBRANCH  18  24
ENDBRANCH  15  18
ENDBRANCH  13  14
BRANCH  13  28
ATOM     28  C   UNL     1       3.253   6.505  -2.410  1.00  0.00     0.327 C 
ATOM     29  O   UNL     1       2.516   6.812  -3.335  1.00  0.00    -0.250 OA
BRANCH  28  30
ATOM     30  O   UNL     1       4.025   5.402  -2.491  1.00  0.00    -0.480 OA
ATOM     31  H   UNL     1       4.503   5.504  -3.341  1.00  0.00     0.296 HD
ENDBRANCH  28  30
ENDBRANCH  13  28
ENDBRANCH  11  13
ENDBRANCH   8  11
ENDBRANCH   6   7
BRANCH   6  32
ATOM     32  C   UNL     1       1.630   7.876   4.106  1.00  0.00     0.037 C 
BRANCH  32  33
ATOM     33  C   UNL     1       1.021   7.779   5.512  1.00  0.00     0.026 C 
BRANCH  33  34
ATOM     34  C   UNL     1       0.553   9.135   6.041  1.00  0.00     0.146 C 
BRANCH  34  35
ATOM     35  N   UNL     1      -0.838   9.023   6.458  1.00  0.00    -0.254 NA
ATOM     36  C   UNL     1      -1.757   9.336   5.622  1.00  0.00     0.185 C 
ATOM     37  N   UNL     1      -3.042   9.232   5.994  1.00  0.00    -0.370 N 
ATOM     38  N   UNL     1      -1.634   9.778   4.358  1.00  0.00    -0.370 N 
ATOM     39  H   UNL     1      -3.217   8.895   6.932  1.00  0.00     0.159 HD
ATOM     40  H   UNL     1      -3.813   9.289   5.351  1.00  0.00     0.159 HD
ATOM     41  H   UNL     1      -2.430  10.124   3.847  1.00  0.00     0.159 HD
ATOM     42  H   UNL     1      -0.723   9.919   3.951  1.00  0.00     0.159 HD
ENDBRANCH  34  35
ENDBRANCH  33  34
ENDBRANCH  32  33
ENDBRANCH   6  32
ENDBRANCH   4   6
ENDBRANCH   1   2
BRANCH   1  43
ATOM     43  C   UNL     1       4.047   5.860   8.395  1.00  0.00     0.102 C 
ATOM     44  C   UNL     1       4.443   5.017   9.620  1.00  0.00     0.020 C 
BRANCH  43  45
ATOM     45  C   UNL     1       2.990   6.927   8.692  1.00  0.00     0.225 C 
ATOM     46  O   UNL     1       3.059   8.076   8.264  1.00  0.00    -0.275 OA
ATOM     47  N   UNL     1       1.989   6.546   9.556  1.00  0.00    -0.342 N 
ATOM     48  H   UNL     1       1.863   5.568   9.774  1.00  0.00     0.164 HD
BRANCH  47  49
ATOM     49  C   UNL     1       0.890   7.452   9.902  1.00  0.00     0.192 C 
BRANCH  49  50
ATOM     50  C   UNL     1       1.076   7.963  11.333  1.00  0.00     0.047 C 
BRANCH  50  51
ATOM     51  C   UNL     1       1.350   6.825  12.326  1.00  0.00     0.103 C 
BRANCH  51  52
ATOM     52  C   UNL     1       1.520   7.339  13.755  1.00  0.00     0.226 C 
ATOM     53  O   UNL     1       2.649   7.430  14.240  1.00  0.00    -0.275 OA
BRANCH  52  54
ATOM     54  N   UNL     1       0.349   7.757  14.414  1.00  0.00    -0.311 N 
ATOM     55  C   UNL     1       0.119   9.175  14.722  1.00  0.00     0.153 C 
BRANCH  54  56
ATOM     56  C   UNL     1      -0.644   6.839  14.796  1.00  0.00     0.102 C 
ATOM     57  C   UNL     1      -0.479   5.862  15.702  1.00  0.00     0.043 C 
BRANCH  56  58
ATOM     58  C   UNL     1      -2.038   6.921  14.220  1.00  0.00     0.268 C 
ATOM     59  O   UNL     1      -2.280   6.778  13.029  1.00  0.00    -0.268 OA
ATOM     60  N   UNL     1      -3.007   7.106  15.177  1.00  0.00    -0.339 N 
ATOM     61  H   UNL     1      -2.723   7.227  16.141  1.00  0.00     0.164 HD
BRANCH  60  62
ATOM     62  C   UNL     1      -4.431   7.152  14.845  1.00  0.00     0.168 CG0
ATOM     63  C   UNL     1      -4.983   8.564  14.995  1.00  0.00     0.041 C 
ATOM     64  G   UNL     1      -5.203   6.165  15.744  1.00  0.00     0.000 G0
ENDBRANCH  60  62
ENDBRANCH  56  58
ENDBRANCH  54  56
ENDBRANCH  52  54
ENDBRANCH  51  52
ENDBRANCH  50  51
ENDBRANCH  49  50
BRANCH  49  65
ATOM     65  C   UNL     1      -0.476   6.758   9.783  1.00  0.00     0.326 C 
ATOM     66  O   UNL     1      -0.662   5.623   9.369  1.00  0.00    -0.250 OA
BRANCH  65  67
ATOM     67  O   UNL     1      -1.532   7.528  10.125  1.00  0.00    -0.480 OA
ATOM     68  H   UNL     1      -1.157   8.158  10.779  1.00  0.00     0.296 HD
ENDBRANCH  65  67
ENDBRANCH  49  65
ENDBRANCH  47  49
ENDBRANCH  43  45
ENDBRANCH   1  43
BRANCH   1  69
ATOM     69  C   UNL     1       4.522   3.828   6.766  1.00  0.00    -0.001 C 
ATOM     70  C   UNL     1       5.802   3.610   7.114  1.00  0.00     0.001 C 
BRANCH  70  71
ATOM     71  C   UNL     1       6.630   2.460   6.746  1.00  0.00    -0.055 C 
ATOM     72  C   UNL     1       6.001   1.305   6.442  1.00  0.00    -0.018 C 
ATOM     73  C   UNL     1       8.125   2.648   6.724  1.00  0.00     0.044 C 
BRANCH  72  74
ATOM     74  C   UNL     1       6.593  -0.034   6.027  1.00  0.00     0.038 C 
ATOM     75  C   UNL     1       6.583  -0.078   4.494  1.00  0.00     0.015 C 
BRANCH  74  76
ATOM     76  C   UNL     1       5.787  -1.173   6.718  1.00  0.00     0.128 C 
BRANCH  76  77
ATOM     77  O   UNL     1       6.357  -1.467   8.005  1.00  0.00    -0.381 OA
ATOM     78  C   UNL     1       7.772  -1.339   8.045  1.00  0.00     0.195 C 
ENDBRANCH  76  77
BRANCH  76  79
ATOM     79  C   UNL     1       4.261  -0.915   6.784  1.00  0.00     0.068 C 
BRANCH  79  80
ATOM     80  C   UNL     1       3.335  -2.036   6.379  1.00  0.00    -0.045 A 
ATOM     81  C   UNL     1       3.599  -2.815   5.244  1.00  0.00     0.004 A 
ATOM     82  C   UNL     1       2.175  -2.299   7.122  1.00  0.00     0.004 A 
ATOM     83  C   UNL     1       2.730  -3.841   4.867  1.00  0.00     0.000 A 
ATOM     84  C   UNL     1       1.307  -3.326   6.744  1.00  0.00     0.000 A 
ATOM     85  C   UNL     1       1.585  -4.097   5.618  1.00  0.00     0.000 A 
ENDBRANCH  79  80
ENDBRANCH  76  79
ENDBRANCH  74  76
ENDBRANCH  72  74
ENDBRANCH  70  71
ENDBRANCH   1  69
TORSDOF 17
ENDMDL
MODEL 7
REMARK VINA RESULT:    -5.590      6.028      9.697
REMARK INTER + INTRA:         -25.757
REMARK INTER:                 -19.651
REMARK INTRA:                  -6.106
REMARK UNBOUND:                -9.057
REMARK SMILES C=C1C(=O)N[C@H](C)C(=O)N[C@@H](CC(C)C)C(=O)N[C@@H](C(=O)O)[C@H](C)C(=O)N[C@@H](CCCN=C(N)N)C(=O)N[C@@H](/C=C/C(C)=C/[C@H](C)[C@H](Cc2ccccc2)OC)[C@H](C)C(=O)N[C@@H](C(=O)O)CCC(=O)N1C
REMARK SMILES IDX 39 1 38 2 37 3 36 4 28 6 27 7 25 8 26 9 23 11 24 12 19 13
REMARK SMILES IDX 18 14 16 15 17 16 11 18 10 19 8 20 9 21 12 24 13 25 14 26
REMARK SMILES IDX 15 27 20 28 21 29 22 30 29 32 30 33 31 34 32 35 33 36 34 37
REMARK SMILES IDX 35 38 57 43 58 44 59 45 60 46 61 47 62 49 66 50 67 51 68 52
REMARK SMILES IDX 69 53 70 54 71 55 2 56 1 57 3 58 4 59 5 60 6 62 7 63 63 65
REMARK SMILES IDX 64 66 65 67 40 69 41 70 42 71 44 72 43 73 45 74 46 75 47 76
REMARK SMILES IDX 55 77 56 78 48 79 49 80 50 81 54 82 51 83 53 84 52 85
REMARK H PARENT 38 5 27 10 18 17 10 22 22 31 34 39 34 40 35 41 35 42 61 48
REMARK H PARENT 5 61 65 68
REMARK Flexibility Score:  369.900
ROOT
ATOM      1  C   UNL     1       2.466   6.178   5.129  1.00  0.00     0.117 C 
ENDROOT
BRANCH   1   2
ATOM      2  N   UNL     1       2.913   4.955   5.797  1.00  0.00    -0.347 N 
ATOM      3  O   UNL     1       5.001   5.682   6.415  1.00  0.00    -0.273 OA
ATOM      4  C   UNL     1       4.115   4.836   6.468  1.00  0.00     0.243 C 
ATOM      5  H   UNL     1       2.301   4.154   5.823  1.00  0.00     0.164 HD
BRANCH   4   6
ATOM      6  C   UNL     1       4.308   3.463   7.161  1.00  0.00     0.171 C 
BRANCH   6   7
ATOM      7  N   UNL     1       4.936   2.505   6.238  1.00  0.00    -0.344 N 
ATOM      8  C   UNL     1       4.545   1.184   6.223  1.00  0.00     0.226 C 
ATOM      9  O   UNL     1       3.686   0.741   6.977  1.00  0.00    -0.275 OA
ATOM     10  H   UNL     1       5.696   2.819   5.648  1.00  0.00     0.164 HD
BRANCH   8  11
ATOM     11  C   UNL     1       5.248   0.335   5.178  1.00  0.00     0.109 C 
ATOM     12  C   UNL     1       6.614   0.935   4.846  1.00  0.00     0.021 C 
BRANCH  11  13
ATOM     13  C   UNL     1       5.281  -1.136   5.638  1.00  0.00     0.204 C 
BRANCH  13  14
ATOM     14  N   UNL     1       3.946  -1.741   5.649  1.00  0.00    -0.340 N 
ATOM     15  C   UNL     1       3.582  -2.736   6.531  1.00  0.00     0.243 C 
ATOM     16  O   UNL     1       4.335  -3.145   7.412  1.00  0.00    -0.273 OA
ATOM     17  H   UNL     1       3.329  -1.557   4.853  1.00  0.00     0.164 HD
BRANCH  15  18
ATOM     18  C   UNL     1       2.200  -3.363   6.220  1.00  0.00     0.171 C 
BRANCH  18  19
ATOM     19  N   UNL     1       2.451  -4.737   5.792  1.00  0.00    -0.343 N 
ATOM     20  C   UNL     1       2.116  -5.179   4.526  1.00  0.00     0.242 CG0
ATOM     21  O   UNL     1       1.472  -4.477   3.749  1.00  0.00    -0.273 OA
ATOM     22  H   UNL     1       2.877  -5.390   6.439  1.00  0.00     0.164 HD
ATOM     23  G   UNL     1       2.529  -6.635   4.230  1.00  0.00     0.000 G0
ENDBRANCH  18  19
BRANCH  18  24
ATOM     24  C   UNL     1       1.294  -3.316   7.457  1.00  0.00     0.038 C 
BRANCH  24  25
ATOM     25  C   UNL     1      -0.019  -2.528   7.265  1.00  0.00    -0.015 C 
ATOM     26  C   UNL     1      -0.487  -1.849   8.552  1.00  0.00     0.007 C 
ATOM     27  C   UNL     1      -1.112  -3.467   6.750  1.00  0.00     0.007 C 
ENDBRANCH  24  25
ENDBRANCH  18  24
ENDBRANCH  15  18
ENDBRANCH  13  14
BRANCH  13  28
ATOM     28  C   UNL     1       6.173  -2.022   4.763  1.00  0.00     0.327 C 
ATOM     29  O   UNL     1       5.837  -2.601   3.741  1.00  0.00    -0.250 OA
BRANCH  28  30
ATOM     30  O   UNL     1       7.399  -2.222   5.289  1.00  0.00    -0.480 OA
ATOM     31  H   UNL     1       8.003  -1.754   4.676  1.00  0.00     0.296 HD
ENDBRANCH  28  30
ENDBRANCH  13  28
ENDBRANCH  11  13
ENDBRANCH   8  11
ENDBRANCH   6   7
BRANCH   6  32
ATOM     32  C   UNL     1       5.161   3.650   8.421  1.00  0.00     0.037 C 
BRANCH  32  33
ATOM     33  C   UNL     1       6.409   2.757   8.413  1.00  0.00     0.026 C 
BRANCH  33  34
ATOM     34  C   UNL     1       6.330   1.633   9.447  1.00  0.00     0.146 C 
BRANCH  34  35
ATOM     35  N   UNL     1       7.003   0.456   8.914  1.00  0.00    -0.254 NA
ATOM     36  C   UNL     1       6.372  -0.659   8.900  1.00  0.00     0.185 C 
ATOM     37  N   UNL     1       6.980  -1.749   8.407  1.00  0.00    -0.370 N 
ATOM     38  N   UNL     1       5.125  -0.929   9.325  1.00  0.00    -0.370 N 
ATOM     39  H   UNL     1       7.921  -1.624   8.056  1.00  0.00     0.159 HD
ATOM     40  H   UNL     1       6.501  -2.609   8.202  1.00  0.00     0.159 HD
ATOM     41  H   UNL     1       4.791  -1.877   9.390  1.00  0.00     0.159 HD
ATOM     42  H   UNL     1       4.555  -0.206   9.736  1.00  0.00     0.159 HD
ENDBRANCH  34  35
ENDBRANCH  33  34
ENDBRANCH  32  33
ENDBRANCH   6  32
ENDBRANCH   4   6
ENDBRANCH   1   2
BRANCH   1  43
ATOM     43  C   UNL     1       1.283   6.781   5.940  1.00  0.00     0.102 C 
ATOM     44  C   UNL     1      -0.075   6.138   5.611  1.00  0.00     0.020 C 
BRANCH  43  45
ATOM     45  C   UNL     1       1.282   8.310   5.859  1.00  0.00     0.225 C 
ATOM     46  O   UNL     1       1.690   9.031   6.765  1.00  0.00    -0.275 OA
ATOM     47  N   UNL     1       0.703   8.843   4.730  1.00  0.00    -0.342 N 
ATOM     48  H   UNL     1       0.513   8.247   3.936  1.00  0.00     0.164 HD
BRANCH  47  49
ATOM     49  C   UNL     1       0.663  10.290   4.499  1.00  0.00     0.192 C 
BRANCH  49  50
ATOM     50  C   UNL     1       2.090  10.839   4.424  1.00  0.00     0.047 C 
BRANCH  50  51
ATOM     51  C   UNL     1       2.909  10.178   3.307  1.00  0.00     0.103 C 
BRANCH  51  52
ATOM     52  C   UNL     1       3.906  11.147   2.676  1.00  0.00     0.226 C 
ATOM     53  O   UNL     1       3.497  12.067   1.965  1.00  0.00    -0.275 OA
BRANCH  52  54
ATOM     54  N   UNL     1       5.259  10.967   3.019  1.00  0.00    -0.311 N 
ATOM     55  C   UNL     1       5.778  11.424   4.315  1.00  0.00     0.153 C 
BRANCH  54  56
ATOM     56  C   UNL     1       6.160  10.339   2.142  1.00  0.00     0.102 C 
ATOM     57  C   UNL     1       6.246   9.013   1.948  1.00  0.00     0.043 C 
BRANCH  56  58
ATOM     58  C   UNL     1       7.103  11.153   1.287  1.00  0.00     0.268 C 
ATOM     59  O   UNL     1       8.269  10.839   1.092  1.00  0.00    -0.268 OA
ATOM     60  N   UNL     1       6.499  12.240   0.702  1.00  0.00    -0.339 N 
ATOM     61  H   UNL     1       5.530  12.438   0.923  1.00  0.00     0.164 HD
BRANCH  60  62
ATOM     62  C   UNL     1       7.213  13.128  -0.215  1.00  0.00     0.168 CG0
ATOM     63  C   UNL     1       7.072  12.655  -1.656  1.00  0.00     0.041 C 
ATOM     64  G   UNL     1       8.699  13.203   0.192  1.00  0.00     0.000 G0
ENDBRANCH  60  62
ENDBRANCH  56  58
ENDBRANCH  54  56
ENDBRANCH  52  54
ENDBRANCH  51  52
ENDBRANCH  50  51
ENDBRANCH  49  50
BRANCH  49  65
ATOM     65  C   UNL     1      -0.105  11.020   5.613  1.00  0.00     0.326 C 
ATOM     66  O   UNL     1      -1.307  10.939   5.817  1.00  0.00    -0.250 OA
BRANCH  65  67
ATOM     67  O   UNL     1       0.649  11.851   6.366  1.00  0.00    -0.480 OA
ATOM     68  H   UNL     1       0.010  12.532   6.669  1.00  0.00     0.296 HD
ENDBRANCH  65  67
ENDBRANCH  49  65
ENDBRANCH  47  49
ENDBRANCH  43  45
ENDBRANCH   1  43
BRANCH   1  69
ATOM     69  C   UNL     1       2.245   5.810   3.674  1.00  0.00    -0.001 C 
ATOM     70  C   UNL     1       2.325   6.622   2.605  1.00  0.00     0.001 C 
BRANCH  70  71
ATOM     71  C   UNL     1       2.130   6.250   1.202  1.00  0.00    -0.055 C 
ATOM     72  C   UNL     1       2.959   6.796   0.287  1.00  0.00    -0.018 C 
ATOM     73  C   UNL     1       1.025   5.279   0.879  1.00  0.00     0.044 C 
BRANCH  72  74
ATOM     74  C   UNL     1       2.996   6.595  -1.221  1.00  0.00     0.038 C 
ATOM     75  C   UNL     1       4.053   5.523  -1.509  1.00  0.00     0.015 C 
BRANCH  74  76
ATOM     76  C   UNL     1       3.258   7.970  -1.903  1.00  0.00     0.128 C 
BRANCH  76  77
ATOM     77  O   UNL     1       3.651   8.940  -0.918  1.00  0.00    -0.381 OA
ATOM     78  C   UNL     1       4.792   9.702  -1.290  1.00  0.00     0.195 C 
ENDBRANCH  76  77
BRANCH  76  79
ATOM     79  C   UNL     1       4.238   7.902  -3.102  1.00  0.00     0.068 C 
BRANCH  79  80
ATOM     80  C   UNL     1       3.660   7.655  -4.474  1.00  0.00    -0.045 A 
ATOM     81  C   UNL     1       2.304   7.885  -4.739  1.00  0.00     0.004 A 
ATOM     82  C   UNL     1       4.473   7.160  -5.505  1.00  0.00     0.004 A 
ATOM     83  C   UNL     1       1.774   7.640  -6.008  1.00  0.00     0.000 A 
ATOM     84  C   UNL     1       3.942   6.914  -6.773  1.00  0.00     0.000 A 
ATOM     85  C   UNL     1       2.594   7.156  -7.025  1.00  0.00     0.000 A 
ENDBRANCH  79  80
ENDBRANCH  76  79
ENDBRANCH  74  76
ENDBRANCH  72  74
ENDBRANCH  70  71
ENDBRANCH   1  69
TORSDOF 17
ENDMDL
MODEL 8
REMARK VINA RESULT:    -5.560      1.506      2.045
REMARK INTER + INTRA:         -25.669
REMARK INTER:                 -16.816
REMARK INTRA:                  -8.853
REMARK UNBOUND:                -9.057
REMARK SMILES C=C1C(=O)N[C@H](C)C(=O)N[C@@H](CC(C)C)C(=O)N[C@@H](C(=O)O)[C@H](C)C(=O)N[C@@H](CCCN=C(N)N)C(=O)N[C@@H](/C=C/C(C)=C/[C@H](C)[C@H](Cc2ccccc2)OC)[C@H](C)C(=O)N[C@@H](C(=O)O)CCC(=O)N1C
REMARK SMILES IDX 39 1 38 2 37 3 36 4 28 6 27 7 25 8 26 9 23 11 24 12 19 13
REMARK SMILES IDX 18 14 16 15 17 16 11 18 10 19 8 20 9 21 12 24 13 25 14 26
REMARK SMILES IDX 15 27 20 28 21 29 22 30 29 32 30 33 31 34 32 35 33 36 34 37
REMARK SMILES IDX 35 38 57 43 58 44 59 45 60 46 61 47 62 49 66 50 67 51 68 52
REMARK SMILES IDX 69 53 70 54 71 55 2 56 1 57 3 58 4 59 5 60 6 62 7 63 63 65
REMARK SMILES IDX 64 66 65 67 40 69 41 70 42 71 44 72 43 73 45 74 46 75 47 76
REMARK SMILES IDX 55 77 56 78 48 79 49 80 50 81 54 82 51 83 53 84 52 85
REMARK H PARENT 38 5 27 10 18 17 10 22 22 31 34 39 34 40 35 41 35 42 61 48
REMARK H PARENT 5 61 65 68
REMARK Flexibility Score:  369.900
ROOT
ATOM      1  C   UNL     1       1.556  11.078   4.314  1.00  0.00     0.117 C 
ENDROOT
BRANCH   1   2
ATOM      2  N   UNL     1       2.187  10.971   5.630  1.00  0.00    -0.347 N 
ATOM      3  O   UNL     1       0.952  12.583   6.701  1.00  0.00    -0.273 OA
ATOM      4  C   UNL     1       1.770  11.671   6.746  1.00  0.00     0.243 C 
ATOM      5  H   UNL     1       2.942  10.316   5.765  1.00  0.00     0.164 HD
BRANCH   4   6
ATOM      6  C   UNL     1       2.551  11.310   8.035  1.00  0.00     0.171 C 
BRANCH   6   7
ATOM      7  N   UNL     1       2.709   9.851   8.150  1.00  0.00    -0.344 N 
ATOM      8  C   UNL     1       2.277   9.184   9.276  1.00  0.00     0.226 C 
ATOM      9  O   UNL     1       1.770   9.760  10.231  1.00  0.00    -0.275 OA
ATOM     10  H   UNL     1       3.185   9.350   7.410  1.00  0.00     0.164 HD
BRANCH   8  11
ATOM     11  C   UNL     1       2.461   7.678   9.219  1.00  0.00     0.109 C 
ATOM     12  C   UNL     1       3.619   7.254  10.123  1.00  0.00     0.021 C 
BRANCH  11  13
ATOM     13  C   UNL     1       1.119   6.977   9.513  1.00  0.00     0.204 C 
BRANCH  13  14
ATOM     14  N   UNL     1       0.420   7.580  10.652  1.00  0.00    -0.340 N 
ATOM     15  C   UNL     1       0.548   7.112  11.942  1.00  0.00     0.243 C 
ATOM     16  O   UNL     1       1.307   6.191  12.238  1.00  0.00    -0.273 OA
ATOM     17  H   UNL     1      -0.334   8.244  10.456  1.00  0.00     0.164 HD
BRANCH  15  18
ATOM     18  C   UNL     1      -0.439   7.768  12.939  1.00  0.00     0.171 C 
BRANCH  18  19
ATOM     19  N   UNL     1      -0.541   6.864  14.083  1.00  0.00    -0.343 N 
ATOM     20  C   UNL     1      -1.760   6.411  14.547  1.00  0.00     0.242 CG0
ATOM     21  O   UNL     1      -2.820   6.850  14.106  1.00  0.00    -0.273 OA
ATOM     22  H   UNL     1       0.304   6.562  14.555  1.00  0.00     0.164 HD
ATOM     23  G   UNL     1      -1.664   5.403  15.711  1.00  0.00     0.000 G0
ENDBRANCH  18  19
BRANCH  18  24
ATOM     24  C   UNL     1       0.061   9.155  13.362  1.00  0.00     0.038 C 
BRANCH  24  25
ATOM     25  C   UNL     1      -1.045  10.223  13.499  1.00  0.00    -0.015 C 
ATOM     26  C   UNL     1      -1.744  10.171  14.858  1.00  0.00     0.007 C 
ATOM     27  C   UNL     1      -2.076  10.043  12.382  1.00  0.00     0.007 C 
ENDBRANCH  24  25
ENDBRANCH  18  24
ENDBRANCH  15  18
ENDBRANCH  13  14
BRANCH  13  28
ATOM     28  C   UNL     1       0.153   6.999   8.324  1.00  0.00     0.327 C 
ATOM     29  O   UNL     1       0.273   6.371   7.284  1.00  0.00    -0.250 OA
BRANCH  28  30
ATOM     30  O   UNL     1      -0.841   7.899   8.468  1.00  0.00    -0.480 OA
ATOM     31  H   UNL     1      -1.024   8.203   7.555  1.00  0.00     0.296 HD
ENDBRANCH  28  30
ENDBRANCH  13  28
ENDBRANCH  11  13
ENDBRANCH   8  11
ENDBRANCH   6   7
BRANCH   6  32
ATOM     32  C   UNL     1       3.916  12.008   8.009  1.00  0.00     0.037 C 
BRANCH  32  33
ATOM     33  C   UNL     1       5.077  11.014   8.148  1.00  0.00     0.026 C 
BRANCH  33  34
ATOM     34  C   UNL     1       5.857  10.839   6.844  1.00  0.00     0.146 C 
BRANCH  34  35
ATOM     35  N   UNL     1       5.143   9.896   5.994  1.00  0.00    -0.254 NA
ATOM     36  C   UNL     1       5.330   8.642   6.174  1.00  0.00     0.185 C 
ATOM     37  N   UNL     1       4.674   7.765   5.399  1.00  0.00    -0.370 N 
ATOM     38  N   UNL     1       6.125   8.026   7.067  1.00  0.00    -0.370 N 
ATOM     39  H   UNL     1       4.046   8.152   4.706  1.00  0.00     0.159 HD
ATOM     40  H   UNL     1       4.632   6.778   5.588  1.00  0.00     0.159 HD
ATOM     41  H   UNL     1       6.294   7.035   7.018  1.00  0.00     0.159 HD
ATOM     42  H   UNL     1       6.692   8.563   7.705  1.00  0.00     0.159 HD
ENDBRANCH  34  35
ENDBRANCH  33  34
ENDBRANCH  32  33
ENDBRANCH   6  32
ENDBRANCH   4   6
ENDBRANCH   1   2
BRANCH   1  43
ATOM     43  C   UNL     1       0.577   9.882   4.135  1.00  0.00     0.102 C 
ATOM     44  C   UNL     1      -0.789  10.104   4.806  1.00  0.00     0.020 C 
BRANCH  43  45
ATOM     45  C   UNL     1       1.249   8.560   4.515  1.00  0.00     0.225 C 
ATOM     46  O   UNL     1       1.846   8.391   5.574  1.00  0.00    -0.275 OA
ATOM     47  N   UNL     1       1.225   7.583   3.546  1.00  0.00    -0.342 N 
ATOM     48  H   UNL     1       0.607   7.681   2.752  1.00  0.00     0.164 HD
BRANCH  47  49
ATOM     49  C   UNL     1       1.798   6.254   3.783  1.00  0.00     0.192 C 
BRANCH  49  50
ATOM     50  C   UNL     1       2.669   5.850   2.591  1.00  0.00     0.047 C 
BRANCH  50  51
ATOM     51  C   UNL     1       2.532   6.823   1.412  1.00  0.00     0.103 C 
BRANCH  51  52
ATOM     52  C   UNL     1       2.141   6.108   0.121  1.00  0.00     0.226 C 
ATOM     53  O   UNL     1       1.138   5.392   0.099  1.00  0.00    -0.275 OA
BRANCH  52  54
ATOM     54  N   UNL     1       2.932   6.380  -1.011  1.00  0.00    -0.311 N 
ATOM     55  C   UNL     1       4.012   5.470  -1.415  1.00  0.00     0.153 C 
BRANCH  54  56
ATOM     56  C   UNL     1       2.717   7.524  -1.797  1.00  0.00     0.102 C 
ATOM     57  C   UNL     1       3.273   8.726  -1.573  1.00  0.00     0.043 C 
BRANCH  56  58
ATOM     58  C   UNL     1       1.841   7.466  -3.026  1.00  0.00     0.268 C 
ATOM     59  O   UNL     1       0.639   7.693  -3.004  1.00  0.00    -0.268 OA
ATOM     60  N   UNL     1       2.543   7.198  -4.177  1.00  0.00    -0.339 N 
ATOM     61  H   UNL     1       3.537   7.011  -4.109  1.00  0.00     0.164 HD
BRANCH  60  62
ATOM     62  C   UNL     1       1.901   7.158  -5.490  1.00  0.00     0.168 CG0
ATOM     63  C   UNL     1       2.422   8.273  -6.388  1.00  0.00     0.041 C 
ATOM     64  G   UNL     1       0.371   7.263  -5.321  1.00  0.00     0.000 G0
ENDBRANCH  60  62
ENDBRANCH  56  58
ENDBRANCH  54  56
ENDBRANCH  52  54
ENDBRANCH  51  52
ENDBRANCH  50  51
ENDBRANCH  49  50
BRANCH  49  65
ATOM     65  C   UNL     1       0.704   5.196   3.996  1.00  0.00     0.326 C 
ATOM     66  O   UNL     1       0.814   4.002   3.756  1.00  0.00    -0.250 OA
BRANCH  65  67
ATOM     67  O   UNL     1      -0.476   5.685   4.435  1.00  0.00    -0.480 OA
ATOM     68  H   UNL     1      -0.311   6.649   4.517  1.00  0.00     0.296 HD
ENDBRANCH  65  67
ENDBRANCH  49  65
ENDBRANCH  47  49
ENDBRANCH  43  45
ENDBRANCH   1  43
BRANCH   1  69
ATOM     69  C   UNL     1       2.686  11.257   3.316  1.00  0.00    -0.001 C 
ATOM     70  C   UNL     1       3.316  10.298   2.615  1.00  0.00     0.001 C 
BRANCH  70  71
ATOM     71  C   UNL     1       4.392  10.485   1.639  1.00  0.00    -0.055 C 
ATOM     72  C   UNL     1       5.315   9.507   1.527  1.00  0.00    -0.018 C 
ATOM     73  C   UNL     1       4.387  11.751   0.822  1.00  0.00     0.044 C 
BRANCH  72  74
ATOM     74  C   UNL     1       6.526   9.426   0.609  1.00  0.00     0.038 C 
ATOM     75  C   UNL     1       6.296   8.245  -0.341  1.00  0.00     0.015 C 
BRANCH  74  76
ATOM     76  C   UNL     1       7.811   9.320   1.483  1.00  0.00     0.128 C 
BRANCH  76  77
ATOM     77  O   UNL     1       8.862  10.114   0.907  1.00  0.00    -0.381 OA
ATOM     78  C   UNL     1       8.860  11.467   1.344  1.00  0.00     0.195 C 
ENDBRANCH  76  77
BRANCH  76  79
ATOM     79  C   UNL     1       7.579   9.629   2.983  1.00  0.00     0.068 C 
BRANCH  79  80
ATOM     80  C   UNL     1       8.202   8.704   4.000  1.00  0.00    -0.045 A 
ATOM     81  C   UNL     1       9.035   9.200   5.012  1.00  0.00     0.004 A 
ATOM     82  C   UNL     1       7.978   7.321   3.929  1.00  0.00     0.004 A 
ATOM     83  C   UNL     1       9.619   8.336   5.941  1.00  0.00     0.000 A 
ATOM     84  C   UNL     1       8.564   6.458   4.858  1.00  0.00     0.000 A 
ATOM     85  C   UNL     1       9.383   6.965   5.864  1.00  0.00     0.000 A 
ENDBRANCH  79  80
ENDBRANCH  76  79
ENDBRANCH  74  76
ENDBRANCH  72  74
ENDBRANCH  70  71
ENDBRANCH   1  69
TORSDOF 17
ENDMDL
MODEL 9
REMARK VINA RESULT:    -5.554      3.463     12.288
REMARK INTER + INTRA:         -25.650
REMARK INTER:                 -18.133
REMARK INTRA:                  -7.517
REMARK UNBOUND:                -9.057
REMARK SMILES C=C1C(=O)N[C@H](C)C(=O)N[C@@H](CC(C)C)C(=O)N[C@@H](C(=O)O)[C@H](C)C(=O)N[C@@H](CCCN=C(N)N)C(=O)N[C@@H](/C=C/C(C)=C/[C@H](C)[C@H](Cc2ccccc2)OC)[C@H](C)C(=O)N[C@@H](C(=O)O)CCC(=O)N1C
REMARK SMILES IDX 39 1 38 2 37 3 36 4 28 6 27 7 25 8 26 9 23 11 24 12 19 13
REMARK SMILES IDX 18 14 16 15 17 16 11 18 10 19 8 20 9 21 12 24 13 25 14 26
REMARK SMILES IDX 15 27 20 28 21 29 22 30 29 32 30 33 31 34 32 35 33 36 34 37
REMARK SMILES IDX 35 38 57 43 58 44 59 45 60 46 61 47 62 49 66 50 67 51 68 52
REMARK SMILES IDX 69 53 70 54 71 55 2 56 1 57 3 58 4 59 5 60 6 62 7 63 63 65
REMARK SMILES IDX 64 66 65 67 40 69 41 70 42 71 44 72 43 73 45 74 46 75 47 76
REMARK SMILES IDX 55 77 56 78 48 79 49 80 50 81 54 82 51 83 53 84 52 85
REMARK H PARENT 38 5 27 10 18 17 10 22 22 31 34 39 34 40 35 41 35 42 61 48
REMARK H PARENT 5 61 65 68
REMARK Flexibility Score:  369.900
ROOT
ATOM      1  C   UNL     1       3.401   6.566   6.903  1.00  0.00     0.117 C 
ENDROOT
BRANCH   1   2
ATOM      2  N   UNL     1       3.671   7.279   5.654  1.00  0.00    -0.347 N 
ATOM      3  O   UNL     1       1.545   8.054   5.270  1.00  0.00    -0.273 OA
ATOM      4  C   UNL     1       2.738   8.045   4.983  1.00  0.00     0.243 C 
ATOM      5  H   UNL     1       4.603   7.264   5.268  1.00  0.00     0.164 HD
BRANCH   4   6
ATOM      6  C   UNL     1       3.304   8.764   3.733  1.00  0.00     0.171 C 
BRANCH   6   7
ATOM      7  N   UNL     1       4.738   8.471   3.576  1.00  0.00    -0.344 N 
ATOM      8  C   UNL     1       5.606   9.436   3.115  1.00  0.00     0.226 C 
ATOM      9  O   UNL     1       5.236  10.560   2.796  1.00  0.00    -0.275 OA
ATOM     10  H   UNL     1       5.070   7.534   3.765  1.00  0.00     0.164 HD
BRANCH   8  11
ATOM     11  C   UNL     1       7.059   8.997   3.061  1.00  0.00     0.109 C 
ATOM     12  C   UNL     1       7.275   7.784   3.966  1.00  0.00     0.021 C 
BRANCH  11  13
ATOM     13  C   UNL     1       7.488   8.796   1.594  1.00  0.00     0.204 C 
BRANCH  13  14
ATOM     14  N   UNL     1       6.388   9.046   0.658  1.00  0.00    -0.340 N 
ATOM     15  C   UNL     1       6.284   8.412  -0.561  1.00  0.00     0.243 C 
ATOM     16  O   UNL     1       7.076   7.544  -0.924  1.00  0.00    -0.273 OA
ATOM     17  H   UNL     1       5.788   9.858   0.828  1.00  0.00     0.164 HD
BRANCH  15  18
ATOM     18  C   UNL     1       5.163   8.986  -1.463  1.00  0.00     0.171 C 
BRANCH  18  19
ATOM     19  N   UNL     1       5.700  10.199  -2.076  1.00  0.00    -0.343 N 
ATOM     20  C   UNL     1       5.523  11.444  -1.503  1.00  0.00     0.242 CG0
ATOM     21  O   UNL     1       4.796  11.606  -0.526  1.00  0.00    -0.273 OA
ATOM     22  H   UNL     1       6.211  10.132  -2.949  1.00  0.00     0.164 HD
ATOM     23  G   UNL     1       6.227  12.595  -2.251  1.00  0.00     0.000 G0
ENDBRANCH  18  19
BRANCH  18  24
ATOM     24  C   UNL     1       4.743   7.960  -2.523  1.00  0.00     0.038 C 
BRANCH  24  25
ATOM     25  C   UNL     1       3.565   7.053  -2.109  1.00  0.00    -0.015 C 
ATOM     26  C   UNL     1       4.021   5.654  -1.693  1.00  0.00     0.007 C 
ATOM     27  C   UNL     1       2.567   6.946  -3.266  1.00  0.00     0.007 C 
ENDBRANCH  24  25
ENDBRANCH  18  24
ENDBRANCH  15  18
ENDBRANCH  13  14
BRANCH  13  28
ATOM     28  C   UNL     1       8.654   9.698   1.177  1.00  0.00     0.327 C 
ATOM     29  O   UNL     1       8.837  10.852   1.533  1.00  0.00    -0.250 OA
BRANCH  28  30
ATOM     30  O   UNL     1       9.451   9.136   0.247  1.00  0.00    -0.480 OA
ATOM     31  H   UNL     1       9.558   8.210   0.548  1.00  0.00     0.296 HD
ENDBRANCH  28  30
ENDBRANCH  13  28
ENDBRANCH  11  13
ENDBRANCH   8  11
ENDBRANCH   6   7
BRANCH   6  32
ATOM     32  C   UNL     1       2.516   8.319   2.496  1.00  0.00     0.037 C 
BRANCH  32  33
ATOM     33  C   UNL     1       3.154   7.104   1.809  1.00  0.00     0.026 C 
BRANCH  33  34
ATOM     34  C   UNL     1       2.135   6.008   1.492  1.00  0.00     0.146 C 
BRANCH  34  35
ATOM     35  N   UNL     1       1.025   6.114   2.429  1.00  0.00    -0.254 NA
ATOM     36  C   UNL     1       0.911   5.230   3.349  1.00  0.00     0.185 C 
ATOM     37  N   UNL     1      -0.105   5.321   4.221  1.00  0.00    -0.370 N 
ATOM     38  N   UNL     1       1.692   4.163   3.597  1.00  0.00    -0.370 N 
ATOM     39  H   UNL     1      -0.733   6.106   4.106  1.00  0.00     0.159 HD
ATOM     40  H   UNL     1      -0.164   4.777   5.065  1.00  0.00     0.159 HD
ATOM     41  H   UNL     1       1.418   3.462   4.266  1.00  0.00     0.159 HD
ATOM     42  H   UNL     1       2.486   3.961   3.010  1.00  0.00     0.159 HD
ENDBRANCH  34  35
ENDBRANCH  33  34
ENDBRANCH  32  33
ENDBRANCH   6  32
ENDBRANCH   4   6
ENDBRANCH   1   2
BRANCH   1  43
ATOM     43  C   UNL     1       3.816   7.479   8.094  1.00  0.00     0.102 C 
ATOM     44  C   UNL     1       4.998   6.924   8.906  1.00  0.00     0.020 C 
BRANCH  43  45
ATOM     45  C   UNL     1       2.601   7.859   8.945  1.00  0.00     0.225 C 
ATOM     46  O   UNL     1       2.128   8.991   8.972  1.00  0.00    -0.275 OA
ATOM     47  N   UNL     1       2.117   6.864   9.764  1.00  0.00    -0.342 N 
ATOM     48  H   UNL     1       2.413   5.909   9.620  1.00  0.00     0.164 HD
BRANCH  47  49
ATOM     49  C   UNL     1       0.936   7.073  10.608  1.00  0.00     0.192 C 
BRANCH  49  50
ATOM     50  C   UNL     1       1.153   6.407  11.969  1.00  0.00     0.047 C 
BRANCH  50  51
ATOM     51  C   UNL     1       1.584   7.412  13.046  1.00  0.00     0.103 C 
BRANCH  51  52
ATOM     52  C   UNL     1       1.391   6.859  14.457  1.00  0.00     0.226 C 
ATOM     53  O   UNL     1       2.251   6.124  14.946  1.00  0.00    -0.275 OA
BRANCH  52  54
ATOM     54  N   UNL     1       0.249   7.298  15.151  1.00  0.00    -0.311 N 
ATOM     55  C   UNL     1       0.193   8.642  15.742  1.00  0.00     0.153 C 
BRANCH  54  56
ATOM     56  C   UNL     1      -0.879   6.474  15.301  1.00  0.00     0.102 C 
ATOM     57  C   UNL     1      -0.953   5.414  16.122  1.00  0.00     0.043 C 
BRANCH  56  58
ATOM     58  C   UNL     1      -2.156   6.764  14.548  1.00  0.00     0.268 C 
ATOM     59  O   UNL     1      -2.221   6.794  13.326  1.00  0.00    -0.268 OA
ATOM     60  N   UNL     1      -3.244   6.925  15.371  1.00  0.00    -0.339 N 
ATOM     61  H   UNL     1      -3.105   6.897  16.374  1.00  0.00     0.164 HD
BRANCH  60  62
ATOM     62  C   UNL     1      -4.591   7.152  14.848  1.00  0.00     0.168 CG0
ATOM     63  C   UNL     1      -4.995   8.614  14.993  1.00  0.00     0.041 C 
ATOM     64  G   UNL     1      -5.591   6.233  15.579  1.00  0.00     0.000 G0
ENDBRANCH  60  62
ENDBRANCH  56  58
ENDBRANCH  54  56
ENDBRANCH  52  54
ENDBRANCH  51  52
ENDBRANCH  50  51
ENDBRANCH  49  50
BRANCH  49  65
ATOM     65  C   UNL     1      -0.333   6.501   9.958  1.00  0.00     0.326 C 
ATOM     66  O   UNL     1      -0.374   5.543   9.200  1.00  0.00    -0.250 OA
BRANCH  65  67
ATOM     67  O   UNL     1      -1.466   7.184  10.236  1.00  0.00    -0.480 OA
ATOM     68  H   UNL     1      -1.953   7.182   9.384  1.00  0.00     0.296 HD
ENDBRANCH  65  67
ENDBRANCH  49  65
ENDBRANCH  47  49
ENDBRANCH  43  45
ENDBRANCH   1  43
BRANCH   1  69
ATOM     69  C   UNL     1       4.052   5.203   6.763  1.00  0.00    -0.001 C 
ATOM     70  C   UNL     1       3.444   4.003   6.764  1.00  0.00     0.001 C 
BRANCH  70  71
ATOM     71  C   UNL     1       4.081   2.694   6.606  1.00  0.00    -0.055 C 
ATOM     72  C   UNL     1       5.009   2.334   7.517  1.00  0.00    -0.018 C 
ATOM     73  C   UNL     1       3.650   1.839   5.443  1.00  0.00     0.044 C 
BRANCH  72  74
ATOM     74  C   UNL     1       5.823   1.051   7.608  1.00  0.00     0.038 C 
ATOM     75  C   UNL     1       5.426   0.354   8.915  1.00  0.00     0.015 C 
BRANCH  74  76
ATOM     76  C   UNL     1       7.334   1.406   7.490  1.00  0.00     0.128 C 
BRANCH  76  77
ATOM     77  O   UNL     1       8.115   0.203   7.391  1.00  0.00    -0.381 OA
ATOM     78  C   UNL     1       9.214   0.160   8.292  1.00  0.00     0.195 C 
ENDBRANCH  76  77
BRANCH  76  79
ATOM     79  C   UNL     1       7.656   2.424   6.367  1.00  0.00     0.068 C 
BRANCH  79  80
ATOM     80  C   UNL     1       8.319   3.722   6.757  1.00  0.00    -0.045 A 
ATOM     81  C   UNL     1       9.637   3.745   7.232  1.00  0.00     0.004 A 
ATOM     82  C   UNL     1       7.611   4.931   6.677  1.00  0.00     0.004 A 
ATOM     83  C   UNL     1      10.239   4.949   7.605  1.00  0.00     0.000 A 
ATOM     84  C   UNL     1       8.213   6.134   7.051  1.00  0.00     0.000 A 
ATOM     85  C   UNL     1       9.527   6.143   7.513  1.00  0.00     0.000 A 
ENDBRANCH  79  80
ENDBRANCH  76  79
ENDBRANCH  74  76
ENDBRANCH  72  74
ENDBRANCH  70  71
ENDBRANCH   1  69
TORSDOF 17
ENDMDL
MODEL 10
REMARK VINA RESULT:    -5.548      6.007     11.347
REMARK INTER + INTRA:         -25.632
REMARK INTER:                 -20.153
REMARK INTRA:                  -5.479
REMARK UNBOUND:                -9.057
REMARK SMILES C=C1C(=O)N[C@H](C)C(=O)N[C@@H](CC(C)C)C(=O)N[C@@H](C(=O)O)[C@H](C)C(=O)N[C@@H](CCCN=C(N)N)C(=O)N[C@@H](/C=C/C(C)=C/[C@H](C)[C@H](Cc2ccccc2)OC)[C@H](C)C(=O)N[C@@H](C(=O)O)CCC(=O)N1C
REMARK SMILES IDX 39 1 38 2 37 3 36 4 28 6 27 7 25 8 26 9 23 11 24 12 19 13
REMARK SMILES IDX 18 14 16 15 17 16 11 18 10 19 8 20 9 21 12 24 13 25 14 26
REMARK SMILES IDX 15 27 20 28 21 29 22 30 29 32 30 33 31 34 32 35 33 36 34 37
REMARK SMILES IDX 35 38 57 43 58 44 59 45 60 46 61 47 62 49 66 50 67 51 68 52
REMARK SMILES IDX 69 53 70 54 71 55 2 56 1 57 3 58 4 59 5 60 6 62 7 63 63 65
REMARK SMILES IDX 64 66 65 67 40 69 41 70 42 71 44 72 43 73 45 74 46 75 47 76
REMARK SMILES IDX 55 77 56 78 48 79 49 80 50 81 54 82 51 83 53 84 52 85
REMARK H PARENT 38 5 27 10 18 17 10 22 22 31 34 39 34 40 35 41 35 42 61 48
REMARK H PARENT 5 61 65 68
REMARK Flexibility Score:  369.900
ROOT
ATOM      1  C   UNL     1       1.833   6.197   4.920  1.00  0.00     0.117 C 
ENDROOT
BRANCH   1   2
ATOM      2  N   UNL     1       2.351   5.016   5.612  1.00  0.00    -0.347 N 
ATOM      3  O   UNL     1       4.531   5.706   5.820  1.00  0.00    -0.273 OA
ATOM      4  C   UNL     1       3.643   4.904   6.089  1.00  0.00     0.243 C 
ATOM      5  H   UNL     1       1.731   4.245   5.806  1.00  0.00     0.164 HD
BRANCH   4   6
ATOM      6  C   UNL     1       3.910   3.587   6.860  1.00  0.00     0.171 C 
BRANCH   6   7
ATOM      7  N   UNL     1       4.393   2.543   5.942  1.00  0.00    -0.344 N 
ATOM      8  C   UNL     1       4.354   1.214   6.306  1.00  0.00     0.226 C 
ATOM      9  O   UNL     1       3.946   0.841   7.400  1.00  0.00    -0.275 OA
ATOM     10  H   UNL     1       4.800   2.817   5.057  1.00  0.00     0.164 HD
BRANCH   8  11
ATOM     11  C   UNL     1       4.836   0.256   5.231  1.00  0.00     0.109 C 
ATOM     12  C   UNL     1       6.118   0.787   4.589  1.00  0.00     0.021 C 
BRANCH  11  13
ATOM     13  C   UNL     1       4.942  -1.168   5.810  1.00  0.00     0.204 C 
BRANCH  13  14
ATOM     14  N   UNL     1       3.639  -1.836   5.877  1.00  0.00    -0.340 N 
ATOM     15  C   UNL     1       3.294  -2.707   6.888  1.00  0.00     0.243 C 
ATOM     16  O   UNL     1       4.036  -2.939   7.841  1.00  0.00    -0.273 OA
ATOM     17  H   UNL     1       3.041  -1.806   5.047  1.00  0.00     0.164 HD
BRANCH  15  18
ATOM     18  C   UNL     1       1.957  -3.446   6.639  1.00  0.00     0.171 C 
BRANCH  18  19
ATOM     19  N   UNL     1       2.164  -4.834   7.047  1.00  0.00    -0.343 N 
ATOM     20  C   UNL     1       2.504  -5.818   6.139  1.00  0.00     0.242 CG0
ATOM     21  O   UNL     1       2.518  -5.600   4.929  1.00  0.00    -0.273 OA
ATOM     22  H   UNL     1       2.050  -5.088   8.022  1.00  0.00     0.164 HD
ATOM     23  G   UNL     1       2.758  -7.204   6.766  1.00  0.00     0.000 G0
ENDBRANCH  18  19
BRANCH  18  24
ATOM     24  C   UNL     1       0.820  -2.791   7.432  1.00  0.00     0.038 C 
BRANCH  24  25
ATOM     25  C   UNL     1       0.805  -3.130   8.937  1.00  0.00    -0.015 C 
ATOM     26  C   UNL     1      -0.477  -3.846   9.363  1.00  0.00     0.007 C 
ATOM     27  C   UNL     1       0.976  -1.848   9.756  1.00  0.00     0.007 C 
ENDBRANCH  24  25
ENDBRANCH  18  24
ENDBRANCH  15  18
ENDBRANCH  13  14
BRANCH  13  28
ATOM     28  C   UNL     1       5.878  -2.078   5.008  1.00  0.00     0.327 C 
ATOM     29  O   UNL     1       5.610  -2.647   3.961  1.00  0.00    -0.250 OA
BRANCH  28  30
ATOM     30  O   UNL     1       7.050  -2.312   5.631  1.00  0.00    -0.480 OA
ATOM     31  H   UNL     1       7.694  -2.423   4.901  1.00  0.00     0.296 HD
ENDBRANCH  28  30
ENDBRANCH  13  28
ENDBRANCH  11  13
ENDBRANCH   8  11
ENDBRANCH   6   7
BRANCH   6  32
ATOM     32  C   UNL     1       4.931   3.852   7.972  1.00  0.00     0.037 C 
BRANCH  32  33
ATOM     33  C   UNL     1       6.371   3.582   7.513  1.00  0.00     0.026 C 
BRANCH  33  34
ATOM     34  C   UNL     1       7.181   2.807   8.554  1.00  0.00     0.146 C 
BRANCH  34  35
ATOM     35  N   UNL     1       7.884   1.720   7.888  1.00  0.00    -0.254 NA
ATOM     36  C   UNL     1       7.504   0.517   8.107  1.00  0.00     0.185 C 
ATOM     37  N   UNL     1       8.142  -0.493   7.495  1.00  0.00    -0.370 N 
ATOM     38  N   UNL     1       6.510   0.076   8.898  1.00  0.00    -0.370 N 
ATOM     39  H   UNL     1       8.899  -0.240   6.872  1.00  0.00     0.159 HD
ATOM     40  H   UNL     1       7.799  -1.438   7.477  1.00  0.00     0.159 HD
ATOM     41  H   UNL     1       6.398  -0.905   9.097  1.00  0.00     0.159 HD
ATOM     42  H   UNL     1       5.955   0.725   9.433  1.00  0.00     0.159 HD
ENDBRANCH  34  35
ENDBRANCH  33  34
ENDBRANCH  32  33
ENDBRANCH   6  32
ENDBRANCH   4   6
ENDBRANCH   1   2
BRANCH   1  43
ATOM     43  C   UNL     1       0.564   6.694   5.671  1.00  0.00     0.102 C 
ATOM     44  C   UNL     1      -0.025   7.989   5.087  1.00  0.00     0.020 C 
BRANCH  43  45
ATOM     45  C   UNL     1       0.806   6.749   7.183  1.00  0.00     0.225 C 
ATOM     46  O   UNL     1       1.780   7.300   7.687  1.00  0.00    -0.275 OA
ATOM     47  N   UNL     1      -0.098   6.052   7.952  1.00  0.00    -0.342 N 
ATOM     48  H   UNL     1      -0.966   5.736   7.542  1.00  0.00     0.164 HD
BRANCH  47  49
ATOM     49  C   UNL     1      -0.012   6.044   9.416  1.00  0.00     0.192 C 
BRANCH  49  50
ATOM     50  C   UNL     1      -0.343   7.437   9.957  1.00  0.00     0.047 C 
BRANCH  50  51
ATOM     51  C   UNL     1      -1.348   7.387  11.116  1.00  0.00     0.103 C 
BRANCH  51  52
ATOM     52  C   UNL     1      -0.720   7.819  12.440  1.00  0.00     0.226 C 
ATOM     53  O   UNL     1       0.502   7.963  12.516  1.00  0.00    -0.275 OA
BRANCH  52  54
ATOM     54  N   UNL     1      -1.609   8.105  13.492  1.00  0.00    -0.311 N 
ATOM     55  C   UNL     1      -1.822   7.145  14.584  1.00  0.00     0.153 C 
BRANCH  54  56
ATOM     56  C   UNL     1      -2.320   9.315  13.542  1.00  0.00     0.102 C 
ATOM     57  C   UNL     1      -3.640   9.422  13.767  1.00  0.00     0.043 C 
BRANCH  56  58
ATOM     58  C   UNL     1      -1.609  10.639  13.385  1.00  0.00     0.268 C 
ATOM     59  O   UNL     1      -1.631  11.291  12.350  1.00  0.00    -0.268 OA
ATOM     60  N   UNL     1      -0.994  11.062  14.539  1.00  0.00    -0.339 N 
ATOM     61  H   UNL     1      -1.013  10.458  15.351  1.00  0.00     0.164 HD
BRANCH  60  62
ATOM     62  C   UNL     1      -0.301  12.347  14.625  1.00  0.00     0.168 CG0
ATOM     63  C   UNL     1      -1.221  13.428  15.179  1.00  0.00     0.041 C 
ATOM     64  G   UNL     1       0.230  12.743  13.232  1.00  0.00     0.000 G0
ENDBRANCH  60  62
ENDBRANCH  56  58
ENDBRANCH  54  56
ENDBRANCH  52  54
ENDBRANCH  51  52
ENDBRANCH  50  51
ENDBRANCH  49  50
BRANCH  49  65
ATOM     65  C   UNL     1       1.386   5.629   9.900  1.00  0.00     0.326 C 
ATOM     66  O   UNL     1       1.890   4.525   9.752  1.00  0.00    -0.250 OA
BRANCH  65  67
ATOM     67  O   UNL     1       2.051   6.583  10.588  1.00  0.00    -0.480 OA
ATOM     68  H   UNL     1       1.392   7.305  10.677  1.00  0.00     0.296 HD
ENDBRANCH  65  67
ENDBRANCH  49  65
ENDBRANCH  47  49
ENDBRANCH  43  45
ENDBRANCH   1  43
BRANCH   1  69
ATOM     69  C   UNL     1       1.716   5.814   3.456  1.00  0.00    -0.001 C 
ATOM     70  C   UNL     1       2.011   6.573   2.387  1.00  0.00     0.001 C 
BRANCH  70  71
ATOM     71  C   UNL     1       1.914   6.184   0.978  1.00  0.00    -0.055 C 
ATOM     72  C   UNL     1       2.853   6.655   0.131  1.00  0.00    -0.018 C 
ATOM     73  C   UNL     1       0.778   5.280   0.576  1.00  0.00     0.044 C 
BRANCH  72  74
ATOM     74  C   UNL     1       3.006   6.419  -1.365  1.00  0.00     0.038 C 
ATOM     75  C   UNL     1       4.024   5.286  -1.543  1.00  0.00     0.015 C 
BRANCH  74  76
ATOM     76  C   UNL     1       3.399   7.763  -2.046  1.00  0.00     0.128 C 
BRANCH  76  77
ATOM     77  O   UNL     1       2.258   8.326  -2.716  1.00  0.00    -0.381 OA
ATOM     78  C   UNL     1       1.489   7.371  -3.434  1.00  0.00     0.195 C 
ENDBRANCH  76  77
BRANCH  76  79
ATOM     79  C   UNL     1       4.095   8.771  -1.097  1.00  0.00     0.068 C 
BRANCH  79  80
ATOM     80  C   UNL     1       5.343   9.461  -1.590  1.00  0.00    -0.045 A 
ATOM     81  C   UNL     1       6.386   8.733  -2.178  1.00  0.00     0.004 A 
ATOM     82  C   UNL     1       5.491  10.848  -1.439  1.00  0.00     0.004 A 
ATOM     83  C   UNL     1       7.544   9.377  -2.619  1.00  0.00     0.000 A 
ATOM     84  C   UNL     1       6.650  11.491  -1.880  1.00  0.00     0.000 A 
ATOM     85  C   UNL     1       7.675  10.756  -2.471  1.00  0.00     0.000 A 
ENDBRANCH  79  80
ENDBRANCH  76  79
ENDBRANCH  74  76
ENDBRANCH  72  74
ENDBRANCH  70  71
ENDBRANCH   1  69
TORSDOF 17
ENDMDL
MODEL 11
REMARK VINA RESULT:    -5.534      4.684     12.996
REMARK INTER + INTRA:         -25.589
REMARK INTER:                 -20.455
REMARK INTRA:                  -5.134
REMARK UNBOUND:                -9.057
REMARK SMILES C=C1C(=O)N[C@H](C)C(=O)N[C@@H](CC(C)C)C(=O)N[C@@H](C(=O)O)[C@H](C)C(=O)N[C@@H](CCCN=C(N)N)C(=O)N[C@@H](/C=C/C(C)=C/[C@H](C)[C@H](Cc2ccccc2)OC)[C@H](C)C(=O)N[C@@H](C(=O)O)CCC(=O)N1C
REMARK SMILES IDX 39 1 38 2 37 3 36 4 28 6 27 7 25 8 26 9 23 11 24 12 19 13
REMARK SMILES IDX 18 14 16 15 17 16 11 18 10 19 8 20 9 21 12 24 13 25 14 26
REMARK SMILES IDX 15 27 20 28 21 29 22 30 29 32 30 33 31 34 32 35 33 36 34 37
REMARK SMILES IDX 35 38 57 43 58 44 59 45 60 46 61 47 62 49 66 50 67 51 68 52
REMARK SMILES IDX 69 53 70 54 71 55 2 56 1 57 3 58 4 59 5 60 6 62 7 63 63 65
REMARK SMILES IDX 64 66 65 67 40 69 41 70 42 71 44 72 43 73 45 74 46 75 47 76
REMARK SMILES IDX 55 77 56 78 48 79 49 80 50 81 54 82 51 83 53 84 52 85
REMARK H PARENT 38 5 27 10 18 17 10 22 22 31 34 39 34 40 35 41 35 42 61 48
REMARK H PARENT 5 61 65 68
REMARK Flexibility Score:  369.900
ROOT
ATOM      1  C   UNL     1       3.301   4.043   6.646  1.00  0.00     0.117 C 
ENDROOT
BRANCH   1   2
ATOM      2  N   UNL     1       3.288   5.070   5.604  1.00  0.00    -0.347 N 
ATOM      3  O   UNL     1       1.352   4.425   4.553  1.00  0.00    -0.273 OA
ATOM      4  C   UNL     1       2.263   5.235   4.693  1.00  0.00     0.243 C 
ATOM      5  H   UNL     1       4.041   5.740   5.561  1.00  0.00     0.164 HD
BRANCH   4   6
ATOM      6  C   UNL     1       2.455   6.451   3.752  1.00  0.00     0.171 C 
BRANCH   6   7
ATOM      7  N   UNL     1       2.468   6.016   2.346  1.00  0.00    -0.344 N 
ATOM      8  C   UNL     1       2.905   6.864   1.352  1.00  0.00     0.226 C 
ATOM      9  O   UNL     1       3.278   8.009   1.578  1.00  0.00    -0.275 OA
ATOM     10  H   UNL     1       2.104   5.100   2.112  1.00  0.00     0.164 HD
BRANCH   8  11
ATOM     11  C   UNL     1       2.910   6.250  -0.037  1.00  0.00     0.109 C 
ATOM     12  C   UNL     1       1.613   5.476  -0.274  1.00  0.00     0.021 C 
BRANCH  11  13
ATOM     13  C   UNL     1       3.217   7.337  -1.087  1.00  0.00     0.204 C 
BRANCH  13  14
ATOM     14  N   UNL     1       4.585   7.850  -0.965  1.00  0.00    -0.340 N 
ATOM     15  C   UNL     1       4.889   9.193  -1.027  1.00  0.00     0.243 C 
ATOM     16  O   UNL     1       4.024  10.062  -1.128  1.00  0.00    -0.273 OA
ATOM     17  H   UNL     1       5.357   7.181  -1.032  1.00  0.00     0.164 HD
BRANCH  15  18
ATOM     18  C   UNL     1       6.409   9.481  -1.084  1.00  0.00     0.171 C 
BRANCH  18  19
ATOM     19  N   UNL     1       6.626  10.352  -2.238  1.00  0.00    -0.343 N 
ATOM     20  C   UNL     1       7.795  10.309  -2.973  1.00  0.00     0.242 CG0
ATOM     21  O   UNL     1       8.757   9.634  -2.614  1.00  0.00    -0.273 OA
ATOM     22  H   UNL     1       5.905  11.011  -2.507  1.00  0.00     0.164 HD
ATOM     23  G   UNL     1       7.811  11.244  -4.200  1.00  0.00     0.000 G0
ENDBRANCH  18  19
BRANCH  18  24
ATOM     24  C   UNL     1       6.884  10.142   0.215  1.00  0.00     0.038 C 
BRANCH  24  25
ATOM     25  C   UNL     1       7.673   9.211   1.160  1.00  0.00    -0.015 C 
ATOM     26  C   UNL     1       8.354   8.062   0.416  1.00  0.00     0.007 C 
ATOM     27  C   UNL     1       6.735   8.647   2.230  1.00  0.00     0.007 C 
ENDBRANCH  24  25
ENDBRANCH  18  24
ENDBRANCH  15  18
ENDBRANCH  13  14
BRANCH  13  28
ATOM     28  C   UNL     1       3.041   6.850  -2.528  1.00  0.00     0.327 C 
ATOM     29  O   UNL     1       3.735   6.025  -3.103  1.00  0.00    -0.250 OA
BRANCH  28  30
ATOM     30  O   UNL     1       2.079   7.517  -3.198  1.00  0.00    -0.480 OA
ATOM     31  H   UNL     1       2.127   8.429  -2.844  1.00  0.00     0.296 HD
ENDBRANCH  28  30
ENDBRANCH  13  28
ENDBRANCH  11  13
ENDBRANCH   8  11
ENDBRANCH   6   7
BRANCH   6  32
ATOM     32  C   UNL     1       1.331   7.463   4.001  1.00  0.00     0.037 C 
BRANCH  32  33
ATOM     33  C   UNL     1       1.827   8.705   4.755  1.00  0.00     0.026 C 
BRANCH  33  34
ATOM     34  C   UNL     1       0.776   9.266   5.713  1.00  0.00     0.146 C 
BRANCH  34  35
ATOM     35  N   UNL     1      -0.258   9.937   4.936  1.00  0.00    -0.254 NA
ATOM     36  C   UNL     1      -1.478   9.587   5.105  1.00  0.00     0.185 C 
ATOM     37  N   UNL     1      -2.439  10.202   4.399  1.00  0.00    -0.370 N 
ATOM     38  N   UNL     1      -1.981   8.647   5.926  1.00  0.00    -0.370 N 
ATOM     39  H   UNL     1      -2.140  10.931   3.764  1.00  0.00     0.159 HD
ATOM     40  H   UNL     1      -3.420  10.109   4.597  1.00  0.00     0.159 HD
ATOM     41  H   UNL     1      -2.947   8.367   5.867  1.00  0.00     0.159 HD
ATOM     42  H   UNL     1      -1.371   8.093   6.507  1.00  0.00     0.159 HD
ENDBRANCH  34  35
ENDBRANCH  33  34
ENDBRANCH  32  33
ENDBRANCH   6  32
ENDBRANCH   4   6
ENDBRANCH   1   2
BRANCH   1  43
ATOM     43  C   UNL     1       3.784   4.692   7.975  1.00  0.00     0.102 C 
ATOM     44  C   UNL     1       3.626   3.772   9.198  1.00  0.00     0.020 C 
BRANCH  43  45
ATOM     45  C   UNL     1       3.172   6.083   8.162  1.00  0.00     0.225 C 
ATOM     46  O   UNL     1       3.700   7.110   7.744  1.00  0.00    -0.275 OA
ATOM     47  N   UNL     1       2.023   6.129   8.918  1.00  0.00    -0.342 N 
ATOM     48  H   UNL     1       1.524   5.274   9.121  1.00  0.00     0.164 HD
BRANCH  47  49
ATOM     49  C   UNL     1       1.308   7.388   9.149  1.00  0.00     0.192 C 
BRANCH  49  50
ATOM     50  C   UNL     1       1.285   7.698  10.648  1.00  0.00     0.047 C 
BRANCH  50  51
ATOM     51  C   UNL     1       0.942   6.463  11.493  1.00  0.00     0.103 C 
BRANCH  51  52
ATOM     52  C   UNL     1      -0.194   6.739  12.476  1.00  0.00     0.226 C 
ATOM     53  O   UNL     1      -1.357   6.777  12.070  1.00  0.00    -0.275 OA
BRANCH  52  54
ATOM     54  N   UNL     1       0.166   6.860  13.832  1.00  0.00    -0.311 N 
ATOM     55  C   UNL     1       1.574   6.982  14.232  1.00  0.00     0.153 C 
BRANCH  54  56
ATOM     56  C   UNL     1      -0.804   6.874  14.848  1.00  0.00     0.102 C 
ATOM     57  C   UNL     1      -0.981   5.900  15.755  1.00  0.00     0.043 C 
BRANCH  56  58
ATOM     58  C   UNL     1      -1.724   8.059  15.024  1.00  0.00     0.268 C 
ATOM     59  O   UNL     1      -1.331   9.167  15.364  1.00  0.00    -0.268 OA
ATOM     60  N   UNL     1      -3.030   7.781  14.701  1.00  0.00    -0.339 N 
ATOM     61  H   UNL     1      -3.277   6.835  14.438  1.00  0.00     0.164 HD
BRANCH  60  62
ATOM     62  C   UNL     1      -4.077   8.802  14.741  1.00  0.00     0.168 CG0
ATOM     63  C   UNL     1      -5.353   8.253  15.366  1.00  0.00     0.041 C 
ATOM     64  G   UNL     1      -4.347   9.321  13.313  1.00  0.00     0.000 G0
ENDBRANCH  60  62
ENDBRANCH  56  58
ENDBRANCH  54  56
ENDBRANCH  52  54
ENDBRANCH  51  52
ENDBRANCH  50  51
ENDBRANCH  49  50
BRANCH  49  65
ATOM     65  C   UNL     1      -0.134   7.326   8.621  1.00  0.00     0.326 C 
ATOM     66  O   UNL     1      -1.090   7.926   9.091  1.00  0.00    -0.250 OA
BRANCH  65  67
ATOM     67  O   UNL     1      -0.318   6.481   7.582  1.00  0.00    -0.480 OA
ATOM     68  H   UNL     1      -0.260   5.592   7.994  1.00  0.00     0.296 HD
ENDBRANCH  65  67
ENDBRANCH  49  65
ENDBRANCH  47  49
ENDBRANCH  43  45
ENDBRANCH   1  43
BRANCH   1  69
ATOM     69  C   UNL     1       4.080   2.871   6.077  1.00  0.00    -0.001 C 
ATOM     70  C   UNL     1       3.913   1.566   6.356  1.00  0.00     0.001 C 
BRANCH  70  71
ATOM     71  C   UNL     1       4.657   0.442   5.784  1.00  0.00    -0.055 C 
ATOM     72  C   UNL     1       4.323  -0.802   6.188  1.00  0.00    -0.018 C 
ATOM     73  C   UNL     1       5.735   0.752   4.779  1.00  0.00     0.044 C 
BRANCH  72  74
ATOM     74  C   UNL     1       4.913  -2.141   5.769  1.00  0.00     0.038 C 
ATOM     75  C   UNL     1       4.181  -2.579   4.495  1.00  0.00     0.015 C 
BRANCH  74  76
ATOM     76  C   UNL     1       4.797  -3.135   6.962  1.00  0.00     0.128 C 
BRANCH  76  77
ATOM     77  O   UNL     1       4.748  -2.409   8.203  1.00  0.00    -0.381 OA
ATOM     78  C   UNL     1       5.811  -2.725   9.091  1.00  0.00     0.195 C 
ENDBRANCH  76  77
BRANCH  76  79
ATOM     79  C   UNL     1       3.641  -4.158   6.820  1.00  0.00     0.068 C 
BRANCH  79  80
ATOM     80  C   UNL     1       2.226  -3.643   6.916  1.00  0.00    -0.045 A 
ATOM     81  C   UNL     1       1.852  -2.740   7.921  1.00  0.00     0.004 A 
ATOM     82  C   UNL     1       1.249  -4.086   6.012  1.00  0.00     0.004 A 
ATOM     83  C   UNL     1       0.537  -2.280   8.012  1.00  0.00     0.000 A 
ATOM     84  C   UNL     1      -0.066  -3.625   6.104  1.00  0.00     0.000 A 
ATOM     85  C   UNL     1      -0.421  -2.721   7.102  1.00  0.00     0.000 A 
ENDBRANCH  79  80
ENDBRANCH  76  79
ENDBRANCH  74  76
ENDBRANCH  72  74
ENDBRANCH  70  71
ENDBRANCH   1  69
TORSDOF 17
ENDMDL
MODEL 12
REMARK VINA RESULT:    -5.495      2.287      3.897
REMARK INTER + INTRA:         -25.474
REMARK INTER:                 -19.533
REMARK INTRA:                  -5.940
REMARK UNBOUND:                -9.057
REMARK SMILES C=C1C(=O)N[C@H](C)C(=O)N[C@@H](CC(C)C)C(=O)N[C@@H](C(=O)O)[C@H](C)C(=O)N[C@@H](CCCN=C(N)N)C(=O)N[C@@H](/C=C/C(C)=C/[C@H](C)[C@H](Cc2ccccc2)OC)[C@H](C)C(=O)N[C@@H](C(=O)O)CCC(=O)N1C
REMARK SMILES IDX 39 1 38 2 37 3 36 4 28 6 27 7 25 8 26 9 23 11 24 12 19 13
REMARK SMILES IDX 18 14 16 15 17 16 11 18 10 19 8 20 9 21 12 24 13 25 14 26
REMARK SMILES IDX 15 27 20 28 21 29 22 30 29 32 30 33 31 34 32 35 33 36 34 37
REMARK SMILES IDX 35 38 57 43 58 44 59 45 60 46 61 47 62 49 66 50 67 51 68 52
REMARK SMILES IDX 69 53 70 54 71 55 2 56 1 57 3 58 4 59 5 60 6 62 7 63 63 65
REMARK SMILES IDX 64 66 65 67 40 69 41 70 42 71 44 72 43 73 45 74 46 75 47 76
REMARK SMILES IDX 55 77 56 78 48 79 49 80 50 81 54 82 51 83 53 84 52 85
REMARK H PARENT 38 5 27 10 18 17 10 22 22 31 34 39 34 40 35 41 35 42 61 48
REMARK H PARENT 5 61 65 68
REMARK Flexibility Score:  369.900
ROOT
ATOM      1  C   UNL     1       2.221  10.645   4.739  1.00  0.00     0.117 C 
ENDROOT
BRANCH   1   2
ATOM      2  N   UNL     1       2.965   9.956   5.794  1.00  0.00    -0.347 N 
ATOM      3  O   UNL     1       1.893  10.891   7.595  1.00  0.00    -0.273 OA
ATOM      4  C   UNL     1       2.678  10.066   7.141  1.00  0.00     0.243 C 
ATOM      5  H   UNL     1       3.705   9.318   5.541  1.00  0.00     0.164 HD
BRANCH   4   6
ATOM      6  C   UNL     1       3.561   9.164   8.041  1.00  0.00     0.171 C 
BRANCH   6   7
ATOM      7  N   UNL     1       2.729   8.191   8.767  1.00  0.00    -0.344 N 
ATOM      8  C   UNL     1       2.326   8.437  10.061  1.00  0.00     0.226 C 
ATOM      9  O   UNL     1       2.651   9.448  10.673  1.00  0.00    -0.275 OA
ATOM     10  H   UNL     1       2.497   7.313   8.318  1.00  0.00     0.164 HD
BRANCH   8  11
ATOM     11  C   UNL     1       1.429   7.364  10.652  1.00  0.00     0.109 C 
ATOM     12  C   UNL     1       1.663   6.032   9.940  1.00  0.00     0.021 C 
BRANCH  11  13
ATOM     13  C   UNL     1       1.607   7.321  12.183  1.00  0.00     0.204 C 
BRANCH  13  14
ATOM     14  N   UNL     1       0.441   6.742  12.858  1.00  0.00    -0.340 N 
ATOM     15  C   UNL     1      -0.562   7.509  13.411  1.00  0.00     0.243 C 
ATOM     16  O   UNL     1      -0.578   8.736  13.324  1.00  0.00    -0.273 OA
ATOM     17  H   UNL     1       0.469   5.747  13.096  1.00  0.00     0.164 HD
BRANCH  15  18
ATOM     18  C   UNL     1      -1.576   6.692  14.247  1.00  0.00     0.171 C 
BRANCH  18  19
ATOM     19  N   UNL     1      -1.298   6.989  15.651  1.00  0.00    -0.343 N 
ATOM     20  C   UNL     1      -0.730   6.054  16.495  1.00  0.00     0.242 CG0
ATOM     21  O   UNL     1      -0.557   4.890  16.142  1.00  0.00    -0.273 OA
ATOM     22  H   UNL     1      -1.531   7.903  16.022  1.00  0.00     0.164 HD
ATOM     23  G   UNL     1      -0.438   6.574  17.918  1.00  0.00     0.000 G0
ENDBRANCH  18  19
BRANCH  18  24
ATOM     24  C   UNL     1      -3.015   7.065  13.869  1.00  0.00     0.038 C 
BRANCH  24  25
ATOM     25  C   UNL     1      -3.689   8.077  14.820  1.00  0.00    -0.015 C 
ATOM     26  C   UNL     1      -5.021   7.565  15.370  1.00  0.00     0.007 C 
ATOM     27  C   UNL     1      -3.911   9.403  14.087  1.00  0.00     0.007 C 
ENDBRANCH  24  25
ENDBRANCH  18  24
ENDBRANCH  15  18
ENDBRANCH  13  14
BRANCH  13  28
ATOM     28  C   UNL     1       2.833   6.517  12.626  1.00  0.00     0.327 C 
ATOM     29  O   UNL     1       4.000   6.864  12.525  1.00  0.00    -0.250 OA
BRANCH  28  30
ATOM     30  O   UNL     1       2.524   5.278  13.059  1.00  0.00    -0.480 OA
ATOM     31  H   UNL     1       2.985   4.682  12.432  1.00  0.00     0.296 HD
ENDBRANCH  28  30
ENDBRANCH  13  28
ENDBRANCH  11  13
ENDBRANCH   8  11
ENDBRANCH   6   7
BRANCH   6  32
ATOM     32  C   UNL     1       4.604   8.453   7.173  1.00  0.00     0.037 C 
BRANCH  32  33
ATOM     33  C   UNL     1       4.581   6.931   7.369  1.00  0.00     0.026 C 
BRANCH  33  34
ATOM     34  C   UNL     1       5.756   6.431   8.211  1.00  0.00     0.146 C 
BRANCH  34  35
ATOM     35  N   UNL     1       5.252   5.979   9.500  1.00  0.00    -0.254 NA
ATOM     36  C   UNL     1       5.162   4.720   9.718  1.00  0.00     0.185 C 
ATOM     37  N   UNL     1       4.703   4.292  10.904  1.00  0.00    -0.370 N 
ATOM     38  N   UNL     1       5.473   3.697   8.901  1.00  0.00    -0.370 N 
ATOM     39  H   UNL     1       4.457   5.004  11.579  1.00  0.00     0.159 HD
ATOM     40  H   UNL     1       4.767   3.337  11.213  1.00  0.00     0.159 HD
ATOM     41  H   UNL     1       5.227   2.750   9.136  1.00  0.00     0.159 HD
ATOM     42  H   UNL     1       5.815   3.871   7.969  1.00  0.00     0.159 HD
ENDBRANCH  34  35
ENDBRANCH  33  34
ENDBRANCH  32  33
ENDBRANCH   6  32
ENDBRANCH   4   6
ENDBRANCH   1   2
BRANCH   1  43
ATOM     43  C   UNL     1       1.196   9.650   4.124  1.00  0.00     0.102 C 
ATOM     44  C   UNL     1      -0.130   9.579   4.900  1.00  0.00     0.020 C 
BRANCH  43  45
ATOM     45  C   UNL     1       1.841   8.284   3.870  1.00  0.00     0.225 C 
ATOM     46  O   UNL     1       2.199   7.532   4.772  1.00  0.00    -0.275 OA
ATOM     47  N   UNL     1       2.085   7.980   2.550  1.00  0.00    -0.342 N 
ATOM     48  H   UNL     1       1.652   8.531   1.822  1.00  0.00     0.164 HD
BRANCH  47  49
ATOM     49  C   UNL     1       2.664   6.693   2.154  1.00  0.00     0.192 C 
BRANCH  49  50
ATOM     50  C   UNL     1       2.899   6.678   0.641  1.00  0.00     0.047 C 
BRANCH  50  51
ATOM     51  C   UNL     1       3.774   7.850   0.176  1.00  0.00     0.103 C 
BRANCH  51  52
ATOM     52  C   UNL     1       3.524   8.207  -1.287  1.00  0.00     0.226 C 
ATOM     53  O   UNL     1       3.669   9.371  -1.665  1.00  0.00    -0.275 OA
BRANCH  52  54
ATOM     54  N   UNL     1       3.208   7.139  -2.148  1.00  0.00    -0.311 N 
ATOM     55  C   UNL     1       4.025   5.918  -2.169  1.00  0.00     0.153 C 
BRANCH  54  56
ATOM     56  C   UNL     1       2.102   7.197  -3.011  1.00  0.00     0.102 C 
ATOM     57  C   UNL     1       0.824   7.030  -2.635  1.00  0.00     0.043 C 
BRANCH  56  58
ATOM     58  C   UNL     1       2.279   7.508  -4.479  1.00  0.00     0.268 C 
ATOM     59  O   UNL     1       1.398   8.002  -5.170  1.00  0.00    -0.268 OA
ATOM     60  N   UNL     1       3.547   7.243  -4.938  1.00  0.00    -0.339 N 
ATOM     61  H   UNL     1       4.217   6.824  -4.304  1.00  0.00     0.164 HD
BRANCH  60  62
ATOM     62  C   UNL     1       3.954   7.529  -6.313  1.00  0.00     0.168 CG0
ATOM     63  C   UNL     1       4.806   6.399  -6.878  1.00  0.00     0.041 C 
ATOM     64  G   UNL     1       4.722   8.866  -6.357  1.00  0.00     0.000 G0
ENDBRANCH  60  62
ENDBRANCH  56  58
ENDBRANCH  54  56
ENDBRANCH  52  54
ENDBRANCH  51  52
ENDBRANCH  50  51
ENDBRANCH  49  50
BRANCH  49  65
ATOM     65  C   UNL     1       1.752   5.518   2.539  1.00  0.00     0.326 C 
ATOM     66  O   UNL     1       0.653   5.284   2.057  1.00  0.00    -0.250 OA
BRANCH  65  67
ATOM     67  O   UNL     1       2.225   4.740   3.537  1.00  0.00    -0.480 OA
ATOM     68  H   UNL     1       2.789   5.351   4.059  1.00  0.00     0.296 HD
ENDBRANCH  65  67
ENDBRANCH  49  65
ENDBRANCH  47  49
ENDBRANCH  43  45
ENDBRANCH   1  43
BRANCH   1  69
ATOM     69  C   UNL     1       3.260  11.281   3.834  1.00  0.00    -0.001 C 
ATOM     70  C   UNL     1       3.061  11.835   2.625  1.00  0.00     0.001 C 
BRANCH  70  71
ATOM     71  C   UNL     1       4.069  12.465   1.769  1.00  0.00    -0.055 C 
ATOM     72  C   UNL     1       4.896  11.656   1.074  1.00  0.00    -0.018 C 
ATOM     73  C   UNL     1       4.106  13.970   1.719  1.00  0.00     0.044 C 
BRANCH  72  74
ATOM     74  C   UNL     1       6.021  12.023   0.116  1.00  0.00     0.038 C 
ATOM     75  C   UNL     1       5.378  12.332  -1.241  1.00  0.00     0.015 C 
BRANCH  74  76
ATOM     76  C   UNL     1       7.060  10.863   0.097  1.00  0.00     0.128 C 
BRANCH  76  77
ATOM     77  O   UNL     1       7.064  10.186   1.366  1.00  0.00    -0.381 OA
ATOM     78  C   UNL     1       8.299  10.286   2.062  1.00  0.00     0.195 C 
ENDBRANCH  76  77
BRANCH  76  79
ATOM     79  C   UNL     1       6.898   9.892  -1.100  1.00  0.00     0.068 C 
BRANCH  79  80
ATOM     80  C   UNL     1       8.033   8.943  -1.399  1.00  0.00    -0.045 A 
ATOM     81  C   UNL     1       9.078   9.315  -2.255  1.00  0.00     0.004 A 
ATOM     82  C   UNL     1       8.043   7.655  -0.843  1.00  0.00     0.004 A 
ATOM     83  C   UNL     1      10.117   8.426  -2.538  1.00  0.00     0.000 A 
ATOM     84  C   UNL     1       9.082   6.766  -1.128  1.00  0.00     0.000 A 
ATOM     85  C   UNL     1      10.119   7.153  -1.974  1.00  0.00     0.000 A 
ENDBRANCH  79  80
ENDBRANCH  76  79
ENDBRANCH  74  76
ENDBRANCH  72  74
ENDBRANCH  70  71
ENDBRANCH   1  69
TORSDOF 17
ENDMDL
MODEL 13
REMARK VINA RESULT:    -5.479      4.000      6.507
REMARK INTER + INTRA:         -25.425
REMARK INTER:                 -20.426
REMARK INTRA:                  -4.999
REMARK UNBOUND:                -9.057
REMARK SMILES C=C1C(=O)N[C@H](C)C(=O)N[C@@H](CC(C)C)C(=O)N[C@@H](C(=O)O)[C@H](C)C(=O)N[C@@H](CCCN=C(N)N)C(=O)N[C@@H](/C=C/C(C)=C/[C@H](C)[C@H](Cc2ccccc2)OC)[C@H](C)C(=O)N[C@@H](C(=O)O)CCC(=O)N1C
REMARK SMILES IDX 39 1 38 2 37 3 36 4 28 6 27 7 25 8 26 9 23 11 24 12 19 13
REMARK SMILES IDX 18 14 16 15 17 16 11 18 10 19 8 20 9 21 12 24 13 25 14 26
REMARK SMILES IDX 15 27 20 28 21 29 22 30 29 32 30 33 31 34 32 35 33 36 34 37
REMARK SMILES IDX 35 38 57 43 58 44 59 45 60 46 61 47 62 49 66 50 67 51 68 52
REMARK SMILES IDX 69 53 70 54 71 55 2 56 1 57 3 58 4 59 5 60 6 62 7 63 63 65
REMARK SMILES IDX 64 66 65 67 40 69 41 70 42 71 44 72 43 73 45 74 46 75 47 76
REMARK SMILES IDX 55 77 56 78 48 79 49 80 50 81 54 82 51 83 53 84 52 85
REMARK H PARENT 38 5 27 10 18 17 10 22 22 31 34 39 34 40 35 41 35 42 61 48
REMARK H PARENT 5 61 65 68
REMARK Flexibility Score:  369.900
ROOT
ATOM      1  C   UNL     1       6.112   7.209   6.230  1.00  0.00     0.117 C 
ENDROOT
BRANCH   1   2
ATOM      2  N   UNL     1       4.711   7.051   6.622  1.00  0.00    -0.347 N 
ATOM      3  O   UNL     1       4.698   8.558   8.354  1.00  0.00    -0.273 OA
ATOM      4  C   UNL     1       4.090   7.809   7.597  1.00  0.00     0.243 C 
ATOM      5  H   UNL     1       4.131   6.389   6.129  1.00  0.00     0.164 HD
BRANCH   4   6
ATOM      6  C   UNL     1       2.580   7.502   7.757  1.00  0.00     0.171 C 
BRANCH   6   7
ATOM      7  N   UNL     1       2.232   7.359   9.180  1.00  0.00    -0.344 N 
ATOM      8  C   UNL     1       1.654   6.199   9.649  1.00  0.00     0.226 C 
ATOM      9  O   UNL     1       1.383   5.254   8.917  1.00  0.00    -0.275 OA
ATOM     10  H   UNL     1       2.379   8.143   9.802  1.00  0.00     0.164 HD
BRANCH   8  11
ATOM     11  C   UNL     1       1.406   6.185  11.147  1.00  0.00     0.109 C 
ATOM     12  C   UNL     1       2.422   7.080  11.856  1.00  0.00     0.021 C 
BRANCH  11  13
ATOM     13  C   UNL     1      -0.070   6.524  11.435  1.00  0.00     0.204 C 
BRANCH  13  14
ATOM     14  N   UNL     1      -0.316   6.749  12.862  1.00  0.00    -0.340 N 
ATOM     15  C   UNL     1      -1.581   6.775  13.409  1.00  0.00     0.243 C 
ATOM     16  O   UNL     1      -2.592   6.549  12.746  1.00  0.00    -0.273 OA
ATOM     17  H   UNL     1       0.460   7.091  13.436  1.00  0.00     0.164 HD
BRANCH  15  18
ATOM     18  C   UNL     1      -1.607   7.234  14.887  1.00  0.00     0.171 C 
BRANCH  18  19
ATOM     19  N   UNL     1      -0.214   7.388  15.302  1.00  0.00    -0.343 N 
ATOM     20  C   UNL     1       0.272   6.802  16.455  1.00  0.00     0.242 CG0
ATOM     21  O   UNL     1      -0.472   6.236  17.252  1.00  0.00    -0.273 OA
ATOM     22  H   UNL     1       0.415   7.945  14.735  1.00  0.00     0.164 HD
ATOM     23  G   UNL     1       1.783   7.010  16.687  1.00  0.00     0.000 G0
ENDBRANCH  18  19
BRANCH  18  24
ATOM     24  C   UNL     1      -2.385   8.547  15.033  1.00  0.00     0.038 C 
BRANCH  24  25
ATOM     25  C   UNL     1      -2.037   9.622  13.981  1.00  0.00    -0.015 C 
ATOM     26  C   UNL     1      -1.602  10.943  14.617  1.00  0.00     0.007 C 
ATOM     27  C   UNL     1      -3.245   9.862  13.071  1.00  0.00     0.007 C 
ENDBRANCH  24  25
ENDBRANCH  18  24
ENDBRANCH  15  18
ENDBRANCH  13  14
BRANCH  13  28
ATOM     28  C   UNL     1      -0.560   7.769  10.688  1.00  0.00     0.327 C 
ATOM     29  O   UNL     1      -0.162   8.912  10.851  1.00  0.00    -0.250 OA
BRANCH  28  30
ATOM     30  O   UNL     1      -1.601   7.518   9.868  1.00  0.00    -0.480 OA
ATOM     31  H   UNL     1      -1.949   6.655  10.177  1.00  0.00     0.296 HD
ENDBRANCH  28  30
ENDBRANCH  13  28
ENDBRANCH  11  13
ENDBRANCH   8  11
ENDBRANCH   6   7
BRANCH   6  32
ATOM     32  C   UNL     1       1.766   8.626   7.106  1.00  0.00     0.037 C 
BRANCH  32  33
ATOM     33  C   UNL     1       0.291   8.241   6.921  1.00  0.00     0.026 C 
BRANCH  33  34
ATOM     34  C   UNL     1       0.119   6.961   6.101  1.00  0.00     0.146 C 
BRANCH  34  35
ATOM     35  N   UNL     1       0.616   7.196   4.753  1.00  0.00    -0.254 NA
ATOM     36  C   UNL     1       0.641   6.217   3.927  1.00  0.00     0.185 C 
ATOM     37  N   UNL     1       1.093   6.424   2.681  1.00  0.00    -0.370 N 
ATOM     38  N   UNL     1       0.265   4.940   4.120  1.00  0.00    -0.370 N 
ATOM     39  H   UNL     1       1.386   7.365   2.454  1.00  0.00     0.159 HD
ATOM     40  H   UNL     1       0.983   5.761   1.932  1.00  0.00     0.159 HD
ATOM     41  H   UNL     1       0.463   4.230   3.435  1.00  0.00     0.159 HD
ATOM     42  H   UNL     1      -0.081   4.638   5.017  1.00  0.00     0.159 HD
ENDBRANCH  34  35
ENDBRANCH  33  34
ENDBRANCH  32  33
ENDBRANCH   6  32
ENDBRANCH   4   6
ENDBRANCH   1   2
BRANCH   1  43
ATOM     43  C   UNL     1       6.201   7.157   4.678  1.00  0.00     0.102 C 
ATOM     44  C   UNL     1       7.348   8.004   4.102  1.00  0.00     0.020 C 
BRANCH  43  45
ATOM     45  C   UNL     1       4.838   7.440   4.039  1.00  0.00     0.225 C 
ATOM     46  O   UNL     1       3.928   6.616   4.007  1.00  0.00    -0.275 OA
ATOM     47  N   UNL     1       4.721   8.658   3.409  1.00  0.00    -0.342 N 
ATOM     48  H   UNL     1       5.413   9.375   3.573  1.00  0.00     0.164 HD
BRANCH  47  49
ATOM     49  C   UNL     1       3.463   9.079   2.785  1.00  0.00     0.192 C 
BRANCH  49  50
ATOM     50  C   UNL     1       3.661   9.223   1.274  1.00  0.00     0.047 C 
BRANCH  50  51
ATOM     51  C   UNL     1       3.848   7.867   0.580  1.00  0.00     0.103 C 
BRANCH  51  52
ATOM     52  C   UNL     1       3.423   7.910  -0.887  1.00  0.00     0.226 C 
ATOM     53  O   UNL     1       3.496   8.970  -1.512  1.00  0.00    -0.275 OA
BRANCH  52  54
ATOM     54  N   UNL     1       3.038   6.686  -1.464  1.00  0.00    -0.311 N 
ATOM     55  C   UNL     1       4.032   5.652  -1.780  1.00  0.00     0.153 C 
BRANCH  54  56
ATOM     56  C   UNL     1       1.692   6.405  -1.755  1.00  0.00     0.102 C 
ATOM     57  C   UNL     1       0.868   5.696  -0.966  1.00  0.00     0.043 C 
BRANCH  56  58
ATOM     58  C   UNL     1       1.041   6.942  -3.007  1.00  0.00     0.268 C 
ATOM     59  O   UNL     1      -0.039   7.517  -3.006  1.00  0.00    -0.268 OA
ATOM     60  N   UNL     1       1.814   6.778  -4.132  1.00  0.00    -0.339 N 
ATOM     61  H   UNL     1       2.693   6.281  -4.050  1.00  0.00     0.164 HD
BRANCH  60  62
ATOM     62  C   UNL     1       1.402   7.281  -5.441  1.00  0.00     0.168 CG0
ATOM     63  C   UNL     1       2.416   8.277  -5.988  1.00  0.00     0.041 C 
ATOM     64  G   UNL     1       0.006   7.928  -5.330  1.00  0.00     0.000 G0
ENDBRANCH  60  62
ENDBRANCH  56  58
ENDBRANCH  54  56
ENDBRANCH  52  54
ENDBRANCH  51  52
ENDBRANCH  50  51
ENDBRANCH  49  50
BRANCH  49  65
ATOM     65  C   UNL     1       2.963  10.413   3.362  1.00  0.00     0.326 C 
ATOM     66  O   UNL     1       2.147  10.536   4.264  1.00  0.00    -0.250 OA
BRANCH  65  67
ATOM     67  O   UNL     1       3.455  11.512   2.749  1.00  0.00    -0.480 OA
ATOM     68  H   UNL     1       4.068  11.146   2.074  1.00  0.00     0.296 HD
ENDBRANCH  65  67
ENDBRANCH  49  65
ENDBRANCH  47  49
ENDBRANCH  43  45
ENDBRANCH   1  43
BRANCH   1  69
ATOM     69  C   UNL     1       6.896   6.195   7.044  1.00  0.00    -0.001 C 
ATOM     70  C   UNL     1       7.750   5.264   6.585  1.00  0.00     0.001 C 
BRANCH  70  71
ATOM     71  C   UNL     1       8.518   4.305   7.383  1.00  0.00    -0.055 C 
ATOM     72  C   UNL     1       8.344   2.992   7.123  1.00  0.00    -0.018 C 
ATOM     73  C   UNL     1       9.453   4.852   8.429  1.00  0.00     0.044 C 
BRANCH  72  74
ATOM     74  C   UNL     1       8.999   1.785   7.780  1.00  0.00     0.038 C 
ATOM     75  C   UNL     1      10.503   1.875   7.493  1.00  0.00     0.015 C 
BRANCH  74  76
ATOM     76  C   UNL     1       8.310   0.492   7.254  1.00  0.00     0.128 C 
BRANCH  76  77
ATOM     77  O   UNL     1       7.623  -0.170   8.329  1.00  0.00    -0.381 OA
ATOM     78  C   UNL     1       8.424  -1.121   9.018  1.00  0.00     0.195 C 
ENDBRANCH  76  77
BRANCH  76  79
ATOM     79  C   UNL     1       7.406   0.720   6.016  1.00  0.00     0.068 C 
BRANCH  79  80
ATOM     80  C   UNL     1       6.540  -0.426   5.552  1.00  0.00    -0.045 A 
ATOM     81  C   UNL     1       5.157  -0.423   5.780  1.00  0.00     0.004 A 
ATOM     82  C   UNL     1       7.115  -1.532   4.908  1.00  0.00     0.004 A 
ATOM     83  C   UNL     1       4.364  -1.494   5.360  1.00  0.00     0.000 A 
ATOM     84  C   UNL     1       6.321  -2.602   4.490  1.00  0.00     0.000 A 
ATOM     85  C   UNL     1       4.946  -2.582   4.714  1.00  0.00     0.000 A 
ENDBRANCH  79  80
ENDBRANCH  76  79
ENDBRANCH  74  76
ENDBRANCH  72  74
ENDBRANCH  70  71
ENDBRANCH   1  69
TORSDOF 17
ENDMDL
MODEL 14
REMARK VINA RESULT:    -5.451      2.133      3.674
REMARK INTER + INTRA:         -25.344
REMARK INTER:                 -18.844
REMARK INTRA:                  -6.500
REMARK UNBOUND:                -9.057
REMARK SMILES C=C1C(=O)N[C@H](C)C(=O)N[C@@H](CC(C)C)C(=O)N[C@@H](C(=O)O)[C@H](C)C(=O)N[C@@H](CCCN=C(N)N)C(=O)N[C@@H](/C=C/C(C)=C/[C@H](C)[C@H](Cc2ccccc2)OC)[C@H](C)C(=O)N[C@@H](C(=O)O)CCC(=O)N1C
REMARK SMILES IDX 39 1 38 2 37 3 36 4 28 6 27 7 25 8 26 9 23 11 24 12 19 13
REMARK SMILES IDX 18 14 16 15 17 16 11 18 10 19 8 20 9 21 12 24 13 25 14 26
REMARK SMILES IDX 15 27 20 28 21 29 22 30 29 32 30 33 31 34 32 35 33 36 34 37
REMARK SMILES IDX 35 38 57 43 58 44 59 45 60 46 61 47 62 49 66 50 67 51 68 52
REMARK SMILES IDX 69 53 70 54 71 55 2 56 1 57 3 58 4 59 5 60 6 62 7 63 63 65
REMARK SMILES IDX 64 66 65 67 40 69 41 70 42 71 44 72 43 73 45 74 46 75 47 76
REMARK SMILES IDX 55 77 56 78 48 79 49 80 50 81 54 82 51 83 53 84 52 85
REMARK H PARENT 38 5 27 10 18 17 10 22 22 31 34 39 34 40 35 41 35 42 61 48
REMARK H PARENT 5 61 65 68
REMARK Flexibility Score:  369.900
ROOT
ATOM      1  C   UNL     1       1.518  10.282   5.285  1.00  0.00     0.117 C 
ENDROOT
BRANCH   1   2
ATOM      2  N   UNL     1       2.166   9.393   6.250  1.00  0.00    -0.347 N 
ATOM      3  O   UNL     1       2.160  10.821   8.047  1.00  0.00    -0.273 OA
ATOM      4  C   UNL     1       2.353   9.702   7.583  1.00  0.00     0.243 C 
ATOM      5  H   UNL     1       2.458   8.473   5.956  1.00  0.00     0.164 HD
BRANCH   4   6
ATOM      6  C   UNL     1       2.986   8.553   8.407  1.00  0.00     0.171 C 
BRANCH   6   7
ATOM      7  N   UNL     1       2.431   8.530   9.770  1.00  0.00    -0.344 N 
ATOM      8  C   UNL     1       3.252   8.345  10.861  1.00  0.00     0.226 C 
ATOM      9  O   UNL     1       4.461   8.170  10.755  1.00  0.00    -0.275 OA
ATOM     10  H   UNL     1       1.429   8.604   9.893  1.00  0.00     0.164 HD
BRANCH   8  11
ATOM     11  C   UNL     1       2.537   8.401  12.199  1.00  0.00     0.109 C 
ATOM     12  C   UNL     1       3.233   9.398  13.126  1.00  0.00     0.021 C 
BRANCH  11  13
ATOM     13  C   UNL     1       1.034   8.663  11.977  1.00  0.00     0.204 C 
BRANCH  13  14
ATOM     14  N   UNL     1       0.201   7.964  12.960  1.00  0.00    -0.340 N 
ATOM     15  C   UNL     1      -0.798   7.085  12.603  1.00  0.00     0.243 C 
ATOM     16  O   UNL     1      -1.021   6.777  11.434  1.00  0.00    -0.273 OA
ATOM     17  H   UNL     1       0.231   8.286  13.931  1.00  0.00     0.164 HD
BRANCH  15  18
ATOM     18  C   UNL     1      -1.677   6.631  13.795  1.00  0.00     0.171 C 
BRANCH  18  19
ATOM     19  N   UNL     1      -1.077   7.202  14.999  1.00  0.00    -0.343 N 
ATOM     20  C   UNL     1      -0.822   6.435  16.119  1.00  0.00     0.242 CG0
ATOM     21  O   UNL     1      -1.208   5.272  16.205  1.00  0.00    -0.273 OA
ATOM     22  H   UNL     1      -0.845   8.188  15.019  1.00  0.00     0.164 HD
ATOM     23  G   UNL     1      -0.114   7.193  17.261  1.00  0.00     0.000 G0
ENDBRANCH  18  19
BRANCH  18  24
ATOM     24  C   UNL     1      -3.125   7.104  13.610  1.00  0.00     0.038 C 
BRANCH  24  25
ATOM     25  C   UNL     1      -3.503   8.357  14.428  1.00  0.00    -0.015 C 
ATOM     26  C   UNL     1      -4.919   8.279  14.997  1.00  0.00     0.007 C 
ATOM     27  C   UNL     1      -3.368   9.604  13.550  1.00  0.00     0.007 C 
ENDBRANCH  24  25
ENDBRANCH  18  24
ENDBRANCH  15  18
ENDBRANCH  13  14
BRANCH  13  28
ATOM     28  C   UNL     1       0.664  10.148  12.042  1.00  0.00     0.327 C 
ATOM     29  O   UNL     1       1.011  11.015  11.254  1.00  0.00    -0.250 OA
BRANCH  28  30
ATOM     30  O   UNL     1      -0.020  10.474  13.158  1.00  0.00    -0.480 OA
ATOM     31  H   UNL     1      -0.960  10.414  12.890  1.00  0.00     0.296 HD
ENDBRANCH  28  30
ENDBRANCH  13  28
ENDBRANCH  11  13
ENDBRANCH   8  11
ENDBRANCH   6   7
BRANCH   6  32
ATOM     32  C   UNL     1       2.734   7.221   7.691  1.00  0.00     0.037 C 
BRANCH  32  33
ATOM     33  C   UNL     1       3.903   6.242   7.860  1.00  0.00     0.026 C 
BRANCH  33  34
ATOM     34  C   UNL     1       3.444   4.855   8.314  1.00  0.00     0.146 C 
BRANCH  34  35
ATOM     35  N   UNL     1       3.680   4.728   9.745  1.00  0.00    -0.254 NA
ATOM     36  C   UNL     1       2.701   4.920  10.549  1.00  0.00     0.185 C 
ATOM     37  N   UNL     1       2.906   4.801  11.869  1.00  0.00    -0.370 N 
ATOM     38  N   UNL     1       1.426   5.241  10.265  1.00  0.00    -0.370 N 
ATOM     39  H   UNL     1       3.841   4.550  12.163  1.00  0.00     0.159 HD
ATOM     40  H   UNL     1       2.163   4.764  12.546  1.00  0.00     0.159 HD
ATOM     41  H   UNL     1       0.781   5.503  10.992  1.00  0.00     0.159 HD
ATOM     42  H   UNL     1       1.132   5.380   9.311  1.00  0.00     0.159 HD
ENDBRANCH  34  35
ENDBRANCH  33  34
ENDBRANCH  32  33
ENDBRANCH   6  32
ENDBRANCH   4   6
ENDBRANCH   1   2
BRANCH   1  43
ATOM     43  C   UNL     1       0.427   9.475   4.524  1.00  0.00     0.102 C 
ATOM     44  C   UNL     1      -0.946   9.498   5.217  1.00  0.00     0.020 C 
BRANCH  43  45
ATOM     45  C   UNL     1       0.925   8.069   4.176  1.00  0.00     0.225 C 
ATOM     46  O   UNL     1       0.843   7.119   4.949  1.00  0.00    -0.275 OA
ATOM     47  N   UNL     1       1.564   7.950   2.963  1.00  0.00    -0.342 N 
ATOM     48  H   UNL     1       1.488   8.693   2.283  1.00  0.00     0.164 HD
BRANCH  47  49
ATOM     49  C   UNL     1       2.061   6.657   2.483  1.00  0.00     0.192 C 
BRANCH  49  50
ATOM     50  C   UNL     1       2.721   6.837   1.114  1.00  0.00     0.047 C 
BRANCH  50  51
ATOM     51  C   UNL     1       2.197   5.832   0.079  1.00  0.00     0.103 C 
BRANCH  51  52
ATOM     52  C   UNL     1       2.892   5.985  -1.272  1.00  0.00     0.226 C 
ATOM     53  O   UNL     1       3.913   5.336  -1.510  1.00  0.00    -0.275 OA
BRANCH  52  54
ATOM     54  N   UNL     1       2.262   6.824  -2.210  1.00  0.00    -0.311 N 
ATOM     55  C   UNL     1       0.815   6.742  -2.446  1.00  0.00     0.153 C 
BRANCH  54  56
ATOM     56  C   UNL     1       2.989   7.772  -2.949  1.00  0.00     0.102 C 
ATOM     57  C   UNL     1       3.865   8.646  -2.427  1.00  0.00     0.043 C 
BRANCH  56  58
ATOM     58  C   UNL     1       2.863   7.845  -4.453  1.00  0.00     0.268 C 
ATOM     59  O   UNL     1       1.869   8.278  -5.021  1.00  0.00    -0.268 OA
ATOM     60  N   UNL     1       3.999   7.440  -5.111  1.00  0.00    -0.339 N 
ATOM     61  H   UNL     1       4.777   7.085  -4.567  1.00  0.00     0.164 HD
BRANCH  60  62
ATOM     62  C   UNL     1       4.115   7.489  -6.568  1.00  0.00     0.168 CG0
ATOM     63  C   UNL     1       4.736   6.208  -7.111  1.00  0.00     0.041 C 
ATOM     64  G   UNL     1       4.953   8.718  -6.978  1.00  0.00     0.000 G0
ENDBRANCH  60  62
ENDBRANCH  56  58
ENDBRANCH  54  56
ENDBRANCH  52  54
ENDBRANCH  51  52
ENDBRANCH  50  51
ENDBRANCH  49  50
BRANCH  49  65
ATOM     65  C   UNL     1       0.931   5.622   2.371  1.00  0.00     0.326 C 
ATOM     66  O   UNL     1       0.930   4.513   2.886  1.00  0.00    -0.250 OA
BRANCH  65  67
ATOM     67  O   UNL     1      -0.101   5.996   1.582  1.00  0.00    -0.480 OA
ATOM     68  H   UNL     1       0.330   6.223   0.731  1.00  0.00     0.296 HD
ENDBRANCH  65  67
ENDBRANCH  49  65
ENDBRANCH  47  49
ENDBRANCH  43  45
ENDBRANCH   1  43
BRANCH   1  69
ATOM     69  C   UNL     1       2.636  10.934   4.492  1.00  0.00    -0.001 C 
ATOM     70  C   UNL     1       2.532  11.591   3.323  1.00  0.00     0.001 C 
BRANCH  70  71
ATOM     71  C   UNL     1       3.615  12.235   2.577  1.00  0.00    -0.055 C 
ATOM     72  C   UNL     1       4.299  11.483   1.689  1.00  0.00    -0.018 C 
ATOM     73  C   UNL     1       3.885  13.692   2.848  1.00  0.00     0.044 C 
BRANCH  72  74
ATOM     74  C   UNL     1       5.455  11.878   0.782  1.00  0.00     0.038 C 
ATOM     75  C   UNL     1       5.021  11.585  -0.659  1.00  0.00     0.015 C 
BRANCH  74  76
ATOM     76  C   UNL     1       6.735  11.122   1.245  1.00  0.00     0.128 C 
BRANCH  76  77
ATOM     77  O   UNL     1       7.128  11.575   2.552  1.00  0.00    -0.381 OA
ATOM     78  C   UNL     1       8.475  12.021   2.621  1.00  0.00     0.195 C 
ENDBRANCH  76  77
BRANCH  76  79
ATOM     79  C   UNL     1       6.623   9.579   1.155  1.00  0.00     0.068 C 
BRANCH  79  80
ATOM     80  C   UNL     1       6.544   8.799   2.445  1.00  0.00    -0.045 A 
ATOM     81  C   UNL     1       7.701   8.299   3.058  1.00  0.00     0.004 A 
ATOM     82  C   UNL     1       5.300   8.537   3.038  1.00  0.00     0.004 A 
ATOM     83  C   UNL     1       7.618   7.566   4.244  1.00  0.00     0.000 A 
ATOM     84  C   UNL     1       5.219   7.803   4.223  1.00  0.00     0.000 A 
ATOM     85  C   UNL     1       6.377   7.320   4.827  1.00  0.00     0.000 A 
ENDBRANCH  79  80
ENDBRANCH  76  79
ENDBRANCH  74  76
ENDBRANCH  72  74
ENDBRANCH  70  71
ENDBRANCH   1  69
TORSDOF 17
ENDMDL
MODEL 15
REMARK VINA RESULT:    -5.448      1.589      2.035
REMARK INTER + INTRA:         -25.333
REMARK INTER:                 -17.860
REMARK INTRA:                  -7.473
REMARK UNBOUND:                -9.057
REMARK SMILES C=C1C(=O)N[C@H](C)C(=O)N[C@@H](CC(C)C)C(=O)N[C@@H](C(=O)O)[C@H](C)C(=O)N[C@@H](CCCN=C(N)N)C(=O)N[C@@H](/C=C/C(C)=C/[C@H](C)[C@H](Cc2ccccc2)OC)[C@H](C)C(=O)N[C@@H](C(=O)O)CCC(=O)N1C
REMARK SMILES IDX 39 1 38 2 37 3 36 4 28 6 27 7 25 8 26 9 23 11 24 12 19 13
REMARK SMILES IDX 18 14 16 15 17 16 11 18 10 19 8 20 9 21 12 24 13 25 14 26
REMARK SMILES IDX 15 27 20 28 21 29 22 30 29 32 30 33 31 34 32 35 33 36 34 37
REMARK SMILES IDX 35 38 57 43 58 44 59 45 60 46 61 47 62 49 66 50 67 51 68 52
REMARK SMILES IDX 69 53 70 54 71 55 2 56 1 57 3 58 4 59 5 60 6 62 7 63 63 65
REMARK SMILES IDX 64 66 65 67 40 69 41 70 42 71 44 72 43 73 45 74 46 75 47 76
REMARK SMILES IDX 55 77 56 78 48 79 49 80 50 81 54 82 51 83 53 84 52 85
REMARK H PARENT 38 5 27 10 18 17 10 22 22 31 34 39 34 40 35 41 35 42 61 48
REMARK H PARENT 5 61 65 68
REMARK Flexibility Score:  369.900
ROOT
ATOM      1  C   UNL     1       1.516  11.289   4.476  1.00  0.00     0.117 C 
ENDROOT
BRANCH   1   2
ATOM      2  N   UNL     1       1.861  11.269   5.898  1.00  0.00    -0.347 N 
ATOM      3  O   UNL     1       1.852  13.537   6.254  1.00  0.00    -0.273 OA
ATOM      4  C   UNL     1       1.911  12.395   6.697  1.00  0.00     0.243 C 
ATOM      5  H   UNL     1       2.027  10.385   6.354  1.00  0.00     0.164 HD
BRANCH   4   6
ATOM      6  C   UNL     1       2.216  12.089   8.186  1.00  0.00     0.171 C 
BRANCH   6   7
ATOM      7  N   UNL     1       2.740  10.722   8.333  1.00  0.00    -0.344 N 
ATOM      8  C   UNL     1       2.452   9.977   9.456  1.00  0.00     0.226 C 
ATOM      9  O   UNL     1       1.777  10.411  10.382  1.00  0.00    -0.275 OA
ATOM     10  H   UNL     1       3.357  10.354   7.621  1.00  0.00     0.164 HD
BRANCH   8  11
ATOM     11  C   UNL     1       3.020   8.568   9.434  1.00  0.00     0.109 C 
ATOM     12  C   UNL     1       4.031   8.391  10.567  1.00  0.00     0.021 C 
BRANCH  11  13
ATOM     13  C   UNL     1       1.869   7.542   9.426  1.00  0.00     0.204 C 
BRANCH  13  14
ATOM     14  N   UNL     1       0.932   7.755  10.533  1.00  0.00    -0.340 N 
ATOM     15  C   UNL     1       0.053   6.786  10.966  1.00  0.00     0.243 C 
ATOM     16  O   UNL     1       0.036   5.651  10.493  1.00  0.00    -0.273 OA
ATOM     17  H   UNL     1       0.790   8.713  10.864  1.00  0.00     0.164 HD
BRANCH  15  18
ATOM     18  C   UNL     1      -0.977   7.303  12.001  1.00  0.00     0.171 C 
BRANCH  18  19
ATOM     19  N   UNL     1      -0.253   7.482  13.258  1.00  0.00    -0.343 N 
ATOM     20  C   UNL     1      -0.598   6.789  14.402  1.00  0.00     0.242 CG0
ATOM     21  O   UNL     1      -1.609   6.092  14.452  1.00  0.00    -0.273 OA
ATOM     22  H   UNL     1       0.521   8.136  13.298  1.00  0.00     0.164 HD
ATOM     23  G   UNL     1       0.328   7.049  15.608  1.00  0.00     0.000 G0
ENDBRANCH  18  19
BRANCH  18  24
ATOM     24  C   UNL     1      -1.610   8.617  11.525  1.00  0.00     0.038 C 
BRANCH  24  25
ATOM     25  C   UNL     1      -1.966   9.606  12.655  1.00  0.00    -0.015 C 
ATOM     26  C   UNL     1      -3.476   9.777  12.827  1.00  0.00     0.007 C 
ATOM     27  C   UNL     1      -1.323  10.966  12.370  1.00  0.00     0.007 C 
ENDBRANCH  24  25
ENDBRANCH  18  24
ENDBRANCH  15  18
ENDBRANCH  13  14
BRANCH  13  28
ATOM     28  C   UNL     1       1.053   7.561   8.130  1.00  0.00     0.327 C 
ATOM     29  O   UNL     1       0.035   8.204   7.926  1.00  0.00    -0.250 OA
BRANCH  28  30
ATOM     30  O   UNL     1       1.500   6.681   7.211  1.00  0.00    -0.480 OA
ATOM     31  H   UNL     1       0.702   6.448   6.692  1.00  0.00     0.296 HD
ENDBRANCH  28  30
ENDBRANCH  13  28
ENDBRANCH  11  13
ENDBRANCH   8  11
ENDBRANCH   6   7
BRANCH   6  32
ATOM     32  C   UNL     1       3.218  13.120   8.717  1.00  0.00     0.037 C 
BRANCH  32  33
ATOM     33  C   UNL     1       4.658  12.799   8.294  1.00  0.00     0.026 C 
BRANCH  33  34
ATOM     34  C   UNL     1       5.615  13.966   8.543  1.00  0.00     0.146 C 
BRANCH  34  35
ATOM     35  N   UNL     1       6.506  14.096   7.399  1.00  0.00    -0.254 NA
ATOM     36  C   UNL     1       7.691  13.616   7.484  1.00  0.00     0.185 C 
ATOM     37  N   UNL     1       8.518  13.726   6.434  1.00  0.00    -0.370 N 
ATOM     38  N   UNL     1       8.272  12.981   8.518  1.00  0.00    -0.370 N 
ATOM     39  H   UNL     1       8.149  14.184   5.610  1.00  0.00     0.159 HD
ATOM     40  H   UNL     1       9.389  13.229   6.358  1.00  0.00     0.159 HD
ATOM     41  H   UNL     1       9.257  12.773   8.513  1.00  0.00     0.159 HD
ATOM     42  H   UNL     1       7.771  12.842   9.381  1.00  0.00     0.159 HD
ENDBRANCH  34  35
ENDBRANCH  33  34
ENDBRANCH  32  33
ENDBRANCH   6  32
ENDBRANCH   4   6
ENDBRANCH   1   2
BRANCH   1  43
ATOM     43  C   UNL     1       0.429  10.207   4.215  1.00  0.00     0.102 C 
ATOM     44  C   UNL     1      -0.849  10.411   5.047  1.00  0.00     0.020 C 
BRANCH  43  45
ATOM     45  C   UNL     1       1.019   8.798   4.317  1.00  0.00     0.225 C 
ATOM     46  O   UNL     1       1.891   8.493   5.126  1.00  0.00    -0.275 OA
ATOM     47  N   UNL     1       0.576   7.900   3.373  1.00  0.00    -0.342 N 
ATOM     48  H   UNL     1      -0.242   8.117   2.821  1.00  0.00     0.164 HD
BRANCH  47  49
ATOM     49  C   UNL     1       1.027   6.505   3.371  1.00  0.00     0.192 C 
BRANCH  49  50
ATOM     50  C   UNL     1       0.832   5.903   1.977  1.00  0.00     0.047 C 
BRANCH  50  51
ATOM     51  C   UNL     1       1.922   6.347   0.993  1.00  0.00     0.103 C 
BRANCH  51  52
ATOM     52  C   UNL     1       1.762   5.691  -0.376  1.00  0.00     0.226 C 
ATOM     53  O   UNL     1       0.886   4.840  -0.546  1.00  0.00    -0.275 OA
BRANCH  52  54
ATOM     54  N   UNL     1       2.598   6.168  -1.402  1.00  0.00    -0.311 N 
ATOM     55  C   UNL     1       4.059   6.053  -1.302  1.00  0.00     0.153 C 
BRANCH  54  56
ATOM     56  C   UNL     1       2.071   6.764  -2.560  1.00  0.00     0.102 C 
ATOM     57  C   UNL     1       0.769   6.779  -2.892  1.00  0.00     0.043 C 
BRANCH  56  58
ATOM     58  C   UNL     1       2.965   7.501  -3.529  1.00  0.00     0.268 C 
ATOM     59  O   UNL     1       3.340   8.652  -3.351  1.00  0.00    -0.268 OA
ATOM     60  N   UNL     1       3.366   6.725  -4.590  1.00  0.00    -0.339 N 
ATOM     61  H   UNL     1       3.002   5.783  -4.670  1.00  0.00     0.164 HD
BRANCH  60  62
ATOM     62  C   UNL     1       4.285   7.221  -5.614  1.00  0.00     0.168 CG0
ATOM     63  C   UNL     1       4.426   6.219  -6.754  1.00  0.00     0.041 C 
ATOM     64  G   UNL     1       5.658   7.519  -4.976  1.00  0.00     0.000 G0
ENDBRANCH  60  62
ENDBRANCH  56  58
ENDBRANCH  54  56
ENDBRANCH  52  54
ENDBRANCH  51  52
ENDBRANCH  50  51
ENDBRANCH  49  50
BRANCH  49  65
ATOM     65  C   UNL     1       0.262   5.660   4.402  1.00  0.00     0.326 C 
ATOM     66  O   UNL     1       0.276   4.440   4.472  1.00  0.00    -0.250 OA
BRANCH  65  67
ATOM     67  O   UNL     1      -0.520   6.371   5.244  1.00  0.00    -0.480 OA
ATOM     68  H   UNL     1      -0.213   7.295   5.121  1.00  0.00     0.296 HD
ENDBRANCH  65  67
ENDBRANCH  49  65
ENDBRANCH  47  49
ENDBRANCH  43  45
ENDBRANCH   1  43
BRANCH   1  69
ATOM     69  C   UNL     1       2.830  11.206   3.720  1.00  0.00    -0.001 C 
ATOM     70  C   UNL     1       3.311  12.080   2.820  1.00  0.00     0.001 C 
BRANCH  70  71
ATOM     71  C   UNL     1       4.591  12.000   2.112  1.00  0.00    -0.055 C 
ATOM     72  C   UNL     1       4.564  11.689   0.799  1.00  0.00    -0.018 C 
ATOM     73  C   UNL     1       5.846  12.278   2.898  1.00  0.00     0.044 C 
BRANCH  72  74
ATOM     74  C   UNL     1       5.720  11.540  -0.179  1.00  0.00     0.038 C 
ATOM     75  C   UNL     1       5.532  12.604  -1.268  1.00  0.00     0.015 C 
BRANCH  74  76
ATOM     76  C   UNL     1       5.751  10.072  -0.699  1.00  0.00     0.128 C 
BRANCH  76  77
ATOM     77  O   UNL     1       6.067  10.054  -2.101  1.00  0.00    -0.381 OA
ATOM     78  C   UNL     1       7.274   9.368  -2.405  1.00  0.00     0.195 C 
ENDBRANCH  76  77
BRANCH  76  79
ATOM     79  C   UNL     1       6.656   9.129   0.133  1.00  0.00     0.068 C 
BRANCH  79  80
ATOM     80  C   UNL     1       6.192   8.740   1.515  1.00  0.00    -0.045 A 
ATOM     81  C   UNL     1       7.060   8.803   2.613  1.00  0.00     0.004 A 
ATOM     82  C   UNL     1       4.882   8.279   1.717  1.00  0.00     0.004 A 
ATOM     83  C   UNL     1       6.626   8.428   3.886  1.00  0.00     0.000 A 
ATOM     84  C   UNL     1       4.450   7.903   2.991  1.00  0.00     0.000 A 
ATOM     85  C   UNL     1       5.321   7.979   4.075  1.00  0.00     0.000 A 
ENDBRANCH  79  80
ENDBRANCH  76  79
ENDBRANCH  74  76
ENDBRANCH  72  74
ENDBRANCH  70  71
ENDBRANCH   1  69
TORSDOF 17
ENDMDL
MODEL 16
REMARK VINA RESULT:    -5.425      3.236     12.333
REMARK INTER + INTRA:         -25.266
REMARK INTER:                 -18.694
REMARK INTRA:                  -6.572
REMARK UNBOUND:                -9.057
REMARK SMILES C=C1C(=O)N[C@H](C)C(=O)N[C@@H](CC(C)C)C(=O)N[C@@H](C(=O)O)[C@H](C)C(=O)N[C@@H](CCCN=C(N)N)C(=O)N[C@@H](/C=C/C(C)=C/[C@H](C)[C@H](Cc2ccccc2)OC)[C@H](C)C(=O)N[C@@H](C(=O)O)CCC(=O)N1C
REMARK SMILES IDX 39 1 38 2 37 3 36 4 28 6 27 7 25 8 26 9 23 11 24 12 19 13
REMARK SMILES IDX 18 14 16 15 17 16 11 18 10 19 8 20 9 21 12 24 13 25 14 26
REMARK SMILES IDX 15 27 20 28 21 29 22 30 29 32 30 33 31 34 32 35 33 36 34 37
REMARK SMILES IDX 35 38 57 43 58 44 59 45 60 46 61 47 62 49 66 50 67 51 68 52
REMARK SMILES IDX 69 53 70 54 71 55 2 56 1 57 3 58 4 59 5 60 6 62 7 63 63 65
REMARK SMILES IDX 64 66 65 67 40 69 41 70 42 71 44 72 43 73 45 74 46 75 47 76
REMARK SMILES IDX 55 77 56 78 48 79 49 80 50 81 54 82 51 83 53 84 52 85
REMARK H PARENT 38 5 27 10 18 17 10 22 22 31 34 39 34 40 35 41 35 42 61 48
REMARK H PARENT 5 61 65 68
REMARK Flexibility Score:  369.900
ROOT
ATOM      1  C   UNL     1       2.650   6.432   3.413  1.00  0.00     0.117 C 
ENDROOT
BRANCH   1   2
ATOM      2  N   UNL     1       3.248   7.220   2.334  1.00  0.00    -0.347 N 
ATOM      3  O   UNL     1       2.410   6.017   0.567  1.00  0.00    -0.273 OA
ATOM      4  C   UNL     1       3.004   7.003   0.992  1.00  0.00     0.243 C 
ATOM      5  H   UNL     1       3.838   8.005   2.564  1.00  0.00     0.164 HD
BRANCH   4   6
ATOM      6  C   UNL     1       3.692   8.032   0.059  1.00  0.00     0.171 C 
BRANCH   6   7
ATOM      7  N   UNL     1       4.420   9.037   0.851  1.00  0.00    -0.344 N 
ATOM      8  C   UNL     1       4.366  10.372   0.512  1.00  0.00     0.226 C 
ATOM      9  O   UNL     1       3.741  10.782  -0.460  1.00  0.00    -0.275 OA
ATOM     10  H   UNL     1       5.001   8.729   1.620  1.00  0.00     0.164 HD
BRANCH   8  11
ATOM     11  C   UNL     1       5.123  11.288   1.456  1.00  0.00     0.109 C 
ATOM     12  C   UNL     1       5.531  10.524   2.716  1.00  0.00     0.021 C 
BRANCH  11  13
ATOM     13  C   UNL     1       6.286  11.967   0.705  1.00  0.00     0.204 C 
BRANCH  13  14
ATOM     14  N   UNL     1       6.709  11.195  -0.468  1.00  0.00    -0.340 N 
ATOM     15  C   UNL     1       7.762  10.307  -0.440  1.00  0.00     0.243 C 
ATOM     16  O   UNL     1       8.384  10.053   0.590  1.00  0.00    -0.273 OA
ATOM     17  H   UNL     1       6.337  11.468  -1.382  1.00  0.00     0.164 HD
BRANCH  15  18
ATOM     18  C   UNL     1       8.156   9.769  -1.837  1.00  0.00     0.171 C 
BRANCH  18  19
ATOM     19  N   UNL     1       9.329  10.530  -2.264  1.00  0.00    -0.343 N 
ATOM     20  C   UNL     1       9.221  11.812  -2.768  1.00  0.00     0.242 CG0
ATOM     21  O   UNL     1       8.128  12.321  -3.005  1.00  0.00    -0.273 OA
ATOM     22  H   UNL     1      10.248  10.108  -2.195  1.00  0.00     0.164 HD
ATOM     23  G   UNL     1      10.572  12.485  -3.090  1.00  0.00     0.000 G0
ENDBRANCH  18  19
BRANCH  18  24
ATOM     24  C   UNL     1       8.454   8.266  -1.775  1.00  0.00     0.038 C 
BRANCH  24  25
ATOM     25  C   UNL     1       9.955   7.907  -1.748  1.00  0.00    -0.015 C 
ATOM     26  C   UNL     1      10.399   7.153  -3.002  1.00  0.00     0.007 C 
ATOM     27  C   UNL     1      10.262   7.067  -0.506  1.00  0.00     0.007 C 
ENDBRANCH  24  25
ENDBRANCH  18  24
ENDBRANCH  15  18
ENDBRANCH  13  14
BRANCH  13  28
ATOM     28  C   UNL     1       5.949  13.380   0.221  1.00  0.00     0.327 C 
ATOM     29  O   UNL     1       5.171  14.159   0.750  1.00  0.00    -0.250 OA
BRANCH  28  30
ATOM     30  O   UNL     1       6.519  13.684  -0.963  1.00  0.00    -0.480 OA
ATOM     31  H   UNL     1       5.786  14.058  -1.495  1.00  0.00     0.296 HD
ENDBRANCH  28  30
ENDBRANCH  13  28
ENDBRANCH  11  13
ENDBRANCH   8  11
ENDBRANCH   6   7
BRANCH   6  32
ATOM     32  C   UNL     1       4.641   7.294  -0.892  1.00  0.00     0.037 C 
BRANCH  32  33
ATOM     33  C   UNL     1       4.530   7.808  -2.334  1.00  0.00     0.026 C 
BRANCH  33  34
ATOM     34  C   UNL     1       3.766   6.844  -3.243  1.00  0.00     0.146 C 
BRANCH  34  35
ATOM     35  N   UNL     1       2.655   7.557  -3.857  1.00  0.00    -0.254 NA
ATOM     36  C   UNL     1       2.793   7.998  -5.052  1.00  0.00     0.185 C 
ATOM     37  N   UNL     1       1.774   8.652  -5.630  1.00  0.00    -0.370 N 
ATOM     38  N   UNL     1       3.857   7.903  -5.869  1.00  0.00    -0.370 N 
ATOM     39  H   UNL     1       0.931   8.755  -5.080  1.00  0.00     0.159 HD
ATOM     40  H   UNL     1       1.739   8.872  -6.610  1.00  0.00     0.159 HD
ATOM     41  H   UNL     1       3.894   8.412  -6.737  1.00  0.00     0.159 HD
ATOM     42  H   UNL     1       4.703   7.449  -5.560  1.00  0.00     0.159 HD
ENDBRANCH  34  35
ENDBRANCH  33  34
ENDBRANCH  32  33
ENDBRANCH   6  32
ENDBRANCH   4   6
ENDBRANCH   1   2
BRANCH   1  43
ATOM     43  C   UNL     1       1.277   7.062   3.784  1.00  0.00     0.102 C 
ATOM     44  C   UNL     1       1.288   8.600   3.777  1.00  0.00     0.020 C 
BRANCH  43  45
ATOM     45  C   UNL     1       0.722   6.450   5.074  1.00  0.00     0.225 C 
ATOM     46  O   UNL     1      -0.208   5.648   5.090  1.00  0.00    -0.275 OA
ATOM     47  N   UNL     1       1.271   6.928   6.241  1.00  0.00    -0.342 N 
ATOM     48  H   UNL     1       2.127   7.465   6.208  1.00  0.00     0.164 HD
BRANCH  47  49
ATOM     49  C   UNL     1       0.863   6.409   7.550  1.00  0.00     0.192 C 
BRANCH  49  50
ATOM     50  C   UNL     1       0.213   7.527   8.367  1.00  0.00     0.047 C 
BRANCH  50  51
ATOM     51  C   UNL     1      -0.248   7.045   9.750  1.00  0.00     0.103 C 
BRANCH  51  52
ATOM     52  C   UNL     1       0.319   7.907  10.876  1.00  0.00     0.226 C 
ATOM     53  O   UNL     1       0.788   9.017  10.618  1.00  0.00    -0.275 OA
BRANCH  52  54
ATOM     54  N   UNL     1       0.197   7.393  12.180  1.00  0.00    -0.311 N 
ATOM     55  C   UNL     1       1.344   6.777  12.861  1.00  0.00     0.153 C 
BRANCH  54  56
ATOM     56  C   UNL     1      -1.019   7.454  12.881  1.00  0.00     0.102 C 
ATOM     57  C   UNL     1      -1.635   6.402  13.445  1.00  0.00     0.043 C 
BRANCH  56  58
ATOM     58  C   UNL     1      -1.725   8.773  13.095  1.00  0.00     0.268 C 
ATOM     59  O   UNL     1      -2.451   9.287  12.256  1.00  0.00    -0.268 OA
ATOM     60  N   UNL     1      -1.519   9.298  14.349  1.00  0.00    -0.339 N 
ATOM     61  H   UNL     1      -0.894   8.815  14.983  1.00  0.00     0.164 HD
BRANCH  60  62
ATOM     62  C   UNL     1      -2.159  10.537  14.789  1.00  0.00     0.168 CG0
ATOM     63  C   UNL     1      -1.226  11.728  14.611  1.00  0.00     0.041 C 
ATOM     64  G   UNL     1      -2.594  10.399  16.262  1.00  0.00     0.000 G0
ENDBRANCH  60  62
ENDBRANCH  56  58
ENDBRANCH  54  56
ENDBRANCH  52  54
ENDBRANCH  51  52
ENDBRANCH  50  51
ENDBRANCH  49  50
BRANCH  49  65
ATOM     65  C   UNL     1       2.057   5.836   8.330  1.00  0.00     0.326 C 
ATOM     66  O   UNL     1       2.064   4.778   8.942  1.00  0.00    -0.250 OA
BRANCH  65  67
ATOM     67  O   UNL     1       3.148   6.633   8.355  1.00  0.00    -0.480 OA
ATOM     68  H   UNL     1       3.837   6.069   8.768  1.00  0.00     0.296 HD
ENDBRANCH  65  67
ENDBRANCH  49  65
ENDBRANCH  47  49
ENDBRANCH  43  45
ENDBRANCH   1  43
BRANCH   1  69
ATOM     69  C   UNL     1       3.715   6.308   4.488  1.00  0.00    -0.001 C 
ATOM     70  C   UNL     1       4.648   7.217   4.822  1.00  0.00     0.001 C 
BRANCH  70  71
ATOM     71  C   UNL     1       5.657   7.095   5.876  1.00  0.00    -0.055 C 
ATOM     72  C   UNL     1       5.949   5.856   6.325  1.00  0.00    -0.018 C 
ATOM     73  C   UNL     1       6.304   8.359   6.378  1.00  0.00     0.044 C 
BRANCH  72  74
ATOM     74  C   UNL     1       6.942   5.429   7.396  1.00  0.00     0.038 C 
ATOM     75  C   UNL     1       8.294   5.220   6.702  1.00  0.00     0.015 C 
BRANCH  74  76
ATOM     76  C   UNL     1       6.383   4.173   8.127  1.00  0.00     0.128 C 
BRANCH  76  77
ATOM     77  O   UNL     1       6.151   4.474   9.513  1.00  0.00    -0.381 OA
ATOM     78  C   UNL     1       5.087   3.729  10.089  1.00  0.00     0.195 C 
ENDBRANCH  76  77
BRANCH  76  79
ATOM     79  C   UNL     1       5.148   3.541   7.436  1.00  0.00     0.068 C 
BRANCH  79  80
ATOM     80  C   UNL     1       5.366   2.319   6.577  1.00  0.00    -0.045 A 
ATOM     81  C   UNL     1       4.286   1.643   5.995  1.00  0.00     0.004 A 
ATOM     82  C   UNL     1       6.662   1.821   6.372  1.00  0.00     0.004 A 
ATOM     83  C   UNL     1       4.495   0.505   5.214  1.00  0.00     0.000 A 
ATOM     84  C   UNL     1       6.870   0.682   5.591  1.00  0.00     0.000 A 
ATOM     85  C   UNL     1       5.788   0.025   5.011  1.00  0.00     0.000 A 
ENDBRANCH  79  80
ENDBRANCH  76  79
ENDBRANCH  74  76
ENDBRANCH  72  74
ENDBRANCH  70  71
ENDBRANCH   1  69
TORSDOF 17
ENDMDL
MODEL 17
REMARK VINA RESULT:    -5.348      1.937      3.784
REMARK INTER + INTRA:         -25.035
REMARK INTER:                 -18.816
REMARK INTRA:                  -6.219
REMARK UNBOUND:                -9.057
REMARK SMILES C=C1C(=O)N[C@H](C)C(=O)N[C@@H](CC(C)C)C(=O)N[C@@H](C(=O)O)[C@H](C)C(=O)N[C@@H](CCCN=C(N)N)C(=O)N[C@@H](/C=C/C(C)=C/[C@H](C)[C@H](Cc2ccccc2)OC)[C@H](C)C(=O)N[C@@H](C(=O)O)CCC(=O)N1C
REMARK SMILES IDX 39 1 38 2 37 3 36 4 28 6 27 7 25 8 26 9 23 11 24 12 19 13
REMARK SMILES IDX 18 14 16 15 17 16 11 18 10 19 8 20 9 21 12 24 13 25 14 26
REMARK SMILES IDX 15 27 20 28 21 29 22 30 29 32 30 33 31 34 32 35 33 36 34 37
REMARK SMILES IDX 35 38 57 43 58 44 59 45 60 46 61 47 62 49 66 50 67 51 68 52
REMARK SMILES IDX 69 53 70 54 71 55 2 56 1 57 3 58 4 59 5 60 6 62 7 63 63 65
REMARK SMILES IDX 64 66 65 67 40 69 41 70 42 71 44 72 43 73 45 74 46 75 47 76
REMARK SMILES IDX 55 77 56 78 48 79 49 80 50 81 54 82 51 83 53 84 52 85
REMARK H PARENT 38 5 27 10 18 17 10 22 22 31 34 39 34 40 35 41 35 42 61 48
REMARK H PARENT 5 61 65 68
REMARK Flexibility Score:  369.900
ROOT
ATOM      1  C   UNL     1       1.907  10.470   4.846  1.00  0.00     0.117 C 
ENDROOT
BRANCH   1   2
ATOM      2  N   UNL     1       2.744  10.027   5.961  1.00  0.00    -0.347 N 
ATOM      3  O   UNL     1       1.819  11.353   7.591  1.00  0.00    -0.273 OA
ATOM      4  C   UNL     1       2.571  10.440   7.269  1.00  0.00     0.243 C 
ATOM      5  H   UNL     1       3.466   9.342   5.797  1.00  0.00     0.164 HD
BRANCH   4   6
ATOM      6  C   UNL     1       3.536   9.755   8.271  1.00  0.00     0.171 C 
BRANCH   6   7
ATOM      7  N   UNL     1       2.882   9.584   9.578  1.00  0.00    -0.344 N 
ATOM      8  C   UNL     1       3.209  10.399  10.640  1.00  0.00     0.226 C 
ATOM      9  O   UNL     1       4.060  11.277  10.560  1.00  0.00    -0.275 OA
ATOM     10  H   UNL     1       2.223   8.826   9.701  1.00  0.00     0.164 HD
BRANCH   8  11
ATOM     11  C   UNL     1       2.409  10.133  11.903  1.00  0.00     0.109 C 
ATOM     12  C   UNL     1       3.058  10.837  13.094  1.00  0.00     0.021 C 
BRANCH  11  13
ATOM     13  C   UNL     1       0.928  10.489  11.667  1.00  0.00     0.204 C 
BRANCH  13  14
ATOM     14  N   UNL     1       0.045   9.855  12.651  1.00  0.00    -0.340 N 
ATOM     15  C   UNL     1      -0.707   8.735  12.369  1.00  0.00     0.243 C 
ATOM     16  O   UNL     1      -0.644   8.151  11.288  1.00  0.00    -0.273 OA
ATOM     17  H   UNL     1      -0.168  10.371  13.508  1.00  0.00     0.164 HD
BRANCH  15  18
ATOM     18  C   UNL     1      -1.716   8.370  13.486  1.00  0.00     0.171 C 
BRANCH  18  19
ATOM     19  N   UNL     1      -3.024   8.843  13.039  1.00  0.00    -0.343 N 
ATOM     20  C   UNL     1      -3.935   9.403  13.914  1.00  0.00     0.242 CG0
ATOM     21  O   UNL     1      -3.741   9.409  15.128  1.00  0.00    -0.273 OA
ATOM     22  H   UNL     1      -3.278   8.754  12.062  1.00  0.00     0.164 HD
ATOM     23  G   UNL     1      -5.228   9.915  13.247  1.00  0.00     0.000 G0
ENDBRANCH  18  19
BRANCH  18  24
ATOM     24  C   UNL     1      -1.721   6.857  13.738  1.00  0.00     0.038 C 
BRANCH  24  25
ATOM     25  C   UNL     1      -0.873   6.402  14.945  1.00  0.00    -0.015 C 
ATOM     26  C   UNL     1      -1.606   5.391  15.827  1.00  0.00     0.007 C 
ATOM     27  C   UNL     1      -0.473   7.620  15.781  1.00  0.00     0.007 C 
ENDBRANCH  24  25
ENDBRANCH  18  24
ENDBRANCH  15  18
ENDBRANCH  13  14
BRANCH  13  28
ATOM     28  C   UNL     1       0.654  11.995  11.715  1.00  0.00     0.327 C 
ATOM     29  O   UNL     1       0.046  12.591  12.591  1.00  0.00    -0.250 OA
BRANCH  28  30
ATOM     30  O   UNL     1       1.058  12.642  10.603  1.00  0.00    -0.480 OA
ATOM     31  H   UNL     1       1.314  11.925   9.986  1.00  0.00     0.296 HD
ENDBRANCH  28  30
ENDBRANCH  13  28
ENDBRANCH  11  13
ENDBRANCH   8  11
ENDBRANCH   6   7
BRANCH   6  32
ATOM     32  C   UNL     1       3.980   8.404   7.699  1.00  0.00     0.037 C 
BRANCH  32  33
ATOM     33  C   UNL     1       4.062   7.317   8.780  1.00  0.00     0.026 C 
BRANCH  33  34
ATOM     34  C   UNL     1       3.012   6.222   8.588  1.00  0.00     0.146 C 
BRANCH  34  35
ATOM     35  N   UNL     1       1.714   6.737   9.002  1.00  0.00    -0.254 NA
ATOM     36  C   UNL     1       0.726   6.632   8.195  1.00  0.00     0.185 C 
ATOM     37  N   UNL     1      -0.476   7.099   8.568  1.00  0.00    -0.370 N 
ATOM     38  N   UNL     1       0.695   6.097   6.961  1.00  0.00    -0.370 N 
ATOM     39  H   UNL     1      -0.537   7.508   9.491  1.00  0.00     0.159 HD
ATOM     40  H   UNL     1      -1.328   6.901   8.072  1.00  0.00     0.159 HD
ATOM     41  H   UNL     1      -0.112   6.200   6.369  1.00  0.00     0.159 HD
ATOM     42  H   UNL     1       1.533   5.721   6.545  1.00  0.00     0.159 HD
ENDBRANCH  34  35
ENDBRANCH  33  34
ENDBRANCH  32  33
ENDBRANCH   6  32
ENDBRANCH   4   6
ENDBRANCH   1   2
BRANCH   1  43
ATOM     43  C   UNL     1       0.864   9.357   4.538  1.00  0.00     0.102 C 
ATOM     44  C   UNL     1      -0.273   9.281   5.571  1.00  0.00     0.020 C 
BRANCH  43  45
ATOM     45  C   UNL     1       1.553   8.015   4.273  1.00  0.00     0.225 C 
ATOM     46  O   UNL     1       2.482   7.591   4.955  1.00  0.00    -0.275 OA
ATOM     47  N   UNL     1       1.127   7.342   3.150  1.00  0.00    -0.342 N 
ATOM     48  H   UNL     1       0.271   7.623   2.693  1.00  0.00     0.164 HD
BRANCH  47  49
ATOM     49  C   UNL     1       1.671   6.029   2.792  1.00  0.00     0.192 C 
BRANCH  49  50
ATOM     50  C   UNL     1       1.469   5.780   1.295  1.00  0.00     0.047 C 
BRANCH  50  51
ATOM     51  C   UNL     1       2.393   6.648   0.430  1.00  0.00     0.103 C 
BRANCH  51  52
ATOM     52  C   UNL     1       2.604   6.053  -0.961  1.00  0.00     0.226 C 
ATOM     53  O   UNL     1       3.065   4.915  -1.074  1.00  0.00    -0.275 OA
BRANCH  52  54
ATOM     54  N   UNL     1       2.176   6.835  -2.049  1.00  0.00    -0.311 N 
ATOM     55  C   UNL     1       0.763   6.864  -2.450  1.00  0.00     0.153 C 
BRANCH  54  56
ATOM     56  C   UNL     1       3.078   7.620  -2.786  1.00  0.00     0.102 C 
ATOM     57  C   UNL     1       3.781   8.652  -2.291  1.00  0.00     0.043 C 
BRANCH  56  58
ATOM     58  C   UNL     1       3.363   7.315  -4.238  1.00  0.00     0.268 C 
ATOM     59  O   UNL     1       4.024   6.352  -4.602  1.00  0.00    -0.268 OA
ATOM     60  N   UNL     1       2.752   8.190  -5.104  1.00  0.00    -0.339 N 
ATOM     61  H   UNL     1       2.230   8.969  -4.722  1.00  0.00     0.164 HD
BRANCH  60  62
ATOM     62  C   UNL     1       2.845   8.041  -6.556  1.00  0.00     0.168 CG0
ATOM     63  C   UNL     1       4.271   8.277  -7.039  1.00  0.00     0.041 C 
ATOM     64  G   UNL     1       1.868   9.020  -7.239  1.00  0.00     0.000 G0
ENDBRANCH  60  62
ENDBRANCH  56  58
ENDBRANCH  54  56
ENDBRANCH  52  54
ENDBRANCH  51  52
ENDBRANCH  50  51
ENDBRANCH  49  50
BRANCH  49  65
ATOM     65  C   UNL     1       1.002   4.900   3.591  1.00  0.00     0.326 C 
ATOM     66  O   UNL     1      -0.102   4.957   4.113  1.00  0.00    -0.250 OA
BRANCH  65  67
ATOM     67  O   UNL     1       1.760   3.793   3.747  1.00  0.00    -0.480 OA
ATOM     68  H   UNL     1       1.120   3.115   4.054  1.00  0.00     0.296 HD
ENDBRANCH  65  67
ENDBRANCH  49  65
ENDBRANCH  47  49
ENDBRANCH  43  45
ENDBRANCH   1  43
BRANCH   1  69
ATOM     69  C   UNL     1       2.860  10.906   3.748  1.00  0.00    -0.001 C 
ATOM     70  C   UNL     1       3.195  12.163   3.409  1.00  0.00     0.001 C 
BRANCH  70  71
ATOM     71  C   UNL     1       4.133  12.571   2.360  1.00  0.00    -0.055 C 
ATOM     72  C   UNL     1       4.747  11.598   1.654  1.00  0.00    -0.018 C 
ATOM     73  C   UNL     1       4.340  14.047   2.139  1.00  0.00     0.044 C 
BRANCH  72  74
ATOM     74  C   UNL     1       5.753  11.721   0.519  1.00  0.00     0.038 C 
ATOM     75  C   UNL     1       4.959  12.004  -0.762  1.00  0.00     0.015 C 
BRANCH  74  76
ATOM     76  C   UNL     1       6.621  10.429   0.477  1.00  0.00     0.128 C 
BRANCH  76  77
ATOM     77  O   UNL     1       6.173   9.504   1.482  1.00  0.00    -0.381 OA
ATOM     78  C   UNL     1       7.169   9.175   2.441  1.00  0.00     0.195 C 
ENDBRANCH  76  77
BRANCH  76  79
ATOM     79  C   UNL     1       6.724   9.785  -0.928  1.00  0.00     0.068 C 
BRANCH  79  80
ATOM     80  C   UNL     1       7.964   8.987  -1.252  1.00  0.00    -0.045 A 
ATOM     81  C   UNL     1       8.102   7.661  -0.820  1.00  0.00     0.004 A 
ATOM     82  C   UNL     1       9.016   9.576  -1.970  1.00  0.00     0.004 A 
ATOM     83  C   UNL     1       9.259   6.935  -1.112  1.00  0.00     0.000 A 
ATOM     84  C   UNL     1      10.172   8.848  -2.260  1.00  0.00     0.000 A 
ATOM     85  C   UNL     1      10.293   7.528  -1.832  1.00  0.00     0.000 A 
ENDBRANCH  79  80
ENDBRANCH  76  79
ENDBRANCH  74  76
ENDBRANCH  72  74
ENDBRANCH  70  71
ENDBRANCH   1  69
TORSDOF 17
ENDMDL
MODEL 18
REMARK VINA RESULT:    -5.329      6.256     10.648
REMARK INTER + INTRA:         -24.979
REMARK INTER:                 -19.677
REMARK INTRA:                  -5.302
REMARK UNBOUND:                -9.057
REMARK SMILES C=C1C(=O)N[C@H](C)C(=O)N[C@@H](CC(C)C)C(=O)N[C@@H](C(=O)O)[C@H](C)C(=O)N[C@@H](CCCN=C(N)N)C(=O)N[C@@H](/C=C/C(C)=C/[C@H](C)[C@H](Cc2ccccc2)OC)[C@H](C)C(=O)N[C@@H](C(=O)O)CCC(=O)N1C
REMARK SMILES IDX 39 1 38 2 37 3 36 4 28 6 27 7 25 8 26 9 23 11 24 12 19 13
REMARK SMILES IDX 18 14 16 15 17 16 11 18 10 19 8 20 9 21 12 24 13 25 14 26
REMARK SMILES IDX 15 27 20 28 21 29 22 30 29 32 30 33 31 34 32 35 33 36 34 37
REMARK SMILES IDX 35 38 57 43 58 44 59 45 60 46 61 47 62 49 66 50 67 51 68 52
REMARK SMILES IDX 69 53 70 54 71 55 2 56 1 57 3 58 4 59 5 60 6 62 7 63 63 65
REMARK SMILES IDX 64 66 65 67 40 69 41 70 42 71 44 72 43 73 45 74 46 75 47 76
REMARK SMILES IDX 55 77 56 78 48 79 49 80 50 81 54 82 51 83 53 84 52 85
REMARK H PARENT 38 5 27 10 18 17 10 22 22 31 34 39 34 40 35 41 35 42 61 48
REMARK H PARENT 5 61 65 68
REMARK Flexibility Score:  369.900
ROOT
ATOM      1  C   UNL     1       2.511   6.725   7.177  1.00  0.00     0.117 C 
ENDROOT
BRANCH   1   2
ATOM      2  N   UNL     1       3.246   5.528   7.587  1.00  0.00    -0.347 N 
ATOM      3  O   UNL     1       2.642   4.175   5.833  1.00  0.00    -0.273 OA
ATOM      4  C   UNL     1       3.326   4.374   6.832  1.00  0.00     0.243 C 
ATOM      5  H   UNL     1       3.773   5.542   8.446  1.00  0.00     0.164 HD
BRANCH   4   6
ATOM      6  C   UNL     1       4.238   3.285   7.452  1.00  0.00     0.171 C 
BRANCH   6   7
ATOM      7  N   UNL     1       4.521   2.229   6.468  1.00  0.00    -0.344 N 
ATOM      8  C   UNL     1       4.565   0.906   6.850  1.00  0.00     0.226 C 
ATOM      9  O   UNL     1       4.398   0.547   8.010  1.00  0.00    -0.275 OA
ATOM     10  H   UNL     1       4.731   2.491   5.513  1.00  0.00     0.164 HD
BRANCH   8  11
ATOM     11  C   UNL     1       4.814  -0.067   5.710  1.00  0.00     0.109 C 
ATOM     12  C   UNL     1       5.670   0.595   4.631  1.00  0.00     0.021 C 
BRANCH  11  13
ATOM     13  C   UNL     1       5.380  -1.389   6.267  1.00  0.00     0.204 C 
BRANCH  13  14
ATOM     14  N   UNL     1       4.394  -2.473   6.221  1.00  0.00    -0.340 N 
ATOM     15  C   UNL     1       3.922  -3.103   7.353  1.00  0.00     0.243 C 
ATOM     16  O   UNL     1       4.249  -2.757   8.486  1.00  0.00    -0.273 OA
ATOM     17  H   UNL     1       4.199  -2.907   5.315  1.00  0.00     0.164 HD
BRANCH  15  18
ATOM     18  C   UNL     1       3.054  -4.349   7.050  1.00  0.00     0.171 C 
BRANCH  18  19
ATOM     19  N   UNL     1       3.535  -5.416   7.925  1.00  0.00    -0.343 N 
ATOM     20  C   UNL     1       3.673  -6.717   7.480  1.00  0.00     0.242 CG0
ATOM     21  O   UNL     1       3.274  -7.063   6.370  1.00  0.00    -0.273 OA
ATOM     22  H   UNL     1       3.768  -5.203   8.888  1.00  0.00     0.164 HD
ATOM     23  G   UNL     1       4.269  -7.686   8.521  1.00  0.00     0.000 G0
ENDBRANCH  18  19
BRANCH  18  24
ATOM     24  C   UNL     1       1.570  -4.047   7.295  1.00  0.00     0.038 C 
BRANCH  24  25
ATOM     25  C   UNL     1       0.631  -4.456   6.140  1.00  0.00    -0.015 C 
ATOM     26  C   UNL     1      -0.019  -5.821   6.370  1.00  0.00     0.007 C 
ATOM     27  C   UNL     1       1.411  -4.472   4.823  1.00  0.00     0.007 C 
ENDBRANCH  24  25
ENDBRANCH  18  24
ENDBRANCH  15  18
ENDBRANCH  13  14
BRANCH  13  28
ATOM     28  C   UNL     1       6.625  -1.875   5.518  1.00  0.00     0.327 C 
ATOM     29  O   UNL     1       7.735  -1.368   5.557  1.00  0.00    -0.250 OA
BRANCH  28  30
ATOM     30  O   UNL     1       6.369  -2.895   4.674  1.00  0.00    -0.480 OA
ATOM     31  H   UNL     1       5.911  -3.559   5.231  1.00  0.00     0.296 HD
ENDBRANCH  28  30
ENDBRANCH  13  28
ENDBRANCH  11  13
ENDBRANCH   8  11
ENDBRANCH   6   7
BRANCH   6  32
ATOM     32  C   UNL     1       5.535   3.936   7.945  1.00  0.00     0.037 C 
BRANCH  32  33
ATOM     33  C   UNL     1       6.428   4.399   6.784  1.00  0.00     0.026 C 
BRANCH  33  34
ATOM     34  C   UNL     1       7.844   3.829   6.872  1.00  0.00     0.146 C 
BRANCH  34  35
ATOM     35  N   UNL     1       7.762   2.376   6.938  1.00  0.00    -0.254 NA
ATOM     36  C   UNL     1       8.718   1.732   7.497  1.00  0.00     0.185 C 
ATOM     37  N   UNL     1       8.650   0.393   7.568  1.00  0.00    -0.370 N 
ATOM     38  N   UNL     1       9.844   2.208   8.056  1.00  0.00    -0.370 N 
ATOM     39  H   UNL     1       7.824  -0.041   7.177  1.00  0.00     0.159 HD
ATOM     40  H   UNL     1       9.264  -0.165   8.136  1.00  0.00     0.159 HD
ATOM     41  H   UNL     1      10.587   1.590   8.339  1.00  0.00     0.159 HD
ATOM     42  H   UNL     1      10.035   3.198   8.060  1.00  0.00     0.159 HD
ENDBRANCH  34  35
ENDBRANCH  33  34
ENDBRANCH  32  33
ENDBRANCH   6  32
ENDBRANCH   4   6
ENDBRANCH   1   2
BRANCH   1  43
ATOM     43  C   UNL     1       3.457   7.619   6.324  1.00  0.00     0.102 C 
ATOM     44  C   UNL     1       3.090   9.112   6.366  1.00  0.00     0.020 C 
BRANCH  43  45
ATOM     45  C   UNL     1       3.615   7.058   4.908  1.00  0.00     0.225 C 
ATOM     46  O   UNL     1       4.700   6.959   4.342  1.00  0.00    -0.275 OA
ATOM     47  N   UNL     1       2.441   6.751   4.258  1.00  0.00    -0.342 N 
ATOM     48  H   UNL     1       1.579   6.693   4.782  1.00  0.00     0.164 HD
BRANCH  47  49
ATOM     49  C   UNL     1       2.440   6.172   2.911  1.00  0.00     0.192 C 
BRANCH  49  50
ATOM     50  C   UNL     1       2.467   7.293   1.869  1.00  0.00     0.047 C 
BRANCH  50  51
ATOM     51  C   UNL     1       3.678   7.187   0.932  1.00  0.00     0.103 C 
BRANCH  51  52
ATOM     52  C   UNL     1       3.274   6.776  -0.483  1.00  0.00     0.226 C 
ATOM     53  O   UNL     1       2.916   5.617  -0.702  1.00  0.00    -0.275 OA
BRANCH  52  54
ATOM     54  N   UNL     1       3.266   7.795  -1.454  1.00  0.00    -0.311 N 
ATOM     55  C   UNL     1       4.023   9.037  -1.252  1.00  0.00     0.153 C 
BRANCH  54  56
ATOM     56  C   UNL     1       2.541   7.661  -2.650  1.00  0.00     0.102 C 
ATOM     57  C   UNL     1       1.207   7.527  -2.729  1.00  0.00     0.043 C 
BRANCH  56  58
ATOM     58  C   UNL     1       3.240   7.705  -3.988  1.00  0.00     0.268 C 
ATOM     59  O   UNL     1       4.376   7.284  -4.165  1.00  0.00    -0.268 OA
ATOM     60  N   UNL     1       2.448   8.204  -4.995  1.00  0.00    -0.339 N 
ATOM     61  H   UNL     1       1.522   8.542  -4.764  1.00  0.00     0.164 HD
BRANCH  60  62
ATOM     62  C   UNL     1       2.906   8.277  -6.382  1.00  0.00     0.168 CG0
ATOM     63  C   UNL     1       2.961   6.892  -7.014  1.00  0.00     0.041 C 
ATOM     64  G   UNL     1       4.289   8.957  -6.435  1.00  0.00     0.000 G0
ENDBRANCH  60  62
ENDBRANCH  56  58
ENDBRANCH  54  56
ENDBRANCH  52  54
ENDBRANCH  51  52
ENDBRANCH  50  51
ENDBRANCH  49  50
BRANCH  49  65
ATOM     65  C   UNL     1       1.205   5.287   2.675  1.00  0.00     0.326 C 
ATOM     66  O   UNL     1       0.442   4.887   3.542  1.00  0.00    -0.250 OA
BRANCH  65  67
ATOM     67  O   UNL     1       1.024   4.902   1.393  1.00  0.00    -0.480 OA
ATOM     68  H   UNL     1       0.081   5.114   1.219  1.00  0.00     0.296 HD
ENDBRANCH  65  67
ENDBRANCH  49  65
ENDBRANCH  47  49
ENDBRANCH  43  45
ENDBRANCH   1  43
BRANCH   1  69
ATOM     69  C   UNL     1       1.901   7.302   8.442  1.00  0.00    -0.001 C 
ATOM     70  C   UNL     1       0.856   6.820   9.138  1.00  0.00     0.001 C 
BRANCH  70  71
ATOM     71  C   UNL     1       0.289   7.373  10.369  1.00  0.00    -0.055 C 
ATOM     72  C   UNL     1       1.145   7.716  11.355  1.00  0.00    -0.018 C 
ATOM     73  C   UNL     1      -1.208   7.527  10.446  1.00  0.00     0.044 C 
BRANCH  72  74
ATOM     74  C   UNL     1       0.848   8.309  12.725  1.00  0.00     0.038 C 
ATOM     75  C   UNL     1       1.983   9.288  13.050  1.00  0.00     0.015 C 
BRANCH  74  76
ATOM     76  C   UNL     1       0.674   7.147  13.747  1.00  0.00     0.128 C 
BRANCH  76  77
ATOM     77  O   UNL     1       1.950   6.549  14.031  1.00  0.00    -0.381 OA
ATOM     78  C   UNL     1       2.152   6.262  15.409  1.00  0.00     0.195 C 
ENDBRANCH  76  77
BRANCH  76  79
ATOM     79  C   UNL     1      -0.100   7.547  15.028  1.00  0.00     0.068 C 
BRANCH  79  80
ATOM     80  C   UNL     1      -1.525   8.019  14.875  1.00  0.00    -0.045 A 
ATOM     81  C   UNL     1      -1.854   9.376  14.999  1.00  0.00     0.004 A 
ATOM     82  C   UNL     1      -2.554   7.096  14.632  1.00  0.00     0.004 A 
ATOM     83  C   UNL     1      -3.177   9.803  14.870  1.00  0.00     0.000 A 
ATOM     84  C   UNL     1      -3.877   7.524  14.504  1.00  0.00     0.000 A 
ATOM     85  C   UNL     1      -4.188   8.877  14.621  1.00  0.00     0.000 A 
ENDBRANCH  79  80
ENDBRANCH  76  79
ENDBRANCH  74  76
ENDBRANCH  72  74
ENDBRANCH  70  71
ENDBRANCH   1  69
TORSDOF 17
ENDMDL
MODEL 19
REMARK VINA RESULT:    -5.326     14.085     17.240
REMARK INTER + INTRA:         -24.969
REMARK INTER:                 -15.519
REMARK INTRA:                  -9.450
REMARK UNBOUND:                -9.057
REMARK SMILES C=C1C(=O)N[C@H](C)C(=O)N[C@@H](CC(C)C)C(=O)N[C@@H](C(=O)O)[C@H](C)C(=O)N[C@@H](CCCN=C(N)N)C(=O)N[C@@H](/C=C/C(C)=C/[C@H](C)[C@H](Cc2ccccc2)OC)[C@H](C)C(=O)N[C@@H](C(=O)O)CCC(=O)N1C
REMARK SMILES IDX 39 1 38 2 37 3 36 4 28 6 27 7 25 8 26 9 23 11 24 12 19 13
REMARK SMILES IDX 18 14 16 15 17 16 11 18 10 19 8 20 9 21 12 24 13 25 14 26
REMARK SMILES IDX 15 27 20 28 21 29 22 30 29 32 30 33 31 34 32 35 33 36 34 37
REMARK SMILES IDX 35 38 57 43 58 44 59 45 60 46 61 47 62 49 66 50 67 51 68 52
REMARK SMILES IDX 69 53 70 54 71 55 2 56 1 57 3 58 4 59 5 60 6 62 7 63 63 65
REMARK SMILES IDX 64 66 65 67 40 69 41 70 42 71 44 72 43 73 45 74 46 75 47 76
REMARK SMILES IDX 55 77 56 78 48 79 49 80 50 81 54 82 51 83 53 84 52 85
REMARK H PARENT 38 5 27 10 18 17 10 22 22 31 34 39 34 40 35 41 35 42 61 48
REMARK H PARENT 5 61 65 68
REMARK Flexibility Score:  369.900
ROOT
ATOM      1  C   UNL     1       2.710  -7.560   9.793  1.00  0.00     0.117 C 
ENDROOT
BRANCH   1   2
ATOM      2  N   UNL     1       1.640  -7.372  10.774  1.00  0.00    -0.347 N 
ATOM      3  O   UNL     1       1.312  -9.581  11.307  1.00  0.00    -0.273 OA
ATOM      4  C   UNL     1       1.088  -8.394  11.522  1.00  0.00     0.243 C 
ATOM      5  H   UNL     1       1.304  -6.441  10.967  1.00  0.00     0.164 HD
BRANCH   4   6
ATOM      6  C   UNL     1       0.033  -7.914  12.550  1.00  0.00     0.171 C 
BRANCH   6   7
ATOM      7  N   UNL     1       0.691  -7.318  13.723  1.00  0.00    -0.344 N 
ATOM      8  C   UNL     1      -0.001  -7.136  14.901  1.00  0.00     0.226 C 
ATOM      9  O   UNL     1      -1.183  -7.434  15.025  1.00  0.00    -0.275 OA
ATOM     10  H   UNL     1       1.648  -6.998  13.639  1.00  0.00     0.164 HD
BRANCH   8  11
ATOM     11  C   UNL     1       0.832  -6.561  16.033  1.00  0.00     0.109 C 
ATOM     12  C   UNL     1       2.300  -6.950  15.857  1.00  0.00     0.021 C 
BRANCH  11  13
ATOM     13  C   UNL     1       0.572  -5.047  16.154  1.00  0.00     0.204 C 
BRANCH  13  14
ATOM     14  N   UNL     1       0.201  -4.446  14.869  1.00  0.00    -0.340 N 
ATOM     15  C   UNL     1       1.033  -3.597  14.172  1.00  0.00     0.243 C 
ATOM     16  O   UNL     1       2.172  -3.330  14.551  1.00  0.00    -0.273 OA
ATOM     17  H   UNL     1      -0.778  -4.504  14.577  1.00  0.00     0.164 HD
BRANCH  15  18
ATOM     18  C   UNL     1       0.351  -2.925  12.955  1.00  0.00     0.171 C 
BRANCH  18  19
ATOM     19  N   UNL     1      -0.122  -1.619  13.408  1.00  0.00    -0.343 N 
ATOM     20  C   UNL     1      -1.276  -1.481  14.155  1.00  0.00     0.242 CG0
ATOM     21  O   UNL     1      -2.028  -2.431  14.360  1.00  0.00    -0.273 OA
ATOM     22  H   UNL     1       0.404  -0.787  13.165  1.00  0.00     0.164 HD
ATOM     23  G   UNL     1      -1.572  -0.036  14.608  1.00  0.00     0.000 G0
ENDBRANCH  18  19
BRANCH  18  24
ATOM     24  C   UNL     1       1.337  -2.792  11.788  1.00  0.00     0.038 C 
BRANCH  24  25
ATOM     25  C   UNL     1       0.690  -2.848  10.388  1.00  0.00    -0.015 C 
ATOM     26  C   UNL     1       0.221  -1.475   9.905  1.00  0.00     0.007 C 
ATOM     27  C   UNL     1      -0.492  -3.820  10.406  1.00  0.00     0.007 C 
ENDBRANCH  24  25
ENDBRANCH  18  24
ENDBRANCH  15  18
ENDBRANCH  13  14
BRANCH  13  28
ATOM     28  C   UNL     1      -0.536  -4.702  17.154  1.00  0.00     0.327 C 
ATOM     29  O   UNL     1      -0.429  -4.672  18.370  1.00  0.00    -0.250 OA
BRANCH  28  30
ATOM     30  O   UNL     1      -1.740  -4.533  16.570  1.00  0.00    -0.480 OA
ATOM     31  H   UNL     1      -1.962  -5.419  16.214  1.00  0.00     0.296 HD
ENDBRANCH  28  30
ENDBRANCH  13  28
ENDBRANCH  11  13
ENDBRANCH   8  11
ENDBRANCH   6   7
BRANCH   6  32
ATOM     32  C   UNL     1      -0.904  -6.905  11.876  1.00  0.00     0.037 C 
BRANCH  32  33
ATOM     33  C   UNL     1      -2.050  -7.592  11.121  1.00  0.00     0.026 C 
BRANCH  33  34
ATOM     34  C   UNL     1      -3.414  -6.984  11.449  1.00  0.00     0.146 C 
BRANCH  34  35
ATOM     35  N   UNL     1      -3.477  -6.713  12.878  1.00  0.00    -0.254 NA
ATOM     36  C   UNL     1      -3.515  -5.495  13.272  1.00  0.00     0.185 C 
ATOM     37  N   UNL     1      -3.578  -5.234  14.587  1.00  0.00    -0.370 N 
ATOM     38  N   UNL     1      -3.503  -4.369  12.536  1.00  0.00    -0.370 N 
ATOM     39  H   UNL     1      -3.602  -6.033  15.208  1.00  0.00     0.159 HD
ATOM     40  H   UNL     1      -3.785  -4.325  14.964  1.00  0.00     0.159 HD
ATOM     41  H   UNL     1      -3.396  -3.466  12.968  1.00  0.00     0.159 HD
ATOM     42  H   UNL     1      -3.441  -4.414  11.531  1.00  0.00     0.159 HD
ENDBRANCH  34  35
ENDBRANCH  33  34
ENDBRANCH  32  33
ENDBRANCH   6  32
ENDBRANCH   4   6
ENDBRANCH   1   2
BRANCH   1  43
ATOM     43  C   UNL     1       4.037  -7.841  10.556  1.00  0.00     0.102 C 
ATOM     44  C   UNL     1       5.192  -6.918  10.133  1.00  0.00     0.020 C 
BRANCH  43  45
ATOM     45  C   UNL     1       4.387  -9.331  10.521  1.00  0.00     0.225 C 
ATOM     46  O   UNL     1       5.100  -9.873  11.361  1.00  0.00    -0.275 OA
ATOM     47  N   UNL     1       3.926 -10.022   9.423  1.00  0.00    -0.342 N 
ATOM     48  H   UNL     1       3.224  -9.606   8.829  1.00  0.00     0.164 HD
BRANCH  47  49
ATOM     49  C   UNL     1       4.155 -11.463   9.273  1.00  0.00     0.192 C 
BRANCH  49  50
ATOM     50  C   UNL     1       5.164 -11.709   8.149  1.00  0.00     0.047 C 
BRANCH  50  51
ATOM     51  C   UNL     1       5.528 -10.419   7.401  1.00  0.00     0.103 C 
BRANCH  51  52
ATOM     52  C   UNL     1       4.907 -10.369   6.006  1.00  0.00     0.226 C 
ATOM     53  O   UNL     1       4.345  -9.341   5.625  1.00  0.00    -0.275 OA
BRANCH  52  54
ATOM     54  N   UNL     1       5.088 -11.507   5.199  1.00  0.00    -0.311 N 
ATOM     55  C   UNL     1       3.972 -12.421   4.918  1.00  0.00     0.153 C 
BRANCH  54  56
ATOM     56  C   UNL     1       6.336 -11.809   4.628  1.00  0.00     0.102 C 
ATOM     57  C   UNL     1       7.369 -12.358   5.286  1.00  0.00     0.043 C 
BRANCH  56  58
ATOM     58  C   UNL     1       6.595 -11.567   3.159  1.00  0.00     0.268 C 
ATOM     59  O   UNL     1       6.287 -10.531   2.587  1.00  0.00    -0.268 OA
ATOM     60  N   UNL     1       7.267 -12.601   2.552  1.00  0.00    -0.339 N 
ATOM     61  H   UNL     1       7.477 -13.431   3.094  1.00  0.00     0.164 HD
BRANCH  60  62
ATOM     62  C   UNL     1       7.674 -12.547   1.148  1.00  0.00     0.168 CG0
ATOM     63  C   UNL     1       7.112 -13.731   0.371  1.00  0.00     0.041 C 
ATOM     64  G   UNL     1       9.214 -12.516   1.058  1.00  0.00     0.000 G0
ENDBRANCH  60  62
ENDBRANCH  56  58
ENDBRANCH  54  56
ENDBRANCH  52  54
ENDBRANCH  51  52
ENDBRANCH  50  51
ENDBRANCH  49  50
BRANCH  49  65
ATOM     65  C   UNL     1       2.851 -12.214   8.962  1.00  0.00     0.326 C 
ATOM     66  O   UNL     1       2.720 -13.091   8.120  1.00  0.00    -0.250 OA
BRANCH  65  67
ATOM     67  O   UNL     1       1.777 -11.795   9.666  1.00  0.00    -0.480 OA
ATOM     68  H   UNL     1       1.065 -12.412   9.390  1.00  0.00     0.296 HD
ENDBRANCH  65  67
ENDBRANCH  49  65
ENDBRANCH  47  49
ENDBRANCH  43  45
ENDBRANCH   1  43
BRANCH   1  69
ATOM     69  C   UNL     1       2.640  -6.368   8.856  1.00  0.00    -0.001 C 
ATOM     70  C   UNL     1       1.560  -5.905   8.202  1.00  0.00     0.001 C 
BRANCH  70  71
ATOM     71  C   UNL     1       1.501  -4.741   7.316  1.00  0.00    -0.055 C 
ATOM     72  C   UNL     1       2.663  -4.128   7.006  1.00  0.00    -0.018 C 
ATOM     73  C   UNL     1       0.149  -4.313   6.808  1.00  0.00     0.044 C 
BRANCH  72  74
ATOM     74  C   UNL     1       2.905  -2.915   6.120  1.00  0.00     0.038 C 
ATOM     75  C   UNL     1       3.337  -3.438   4.745  1.00  0.00     0.015 C 
BRANCH  74  76
ATOM     76  C   UNL     1       3.939  -1.983   6.818  1.00  0.00     0.128 C 
BRANCH  76  77
ATOM     77  O   UNL     1       4.489  -1.058   5.865  1.00  0.00    -0.381 OA
ATOM     78  C   UNL     1       5.872  -1.257   5.608  1.00  0.00     0.195 C 
ENDBRANCH  76  77
BRANCH  76  79
ATOM     79  C   UNL     1       3.396  -1.282   8.089  1.00  0.00     0.068 C 
BRANCH  79  80
ATOM     80  C   UNL     1       4.017  -1.645   9.416  1.00  0.00    -0.045 A 
ATOM     81  C   UNL     1       4.434  -2.956   9.684  1.00  0.00     0.004 A 
ATOM     82  C   UNL     1       4.162  -0.674  10.419  1.00  0.00     0.004 A 
ATOM     83  C   UNL     1       4.994  -3.287  10.920  1.00  0.00     0.000 A 
ATOM     84  C   UNL     1       4.722  -1.006  11.654  1.00  0.00     0.000 A 
ATOM     85  C   UNL     1       5.139  -2.311  11.904  1.00  0.00     0.000 A 
ENDBRANCH  79  80
ENDBRANCH  76  79
ENDBRANCH  74  76
ENDBRANCH  72  74
ENDBRANCH  70  71
ENDBRANCH   1  69
TORSDOF 17
ENDMDL
MODEL 20
REMARK VINA RESULT:    -5.312      3.974      6.248
REMARK INTER + INTRA:         -24.926
REMARK INTER:                 -19.773
REMARK INTRA:                  -5.153
REMARK UNBOUND:                -9.057
REMARK SMILES C=C1C(=O)N[C@H](C)C(=O)N[C@@H](CC(C)C)C(=O)N[C@@H](C(=O)O)[C@H](C)C(=O)N[C@@H](CCCN=C(N)N)C(=O)N[C@@H](/C=C/C(C)=C/[C@H](C)[C@H](Cc2ccccc2)OC)[C@H](C)C(=O)N[C@@H](C(=O)O)CCC(=O)N1C
REMARK SMILES IDX 39 1 38 2 37 3 36 4 28 6 27 7 25 8 26 9 23 11 24 12 19 13
REMARK SMILES IDX 18 14 16 15 17 16 11 18 10 19 8 20 9 21 12 24 13 25 14 26
REMARK SMILES IDX 15 27 20 28 21 29 22 30 29 32 30 33 31 34 32 35 33 36 34 37
REMARK SMILES IDX 35 38 57 43 58 44 59 45 60 46 61 47 62 49 66 50 67 51 68 52
REMARK SMILES IDX 69 53 70 54 71 55 2 56 1 57 3 58 4 59 5 60 6 62 7 63 63 65
REMARK SMILES IDX 64 66 65 67 40 69 41 70 42 71 44 72 43 73 45 74 46 75 47 76
REMARK SMILES IDX 55 77 56 78 48 79 49 80 50 81 54 82 51 83 53 84 52 85
REMARK H PARENT 38 5 27 10 18 17 10 22 22 31 34 39 34 40 35 41 35 42 61 48
REMARK H PARENT 5 61 65 68
REMARK Flexibility Score:  369.900
ROOT
ATOM      1  C   UNL     1       3.825   5.295   5.839  1.00  0.00     0.117 C 
ENDROOT
BRANCH   1   2
ATOM      2  N   UNL     1       3.346   6.211   6.875  1.00  0.00    -0.347 N 
ATOM      3  O   UNL     1       3.665   8.174   5.729  1.00  0.00    -0.273 OA
ATOM      4  C   UNL     1       3.219   7.575   6.702  1.00  0.00     0.243 C 
ATOM      5  H   UNL     1       3.038   5.838   7.761  1.00  0.00     0.164 HD
BRANCH   4   6
ATOM      6  C   UNL     1       2.607   8.305   7.925  1.00  0.00     0.171 C 
BRANCH   6   7
ATOM      7  N   UNL     1       2.416   7.365   9.041  1.00  0.00    -0.344 N 
ATOM      8  C   UNL     1       1.178   7.214   9.629  1.00  0.00     0.226 C 
ATOM      9  O   UNL     1       0.197   7.858   9.276  1.00  0.00    -0.275 OA
ATOM     10  H   UNL     1       3.217   6.866   9.405  1.00  0.00     0.164 HD
BRANCH   8  11
ATOM     11  C   UNL     1       1.131   6.169  10.729  1.00  0.00     0.109 C 
ATOM     12  C   UNL     1       2.248   5.144  10.529  1.00  0.00     0.021 C 
BRANCH  11  13
ATOM     13  C   UNL     1       1.127   6.862  12.106  1.00  0.00     0.204 C 
BRANCH  13  14
ATOM     14  N   UNL     1      -0.016   6.449  12.927  1.00  0.00    -0.340 N 
ATOM     15  C   UNL     1      -0.945   7.341  13.418  1.00  0.00     0.243 C 
ATOM     16  O   UNL     1      -0.915   8.541  13.150  1.00  0.00    -0.273 OA
ATOM     17  H   UNL     1      -0.015   5.500  13.309  1.00  0.00     0.164 HD
BRANCH  15  18
ATOM     18  C   UNL     1      -1.937   6.709  14.425  1.00  0.00     0.171 C 
BRANCH  18  19
ATOM     19  N   UNL     1      -1.539   7.175  15.752  1.00  0.00    -0.343 N 
ATOM     20  C   UNL     1      -0.487   6.603  16.440  1.00  0.00     0.242 CG0
ATOM     21  O   UNL     1       0.077   5.592  16.029  1.00  0.00    -0.273 OA
ATOM     22  H   UNL     1      -2.051   7.935  16.187  1.00  0.00     0.164 HD
ATOM     23  G   UNL     1      -0.166   7.279  17.789  1.00  0.00     0.000 G0
ENDBRANCH  18  19
BRANCH  18  24
ATOM     24  C   UNL     1      -3.378   7.117  14.095  1.00  0.00     0.038 C 
BRANCH  24  25
ATOM     25  C   UNL     1      -3.954   8.232  14.994  1.00  0.00    -0.015 C 
ATOM     26  C   UNL     1      -5.349   7.895  15.521  1.00  0.00     0.007 C 
ATOM     27  C   UNL     1      -4.002   9.548  14.215  1.00  0.00     0.007 C 
ENDBRANCH  24  25
ENDBRANCH  18  24
ENDBRANCH  15  18
ENDBRANCH  13  14
BRANCH  13  28
ATOM     28  C   UNL     1       2.394   6.590  12.923  1.00  0.00     0.327 C 
ATOM     29  O   UNL     1       3.504   7.054  12.711  1.00  0.00    -0.250 OA
BRANCH  28  30
ATOM     30  O   UNL     1       2.215   5.660  13.883  1.00  0.00    -0.480 OA
ATOM     31  H   UNL     1       2.311   6.157  14.722  1.00  0.00     0.296 HD
ENDBRANCH  28  30
ENDBRANCH  13  28
ENDBRANCH  11  13
ENDBRANCH   8  11
ENDBRANCH   6   7
BRANCH   6  32
ATOM     32  C   UNL     1       3.527   9.461   8.333  1.00  0.00     0.037 C 
BRANCH  32  33
ATOM     33  C   UNL     1       2.739  10.727   8.697  1.00  0.00     0.026 C 
BRANCH  33  34
ATOM     34  C   UNL     1       2.546  11.660   7.500  1.00  0.00     0.146 C 
BRANCH  34  35
ATOM     35  N   UNL     1       3.675  11.500   6.594  1.00  0.00    -0.254 NA
ATOM     36  C   UNL     1       4.385  12.528   6.310  1.00  0.00     0.185 C 
ATOM     37  N   UNL     1       5.430  12.392   5.480  1.00  0.00    -0.370 N 
ATOM     38  N   UNL     1       4.244  13.796   6.736  1.00  0.00    -0.370 N 
ATOM     39  H   UNL     1       5.609  11.462   5.124  1.00  0.00     0.159 HD
ATOM     40  H   UNL     1       6.131  13.101   5.347  1.00  0.00     0.159 HD
ATOM     41  H   UNL     1       4.782  14.544   6.332  1.00  0.00     0.159 HD
ATOM     42  H   UNL     1       3.488  14.048   7.354  1.00  0.00     0.159 HD
ENDBRANCH  34  35
ENDBRANCH  33  34
ENDBRANCH  32  33
ENDBRANCH   6  32
ENDBRANCH   4   6
ENDBRANCH   1   2
BRANCH   1  43
ATOM     43  C   UNL     1       2.601   4.546   5.236  1.00  0.00     0.102 C 
ATOM     44  C   UNL     1       2.903   3.086   4.857  1.00  0.00     0.020 C 
BRANCH  43  45
ATOM     45  C   UNL     1       1.958   5.360   4.110  1.00  0.00     0.225 C 
ATOM     46  O   UNL     1       0.775   5.258   3.798  1.00  0.00    -0.275 OA
ATOM     47  N   UNL     1       2.818   6.160   3.392  1.00  0.00    -0.342 N 
ATOM     48  H   UNL     1       3.744   6.348   3.751  1.00  0.00     0.164 HD
BRANCH  47  49
ATOM     49  C   UNL     1       2.338   7.022   2.308  1.00  0.00     0.192 C 
BRANCH  49  50
ATOM     50  C   UNL     1       3.094   6.696   1.017  1.00  0.00     0.047 C 
BRANCH  50  51
ATOM     51  C   UNL     1       2.166   6.157  -0.080  1.00  0.00     0.103 C 
BRANCH  51  52
ATOM     52  C   UNL     1       2.848   6.134  -1.447  1.00  0.00     0.226 C 
ATOM     53  O   UNL     1       3.855   5.442  -1.615  1.00  0.00    -0.275 OA
BRANCH  52  54
ATOM     54  N   UNL     1       2.222   6.865  -2.473  1.00  0.00    -0.311 N 
ATOM     55  C   UNL     1       0.771   6.779  -2.685  1.00  0.00     0.153 C 
BRANCH  54  56
ATOM     56  C   UNL     1       2.955   7.706  -3.326  1.00  0.00     0.102 C 
ATOM     57  C   UNL     1       4.063   8.379  -2.975  1.00  0.00     0.043 C 
BRANCH  56  58
ATOM     58  C   UNL     1       2.556   7.883  -4.772  1.00  0.00     0.268 C 
ATOM     59  O   UNL     1       1.398   8.047  -5.131  1.00  0.00    -0.268 OA
ATOM     60  N   UNL     1       3.629   7.905  -5.630  1.00  0.00    -0.339 N 
ATOM     61  H   UNL     1       4.557   7.751  -5.254  1.00  0.00     0.164 HD
BRANCH  60  62
ATOM     62  C   UNL     1       3.473   8.128  -7.067  1.00  0.00     0.168 CG0
ATOM     63  C   UNL     1       4.769   8.636  -7.686  1.00  0.00     0.041 C 
ATOM     64  G   UNL     1       2.322   9.125  -7.314  1.00  0.00     0.000 G0
ENDBRANCH  60  62
ENDBRANCH  56  58
ENDBRANCH  54  56
ENDBRANCH  52  54
ENDBRANCH  51  52
ENDBRANCH  50  51
ENDBRANCH  49  50
BRANCH  49  65
ATOM     65  C   UNL     1       2.522   8.510   2.644  1.00  0.00     0.326 C 
ATOM     66  O   UNL     1       3.372   9.247   2.164  1.00  0.00    -0.250 OA
BRANCH  65  67
ATOM     67  O   UNL     1       1.687   8.982   3.595  1.00  0.00    -0.480 OA
ATOM     68  H   UNL     1       1.088   8.225   3.772  1.00  0.00     0.296 HD
ENDBRANCH  65  67
ENDBRANCH  49  65
ENDBRANCH  47  49
ENDBRANCH  43  45
ENDBRANCH   1  43
BRANCH   1  69
ATOM     69  C   UNL     1       4.941   4.484   6.473  1.00  0.00    -0.001 C 
ATOM     70  C   UNL     1       4.983   3.989   7.722  1.00  0.00     0.001 C 
BRANCH  70  71
ATOM     71  C   UNL     1       6.057   3.190   8.316  1.00  0.00    -0.055 C 
ATOM     72  C   UNL     1       6.980   2.662   7.484  1.00  0.00    -0.018 C 
ATOM     73  C   UNL     1       6.061   3.020   9.813  1.00  0.00     0.044 C 
BRANCH  72  74
ATOM     74  C   UNL     1       8.193   1.804   7.812  1.00  0.00     0.038 C 
ATOM     75  C   UNL     1       9.437   2.665   7.565  1.00  0.00     0.015 C 
BRANCH  74  76
ATOM     76  C   UNL     1       8.125   0.497   6.967  1.00  0.00     0.128 C 
BRANCH  76  77
ATOM     77  O   UNL     1       7.775  -0.614   7.810  1.00  0.00    -0.381 OA
ATOM     78  C   UNL     1       7.896  -0.338   9.199  1.00  0.00     0.195 C 
ENDBRANCH  76  77
BRANCH  76  79
ATOM     79  C   UNL     1       7.223   0.605   5.712  1.00  0.00     0.068 C 
BRANCH  79  80
ATOM     80  C   UNL     1       6.289  -0.542   5.412  1.00  0.00    -0.045 A 
ATOM     81  C   UNL     1       4.938  -0.488   5.778  1.00  0.00     0.004 A 
ATOM     82  C   UNL     1       6.771  -1.699   4.781  1.00  0.00     0.004 A 
ATOM     83  C   UNL     1       4.084  -1.560   5.509  1.00  0.00     0.000 A 
ATOM     84  C   UNL     1       5.916  -2.770   4.513  1.00  0.00     0.000 A 
ATOM     85  C   UNL     1       4.573  -2.700   4.876  1.00  0.00     0.000 A 
ENDBRANCH  79  80
ENDBRANCH  76  79
ENDBRANCH  74  76
ENDBRANCH  72  74
ENDBRANCH  70  71
ENDBRANCH   1  69
TORSDOF 17
ENDMDL
MODEL 21
REMARK VINA RESULT:    -5.306      5.938      8.539
REMARK INTER + INTRA:         -24.908
REMARK INTER:                 -18.686
REMARK INTRA:                  -6.222
REMARK UNBOUND:                -9.057
REMARK SMILES C=C1C(=O)N[C@H](C)C(=O)N[C@@H](CC(C)C)C(=O)N[C@@H](C(=O)O)[C@H](C)C(=O)N[C@@H](CCCN=C(N)N)C(=O)N[C@@H](/C=C/C(C)=C/[C@H](C)[C@H](Cc2ccccc2)OC)[C@H](C)C(=O)N[C@@H](C(=O)O)CCC(=O)N1C
REMARK SMILES IDX 39 1 38 2 37 3 36 4 28 6 27 7 25 8 26 9 23 11 24 12 19 13
REMARK SMILES IDX 18 14 16 15 17 16 11 18 10 19 8 20 9 21 12 24 13 25 14 26
REMARK SMILES IDX 15 27 20 28 21 29 22 30 29 32 30 33 31 34 32 35 33 36 34 37
REMARK SMILES IDX 35 38 57 43 58 44 59 45 60 46 61 47 62 49 66 50 67 51 68 52
REMARK SMILES IDX 69 53 70 54 71 55 2 56 1 57 3 58 4 59 5 60 6 62 7 63 63 65
REMARK SMILES IDX 64 66 65 67 40 69 41 70 42 71 44 72 43 73 45 74 46 75 47 76
REMARK SMILES IDX 55 77 56 78 48 79 49 80 50 81 54 82 51 83 53 84 52 85
REMARK H PARENT 38 5 27 10 18 17 10 22 22 31 34 39 34 40 35 41 35 42 61 48
REMARK H PARENT 5 61 65 68
REMARK Flexibility Score:  369.900
ROOT
ATOM      1  C   UNL     1       2.785   5.366   5.421  1.00  0.00     0.117 C 
ENDROOT
BRANCH   1   2
ATOM      2  N   UNL     1       2.253   6.400   6.308  1.00  0.00    -0.347 N 
ATOM      3  O   UNL     1       0.113   6.453   5.480  1.00  0.00    -0.273 OA
ATOM      4  C   UNL     1       0.930   6.797   6.328  1.00  0.00     0.243 C 
ATOM      5  H   UNL     1       2.862   6.828   6.990  1.00  0.00     0.164 HD
BRANCH   4   6
ATOM      6  C   UNL     1       0.610   7.848   7.421  1.00  0.00     0.171 C 
BRANCH   6   7
ATOM      7  N   UNL     1       0.715   7.245   8.760  1.00  0.00    -0.344 N 
ATOM      8  C   UNL     1      -0.335   7.321   9.649  1.00  0.00     0.226 C 
ATOM      9  O   UNL     1      -1.381   7.902   9.387  1.00  0.00    -0.275 OA
ATOM     10  H   UNL     1       1.589   6.816   9.037  1.00  0.00     0.164 HD
BRANCH   8  11
ATOM     11  C   UNL     1      -0.092   6.605  10.966  1.00  0.00     0.109 C 
ATOM     12  C   UNL     1       1.325   6.031  10.999  1.00  0.00     0.021 C 
BRANCH  11  13
ATOM     13  C   UNL     1      -0.441   7.540  12.140  1.00  0.00     0.204 C 
BRANCH  13  14
ATOM     14  N   UNL     1      -0.140   8.943  11.837  1.00  0.00    -0.340 N 
ATOM     15  C   UNL     1       0.947   9.606  12.363  1.00  0.00     0.243 C 
ATOM     16  O   UNL     1       1.778   9.048  13.078  1.00  0.00    -0.273 OA
ATOM     17  H   UNL     1      -0.865   9.501  11.377  1.00  0.00     0.164 HD
BRANCH  15  18
ATOM     18  C   UNL     1       0.945  11.127  12.071  1.00  0.00     0.171 C 
BRANCH  18  19
ATOM     19  N   UNL     1       0.148  11.753  13.124  1.00  0.00    -0.343 N 
ATOM     20  C   UNL     1      -1.225  11.870  13.026  1.00  0.00     0.242 CG0
ATOM     21  O   UNL     1      -1.824  11.573  11.995  1.00  0.00    -0.273 OA
ATOM     22  H   UNL     1       0.611  12.120  13.947  1.00  0.00     0.164 HD
ATOM     23  G   UNL     1      -1.902  12.487  14.267  1.00  0.00     0.000 G0
ENDBRANCH  18  19
BRANCH  18  24
ATOM     24  C   UNL     1       2.377  11.675  12.049  1.00  0.00     0.038 C 
BRANCH  24  25
ATOM     25  C   UNL     1       2.702  12.579  10.841  1.00  0.00    -0.015 C 
ATOM     26  C   UNL     1       1.831  13.836  10.799  1.00  0.00     0.007 C 
ATOM     27  C   UNL     1       2.525  11.787   9.543  1.00  0.00     0.007 C 
ENDBRANCH  24  25
ENDBRANCH  18  24
ENDBRANCH  15  18
ENDBRANCH  13  14
BRANCH  13  28
ATOM     28  C   UNL     1      -1.915   7.471  12.550  1.00  0.00     0.327 C 
ATOM     29  O   UNL     1      -2.726   8.382  12.490  1.00  0.00    -0.250 OA
BRANCH  28  30
ATOM     30  O   UNL     1      -2.250   6.296  13.121  1.00  0.00    -0.480 OA
ATOM     31  H   UNL     1      -3.101   6.056  12.698  1.00  0.00     0.296 HD
ENDBRANCH  28  30
ENDBRANCH  13  28
ENDBRANCH  11  13
ENDBRANCH   8  11
ENDBRANCH   6   7
BRANCH   6  32
ATOM     32  C   UNL     1       1.572   9.033   7.277  1.00  0.00     0.037 C 
BRANCH  32  33
ATOM     33  C   UNL     1       1.413   9.747   5.928  1.00  0.00     0.026 C 
BRANCH  33  34
ATOM     34  C   UNL     1       0.375  10.869   5.978  1.00  0.00     0.146 C 
BRANCH  34  35
ATOM     35  N   UNL     1      -0.447  10.803   4.778  1.00  0.00    -0.254 NA
ATOM     36  C   UNL     1      -1.583  10.214   4.844  1.00  0.00     0.185 C 
ATOM     37  N   UNL     1      -2.352  10.152   3.745  1.00  0.00    -0.370 N 
ATOM     38  N   UNL     1      -2.164   9.615   5.898  1.00  0.00    -0.370 N 
ATOM     39  H   UNL     1      -1.987  10.591   2.910  1.00  0.00     0.159 HD
ATOM     40  H   UNL     1      -3.316   9.867   3.757  1.00  0.00     0.159 HD
ATOM     41  H   UNL     1      -3.000   9.064   5.789  1.00  0.00     0.159 HD
ATOM     42  H   UNL     1      -1.692   9.572   6.788  1.00  0.00     0.159 HD
ENDBRANCH  34  35
ENDBRANCH  33  34
ENDBRANCH  32  33
ENDBRANCH   6  32
ENDBRANCH   4   6
ENDBRANCH   1   2
BRANCH   1  43
ATOM     43  C   UNL     1       3.450   4.260   6.291  1.00  0.00     0.102 C 
ATOM     44  C   UNL     1       4.845   4.646   6.810  1.00  0.00     0.020 C 
BRANCH  43  45
ATOM     45  C   UNL     1       3.403   2.902   5.585  1.00  0.00     0.225 C 
ATOM     46  O   UNL     1       2.613   2.642   4.682  1.00  0.00    -0.275 OA
ATOM     47  N   UNL     1       4.248   1.942   6.092  1.00  0.00    -0.342 N 
ATOM     48  H   UNL     1       4.989   2.210   6.724  1.00  0.00     0.164 HD
BRANCH  47  49
ATOM     49  C   UNL     1       4.336   0.606   5.494  1.00  0.00     0.192 C 
BRANCH  49  50
ATOM     50  C   UNL     1       3.738  -0.427   6.452  1.00  0.00     0.047 C 
BRANCH  50  51
ATOM     51  C   UNL     1       4.173  -0.194   7.905  1.00  0.00     0.103 C 
BRANCH  51  52
ATOM     52  C   UNL     1       4.244  -1.497   8.698  1.00  0.00     0.226 C 
ATOM     53  O   UNL     1       3.465  -1.685   9.635  1.00  0.00    -0.275 OA
BRANCH  52  54
ATOM     54  N   UNL     1       5.171  -2.455   8.248  1.00  0.00    -0.311 N 
ATOM     55  C   UNL     1       6.598  -2.128   8.127  1.00  0.00     0.153 C 
BRANCH  54  56
ATOM     56  C   UNL     1       4.771  -3.757   7.904  1.00  0.00     0.102 C 
ATOM     57  C   UNL     1       4.186  -4.100   6.744  1.00  0.00     0.043 C 
BRANCH  56  58
ATOM     58  C   UNL     1       5.022  -4.918   8.837  1.00  0.00     0.268 C 
ATOM     59  O   UNL     1       4.549  -4.986   9.964  1.00  0.00    -0.268 OA
ATOM     60  N   UNL     1       5.779  -5.914   8.269  1.00  0.00    -0.339 N 
ATOM     61  H   UNL     1       6.142  -5.776   7.334  1.00  0.00     0.164 HD
BRANCH  60  62
ATOM     62  C   UNL     1       6.089  -7.156   8.976  1.00  0.00     0.168 CG0
ATOM     63  C   UNL     1       7.399  -7.036   9.744  1.00  0.00     0.041 C 
ATOM     64  G   UNL     1       6.152  -8.322   7.968  1.00  0.00     0.000 G0
ENDBRANCH  60  62
ENDBRANCH  56  58
ENDBRANCH  54  56
ENDBRANCH  52  54
ENDBRANCH  51  52
ENDBRANCH  50  51
ENDBRANCH  49  50
BRANCH  49  65
ATOM     65  C   UNL     1       5.790   0.223   5.175  1.00  0.00     0.326 C 
ATOM     66  O   UNL     1       6.776   0.894   5.441  1.00  0.00    -0.250 OA
BRANCH  65  67
ATOM     67  O   UNL     1       5.931  -0.936   4.495  1.00  0.00    -0.480 OA
ATOM     68  H   UNL     1       6.090  -1.600   5.200  1.00  0.00     0.296 HD
ENDBRANCH  65  67
ENDBRANCH  49  65
ENDBRANCH  47  49
ENDBRANCH  43  45
ENDBRANCH   1  43
BRANCH   1  69
ATOM     69  C   UNL     1       3.627   6.088   4.385  1.00  0.00    -0.001 C 
ATOM     70  C   UNL     1       3.899   7.404   4.326  1.00  0.00     0.001 C 
BRANCH  70  71
ATOM     71  C   UNL     1       4.730   8.086   3.333  1.00  0.00    -0.055 C 
ATOM     72  C   UNL     1       4.127   8.538   2.213  1.00  0.00    -0.018 C 
ATOM     73  C   UNL     1       6.198   8.244   3.634  1.00  0.00     0.044 C 
BRANCH  72  74
ATOM     74  C   UNL     1       4.729   9.276   1.025  1.00  0.00     0.038 C 
ATOM     75  C   UNL     1       4.617  10.777   1.322  1.00  0.00     0.015 C 
BRANCH  74  76
ATOM     76  C   UNL     1       4.006   8.811  -0.273  1.00  0.00     0.128 C 
BRANCH  76  77
ATOM     77  O   UNL     1       4.511   9.540  -1.404  1.00  0.00    -0.381 OA
ATOM     78  C   UNL     1       5.500   8.834  -2.142  1.00  0.00     0.195 C 
ENDBRANCH  76  77
BRANCH  76  79
ATOM     79  C   UNL     1       4.027   7.277  -0.490  1.00  0.00     0.068 C 
BRANCH  79  80
ATOM     80  C   UNL     1       2.731   6.521  -0.320  1.00  0.00    -0.045 A 
ATOM     81  C   UNL     1       1.853   6.342  -1.397  1.00  0.00     0.004 A 
ATOM     82  C   UNL     1       2.371   6.007   0.935  1.00  0.00     0.004 A 
ATOM     83  C   UNL     1       0.650   5.654  -1.229  1.00  0.00     0.000 A 
ATOM     84  C   UNL     1       1.167   5.319   1.103  1.00  0.00     0.000 A 
ATOM     85  C   UNL     1       0.308   5.141   0.021  1.00  0.00     0.000 A 
ENDBRANCH  79  80
ENDBRANCH  76  79
ENDBRANCH  74  76
ENDBRANCH  72  74
ENDBRANCH  70  71
ENDBRANCH   1  69
TORSDOF 17
ENDMDL
MODEL 22
REMARK VINA RESULT:    -5.284      1.681      3.520
REMARK INTER + INTRA:         -24.843
REMARK INTER:                 -17.761
REMARK INTRA:                  -7.082
REMARK UNBOUND:                -9.057
REMARK SMILES C=C1C(=O)N[C@H](C)C(=O)N[C@@H](CC(C)C)C(=O)N[C@@H](C(=O)O)[C@H](C)C(=O)N[C@@H](CCCN=C(N)N)C(=O)N[C@@H](/C=C/C(C)=C/[C@H](C)[C@H](Cc2ccccc2)OC)[C@H](C)C(=O)N[C@@H](C(=O)O)CCC(=O)N1C
REMARK SMILES IDX 39 1 38 2 37 3 36 4 28 6 27 7 25 8 26 9 23 11 24 12 19 13
REMARK SMILES IDX 18 14 16 15 17 16 11 18 10 19 8 20 9 21 12 24 13 25 14 26
REMARK SMILES IDX 15 27 20 28 21 29 22 30 29 32 30 33 31 34 32 35 33 36 34 37
REMARK SMILES IDX 35 38 57 43 58 44 59 45 60 46 61 47 62 49 66 50 67 51 68 52
REMARK SMILES IDX 69 53 70 54 71 55 2 56 1 57 3 58 4 59 5 60 6 62 7 63 63 65
REMARK SMILES IDX 64 66 65 67 40 69 41 70 42 71 44 72 43 73 45 74 46 75 47 76
REMARK SMILES IDX 55 77 56 78 48 79 49 80 50 81 54 82 51 83 53 84 52 85
REMARK H PARENT 38 5 27 10 18 17 10 22 22 31 34 39 34 40 35 41 35 42 61 48
REMARK H PARENT 5 61 65 68
REMARK Flexibility Score:  369.900
ROOT
ATOM      1  C   UNL     1       1.750  11.472   4.683  1.00  0.00     0.117 C 
ENDROOT
BRANCH   1   2
ATOM      2  N   UNL     1       2.420  11.334   5.977  1.00  0.00    -0.347 N 
ATOM      3  O   UNL     1       1.453  13.133   7.024  1.00  0.00    -0.273 OA
ATOM      4  C   UNL     1       2.149  12.124   7.077  1.00  0.00     0.243 C 
ATOM      5  H   UNL     1       3.090  10.591   6.110  1.00  0.00     0.164 HD
BRANCH   4   6
ATOM      6  C   UNL     1       2.935  11.714   8.348  1.00  0.00     0.171 C 
BRANCH   6   7
ATOM      7  N   UNL     1       2.136  11.980   9.555  1.00  0.00    -0.344 N 
ATOM      8  C   UNL     1       2.750  12.282  10.751  1.00  0.00     0.226 C 
ATOM      9  O   UNL     1       3.968  12.323  10.877  1.00  0.00    -0.275 OA
ATOM     10  H   UNL     1       1.129  11.889   9.507  1.00  0.00     0.164 HD
BRANCH   8  11
ATOM     11  C   UNL     1       1.790  12.584  11.888  1.00  0.00     0.109 C 
ATOM     12  C   UNL     1       1.394  14.060  11.865  1.00  0.00     0.021 C 
BRANCH  11  13
ATOM     13  C   UNL     1       0.607  11.595  11.848  1.00  0.00     0.204 C 
BRANCH  13  14
ATOM     14  N   UNL     1       0.873  10.386  12.633  1.00  0.00    -0.340 N 
ATOM     15  C   UNL     1       0.307   9.164  12.341  1.00  0.00     0.243 C 
ATOM     16  O   UNL     1      -0.416   8.989  11.361  1.00  0.00    -0.273 OA
ATOM     17  H   UNL     1       1.338  10.493  13.539  1.00  0.00     0.164 HD
BRANCH  15  18
ATOM     18  C   UNL     1       0.565   8.087  13.423  1.00  0.00     0.171 C 
BRANCH  18  19
ATOM     19  N   UNL     1      -0.728   7.793  14.038  1.00  0.00    -0.343 N 
ATOM     20  C   UNL     1      -1.331   8.669  14.920  1.00  0.00     0.242 CG0
ATOM     21  O   UNL     1      -0.750   9.671  15.331  1.00  0.00    -0.273 OA
ATOM     22  H   UNL     1      -1.196   6.921  13.819  1.00  0.00     0.164 HD
ATOM     23  G   UNL     1      -2.727   8.224  15.404  1.00  0.00     0.000 G0
ENDBRANCH  18  19
BRANCH  18  24
ATOM     24  C   UNL     1       1.189   6.832  12.800  1.00  0.00     0.038 C 
BRANCH  24  25
ATOM     25  C   UNL     1       2.532   6.401  13.427  1.00  0.00    -0.015 C 
ATOM     26  C   UNL     1       2.478   6.362  14.954  1.00  0.00     0.007 C 
ATOM     27  C   UNL     1       3.641   7.354  12.974  1.00  0.00     0.007 C 
ENDBRANCH  24  25
ENDBRANCH  18  24
ENDBRANCH  15  18
ENDBRANCH  13  14
BRANCH  13  28
ATOM     28  C   UNL     1      -0.701  12.197  12.371  1.00  0.00     0.327 C 
ATOM     29  O   UNL     1      -1.579  12.713  11.697  1.00  0.00    -0.250 OA
BRANCH  28  30
ATOM     30  O   UNL     1      -0.771  12.221  13.717  1.00  0.00    -0.480 OA
ATOM     31  H   UNL     1      -1.256  13.048  13.919  1.00  0.00     0.296 HD
ENDBRANCH  28  30
ENDBRANCH  13  28
ENDBRANCH  11  13
ENDBRANCH   8  11
ENDBRANCH   6   7
BRANCH   6  32
ATOM     32  C   UNL     1       3.307  10.230   8.253  1.00  0.00     0.037 C 
BRANCH  32  33
ATOM     33  C   UNL     1       2.243   9.325   8.889  1.00  0.00     0.026 C 
BRANCH  33  34
ATOM     34  C   UNL     1       2.447   7.849   8.544  1.00  0.00     0.146 C 
BRANCH  34  35
ATOM     35  N   UNL     1       1.535   7.047   9.348  1.00  0.00    -0.254 NA
ATOM     36  C   UNL     1       0.369   6.793   8.884  1.00  0.00     0.185 C 
ATOM     37  N   UNL     1      -0.478   6.051   9.615  1.00  0.00    -0.370 N 
ATOM     38  N   UNL     1      -0.176   7.170   7.714  1.00  0.00    -0.370 N 
ATOM     39  H   UNL     1      -0.136   5.718  10.508  1.00  0.00     0.159 HD
ATOM     40  H   UNL     1      -1.333   5.665   9.254  1.00  0.00     0.159 HD
ATOM     41  H   UNL     1      -1.154   7.024   7.524  1.00  0.00     0.159 HD
ATOM     42  H   UNL     1       0.342   7.747   7.070  1.00  0.00     0.159 HD
ENDBRANCH  34  35
ENDBRANCH  33  34
ENDBRANCH  32  33
ENDBRANCH   6  32
ENDBRANCH   4   6
ENDBRANCH   1   2
BRANCH   1  43
ATOM     43  C   UNL     1       0.669  10.358   4.565  1.00  0.00     0.102 C 
ATOM     44  C   UNL     1      -0.475  10.505   5.582  1.00  0.00     0.020 C 
BRANCH  43  45
ATOM     45  C   UNL     1       1.311   8.968   4.549  1.00  0.00     0.225 C 
ATOM     46  O   UNL     1       2.220   8.640   5.306  1.00  0.00    -0.275 OA
ATOM     47  N   UNL     1       0.868   8.122   3.558  1.00  0.00    -0.342 N 
ATOM     48  H   UNL     1       0.025   8.347   3.048  1.00  0.00     0.164 HD
BRANCH  47  49
ATOM     49  C   UNL     1       1.367   6.748   3.443  1.00  0.00     0.192 C 
BRANCH  49  50
ATOM     50  C   UNL     1       1.013   6.186   2.064  1.00  0.00     0.047 C 
BRANCH  50  51
ATOM     51  C   UNL     1       2.139   6.398   1.043  1.00  0.00     0.103 C 
BRANCH  51  52
ATOM     52  C   UNL     1       1.842   5.712  -0.289  1.00  0.00     0.226 C 
ATOM     53  O   UNL     1       0.921   4.897  -0.363  1.00  0.00    -0.275 OA
BRANCH  52  54
ATOM     54  N   UNL     1       2.613   6.124  -1.392  1.00  0.00    -0.311 N 
ATOM     55  C   UNL     1       4.065   5.903  -1.424  1.00  0.00     0.153 C 
BRANCH  54  56
ATOM     56  C   UNL     1       2.026   6.753  -2.502  1.00  0.00     0.102 C 
ATOM     57  C   UNL     1       0.709   6.777  -2.765  1.00  0.00     0.043 C 
BRANCH  56  58
ATOM     58  C   UNL     1       2.870   7.518  -3.495  1.00  0.00     0.268 C 
ATOM     59  O   UNL     1       3.281   8.652  -3.292  1.00  0.00    -0.268 OA
ATOM     60  N   UNL     1       3.180   6.786  -4.616  1.00  0.00    -0.339 N 
ATOM     61  H   UNL     1       2.791   5.856  -4.714  1.00  0.00     0.164 HD
BRANCH  60  62
ATOM     62  C   UNL     1       4.038   7.312  -5.677  1.00  0.00     0.168 CG0
ATOM     63  C   UNL     1       4.414   6.218  -6.670  1.00  0.00     0.041 C 
ATOM     64  G   UNL     1       5.302   7.941  -5.055  1.00  0.00     0.000 G0
ENDBRANCH  60  62
ENDBRANCH  56  58
ENDBRANCH  54  56
ENDBRANCH  52  54
ENDBRANCH  51  52
ENDBRANCH  50  51
ENDBRANCH  49  50
BRANCH  49  65
ATOM     65  C   UNL     1       0.776   5.838   4.531  1.00  0.00     0.326 C 
ATOM     66  O   UNL     1      -0.326   5.309   4.493  1.00  0.00    -0.250 OA
BRANCH  65  67
ATOM     67  O   UNL     1       1.556   5.686   5.624  1.00  0.00    -0.480 OA
ATOM     68  H   UNL     1       2.007   4.828   5.469  1.00  0.00     0.296 HD
ENDBRANCH  65  67
ENDBRANCH  49  65
ENDBRANCH  47  49
ENDBRANCH  43  45
ENDBRANCH   1  43
BRANCH   1  69
ATOM     69  C   UNL     1       2.850  11.540   3.640  1.00  0.00    -0.001 C 
ATOM     70  C   UNL     1       2.899  12.332   2.554  1.00  0.00     0.001 C 
BRANCH  70  71
ATOM     71  C   UNL     1       3.977  12.404   1.566  1.00  0.00    -0.055 C 
ATOM     72  C   UNL     1       4.543  11.245   1.169  1.00  0.00    -0.018 C 
ATOM     73  C   UNL     1       4.371  13.765   1.056  1.00  0.00     0.044 C 
BRANCH  72  74
ATOM     74  C   UNL     1       5.665  11.015   0.167  1.00  0.00     0.038 C 
ATOM     75  C   UNL     1       5.020  10.910  -1.220  1.00  0.00     0.015 C 
BRANCH  74  76
ATOM     76  C   UNL     1       6.479   9.762   0.605  1.00  0.00     0.128 C 
BRANCH  76  77
ATOM     77  O   UNL     1       7.483   9.459  -0.378  1.00  0.00    -0.381 OA
ATOM     78  C   UNL     1       7.719   8.068  -0.544  1.00  0.00     0.195 C 
ENDBRANCH  76  77
BRANCH  76  79
ATOM     79  C   UNL     1       7.055   9.855   2.041  1.00  0.00     0.068 C 
BRANCH  79  80
ATOM     80  C   UNL     1       6.549   8.875   3.071  1.00  0.00    -0.045 A 
ATOM     81  C   UNL     1       7.332   8.522   4.178  1.00  0.00     0.004 A 
ATOM     82  C   UNL     1       5.288   8.277   2.919  1.00  0.00     0.004 A 
ATOM     83  C   UNL     1       6.862   7.604   5.119  1.00  0.00     0.000 A 
ATOM     84  C   UNL     1       4.820   7.358   3.861  1.00  0.00     0.000 A 
ATOM     85  C   UNL     1       5.606   7.023   4.961  1.00  0.00     0.000 A 
ENDBRANCH  79  80
ENDBRANCH  76  79
ENDBRANCH  74  76
ENDBRANCH  72  74
ENDBRANCH  70  71
ENDBRANCH   1  69
TORSDOF 17
ENDMDL
MODEL 23
REMARK VINA RESULT:    -5.276      3.208     11.787
REMARK INTER + INTRA:         -24.821
REMARK INTER:                 -17.209
REMARK INTRA:                  -7.611
REMARK UNBOUND:                -9.057
REMARK SMILES C=C1C(=O)N[C@H](C)C(=O)N[C@@H](CC(C)C)C(=O)N[C@@H](C(=O)O)[C@H](C)C(=O)N[C@@H](CCCN=C(N)N)C(=O)N[C@@H](/C=C/C(C)=C/[C@H](C)[C@H](Cc2ccccc2)OC)[C@H](C)C(=O)N[C@@H](C(=O)O)CCC(=O)N1C
REMARK SMILES IDX 39 1 38 2 37 3 36 4 28 6 27 7 25 8 26 9 23 11 24 12 19 13
REMARK SMILES IDX 18 14 16 15 17 16 11 18 10 19 8 20 9 21 12 24 13 25 14 26
REMARK SMILES IDX 15 27 20 28 21 29 22 30 29 32 30 33 31 34 32 35 33 36 34 37
REMARK SMILES IDX 35 38 57 43 58 44 59 45 60 46 61 47 62 49 66 50 67 51 68 52
REMARK SMILES IDX 69 53 70 54 71 55 2 56 1 57 3 58 4 59 5 60 6 62 7 63 63 65
REMARK SMILES IDX 64 66 65 67 40 69 41 70 42 71 44 72 43 73 45 74 46 75 47 76
REMARK SMILES IDX 55 77 56 78 48 79 49 80 50 81 54 82 51 83 53 84 52 85
REMARK H PARENT 38 5 27 10 18 17 10 22 22 31 34 39 34 40 35 41 35 42 61 48
REMARK H PARENT 5 61 65 68
REMARK Flexibility Score:  369.900
ROOT
ATOM      1  C   UNL     1       2.435   6.876   4.386  1.00  0.00     0.117 C 
ENDROOT
BRANCH   1   2
ATOM      2  N   UNL     1       3.791   6.984   4.925  1.00  0.00    -0.347 N 
ATOM      3  O   UNL     1       4.385   8.945   3.890  1.00  0.00    -0.273 OA
ATOM      4  C   UNL     1       4.627   8.061   4.705  1.00  0.00     0.243 C 
ATOM      5  H   UNL     1       4.139   6.261   5.537  1.00  0.00     0.164 HD
BRANCH   4   6
ATOM      6  C   UNL     1       5.977   7.966   5.461  1.00  0.00     0.171 C 
BRANCH   6   7
ATOM      7  N   UNL     1       6.855   9.087   5.087  1.00  0.00    -0.344 N 
ATOM      8  C   UNL     1       7.918   8.892   4.232  1.00  0.00     0.226 C 
ATOM      9  O   UNL     1       8.197   7.794   3.765  1.00  0.00    -0.275 OA
ATOM     10  H   UNL     1       6.697   9.995   5.506  1.00  0.00     0.164 HD
BRANCH   8  11
ATOM     11  C   UNL     1       8.695  10.155   3.901  1.00  0.00     0.109 C 
ATOM     12  C   UNL     1      10.160   9.993   4.307  1.00  0.00     0.021 C 
BRANCH  11  13
ATOM     13  C   UNL     1       8.469  10.534   2.424  1.00  0.00     0.204 C 
BRANCH  13  14
ATOM     14  N   UNL     1       9.175   9.631   1.509  1.00  0.00    -0.340 N 
ATOM     15  C   UNL     1       9.897  10.080   0.425  1.00  0.00     0.243 C 
ATOM     16  O   UNL     1      10.051  11.276   0.183  1.00  0.00    -0.273 OA
ATOM     17  H   UNL     1       8.965   8.631   1.563  1.00  0.00     0.164 HD
BRANCH  15  18
ATOM     18  C   UNL     1      10.378   8.944  -0.512  1.00  0.00     0.171 C 
BRANCH  18  19
ATOM     19  N   UNL     1      11.406   9.521  -1.376  1.00  0.00    -0.343 N 
ATOM     20  C   UNL     1      11.682   9.002  -2.626  1.00  0.00     0.242 CG0
ATOM     21  O   UNL     1      11.171   7.955  -3.015  1.00  0.00    -0.273 OA
ATOM     22  H   UNL     1      11.939  10.320  -1.050  1.00  0.00     0.164 HD
ATOM     23  G   UNL     1      12.742   9.791  -3.423  1.00  0.00     0.000 G0
ENDBRANCH  18  19
BRANCH  18  24
ATOM     24  C   UNL     1      10.925   7.766   0.303  1.00  0.00     0.038 C 
BRANCH  24  25
ATOM     25  C   UNL     1      10.259   6.407  -0.001  1.00  0.00    -0.015 C 
ATOM     26  C   UNL     1       8.936   6.560  -0.754  1.00  0.00     0.007 C 
ATOM     27  C   UNL     1      10.024   5.645   1.305  1.00  0.00     0.007 C 
ENDBRANCH  24  25
ENDBRANCH  18  24
ENDBRANCH  15  18
ENDBRANCH  13  14
BRANCH  13  28
ATOM     28  C   UNL     1       6.992  10.527   2.018  1.00  0.00     0.327 C 
ATOM     29  O   UNL     1       6.230  11.482   2.047  1.00  0.00    -0.250 OA
BRANCH  28  30
ATOM     30  O   UNL     1       6.533   9.296   1.714  1.00  0.00    -0.480 OA
ATOM     31  H   UNL     1       5.590   9.440   1.488  1.00  0.00     0.296 HD
ENDBRANCH  28  30
ENDBRANCH  13  28
ENDBRANCH  11  13
ENDBRANCH   8  11
ENDBRANCH   6   7
BRANCH   6  32
ATOM     32  C   UNL     1       5.710   7.960   6.970  1.00  0.00     0.037 C 
BRANCH  32  33
ATOM     33  C   UNL     1       6.680   8.872   7.734  1.00  0.00     0.026 C 
BRANCH  33  34
ATOM     34  C   UNL     1       7.818   8.094   8.395  1.00  0.00     0.146 C 
BRANCH  34  35
ATOM     35  N   UNL     1       8.932   8.007   7.461  1.00  0.00    -0.254 NA
ATOM     36  C   UNL     1       9.222   6.866   6.955  1.00  0.00     0.185 C 
ATOM     37  N   UNL     1      10.243   6.776   6.089  1.00  0.00    -0.370 N 
ATOM     38  N   UNL     1       8.633   5.676   7.162  1.00  0.00    -0.370 N 
ATOM     39  H   UNL     1      10.733   7.635   5.872  1.00  0.00     0.159 HD
ATOM     40  H   UNL     1      10.422   5.965   5.522  1.00  0.00     0.159 HD
ATOM     41  H   UNL     1       9.041   4.824   6.813  1.00  0.00     0.159 HD
ATOM     42  H   UNL     1       7.859   5.591   7.803  1.00  0.00     0.159 HD
ENDBRANCH  34  35
ENDBRANCH  33  34
ENDBRANCH  32  33
ENDBRANCH   6  32
ENDBRANCH   4   6
ENDBRANCH   1   2
BRANCH   1  43
ATOM     43  C   UNL     1       1.626   5.887   5.274  1.00  0.00     0.102 C 
ATOM     44  C   UNL     1       0.103   6.022   5.109  1.00  0.00     0.020 C 
BRANCH  43  45
ATOM     45  C   UNL     1       2.101   5.940   6.729  1.00  0.00     0.225 C 
ATOM     46  O   UNL     1       3.098   5.348   7.131  1.00  0.00    -0.275 OA
ATOM     47  N   UNL     1       1.280   6.625   7.595  1.00  0.00    -0.342 N 
ATOM     48  H   UNL     1       0.556   7.227   7.228  1.00  0.00     0.164 HD
BRANCH  47  49
ATOM     49  C   UNL     1       1.626   6.789   9.011  1.00  0.00     0.192 C 
BRANCH  49  50
ATOM     50  C   UNL     1       0.367   6.641   9.868  1.00  0.00     0.047 C 
BRANCH  50  51
ATOM     51  C   UNL     1       0.693   6.497  11.361  1.00  0.00     0.103 C 
BRANCH  51  52
ATOM     52  C   UNL     1       0.062   7.610  12.196  1.00  0.00     0.226 C 
ATOM     53  O   UNL     1      -0.502   8.550  11.633  1.00  0.00    -0.275 OA
BRANCH  52  54
ATOM     54  N   UNL     1       0.104   7.446  13.593  1.00  0.00    -0.311 N 
ATOM     55  C   UNL     1       1.299   7.817  14.362  1.00  0.00     0.153 C 
BRANCH  54  56
ATOM     56  C   UNL     1      -0.993   6.929  14.303  1.00  0.00     0.102 C 
ATOM     57  C   UNL     1      -0.905   6.100  15.355  1.00  0.00     0.043 C 
BRANCH  56  58
ATOM     58  C   UNL     1      -2.405   7.324  13.942  1.00  0.00     0.268 C 
ATOM     59  O   UNL     1      -3.048   6.778  13.055  1.00  0.00    -0.268 OA
ATOM     60  N   UNL     1      -2.914   8.311  14.753  1.00  0.00    -0.339 N 
ATOM     61  H   UNL     1      -2.313   8.719  15.459  1.00  0.00     0.164 HD
BRANCH  60  62
ATOM     62  C   UNL     1      -4.286   8.799  14.618  1.00  0.00     0.168 CG0
ATOM     63  C   UNL     1      -5.262   7.902  15.368  1.00  0.00     0.041 C 
ATOM     64  G   UNL     1      -4.660   8.884  13.124  1.00  0.00     0.000 G0
ENDBRANCH  60  62
ENDBRANCH  56  58
ENDBRANCH  54  56
ENDBRANCH  52  54
ENDBRANCH  51  52
ENDBRANCH  50  51
ENDBRANCH  49  50
BRANCH  49  65
ATOM     65  C   UNL     1       2.269   8.158   9.282  1.00  0.00     0.326 C 
ATOM     66  O   UNL     1       1.774   9.242   9.010  1.00  0.00    -0.250 OA
BRANCH  65  67
ATOM     67  O   UNL     1       3.508   8.102   9.818  1.00  0.00    -0.480 OA
ATOM     68  H   UNL     1       3.351   7.784  10.733  1.00  0.00     0.296 HD
ENDBRANCH  65  67
ENDBRANCH  49  65
ENDBRANCH  47  49
ENDBRANCH  43  45
ENDBRANCH   1  43
BRANCH   1  69
ATOM     69  C   UNL     1       2.590   6.575   2.906  1.00  0.00    -0.001 C 
ATOM     70  C   UNL     1       1.611   6.352   2.011  1.00  0.00     0.001 C 
BRANCH  70  71
ATOM     71  C   UNL     1       1.772   6.083   0.581  1.00  0.00    -0.055 C 
ATOM     72  C   UNL     1       2.873   6.569  -0.029  1.00  0.00    -0.018 C 
ATOM     73  C   UNL     1       0.701   5.277  -0.107  1.00  0.00     0.044 C 
BRANCH  72  74
ATOM     74  C   UNL     1       3.302   6.447  -1.485  1.00  0.00     0.038 C 
ATOM     75  C   UNL     1       4.614   5.654  -1.505  1.00  0.00     0.015 C 
BRANCH  74  76
ATOM     76  C   UNL     1       3.391   7.873  -2.103  1.00  0.00     0.128 C 
BRANCH  76  77
ATOM     77  O   UNL     1       2.102   8.276  -2.595  1.00  0.00    -0.381 OA
ATOM     78  C   UNL     1       1.441   7.272  -3.353  1.00  0.00     0.195 C 
ENDBRANCH  76  77
BRANCH  76  79
ATOM     79  C   UNL     1       4.030   8.927  -1.163  1.00  0.00     0.068 C 
BRANCH  79  80
ATOM     80  C   UNL     1       5.319   9.578  -1.605  1.00  0.00    -0.045 A 
ATOM     81  C   UNL     1       5.520  10.956  -1.452  1.00  0.00     0.004 A 
ATOM     82  C   UNL     1       6.329   8.812  -2.204  1.00  0.00     0.004 A 
ATOM     83  C   UNL     1       6.709  11.554  -1.876  1.00  0.00     0.000 A 
ATOM     84  C   UNL     1       7.518   9.410  -2.628  1.00  0.00     0.000 A 
ATOM     85  C   UNL     1       7.708  10.780  -2.463  1.00  0.00     0.000 A 
ENDBRANCH  79  80
ENDBRANCH  76  79
ENDBRANCH  74  76
ENDBRANCH  72  74
ENDBRANCH  70  71
ENDBRANCH   1  69
TORSDOF 17
ENDMDL
MODEL 24
REMARK VINA RESULT:    -5.273      3.656      6.265
REMARK INTER + INTRA:         -24.810
REMARK INTER:                 -18.745
REMARK INTRA:                  -6.065
REMARK UNBOUND:                -9.057
REMARK SMILES C=C1C(=O)N[C@H](C)C(=O)N[C@@H](CC(C)C)C(=O)N[C@@H](C(=O)O)[C@H](C)C(=O)N[C@@H](CCCN=C(N)N)C(=O)N[C@@H](/C=C/C(C)=C/[C@H](C)[C@H](Cc2ccccc2)OC)[C@H](C)C(=O)N[C@@H](C(=O)O)CCC(=O)N1C
REMARK SMILES IDX 39 1 38 2 37 3 36 4 28 6 27 7 25 8 26 9 23 11 24 12 19 13
REMARK SMILES IDX 18 14 16 15 17 16 11 18 10 19 8 20 9 21 12 24 13 25 14 26
REMARK SMILES IDX 15 27 20 28 21 29 22 30 29 32 30 33 31 34 32 35 33 36 34 37
REMARK SMILES IDX 35 38 57 43 58 44 59 45 60 46 61 47 62 49 66 50 67 51 68 52
REMARK SMILES IDX 69 53 70 54 71 55 2 56 1 57 3 58 4 59 5 60 6 62 7 63 63 65
REMARK SMILES IDX 64 66 65 67 40 69 41 70 42 71 44 72 43 73 45 74 46 75 47 76
REMARK SMILES IDX 55 77 56 78 48 79 49 80 50 81 54 82 51 83 53 84 52 85
REMARK H PARENT 38 5 27 10 18 17 10 22 22 31 34 39 34 40 35 41 35 42 61 48
REMARK H PARENT 5 61 65 68
REMARK Flexibility Score:  369.900
ROOT
ATOM      1  C   UNL     1       5.492   7.548   6.401  1.00  0.00     0.117 C 
ENDROOT
BRANCH   1   2
ATOM      2  N   UNL     1       4.190   8.164   6.662  1.00  0.00    -0.347 N 
ATOM      3  O   UNL     1       4.889  10.349   6.747  1.00  0.00    -0.273 OA
ATOM      4  C   UNL     1       3.978   9.528   6.723  1.00  0.00     0.243 C 
ATOM      5  H   UNL     1       3.375   7.576   6.757  1.00  0.00     0.164 HD
BRANCH   4   6
ATOM      6  C   UNL     1       2.492   9.919   6.925  1.00  0.00     0.171 C 
BRANCH   6   7
ATOM      7  N   UNL     1       1.899   9.136   8.021  1.00  0.00    -0.344 N 
ATOM      8  C   UNL     1       0.991   8.133   7.756  1.00  0.00     0.226 C 
ATOM      9  O   UNL     1       0.621   7.861   6.620  1.00  0.00    -0.275 OA
ATOM     10  H   UNL     1       2.129   9.376   8.977  1.00  0.00     0.164 HD
BRANCH   8  11
ATOM     11  C   UNL     1       0.512   7.382   8.986  1.00  0.00     0.109 C 
ATOM     12  C   UNL     1       0.362   5.894   8.668  1.00  0.00     0.021 C 
BRANCH  11  13
ATOM     13  C   UNL     1       1.432   7.699  10.182  1.00  0.00     0.204 C 
BRANCH  13  14
ATOM     14  N   UNL     1       0.703   8.335  11.284  1.00  0.00    -0.340 N 
ATOM     15  C   UNL     1       0.782   9.685  11.553  1.00  0.00     0.243 C 
ATOM     16  O   UNL     1       1.424  10.462  10.849  1.00  0.00    -0.273 OA
ATOM     17  H   UNL     1       0.278   7.730  11.991  1.00  0.00     0.164 HD
BRANCH  15  18
ATOM     18  C   UNL     1       0.099  10.091  12.882  1.00  0.00     0.171 C 
BRANCH  18  19
ATOM     19  N   UNL     1      -0.967  11.029  12.534  1.00  0.00    -0.343 N 
ATOM     20  C   UNL     1      -0.853  12.384  12.776  1.00  0.00     0.242 CG0
ATOM     21  O   UNL     1       0.090  12.847  13.413  1.00  0.00    -0.273 OA
ATOM     22  H   UNL     1      -1.819  10.679  12.109  1.00  0.00     0.164 HD
ATOM     23  G   UNL     1      -2.044  13.224  12.269  1.00  0.00     0.000 G0
ENDBRANCH  18  19
BRANCH  18  24
ATOM     24  C   UNL     1      -0.453   8.857  13.607  1.00  0.00     0.038 C 
BRANCH  24  25
ATOM     25  C   UNL     1      -1.991   8.735  13.592  1.00  0.00    -0.015 C 
ATOM     26  C   UNL     1      -2.593   8.746  14.997  1.00  0.00     0.007 C 
ATOM     27  C   UNL     1      -2.398   7.449  12.867  1.00  0.00     0.007 C 
ENDBRANCH  24  25
ENDBRANCH  18  24
ENDBRANCH  15  18
ENDBRANCH  13  14
BRANCH  13  28
ATOM     28  C   UNL     1       2.129   6.461  10.753  1.00  0.00     0.327 C 
ATOM     29  O   UNL     1       3.042   5.840  10.231  1.00  0.00    -0.250 OA
BRANCH  28  30
ATOM     30  O   UNL     1       1.556   6.009  11.887  1.00  0.00    -0.480 OA
ATOM     31  H   UNL     1       2.262   6.091  12.563  1.00  0.00     0.296 HD
ENDBRANCH  28  30
ENDBRANCH  13  28
ENDBRANCH  11  13
ENDBRANCH   8  11
ENDBRANCH   6   7
BRANCH   6  32
ATOM     32  C   UNL     1       2.403  11.421   7.216  1.00  0.00     0.037 C 
BRANCH  32  33
ATOM     33  C   UNL     1       1.490  12.150   6.220  1.00  0.00     0.026 C 
BRANCH  33  34
ATOM     34  C   UNL     1       0.703  11.185   5.333  1.00  0.00     0.146 C 
BRANCH  34  35
ATOM     35  N   UNL     1      -0.717  11.332   5.624  1.00  0.00    -0.254 NA
ATOM     36  C   UNL     1      -1.518  10.402   5.257  1.00  0.00     0.185 C 
ATOM     37  N   UNL     1      -2.828  10.524   5.525  1.00  0.00    -0.370 N 
ATOM     38  N   UNL     1      -1.243   9.256   4.610  1.00  0.00    -0.370 N 
ATOM     39  H   UNL     1      -3.114  11.358   6.021  1.00  0.00     0.159 HD
ATOM     40  H   UNL     1      -3.488   9.772   5.428  1.00  0.00     0.159 HD
ATOM     41  H   UNL     1      -1.979   8.670   4.252  1.00  0.00     0.159 HD
ATOM     42  H   UNL     1      -0.299   9.039   4.330  1.00  0.00     0.159 HD
ENDBRANCH  34  35
ENDBRANCH  33  34
ENDBRANCH  32  33
ENDBRANCH   6  32
ENDBRANCH   4   6
ENDBRANCH   1   2
BRANCH   1  43
ATOM     43  C   UNL     1       5.562   7.157   4.896  1.00  0.00     0.102 C 
ATOM     44  C   UNL     1       6.248   8.218   4.019  1.00  0.00     0.020 C 
BRANCH  43  45
ATOM     45  C   UNL     1       4.190   6.715   4.378  1.00  0.00     0.225 C 
ATOM     46  O   UNL     1       3.415   6.025   5.035  1.00  0.00    -0.275 OA
ATOM     47  N   UNL     1       3.907   7.064   3.077  1.00  0.00    -0.342 N 
ATOM     48  H   UNL     1       4.480   7.752   2.609  1.00  0.00     0.164 HD
BRANCH  47  49
ATOM     49  C   UNL     1       2.618   6.739   2.460  1.00  0.00     0.192 C 
BRANCH  49  50
ATOM     50  C   UNL     1       2.637   7.148   0.985  1.00  0.00     0.047 C 
BRANCH  50  51
ATOM     51  C   UNL     1       2.005   6.084   0.077  1.00  0.00     0.103 C 
BRANCH  51  52
ATOM     52  C   UNL     1       2.684   6.018  -1.289  1.00  0.00     0.226 C 
ATOM     53  O   UNL     1       3.653   5.275  -1.454  1.00  0.00    -0.275 OA
BRANCH  52  54
ATOM     54  N   UNL     1       2.095   6.777  -2.318  1.00  0.00    -0.311 N 
ATOM     55  C   UNL     1       0.657   6.679  -2.602  1.00  0.00     0.153 C 
BRANCH  54  56
ATOM     56  C   UNL     1       2.856   7.656  -3.106  1.00  0.00     0.102 C 
ATOM     57  C   UNL     1       3.784   8.504  -2.634  1.00  0.00     0.043 C 
BRANCH  56  58
ATOM     58  C   UNL     1       2.706   7.677  -4.609  1.00  0.00     0.268 C 
ATOM     59  O   UNL     1       1.903   8.392  -5.192  1.00  0.00    -0.268 OA
ATOM     60  N   UNL     1       3.607   6.862  -5.253  1.00  0.00    -0.339 N 
ATOM     61  H   UNL     1       4.233   6.293  -4.697  1.00  0.00     0.164 HD
BRANCH  60  62
ATOM     62  C   UNL     1       3.677   6.779  -6.712  1.00  0.00     0.168 CG0
ATOM     63  C   UNL     1       5.026   6.233  -7.163  1.00  0.00     0.041 C 
ATOM     64  G   UNL     1       3.421   8.172  -7.322  1.00  0.00     0.000 G0
ENDBRANCH  60  62
ENDBRANCH  56  58
ENDBRANCH  54  56
ENDBRANCH  52  54
ENDBRANCH  51  52
ENDBRANCH  50  51
ENDBRANCH  49  50
BRANCH  49  65
ATOM     65  C   UNL     1       1.455   7.449   3.170  1.00  0.00     0.326 C 
ATOM     66  O   UNL     1       1.333   8.658   3.299  1.00  0.00    -0.250 OA
BRANCH  65  67
ATOM     67  O   UNL     1       0.546   6.620   3.730  1.00  0.00    -0.480 OA
ATOM     68  H   UNL     1       0.673   5.776   3.245  1.00  0.00     0.296 HD
ENDBRANCH  65  67
ENDBRANCH  49  65
ENDBRANCH  47  49
ENDBRANCH  43  45
ENDBRANCH   1  43
BRANCH   1  69
ATOM     69  C   UNL     1       5.666   6.464   7.449  1.00  0.00    -0.001 C 
ATOM     70  C   UNL     1       5.666   5.133   7.256  1.00  0.00     0.001 C 
BRANCH  70  71
ATOM     71  C   UNL     1       5.856   4.097   8.273  1.00  0.00    -0.055 C 
ATOM     72  C   UNL     1       5.517   2.832   7.951  1.00  0.00    -0.018 C 
ATOM     73  C   UNL     1       6.426   4.516   9.604  1.00  0.00     0.044 C 
BRANCH  72  74
ATOM     74  C   UNL     1       5.606   1.566   8.793  1.00  0.00     0.038 C 
ATOM     75  C   UNL     1       4.607   1.718   9.946  1.00  0.00     0.015 C 
BRANCH  74  76
ATOM     76  C   UNL     1       7.085   1.361   9.233  1.00  0.00     0.128 C 
BRANCH  76  77
ATOM     77  O   UNL     1       7.173   0.270  10.165  1.00  0.00    -0.381 OA
ATOM     78  C   UNL     1       8.242   0.397  11.094  1.00  0.00     0.195 C 
ENDBRANCH  76  77
BRANCH  76  79
ATOM     79  C   UNL     1       8.080   1.223   8.053  1.00  0.00     0.068 C 
BRANCH  79  80
ATOM     80  C   UNL     1       7.626   0.460   6.832  1.00  0.00    -0.045 A 
ATOM     81  C   UNL     1       7.399   1.115   5.615  1.00  0.00     0.004 A 
ATOM     82  C   UNL     1       7.398  -0.922   6.906  1.00  0.00     0.004 A 
ATOM     83  C   UNL     1       6.966   0.405   4.493  1.00  0.00     0.000 A 
ATOM     84  C   UNL     1       6.964  -1.632   5.784  1.00  0.00     0.000 A 
ATOM     85  C   UNL     1       6.750  -0.969   4.578  1.00  0.00     0.000 A 
ENDBRANCH  79  80
ENDBRANCH  76  79
ENDBRANCH  74  76
ENDBRANCH  72  74
ENDBRANCH  70  71
ENDBRANCH   1  69
TORSDOF 17
ENDMDL
MODEL 25
REMARK VINA RESULT:    -5.272     14.728     17.814
REMARK INTER + INTRA:         -24.809
REMARK INTER:                 -17.976
REMARK INTRA:                  -6.833
REMARK UNBOUND:                -9.057
REMARK SMILES C=C1C(=O)N[C@H](C)C(=O)N[C@@H](CC(C)C)C(=O)N[C@@H](C(=O)O)[C@H](C)C(=O)N[C@@H](CCCN=C(N)N)C(=O)N[C@@H](/C=C/C(C)=C/[C@H](C)[C@H](Cc2ccccc2)OC)[C@H](C)C(=O)N[C@@H](C(=O)O)CCC(=O)N1C
REMARK SMILES IDX 39 1 38 2 37 3 36 4 28 6 27 7 25 8 26 9 23 11 24 12 19 13
REMARK SMILES IDX 18 14 16 15 17 16 11 18 10 19 8 20 9 21 12 24 13 25 14 26
REMARK SMILES IDX 15 27 20 28 21 29 22 30 29 32 30 33 31 34 32 35 33 36 34 37
REMARK SMILES IDX 35 38 57 43 58 44 59 45 60 46 61 47 62 49 66 50 67 51 68 52
REMARK SMILES IDX 69 53 70 54 71 55 2 56 1 57 3 58 4 59 5 60 6 62 7 63 63 65
REMARK SMILES IDX 64 66 65 67 40 69 41 70 42 71 44 72 43 73 45 74 46 75 47 76
REMARK SMILES IDX 55 77 56 78 48 79 49 80 50 81 54 82 51 83 53 84 52 85
REMARK H PARENT 38 5 27 10 18 17 10 22 22 31 34 39 34 40 35 41 35 42 61 48
REMARK H PARENT 5 61 65 68
REMARK Flexibility Score:  369.900
ROOT
ATOM      1  C   UNL     1       3.606  -7.793   9.731  1.00  0.00     0.117 C 
ENDROOT
BRANCH   1   2
ATOM      2  N   UNL     1       2.916  -7.438  10.972  1.00  0.00    -0.347 N 
ATOM      3  O   UNL     1       0.774  -7.427  10.147  1.00  0.00    -0.273 OA
ATOM      4  C   UNL     1       1.542  -7.373  11.102  1.00  0.00     0.243 C 
ATOM      5  H   UNL     1       3.456  -7.276  11.809  1.00  0.00     0.164 HD
BRANCH   4   6
ATOM      6  C   UNL     1       1.067  -7.061  12.543  1.00  0.00     0.171 C 
BRANCH   6   7
ATOM      7  N   UNL     1       1.917  -6.026  13.153  1.00  0.00    -0.344 N 
ATOM      8  C   UNL     1       2.267  -6.098  14.484  1.00  0.00     0.226 C 
ATOM      9  O   UNL     1       1.878  -6.996  15.221  1.00  0.00    -0.275 OA
ATOM     10  H   UNL     1       2.203  -5.233  12.593  1.00  0.00     0.164 HD
BRANCH   8  11
ATOM     11  C   UNL     1       3.192  -4.987  14.949  1.00  0.00     0.109 C 
ATOM     12  C   UNL     1       3.682  -4.175  13.750  1.00  0.00     0.021 C 
BRANCH  11  13
ATOM     13  C   UNL     1       2.502  -4.162  16.053  1.00  0.00     0.204 C 
BRANCH  13  14
ATOM     14  N   UNL     1       1.041  -4.195  15.935  1.00  0.00    -0.340 N 
ATOM     15  C   UNL     1       0.299  -3.110  15.521  1.00  0.00     0.243 C 
ATOM     16  O   UNL     1       0.817  -2.053  15.162  1.00  0.00    -0.273 OA
ATOM     17  H   UNL     1       0.543  -4.982  16.357  1.00  0.00     0.164 HD
BRANCH  15  18
ATOM     18  C   UNL     1      -1.229  -3.310  15.673  1.00  0.00     0.171 C 
BRANCH  18  19
ATOM     19  N   UNL     1      -1.602  -2.726  16.960  1.00  0.00    -0.343 N 
ATOM     20  C   UNL     1      -1.311  -3.352  18.156  1.00  0.00     0.242 CG0
ATOM     21  O   UNL     1      -0.846  -4.488  18.192  1.00  0.00    -0.273 OA
ATOM     22  H   UNL     1      -2.093  -1.839  16.979  1.00  0.00     0.164 HD
ATOM     23  G   UNL     1      -1.711  -2.546  19.410  1.00  0.00     0.000 G0
ENDBRANCH  18  19
BRANCH  18  24
ATOM     24  C   UNL     1      -1.981  -2.645  14.514  1.00  0.00     0.038 C 
BRANCH  24  25
ATOM     25  C   UNL     1      -2.220  -3.558  13.293  1.00  0.00    -0.015 C 
ATOM     26  C   UNL     1      -1.663  -2.963  11.999  1.00  0.00     0.007 C 
ATOM     27  C   UNL     1      -3.720  -3.822  13.134  1.00  0.00     0.007 C 
ENDBRANCH  24  25
ENDBRANCH  18  24
ENDBRANCH  15  18
ENDBRANCH  13  14
BRANCH  13  28
ATOM     28  C   UNL     1       2.854  -4.632  17.467  1.00  0.00     0.327 C 
ATOM     29  O   UNL     1       3.873  -4.365  18.085  1.00  0.00    -0.250 OA
BRANCH  28  30
ATOM     30  O   UNL     1       1.958  -5.505  17.972  1.00  0.00    -0.480 OA
ATOM     31  H   UNL     1       2.466  -6.336  18.081  1.00  0.00     0.296 HD
ENDBRANCH  28  30
ENDBRANCH  13  28
ENDBRANCH  11  13
ENDBRANCH   8  11
ENDBRANCH   6   7
BRANCH   6  32
ATOM     32  C   UNL     1      -0.398  -6.611  12.504  1.00  0.00     0.037 C 
BRANCH  32  33
ATOM     33  C   UNL     1      -1.362  -7.742  12.889  1.00  0.00     0.026 C 
BRANCH  33  34
ATOM     34  C   UNL     1      -2.570  -7.825  11.956  1.00  0.00     0.146 C 
BRANCH  34  35
ATOM     35  N   UNL     1      -3.086  -9.187  11.976  1.00  0.00    -0.254 NA
ATOM     36  C   UNL     1      -3.374  -9.751  10.862  1.00  0.00     0.185 C 
ATOM     37  N   UNL     1      -3.845 -11.008  10.868  1.00  0.00    -0.370 N 
ATOM     38  N   UNL     1      -3.272  -9.259   9.615  1.00  0.00    -0.370 N 
ATOM     39  H   UNL     1      -3.941 -11.453  11.772  1.00  0.00     0.159 HD
ATOM     40  H   UNL     1      -3.928 -11.575  10.042  1.00  0.00     0.159 HD
ATOM     41  H   UNL     1      -3.662  -9.751   8.827  1.00  0.00     0.159 HD
ATOM     42  H   UNL     1      -2.946  -8.318   9.460  1.00  0.00     0.159 HD
ENDBRANCH  34  35
ENDBRANCH  33  34
ENDBRANCH  32  33
ENDBRANCH   6  32
ENDBRANCH   4   6
ENDBRANCH   1   2
BRANCH   1  43
ATOM     43  C   UNL     1       4.830  -8.687  10.083  1.00  0.00     0.102 C 
ATOM     44  C   UNL     1       5.961  -8.613   9.043  1.00  0.00     0.020 C 
BRANCH  43  45
ATOM     45  C   UNL     1       4.389 -10.115  10.421  1.00  0.00     0.225 C 
ATOM     46  O   UNL     1       4.833 -10.745  11.376  1.00  0.00    -0.275 OA
ATOM     47  N   UNL     1       3.522 -10.695   9.524  1.00  0.00    -0.342 N 
ATOM     48  H   UNL     1       3.054 -10.120   8.838  1.00  0.00     0.164 HD
BRANCH  47  49
ATOM     49  C   UNL     1       2.988 -12.043   9.737  1.00  0.00     0.192 C 
BRANCH  49  50
ATOM     50  C   UNL     1       3.093 -12.849   8.439  1.00  0.00     0.047 C 
BRANCH  50  51
ATOM     51  C   UNL     1       3.482 -11.973   7.240  1.00  0.00     0.103 C 
BRANCH  51  52
ATOM     52  C   UNL     1       4.618 -12.588   6.425  1.00  0.00     0.226 C 
ATOM     53  O   UNL     1       4.775 -13.811   6.424  1.00  0.00    -0.275 OA
BRANCH  52  54
ATOM     54  N   UNL     1       5.384 -11.700   5.649  1.00  0.00    -0.311 N 
ATOM     55  C   UNL     1       5.128 -10.254   5.679  1.00  0.00     0.153 C 
BRANCH  54  56
ATOM     56  C   UNL     1       6.424 -12.159   4.822  1.00  0.00     0.102 C 
ATOM     57  C   UNL     1       7.674 -12.423   5.236  1.00  0.00     0.043 C 
BRANCH  56  58
ATOM     58  C   UNL     1       6.183 -12.440   3.358  1.00  0.00     0.268 C 
ATOM     59  O   UNL     1       5.092 -12.766   2.910  1.00  0.00    -0.268 OA
ATOM     60  N   UNL     1       7.294 -12.230   2.577  1.00  0.00    -0.339 N 
ATOM     61  H   UNL     1       8.164 -11.971   3.028  1.00  0.00     0.164 HD
BRANCH  60  62
ATOM     62  C   UNL     1       7.265 -12.384   1.123  1.00  0.00     0.168 CG0
ATOM     63  C   UNL     1       7.465 -13.840   0.723  1.00  0.00     0.041 C 
ATOM     64  G   UNL     1       8.350 -11.490   0.488  1.00  0.00     0.000 G0
ENDBRANCH  60  62
ENDBRANCH  56  58
ENDBRANCH  54  56
ENDBRANCH  52  54
ENDBRANCH  51  52
ENDBRANCH  50  51
ENDBRANCH  49  50
BRANCH  49  65
ATOM     65  C   UNL     1       1.522 -12.007  10.196  1.00  0.00     0.326 C 
ATOM     66  O   UNL     1       1.116 -11.511  11.237  1.00  0.00    -0.250 OA
BRANCH  65  67
ATOM     67  O   UNL     1       0.657 -12.637   9.372  1.00  0.00    -0.480 OA
ATOM     68  H   UNL     1       0.437 -13.463   9.854  1.00  0.00     0.296 HD
ENDBRANCH  65  67
ENDBRANCH  49  65
ENDBRANCH  47  49
ENDBRANCH  43  45
ENDBRANCH   1  43
BRANCH   1  69
ATOM     69  C   UNL     1       3.839  -6.490   8.988  1.00  0.00    -0.001 C 
ATOM     70  C   UNL     1       4.406  -5.368   9.465  1.00  0.00     0.001 C 
BRANCH  70  71
ATOM     71  C   UNL     1       4.645  -4.123   8.732  1.00  0.00    -0.055 C 
ATOM     72  C   UNL     1       3.750  -3.771   7.784  1.00  0.00    -0.018 C 
ATOM     73  C   UNL     1       5.866  -3.319   9.092  1.00  0.00     0.044 C 
BRANCH  72  74
ATOM     74  C   UNL     1       3.738  -2.549   6.878  1.00  0.00     0.038 C 
ATOM     75  C   UNL     1       3.000  -1.435   7.631  1.00  0.00     0.015 C 
BRANCH  74  76
ATOM     76  C   UNL     1       3.103  -2.944   5.512  1.00  0.00     0.128 C 
BRANCH  76  77
ATOM     77  O   UNL     1       4.011  -2.634   4.441  1.00  0.00    -0.381 OA
ATOM     78  C   UNL     1       5.347  -2.412   4.872  1.00  0.00     0.195 C 
ENDBRANCH  76  77
BRANCH  76  79
ATOM     79  C   UNL     1       2.587  -4.404   5.457  1.00  0.00     0.068 C 
BRANCH  79  80
ATOM     80  C   UNL     1       1.215  -4.690   6.016  1.00  0.00    -0.045 A 
ATOM     81  C   UNL     1       0.288  -3.659   6.218  1.00  0.00     0.004 A 
ATOM     82  C   UNL     1       0.854  -5.999   6.369  1.00  0.00     0.004 A 
ATOM     83  C   UNL     1      -0.975  -3.930   6.749  1.00  0.00     0.000 A 
ATOM     84  C   UNL     1      -0.409  -6.269   6.901  1.00  0.00     0.000 A 
ATOM     85  C   UNL     1      -1.323  -5.236   7.089  1.00  0.00     0.000 A 
ENDBRANCH  79  80
ENDBRANCH  76  79
ENDBRANCH  74  76
ENDBRANCH  72  74
ENDBRANCH  70  71
ENDBRANCH   1  69
TORSDOF 17
ENDMDL
MODEL 26
REMARK VINA RESULT:    -5.231      3.796      6.335
REMARK INTER + INTRA:         -24.684
REMARK INTER:                 -18.025
REMARK INTRA:                  -6.660
REMARK UNBOUND:                -9.057
REMARK SMILES C=C1C(=O)N[C@H](C)C(=O)N[C@@H](CC(C)C)C(=O)N[C@@H](C(=O)O)[C@H](C)C(=O)N[C@@H](CCCN=C(N)N)C(=O)N[C@@H](/C=C/C(C)=C/[C@H](C)[C@H](Cc2ccccc2)OC)[C@H](C)C(=O)N[C@@H](C(=O)O)CCC(=O)N1C
REMARK SMILES IDX 39 1 38 2 37 3 36 4 28 6 27 7 25 8 26 9 23 11 24 12 19 13
REMARK SMILES IDX 18 14 16 15 17 16 11 18 10 19 8 20 9 21 12 24 13 25 14 26
REMARK SMILES IDX 15 27 20 28 21 29 22 30 29 32 30 33 31 34 32 35 33 36 34 37
REMARK SMILES IDX 35 38 57 43 58 44 59 45 60 46 61 47 62 49 66 50 67 51 68 52
REMARK SMILES IDX 69 53 70 54 71 55 2 56 1 57 3 58 4 59 5 60 6 62 7 63 63 65
REMARK SMILES IDX 64 66 65 67 40 69 41 70 42 71 44 72 43 73 45 74 46 75 47 76
REMARK SMILES IDX 55 77 56 78 48 79 49 80 50 81 54 82 51 83 53 84 52 85
REMARK H PARENT 38 5 27 10 18 17 10 22 22 31 34 39 34 40 35 41 35 42 61 48
REMARK H PARENT 5 61 65 68
REMARK Flexibility Score:  369.900
ROOT
ATOM      1  C   UNL     1       3.267   5.203   5.786  1.00  0.00     0.117 C 
ENDROOT
BRANCH   1   2
ATOM      2  N   UNL     1       2.612   6.073   6.763  1.00  0.00    -0.347 N 
ATOM      3  O   UNL     1       3.453   8.074   6.016  1.00  0.00    -0.273 OA
ATOM      4  C   UNL     1       2.685   7.453   6.743  1.00  0.00     0.243 C 
ATOM      5  H   UNL     1       2.025   5.664   7.475  1.00  0.00     0.164 HD
BRANCH   4   6
ATOM      6  C   UNL     1       1.830   8.139   7.838  1.00  0.00     0.171 C 
BRANCH   6   7
ATOM      7  N   UNL     1       2.010   7.461   9.131  1.00  0.00    -0.344 N 
ATOM      8  C   UNL     1       0.920   7.078   9.882  1.00  0.00     0.226 C 
ATOM      9  O   UNL     1      -0.234   7.296   9.530  1.00  0.00    -0.275 OA
ATOM     10  H   UNL     1       2.948   7.324   9.487  1.00  0.00     0.164 HD
BRANCH   8  11
ATOM     11  C   UNL     1       1.270   6.342  11.164  1.00  0.00     0.109 C 
ATOM     12  C   UNL     1       2.493   5.452  10.942  1.00  0.00     0.021 C 
BRANCH  11  13
ATOM     13  C   UNL     1       1.403   7.350  12.323  1.00  0.00     0.204 C 
BRANCH  13  14
ATOM     14  N   UNL     1       0.337   7.192  13.317  1.00  0.00    -0.340 N 
ATOM     15  C   UNL     1      -0.661   8.124  13.498  1.00  0.00     0.243 C 
ATOM     16  O   UNL     1      -0.763   9.128  12.795  1.00  0.00    -0.273 OA
ATOM     17  H   UNL     1       0.448   6.464  14.028  1.00  0.00     0.164 HD
BRANCH  15  18
ATOM     18  C   UNL     1      -1.549   7.847  14.737  1.00  0.00     0.171 C 
BRANCH  18  19
ATOM     19  N   UNL     1      -0.669   7.300  15.768  1.00  0.00    -0.343 N 
ATOM     20  C   UNL     1      -0.873   6.045  16.308  1.00  0.00     0.242 CG0
ATOM     21  O   UNL     1      -1.876   5.386  16.045  1.00  0.00    -0.273 OA
ATOM     22  H   UNL     1       0.110   7.855  16.103  1.00  0.00     0.164 HD
ATOM     23  G   UNL     1       0.202   5.607  17.324  1.00  0.00     0.000 G0
ENDBRANCH  18  19
BRANCH  18  24
ATOM     24  C   UNL     1      -2.235   9.135  15.209  1.00  0.00     0.038 C 
BRANCH  24  25
ATOM     25  C   UNL     1      -3.728   9.245  14.831  1.00  0.00    -0.015 C 
ATOM     26  C   UNL     1      -4.472   7.919  14.993  1.00  0.00     0.007 C 
ATOM     27  C   UNL     1      -3.858   9.736  13.387  1.00  0.00     0.007 C 
ENDBRANCH  24  25
ENDBRANCH  18  24
ENDBRANCH  15  18
ENDBRANCH  13  14
BRANCH  13  28
ATOM     28  C   UNL     1       2.738   7.240  13.067  1.00  0.00     0.327 C 
ATOM     29  O   UNL     1       2.994   6.473  13.982  1.00  0.00    -0.250 OA
BRANCH  28  30
ATOM     30  O   UNL     1       3.629   8.182  12.697  1.00  0.00    -0.480 OA
ATOM     31  H   UNL     1       3.174   9.030  12.882  1.00  0.00     0.296 HD
ENDBRANCH  28  30
ENDBRANCH  13  28
ENDBRANCH  11  13
ENDBRANCH   8  11
ENDBRANCH   6   7
BRANCH   6  32
ATOM     32  C   UNL     1       2.226   9.617   7.934  1.00  0.00     0.037 C 
BRANCH  32  33
ATOM     33  C   UNL     1       3.224   9.876   9.071  1.00  0.00     0.026 C 
BRANCH  33  34
ATOM     34  C   UNL     1       2.813  11.056   9.952  1.00  0.00     0.146 C 
BRANCH  34  35
ATOM     35  N   UNL     1       2.735  10.605  11.335  1.00  0.00    -0.254 NA
ATOM     36  C   UNL     1       1.915  11.190  12.127  1.00  0.00     0.185 C 
ATOM     37  N   UNL     1       1.832  10.779  13.402  1.00  0.00    -0.370 N 
ATOM     38  N   UNL     1       1.075  12.208  11.871  1.00  0.00    -0.370 N 
ATOM     39  H   UNL     1       2.427  10.006  13.670  1.00  0.00     0.159 HD
ATOM     40  H   UNL     1       1.101  11.063  14.031  1.00  0.00     0.159 HD
ATOM     41  H   UNL     1       0.581  12.674  12.614  1.00  0.00     0.159 HD
ATOM     42  H   UNL     1       1.043  12.629  10.956  1.00  0.00     0.159 HD
ENDBRANCH  34  35
ENDBRANCH  33  34
ENDBRANCH  32  33
ENDBRANCH   6  32
ENDBRANCH   4   6
ENDBRANCH   1   2
BRANCH   1  43
ATOM     43  C   UNL     1       2.171   4.511   4.926  1.00  0.00     0.102 C 
ATOM     44  C   UNL     1       2.532   3.074   4.515  1.00  0.00     0.020 C 
BRANCH  43  45
ATOM     45  C   UNL     1       1.745   5.403   3.756  1.00  0.00     0.225 C 
ATOM     46  O   UNL     1       0.682   5.263   3.157  1.00  0.00    -0.275 OA
ATOM     47  N   UNL     1       2.678   6.329   3.346  1.00  0.00    -0.342 N 
ATOM     48  H   UNL     1       3.472   6.533   3.936  1.00  0.00     0.164 HD
BRANCH  47  49
ATOM     49  C   UNL     1       2.394   7.274   2.262  1.00  0.00     0.192 C 
BRANCH  49  50
ATOM     50  C   UNL     1       3.124   6.832   0.991  1.00  0.00     0.047 C 
BRANCH  50  51
ATOM     51  C   UNL     1       2.192   6.118   0.003  1.00  0.00     0.103 C 
BRANCH  51  52
ATOM     52  C   UNL     1       2.799   6.029  -1.396  1.00  0.00     0.226 C 
ATOM     53  O   UNL     1       3.744   5.266  -1.604  1.00  0.00    -0.275 OA
BRANCH  52  54
ATOM     54  N   UNL     1       2.173   6.791  -2.400  1.00  0.00    -0.311 N 
ATOM     55  C   UNL     1       0.719   6.729  -2.601  1.00  0.00     0.153 C 
BRANCH  54  56
ATOM     56  C   UNL     1       2.911   7.641  -3.242  1.00  0.00     0.102 C 
ATOM     57  C   UNL     1       3.892   8.462  -2.835  1.00  0.00     0.043 C 
BRANCH  56  58
ATOM     58  C   UNL     1       2.669   7.656  -4.733  1.00  0.00     0.268 C 
ATOM     59  O   UNL     1       1.779   8.310  -5.260  1.00  0.00    -0.268 OA
ATOM     60  N   UNL     1       3.589   6.916  -5.437  1.00  0.00    -0.339 N 
ATOM     61  H   UNL     1       4.290   6.395  -4.924  1.00  0.00     0.164 HD
BRANCH  60  62
ATOM     62  C   UNL     1       3.578   6.844  -6.897  1.00  0.00     0.168 CG0
ATOM     63  C   UNL     1       4.402   7.972  -7.506  1.00  0.00     0.041 C 
ATOM     64  G   UNL     1       2.122   6.895  -7.406  1.00  0.00     0.000 G0
ENDBRANCH  60  62
ENDBRANCH  56  58
ENDBRANCH  54  56
ENDBRANCH  52  54
ENDBRANCH  51  52
ENDBRANCH  50  51
ENDBRANCH  49  50
BRANCH  49  65
ATOM     65  C   UNL     1       2.828   8.702   2.627  1.00  0.00     0.326 C 
ATOM     66  O   UNL     1       2.223   9.459   3.373  1.00  0.00    -0.250 OA
BRANCH  65  67
ATOM     67  O   UNL     1       3.948   9.128   2.004  1.00  0.00    -0.480 OA
ATOM     68  H   UNL     1       4.379   8.298   1.709  1.00  0.00     0.296 HD
ENDBRANCH  65  67
ENDBRANCH  49  65
ENDBRANCH  47  49
ENDBRANCH  43  45
ENDBRANCH   1  43
BRANCH   1  69
ATOM     69  C   UNL     1       4.237   4.339   6.571  1.00  0.00    -0.001 C 
ATOM     70  C   UNL     1       4.426   4.326   7.902  1.00  0.00     0.001 C 
BRANCH  70  71
ATOM     71  C   UNL     1       5.351   3.472   8.651  1.00  0.00    -0.055 C 
ATOM     72  C   UNL     1       6.655   3.504   8.304  1.00  0.00    -0.018 C 
ATOM     73  C   UNL     1       4.783   2.624   9.759  1.00  0.00     0.044 C 
BRANCH  72  74
ATOM     74  C   UNL     1       7.828   2.738   8.898  1.00  0.00     0.038 C 
ATOM     75  C   UNL     1       8.887   3.772   9.299  1.00  0.00     0.015 C 
BRANCH  74  76
ATOM     76  C   UNL     1       8.310   1.678   7.864  1.00  0.00     0.128 C 
BRANCH  76  77
ATOM     77  O   UNL     1       8.085   0.354   8.377  1.00  0.00    -0.381 OA
ATOM     78  C   UNL     1       9.280  -0.345   8.697  1.00  0.00     0.195 C 
ENDBRANCH  76  77
BRANCH  76  79
ATOM     79  C   UNL     1       7.728   1.877   6.441  1.00  0.00     0.068 C 
BRANCH  79  80
ATOM     80  C   UNL     1       6.836   0.794   5.884  1.00  0.00    -0.045 A 
ATOM     81  C   UNL     1       5.450   0.824   6.088  1.00  0.00     0.004 A 
ATOM     82  C   UNL     1       7.390  -0.282   5.174  1.00  0.00     0.004 A 
ATOM     83  C   UNL     1       4.634  -0.190   5.581  1.00  0.00     0.000 A 
ATOM     84  C   UNL     1       6.573  -1.295   4.668  1.00  0.00     0.000 A 
ATOM     85  C   UNL     1       5.195  -1.248   4.871  1.00  0.00     0.000 A 
ENDBRANCH  79  80
ENDBRANCH  76  79
ENDBRANCH  74  76
ENDBRANCH  72  74
ENDBRANCH  70  71
ENDBRANCH   1  69
TORSDOF 17
ENDMDL
MODEL 27
REMARK VINA RESULT:    -5.221      5.509      9.119
REMARK INTER + INTRA:         -24.654
REMARK INTER:                 -18.665
REMARK INTRA:                  -5.989
REMARK UNBOUND:                -9.057
REMARK SMILES C=C1C(=O)N[C@H](C)C(=O)N[C@@H](CC(C)C)C(=O)N[C@@H](C(=O)O)[C@H](C)C(=O)N[C@@H](CCCN=C(N)N)C(=O)N[C@@H](/C=C/C(C)=C/[C@H](C)[C@H](Cc2ccccc2)OC)[C@H](C)C(=O)N[C@@H](C(=O)O)CCC(=O)N1C
REMARK SMILES IDX 39 1 38 2 37 3 36 4 28 6 27 7 25 8 26 9 23 11 24 12 19 13
REMARK SMILES IDX 18 14 16 15 17 16 11 18 10 19 8 20 9 21 12 24 13 25 14 26
REMARK SMILES IDX 15 27 20 28 21 29 22 30 29 32 30 33 31 34 32 35 33 36 34 37
REMARK SMILES IDX 35 38 57 43 58 44 59 45 60 46 61 47 62 49 66 50 67 51 68 52
REMARK SMILES IDX 69 53 70 54 71 55 2 56 1 57 3 58 4 59 5 60 6 62 7 63 63 65
REMARK SMILES IDX 64 66 65 67 40 69 41 70 42 71 44 72 43 73 45 74 46 75 47 76
REMARK SMILES IDX 55 77 56 78 48 79 49 80 50 81 54 82 51 83 53 84 52 85
REMARK H PARENT 38 5 27 10 18 17 10 22 22 31 34 39 34 40 35 41 35 42 61 48
REMARK H PARENT 5 61 65 68
REMARK Flexibility Score:  369.900
ROOT
ATOM      1  C   UNL     1       2.339   6.143   5.088  1.00  0.00     0.117 C 
ENDROOT
BRANCH   1   2
ATOM      2  N   UNL     1       2.765   4.926   5.780  1.00  0.00    -0.347 N 
ATOM      3  O   UNL     1       4.876   5.619   6.358  1.00  0.00    -0.273 OA
ATOM      4  C   UNL     1       3.971   4.795   6.442  1.00  0.00     0.243 C 
ATOM      5  H   UNL     1       2.135   4.140   5.832  1.00  0.00     0.164 HD
BRANCH   4   6
ATOM      6  C   UNL     1       4.140   3.436   7.166  1.00  0.00     0.171 C 
BRANCH   6   7
ATOM      7  N   UNL     1       4.782   2.455   6.276  1.00  0.00    -0.344 N 
ATOM      8  C   UNL     1       4.281   1.176   6.161  1.00  0.00     0.226 C 
ATOM      9  O   UNL     1       3.308   0.789   6.798  1.00  0.00    -0.275 OA
ATOM     10  H   UNL     1       5.627   2.718   5.785  1.00  0.00     0.164 HD
BRANCH   8  11
ATOM     11  C   UNL     1       5.020   0.302   5.163  1.00  0.00     0.109 C 
ATOM     12  C   UNL     1       6.364   0.935   4.803  1.00  0.00     0.021 C 
BRANCH  11  13
ATOM     13  C   UNL     1       5.106  -1.141   5.698  1.00  0.00     0.204 C 
BRANCH  13  14
ATOM     14  N   UNL     1       3.780  -1.732   5.909  1.00  0.00    -0.340 N 
ATOM     15  C   UNL     1       3.495  -2.577   6.960  1.00  0.00     0.243 C 
ATOM     16  O   UNL     1       4.319  -2.847   7.832  1.00  0.00    -0.273 OA
ATOM     17  H   UNL     1       3.101  -1.671   5.145  1.00  0.00     0.164 HD
BRANCH  15  18
ATOM     18  C   UNL     1       2.099  -3.238   6.860  1.00  0.00     0.171 C 
BRANCH  18  19
ATOM     19  N   UNL     1       2.297  -4.539   6.223  1.00  0.00    -0.343 N 
ATOM     20  C   UNL     1       2.374  -4.673   4.850  1.00  0.00     0.242 CG0
ATOM     21  O   UNL     1       2.147  -3.729   4.097  1.00  0.00    -0.273 OA
ATOM     22  H   UNL     1       2.374  -5.369   6.800  1.00  0.00     0.164 HD
ATOM     23  G   UNL     1       2.663  -6.109   4.366  1.00  0.00     0.000 G0
ENDBRANCH  18  19
BRANCH  18  24
ATOM     24  C   UNL     1       1.469  -3.384   8.251  1.00  0.00     0.038 C 
BRANCH  24  25
ATOM     25  C   UNL     1      -0.047  -3.099   8.304  1.00  0.00    -0.015 C 
ATOM     26  C   UNL     1      -0.434  -1.843   7.524  1.00  0.00     0.007 C 
ATOM     27  C   UNL     1      -0.493  -2.959   9.762  1.00  0.00     0.007 C 
ENDBRANCH  24  25
ENDBRANCH  18  24
ENDBRANCH  15  18
ENDBRANCH  13  14
BRANCH  13  28
ATOM     28  C   UNL     1       5.881  -2.083   4.772  1.00  0.00     0.327 C 
ATOM     29  O   UNL     1       7.072  -2.344   4.838  1.00  0.00    -0.250 OA
BRANCH  28  30
ATOM     30  O   UNL     1       5.137  -2.547   3.747  1.00  0.00    -0.480 OA
ATOM     31  H   UNL     1       4.615  -1.770   3.457  1.00  0.00     0.296 HD
ENDBRANCH  28  30
ENDBRANCH  13  28
ENDBRANCH  11  13
ENDBRANCH   8  11
ENDBRANCH   6   7
BRANCH   6  32
ATOM     32  C   UNL     1       4.968   3.643   8.439  1.00  0.00     0.037 C 
BRANCH  32  33
ATOM     33  C   UNL     1       4.094   3.667   9.701  1.00  0.00     0.026 C 
BRANCH  33  34
ATOM     34  C   UNL     1       3.347   4.991   9.871  1.00  0.00     0.146 C 
BRANCH  34  35
ATOM     35  N   UNL     1       1.953   4.795   9.497  1.00  0.00    -0.254 NA
ATOM     36  C   UNL     1       1.192   5.821   9.407  1.00  0.00     0.185 C 
ATOM     37  N   UNL     1      -0.093   5.653   9.059  1.00  0.00    -0.370 N 
ATOM     38  N   UNL     1       1.490   7.116   9.615  1.00  0.00    -0.370 N 
ATOM     39  H   UNL     1      -0.393   4.705   8.874  1.00  0.00     0.159 HD
ATOM     40  H   UNL     1      -0.703   6.410   8.799  1.00  0.00     0.159 HD
ATOM     41  H   UNL     1       0.769   7.818   9.649  1.00  0.00     0.159 HD
ATOM     42  H   UNL     1       2.418   7.389   9.899  1.00  0.00     0.159 HD
ENDBRANCH  34  35
ENDBRANCH  33  34
ENDBRANCH  32  33
ENDBRANCH   6  32
ENDBRANCH   4   6
ENDBRANCH   1   2
BRANCH   1  43
ATOM     43  C   UNL     1       1.110   6.734   5.836  1.00  0.00     0.102 C 
ATOM     44  C   UNL     1      -0.236   6.367   5.188  1.00  0.00     0.020 C 
BRANCH  43  45
ATOM     45  C   UNL     1       1.289   8.234   6.089  1.00  0.00     0.225 C 
ATOM     46  O   UNL     1       1.305   8.727   7.213  1.00  0.00    -0.275 OA
ATOM     47  N   UNL     1       1.337   9.023   4.963  1.00  0.00    -0.342 N 
ATOM     48  H   UNL     1       1.475   8.595   4.058  1.00  0.00     0.164 HD
BRANCH  47  49
ATOM     49  C   UNL     1       1.541  10.472   5.051  1.00  0.00     0.192 C 
BRANCH  49  50
ATOM     50  C   UNL     1       2.751  10.768   5.941  1.00  0.00     0.047 C 
BRANCH  50  51
ATOM     51  C   UNL     1       4.081  10.487   5.228  1.00  0.00     0.103 C 
BRANCH  51  52
ATOM     52  C   UNL     1       4.358  11.495   4.114  1.00  0.00     0.226 C 
ATOM     53  O   UNL     1       4.404  12.698   4.377  1.00  0.00    -0.275 OA
BRANCH  52  54
ATOM     54  N   UNL     1       4.624  10.962   2.839  1.00  0.00    -0.311 N 
ATOM     55  C   UNL     1       3.653  10.088   2.167  1.00  0.00     0.153 C 
BRANCH  54  56
ATOM     56  C   UNL     1       5.821  11.249   2.160  1.00  0.00     0.102 C 
ATOM     57  C   UNL     1       6.791  10.357   1.903  1.00  0.00     0.043 C 
BRANCH  56  58
ATOM     58  C   UNL     1       6.088  12.630   1.611  1.00  0.00     0.268 C 
ATOM     59  O   UNL     1       7.214  13.065   1.410  1.00  0.00    -0.268 OA
ATOM     60  N   UNL     1       4.940  13.320   1.300  1.00  0.00    -0.339 N 
ATOM     61  H   UNL     1       4.045  12.894   1.508  1.00  0.00     0.164 HD
BRANCH  60  62
ATOM     62  C   UNL     1       4.970  14.652   0.698  1.00  0.00     0.168 CG0
ATOM     63  C   UNL     1       4.929  14.565  -0.823  1.00  0.00     0.041 C 
ATOM     64  G   UNL     1       6.233  15.403   1.167  1.00  0.00     0.000 G0
ENDBRANCH  60  62
ENDBRANCH  56  58
ENDBRANCH  54  56
ENDBRANCH  52  54
ENDBRANCH  51  52
ENDBRANCH  50  51
ENDBRANCH  49  50
BRANCH  49  65
ATOM     65  C   UNL     1       0.305  11.185   5.620  1.00  0.00     0.326 C 
ATOM     66  O   UNL     1      -0.858  10.874   5.403  1.00  0.00    -0.250 OA
BRANCH  65  67
ATOM     67  O   UNL     1       0.578  12.274   6.372  1.00  0.00    -0.480 OA
ATOM     68  H   UNL     1       0.285  13.023   5.810  1.00  0.00     0.296 HD
ENDBRANCH  65  67
ENDBRANCH  49  65
ENDBRANCH  47  49
ENDBRANCH  43  45
ENDBRANCH   1  43
BRANCH   1  69
ATOM     69  C   UNL     1       2.196   5.769   3.623  1.00  0.00    -0.001 C 
ATOM     70  C   UNL     1       2.284   6.586   2.559  1.00  0.00     0.001 C 
BRANCH  70  71
ATOM     71  C   UNL     1       2.165   6.210   1.149  1.00  0.00    -0.055 C 
ATOM     72  C   UNL     1       3.068   6.720   0.285  1.00  0.00    -0.018 C 
ATOM     73  C   UNL     1       1.049   5.274   0.763  1.00  0.00     0.044 C 
BRANCH  72  74
ATOM     74  C   UNL     1       3.192   6.506  -1.216  1.00  0.00     0.038 C 
ATOM     75  C   UNL     1       4.405   5.595  -1.445  1.00  0.00     0.015 C 
BRANCH  74  76
ATOM     76  C   UNL     1       3.278   7.895  -1.915  1.00  0.00     0.128 C 
BRANCH  76  77
ATOM     77  O   UNL     1       1.983   8.279  -2.406  1.00  0.00    -0.381 OA
ATOM     78  C   UNL     1       1.216   7.191  -2.904  1.00  0.00     0.195 C 
ENDBRANCH  76  77
BRANCH  76  79
ATOM     79  C   UNL     1       3.942   8.995  -1.049  1.00  0.00     0.068 C 
BRANCH  79  80
ATOM     80  C   UNL     1       5.268   9.552  -1.507  1.00  0.00    -0.045 A 
ATOM     81  C   UNL     1       6.299   8.704  -1.933  1.00  0.00     0.004 A 
ATOM     82  C   UNL     1       5.499  10.936  -1.486  1.00  0.00     0.004 A 
ATOM     83  C   UNL     1       7.527   9.227  -2.342  1.00  0.00     0.000 A 
ATOM     84  C   UNL     1       6.728  11.458  -1.895  1.00  0.00     0.000 A 
ATOM     85  C   UNL     1       7.741  10.603  -2.324  1.00  0.00     0.000 A 
ENDBRANCH  79  80
ENDBRANCH  76  79
ENDBRANCH  74  76
ENDBRANCH  72  74
ENDBRANCH  70  71
ENDBRANCH   1  69
TORSDOF 17
ENDMDL
MODEL 28
REMARK VINA RESULT:    -5.205      6.242     10.754
REMARK INTER + INTRA:         -24.608
REMARK INTER:                 -19.008
REMARK INTRA:                  -5.599
REMARK UNBOUND:                -9.057
REMARK SMILES C=C1C(=O)N[C@H](C)C(=O)N[C@@H](CC(C)C)C(=O)N[C@@H](C(=O)O)[C@H](C)C(=O)N[C@@H](CCCN=C(N)N)C(=O)N[C@@H](/C=C/C(C)=C/[C@H](C)[C@H](Cc2ccccc2)OC)[C@H](C)C(=O)N[C@@H](C(=O)O)CCC(=O)N1C
REMARK SMILES IDX 39 1 38 2 37 3 36 4 28 6 27 7 25 8 26 9 23 11 24 12 19 13
REMARK SMILES IDX 18 14 16 15 17 16 11 18 10 19 8 20 9 21 12 24 13 25 14 26
REMARK SMILES IDX 15 27 20 28 21 29 22 30 29 32 30 33 31 34 32 35 33 36 34 37
REMARK SMILES IDX 35 38 57 43 58 44 59 45 60 46 61 47 62 49 66 50 67 51 68 52
REMARK SMILES IDX 69 53 70 54 71 55 2 56 1 57 3 58 4 59 5 60 6 62 7 63 63 65
REMARK SMILES IDX 64 66 65 67 40 69 41 70 42 71 44 72 43 73 45 74 46 75 47 76
REMARK SMILES IDX 55 77 56 78 48 79 49 80 50 81 54 82 51 83 53 84 52 85
REMARK H PARENT 38 5 27 10 18 17 10 22 22 31 34 39 34 40 35 41 35 42 61 48
REMARK H PARENT 5 61 65 68
REMARK Flexibility Score:  369.900
ROOT
ATOM      1  C   UNL     1       2.809   5.208   7.103  1.00  0.00     0.117 C 
ENDROOT
BRANCH   1   2
ATOM      2  N   UNL     1       3.777   4.182   7.491  1.00  0.00    -0.347 N 
ATOM      3  O   UNL     1       3.320   2.673   5.823  1.00  0.00    -0.273 OA
ATOM      4  C   UNL     1       4.020   3.033   6.764  1.00  0.00     0.243 C 
ATOM      5  H   UNL     1       4.349   4.326   8.310  1.00  0.00     0.164 HD
BRANCH   4   6
ATOM      6  C   UNL     1       5.156   2.154   7.347  1.00  0.00     0.171 C 
BRANCH   6   7
ATOM      7  N   UNL     1       5.812   1.386   6.278  1.00  0.00    -0.344 N 
ATOM      8  C   UNL     1       5.329   0.151   5.901  1.00  0.00     0.226 C 
ATOM      9  O   UNL     1       4.361  -0.371   6.441  1.00  0.00    -0.275 OA
ATOM     10  H   UNL     1       6.655   1.755   5.854  1.00  0.00     0.164 HD
BRANCH   8  11
ATOM     11  C   UNL     1       6.081  -0.490   4.748  1.00  0.00     0.109 C 
ATOM     12  C   UNL     1       7.039   0.521   4.118  1.00  0.00     0.021 C 
BRANCH  11  13
ATOM     13  C   UNL     1       6.741  -1.801   5.221  1.00  0.00     0.204 C 
BRANCH  13  14
ATOM     14  N   UNL     1       6.685  -1.952   6.678  1.00  0.00    -0.340 N 
ATOM     15  C   UNL     1       7.616  -1.390   7.524  1.00  0.00     0.243 C 
ATOM     16  O   UNL     1       8.527  -0.670   7.120  1.00  0.00    -0.273 OA
ATOM     17  H   UNL     1       6.050  -2.656   7.064  1.00  0.00     0.164 HD
BRANCH  15  18
ATOM     18  C   UNL     1       7.476  -1.855   8.995  1.00  0.00     0.171 C 
BRANCH  18  19
ATOM     19  N   UNL     1       7.750  -3.291   9.008  1.00  0.00    -0.343 N 
ATOM     20  C   UNL     1       7.012  -4.167   9.781  1.00  0.00     0.242 CG0
ATOM     21  O   UNL     1       6.181  -3.766  10.592  1.00  0.00    -0.273 OA
ATOM     22  H   UNL     1       8.506  -3.658   8.440  1.00  0.00     0.164 HD
ATOM     23  G   UNL     1       7.396  -5.650   9.603  1.00  0.00     0.000 G0
ENDBRANCH  18  19
BRANCH  18  24
ATOM     24  C   UNL     1       8.448  -1.089   9.900  1.00  0.00     0.038 C 
BRANCH  24  25
ATOM     25  C   UNL     1       7.776  -0.287  11.034  1.00  0.00    -0.015 C 
ATOM     26  C   UNL     1       8.387   1.104  11.209  1.00  0.00     0.007 C 
ATOM     27  C   UNL     1       7.882  -1.065  12.348  1.00  0.00     0.007 C 
ENDBRANCH  24  25
ENDBRANCH  18  24
ENDBRANCH  15  18
ENDBRANCH  13  14
BRANCH  13  28
ATOM     28  C   UNL     1       6.102  -3.052   4.610  1.00  0.00     0.327 C 
ATOM     29  O   UNL     1       4.994  -3.497   4.868  1.00  0.00    -0.250 OA
BRANCH  28  30
ATOM     30  O   UNL     1       6.940  -3.733   3.802  1.00  0.00    -0.480 OA
ATOM     31  H   UNL     1       7.254  -4.479   4.355  1.00  0.00     0.296 HD
ENDBRANCH  28  30
ENDBRANCH  13  28
ENDBRANCH  11  13
ENDBRANCH   8  11
ENDBRANCH   6   7
BRANCH   6  32
ATOM     32  C   UNL     1       6.163   3.052   8.074  1.00  0.00     0.037 C 
BRANCH  32  33
ATOM     33  C   UNL     1       7.304   3.506   7.153  1.00  0.00     0.026 C 
BRANCH  33  34
ATOM     34  C   UNL     1       8.648   3.582   7.879  1.00  0.00     0.146 C 
BRANCH  34  35
ATOM     35  N   UNL     1       9.310   2.289   7.778  1.00  0.00    -0.254 NA
ATOM     36  C   UNL     1      10.435   2.126   8.370  1.00  0.00     0.185 C 
ATOM     37  N   UNL     1      11.051   0.937   8.287  1.00  0.00    -0.370 N 
ATOM     38  N   UNL     1      11.137   3.006   9.105  1.00  0.00    -0.370 N 
ATOM     39  H   UNL     1      10.578   0.216   7.757  1.00  0.00     0.159 HD
ATOM     40  H   UNL     1      11.837   0.677   8.858  1.00  0.00     0.159 HD
ATOM     41  H   UNL     1      12.077   2.803   9.404  1.00  0.00     0.159 HD
ATOM     42  H   UNL     1      10.800   3.947   9.239  1.00  0.00     0.159 HD
ENDBRANCH  34  35
ENDBRANCH  33  34
ENDBRANCH  32  33
ENDBRANCH   6  32
ENDBRANCH   4   6
ENDBRANCH   1   2
BRANCH   1  43
ATOM     43  C   UNL     1       3.128   5.665   5.650  1.00  0.00     0.102 C 
ATOM     44  C   UNL     1       4.414   6.502   5.540  1.00  0.00     0.020 C 
BRANCH  43  45
ATOM     45  C   UNL     1       1.905   6.317   4.998  1.00  0.00     0.225 C 
ATOM     46  O   UNL     1       1.065   5.684   4.365  1.00  0.00    -0.275 OA
ATOM     47  N   UNL     1       1.849   7.689   5.084  1.00  0.00    -0.342 N 
ATOM     48  H   UNL     1       2.455   8.176   5.729  1.00  0.00     0.164 HD
BRANCH  47  49
ATOM     49  C   UNL     1       0.718   8.445   4.536  1.00  0.00     0.192 C 
BRANCH  49  50
ATOM     50  C   UNL     1       1.186   9.844   4.124  1.00  0.00     0.047 C 
BRANCH  50  51
ATOM     51  C   UNL     1       2.714   9.982   4.166  1.00  0.00     0.103 C 
BRANCH  51  52
ATOM     52  C   UNL     1       3.305  10.236   2.781  1.00  0.00     0.226 C 
ATOM     53  O   UNL     1       3.243  11.364   2.289  1.00  0.00    -0.275 OA
BRANCH  52  54
ATOM     54  N   UNL     1       3.967   9.153   2.174  1.00  0.00    -0.311 N 
ATOM     55  C   UNL     1       3.255   7.903   1.876  1.00  0.00     0.153 C 
BRANCH  54  56
ATOM     56  C   UNL     1       5.325   9.227   1.825  1.00  0.00     0.102 C 
ATOM     57  C   UNL     1       6.348   9.042   2.676  1.00  0.00     0.043 C 
BRANCH  56  58
ATOM     58  C   UNL     1       5.746   9.486   0.398  1.00  0.00     0.268 C 
ATOM     59  O   UNL     1       6.341   8.664  -0.286  1.00  0.00    -0.268 OA
ATOM     60  N   UNL     1       5.336  10.711  -0.072  1.00  0.00    -0.339 N 
ATOM     61  H   UNL     1       4.857  11.340   0.561  1.00  0.00     0.164 HD
BRANCH  60  62
ATOM     62  C   UNL     1       5.583  11.140  -1.448  1.00  0.00     0.168 CG0
ATOM     63  C   UNL     1       6.831  12.009  -1.535  1.00  0.00     0.041 C 
ATOM     64  G   UNL     1       4.351  11.900  -1.982  1.00  0.00     0.000 G0
ENDBRANCH  60  62
ENDBRANCH  56  58
ENDBRANCH  54  56
ENDBRANCH  52  54
ENDBRANCH  51  52
ENDBRANCH  50  51
ENDBRANCH  49  50
BRANCH  49  65
ATOM     65  C   UNL     1      -0.426   8.571   5.554  1.00  0.00     0.326 C 
ATOM     66  O   UNL     1      -0.582   9.497   6.337  1.00  0.00    -0.250 OA
BRANCH  65  67
ATOM     67  O   UNL     1      -1.272   7.518   5.584  1.00  0.00    -0.480 OA
ATOM     68  H   UNL     1      -2.142   7.914   5.361  1.00  0.00     0.296 HD
ENDBRANCH  65  67
ENDBRANCH  49  65
ENDBRANCH  47  49
ENDBRANCH  43  45
ENDBRANCH   1  43
BRANCH   1  69
ATOM     69  C   UNL     1       2.817   6.241   8.215  1.00  0.00    -0.001 C 
ATOM     70  C   UNL     1       2.435   6.069   9.493  1.00  0.00     0.001 C 
BRANCH  70  71
ATOM     71  C   UNL     1       2.468   7.068  10.563  1.00  0.00    -0.055 C 
ATOM     72  C   UNL     1       1.556   6.957  11.553  1.00  0.00    -0.018 C 
ATOM     73  C   UNL     1       3.520   8.143  10.489  1.00  0.00     0.044 C 
BRANCH  72  74
ATOM     74  C   UNL     1       1.355   7.835  12.779  1.00  0.00     0.038 C 
ATOM     75  C   UNL     1       1.351   6.910  14.002  1.00  0.00     0.015 C 
BRANCH  74  76
ATOM     76  C   UNL     1       0.056   8.671  12.589  1.00  0.00     0.128 C 
BRANCH  76  77
ATOM     77  O   UNL     1       0.258   9.669  11.574  1.00  0.00    -0.381 OA
ATOM     78  C   UNL     1       1.177  10.687  11.950  1.00  0.00     0.195 C 
ENDBRANCH  76  77
BRANCH  76  79
ATOM     79  C   UNL     1      -1.213   7.816  12.344  1.00  0.00     0.068 C 
BRANCH  79  80
ATOM     80  C   UNL     1      -2.397   8.030  13.255  1.00  0.00    -0.045 A 
ATOM     81  C   UNL     1      -2.797   9.320  13.629  1.00  0.00     0.004 A 
ATOM     82  C   UNL     1      -3.103   6.931  13.767  1.00  0.00     0.004 A 
ATOM     83  C   UNL     1      -3.884   9.510  14.484  1.00  0.00     0.000 A 
ATOM     84  C   UNL     1      -4.191   7.122  14.623  1.00  0.00     0.000 A 
ATOM     85  C   UNL     1      -4.582   8.410  14.979  1.00  0.00     0.000 A 
ENDBRANCH  79  80
ENDBRANCH  76  79
ENDBRANCH  74  76
ENDBRANCH  72  74
ENDBRANCH  70  71
ENDBRANCH   1  69
TORSDOF 17
ENDMDL
MODEL 29
REMARK VINA RESULT:    -5.146      6.284     10.831
REMARK INTER + INTRA:         -24.433
REMARK INTER:                 -18.486
REMARK INTRA:                  -5.947
REMARK UNBOUND:                -9.057
REMARK SMILES C=C1C(=O)N[C@H](C)C(=O)N[C@@H](CC(C)C)C(=O)N[C@@H](C(=O)O)[C@H](C)C(=O)N[C@@H](CCCN=C(N)N)C(=O)N[C@@H](/C=C/C(C)=C/[C@H](C)[C@H](Cc2ccccc2)OC)[C@H](C)C(=O)N[C@@H](C(=O)O)CCC(=O)N1C
REMARK SMILES IDX 39 1 38 2 37 3 36 4 28 6 27 7 25 8 26 9 23 11 24 12 19 13
REMARK SMILES IDX 18 14 16 15 17 16 11 18 10 19 8 20 9 21 12 24 13 25 14 26
REMARK SMILES IDX 15 27 20 28 21 29 22 30 29 32 30 33 31 34 32 35 33 36 34 37
REMARK SMILES IDX 35 38 57 43 58 44 59 45 60 46 61 47 62 49 66 50 67 51 68 52
REMARK SMILES IDX 69 53 70 54 71 55 2 56 1 57 3 58 4 59 5 60 6 62 7 63 63 65
REMARK SMILES IDX 64 66 65 67 40 69 41 70 42 71 44 72 43 73 45 74 46 75 47 76
REMARK SMILES IDX 55 77 56 78 48 79 49 80 50 81 54 82 51 83 53 84 52 85
REMARK H PARENT 38 5 27 10 18 17 10 22 22 31 34 39 34 40 35 41 35 42 61 48
REMARK H PARENT 5 61 65 68
REMARK Flexibility Score:  369.900
ROOT
ATOM      1  C   UNL     1       2.978   5.477   7.636  1.00  0.00     0.117 C 
ENDROOT
BRANCH   1   2
ATOM      2  N   UNL     1       3.630   4.210   7.968  1.00  0.00    -0.347 N 
ATOM      3  O   UNL     1       3.566   3.268   5.875  1.00  0.00    -0.273 OA
ATOM      4  C   UNL     1       3.955   3.241   7.038  1.00  0.00     0.243 C 
ATOM      5  H   UNL     1       3.913   4.034   8.920  1.00  0.00     0.164 HD
BRANCH   4   6
ATOM      6  C   UNL     1       4.718   2.033   7.638  1.00  0.00     0.171 C 
BRANCH   6   7
ATOM      7  N   UNL     1       5.449   1.312   6.584  1.00  0.00    -0.344 N 
ATOM      8  C   UNL     1       4.962   0.127   6.075  1.00  0.00     0.226 C 
ATOM      9  O   UNL     1       3.928  -0.389   6.480  1.00  0.00    -0.275 OA
ATOM     10  H   UNL     1       6.342   1.673   6.271  1.00  0.00     0.164 HD
BRANCH   8  11
ATOM     11  C   UNL     1       5.802  -0.465   4.957  1.00  0.00     0.109 C 
ATOM     12  C   UNL     1       6.719   0.604   4.364  1.00  0.00     0.021 C 
BRANCH  11  13
ATOM     13  C   UNL     1       6.523  -1.731   5.461  1.00  0.00     0.204 C 
BRANCH  13  14
ATOM     14  N   UNL     1       6.572  -1.792   6.925  1.00  0.00    -0.340 N 
ATOM     15  C   UNL     1       7.601  -1.250   7.663  1.00  0.00     0.243 C 
ATOM     16  O   UNL     1       8.524  -0.621   7.147  1.00  0.00    -0.273 OA
ATOM     17  H   UNL     1       5.923  -2.425   7.401  1.00  0.00     0.164 HD
BRANCH  15  18
ATOM     18  C   UNL     1       7.545  -1.616   9.166  1.00  0.00     0.171 C 
BRANCH  18  19
ATOM     19  N   UNL     1       8.056  -2.981   9.283  1.00  0.00    -0.343 N 
ATOM     20  C   UNL     1       7.211  -4.071   9.369  1.00  0.00     0.242 CG0
ATOM     21  O   UNL     1       5.995  -3.934   9.484  1.00  0.00    -0.273 OA
ATOM     22  H   UNL     1       9.057  -3.137   9.310  1.00  0.00     0.164 HD
ATOM     23  G   UNL     1       7.931  -5.434   9.407  1.00  0.00     0.000 G0
ENDBRANCH  18  19
BRANCH  18  24
ATOM     24  C   UNL     1       8.379  -0.631   9.995  1.00  0.00     0.038 C 
BRANCH  24  25
ATOM     25  C   UNL     1       9.755  -1.168  10.441  1.00  0.00    -0.015 C 
ATOM     26  C   UNL     1       9.929  -1.143  11.960  1.00  0.00     0.007 C 
ATOM     27  C   UNL     1      10.866  -0.346   9.782  1.00  0.00     0.007 C 
ENDBRANCH  24  25
ENDBRANCH  18  24
ENDBRANCH  15  18
ENDBRANCH  13  14
BRANCH  13  28
ATOM     28  C   UNL     1       5.873  -3.030   4.974  1.00  0.00     0.327 C 
ATOM     29  O   UNL     1       4.812  -3.496   5.359  1.00  0.00    -0.250 OA
BRANCH  28  30
ATOM     30  O   UNL     1       6.654  -3.724   4.120  1.00  0.00    -0.480 OA
ATOM     31  H   UNL     1       6.023  -4.271   3.608  1.00  0.00     0.296 HD
ENDBRANCH  28  30
ENDBRANCH  13  28
ENDBRANCH  11  13
ENDBRANCH   8  11
ENDBRANCH   6   7
BRANCH   6  32
ATOM     32  C   UNL     1       5.676   2.532   8.725  1.00  0.00     0.037 C 
BRANCH  32  33
ATOM     33  C   UNL     1       5.355   1.931  10.101  1.00  0.00     0.026 C 
BRANCH  33  34
ATOM     34  C   UNL     1       4.068   1.105  10.092  1.00  0.00     0.146 C 
BRANCH  34  35
ATOM     35  N   UNL     1       4.235  -0.033  10.986  1.00  0.00    -0.254 NA
ATOM     36  C   UNL     1       4.118  -1.215  10.504  1.00  0.00     0.185 C 
ATOM     37  N   UNL     1       4.275  -2.271  11.318  1.00  0.00    -0.370 N 
ATOM     38  N   UNL     1       3.849  -1.589   9.241  1.00  0.00    -0.370 N 
ATOM     39  H   UNL     1       4.491  -2.070  12.286  1.00  0.00     0.159 HD
ATOM     40  H   UNL     1       4.371  -3.216  10.989  1.00  0.00     0.159 HD
ATOM     41  H   UNL     1       3.644  -2.549   9.015  1.00  0.00     0.159 HD
ATOM     42  H   UNL     1       3.691  -0.899   8.524  1.00  0.00     0.159 HD
ENDBRANCH  34  35
ENDBRANCH  33  34
ENDBRANCH  32  33
ENDBRANCH   6  32
ENDBRANCH   4   6
ENDBRANCH   1   2
BRANCH   1  43
ATOM     43  C   UNL     1       4.012   6.395   6.923  1.00  0.00     0.102 C 
ATOM     44  C   UNL     1       4.582   7.497   7.832  1.00  0.00     0.020 C 
BRANCH  43  45
ATOM     45  C   UNL     1       3.462   6.911   5.590  1.00  0.00     0.225 C 
ATOM     46  O   UNL     1       3.806   7.978   5.090  1.00  0.00    -0.275 OA
ATOM     47  N   UNL     1       2.475   6.141   5.019  1.00  0.00    -0.342 N 
ATOM     48  H   UNL     1       2.313   5.203   5.357  1.00  0.00     0.164 HD
BRANCH  47  49
ATOM     49  C   UNL     1       1.881   6.493   3.725  1.00  0.00     0.192 C 
BRANCH  49  50
ATOM     50  C   UNL     1       2.987   6.663   2.681  1.00  0.00     0.047 C 
BRANCH  50  51
ATOM     51  C   UNL     1       2.522   6.268   1.272  1.00  0.00     0.103 C 
BRANCH  51  52
ATOM     52  C   UNL     1       3.157   7.143   0.193  1.00  0.00     0.226 C 
ATOM     53  O   UNL     1       3.638   8.236   0.498  1.00  0.00    -0.275 OA
BRANCH  52  54
ATOM     54  N   UNL     1       3.219   6.595  -1.102  1.00  0.00    -0.311 N 
ATOM     55  C   UNL     1       4.281   5.651  -1.473  1.00  0.00     0.153 C 
BRANCH  54  56
ATOM     56  C   UNL     1       2.268   6.924  -2.083  1.00  0.00     0.102 C 
ATOM     57  C   UNL     1       0.989   6.515  -2.080  1.00  0.00     0.043 C 
BRANCH  56  58
ATOM     58  C   UNL     1       2.625   7.835  -3.233  1.00  0.00     0.268 C 
ATOM     59  O   UNL     1       3.494   8.693  -3.163  1.00  0.00    -0.268 OA
ATOM     60  N   UNL     1       1.921   7.557  -4.381  1.00  0.00    -0.339 N 
ATOM     61  H   UNL     1       1.210   6.836  -4.353  1.00  0.00     0.164 HD
BRANCH  60  62
ATOM     62  C   UNL     1       2.154   8.278  -5.631  1.00  0.00     0.168 CG0
ATOM     63  C   UNL     1       3.188   7.561  -6.491  1.00  0.00     0.041 C 
ATOM     64  G   UNL     1       2.608   9.719  -5.320  1.00  0.00     0.000 G0
ENDBRANCH  60  62
ENDBRANCH  56  58
ENDBRANCH  54  56
ENDBRANCH  52  54
ENDBRANCH  51  52
ENDBRANCH  50  51
ENDBRANCH  49  50
BRANCH  49  65
ATOM     65  C   UNL     1       1.060   7.789   3.813  1.00  0.00     0.326 C 
ATOM     66  O   UNL     1       1.399   8.877   3.369  1.00  0.00    -0.250 OA
BRANCH  65  67
ATOM     67  O   UNL     1      -0.102   7.676   4.494  1.00  0.00    -0.480 OA
ATOM     68  H   UNL     1      -0.745   7.390   3.810  1.00  0.00     0.296 HD
ENDBRANCH  65  67
ENDBRANCH  49  65
ENDBRANCH  47  49
ENDBRANCH  43  45
ENDBRANCH   1  43
BRANCH   1  69
ATOM     69  C   UNL     1       2.325   5.965   8.917  1.00  0.00    -0.001 C 
ATOM     70  C   UNL     1       1.257   6.775   9.032  1.00  0.00     0.001 C 
BRANCH  70  71
ATOM     71  C   UNL     1       0.622   7.222  10.273  1.00  0.00    -0.055 C 
ATOM     72  C   UNL     1       1.397   7.847  11.185  1.00  0.00    -0.018 C 
ATOM     73  C   UNL     1      -0.852   6.961  10.442  1.00  0.00     0.044 C 
BRANCH  72  74
ATOM     74  C   UNL     1       1.017   8.415  12.545  1.00  0.00     0.038 C 
ATOM     75  C   UNL     1       1.617   9.823  12.630  1.00  0.00     0.015 C 
BRANCH  74  76
ATOM     76  C   UNL     1       1.499   7.431  13.651  1.00  0.00     0.128 C 
BRANCH  76  77
ATOM     77  O   UNL     1       2.869   7.705  13.989  1.00  0.00    -0.381 OA
ATOM     78  C   UNL     1       3.667   6.538  14.129  1.00  0.00     0.195 C 
ENDBRANCH  76  77
BRANCH  76  79
ATOM     79  C   UNL     1       0.574   7.380  14.894  1.00  0.00     0.068 C 
BRANCH  79  80
ATOM     80  C   UNL     1      -0.885   7.717  14.704  1.00  0.00    -0.045 A 
ATOM     81  C   UNL     1      -1.748   6.836  14.039  1.00  0.00     0.004 A 
ATOM     82  C   UNL     1      -1.395   8.938  15.169  1.00  0.00     0.004 A 
ATOM     83  C   UNL     1      -3.094   7.162  13.854  1.00  0.00     0.000 A 
ATOM     84  C   UNL     1      -2.740   9.263  14.983  1.00  0.00     0.000 A 
ATOM     85  C   UNL     1      -3.590   8.374  14.328  1.00  0.00     0.000 A 
ENDBRANCH  79  80
ENDBRANCH  76  79
ENDBRANCH  74  76
ENDBRANCH  72  74
ENDBRANCH  70  71
ENDBRANCH   1  69
TORSDOF 17
ENDMDL
MODEL 30
REMARK VINA RESULT:    -5.143      1.838      3.151
REMARK INTER + INTRA:         -24.421
REMARK INTER:                 -17.226
REMARK INTRA:                  -7.195
REMARK UNBOUND:                -9.057
REMARK SMILES C=C1C(=O)N[C@H](C)C(=O)N[C@@H](CC(C)C)C(=O)N[C@@H](C(=O)O)[C@H](C)C(=O)N[C@@H](CCCN=C(N)N)C(=O)N[C@@H](/C=C/C(C)=C/[C@H](C)[C@H](Cc2ccccc2)OC)[C@H](C)C(=O)N[C@@H](C(=O)O)CCC(=O)N1C
REMARK SMILES IDX 39 1 38 2 37 3 36 4 28 6 27 7 25 8 26 9 23 11 24 12 19 13
REMARK SMILES IDX 18 14 16 15 17 16 11 18 10 19 8 20 9 21 12 24 13 25 14 26
REMARK SMILES IDX 15 27 20 28 21 29 22 30 29 32 30 33 31 34 32 35 33 36 34 37
REMARK SMILES IDX 35 38 57 43 58 44 59 45 60 46 61 47 62 49 66 50 67 51 68 52
REMARK SMILES IDX 69 53 70 54 71 55 2 56 1 57 3 58 4 59 5 60 6 62 7 63 63 65
REMARK SMILES IDX 64 66 65 67 40 69 41 70 42 71 44 72 43 73 45 74 46 75 47 76
REMARK SMILES IDX 55 77 56 78 48 79 49 80 50 81 54 82 51 83 53 84 52 85
REMARK H PARENT 38 5 27 10 18 17 10 22 22 31 34 39 34 40 35 41 35 42 61 48
REMARK H PARENT 5 61 65 68
REMARK Flexibility Score:  369.900
ROOT
ATOM      1  C   UNL     1       1.878  11.149   4.950  1.00  0.00     0.117 C 
ENDROOT
BRANCH   1   2
ATOM      2  N   UNL     1       2.295  10.767   6.300  1.00  0.00    -0.347 N 
ATOM      3  O   UNL     1       2.644  12.878   7.130  1.00  0.00    -0.273 OA
ATOM      4  C   UNL     1       2.557  11.668   7.313  1.00  0.00     0.243 C 
ATOM      5  H   UNL     1       2.353   9.789   6.541  1.00  0.00     0.164 HD
BRANCH   4   6
ATOM      6  C   UNL     1       2.895  11.000   8.670  1.00  0.00     0.171 C 
BRANCH   6   7
ATOM      7  N   UNL     1       2.077  11.580   9.747  1.00  0.00    -0.344 N 
ATOM      8  C   UNL     1       2.659  12.001  10.923  1.00  0.00     0.226 C 
ATOM      9  O   UNL     1       3.860  11.896  11.140  1.00  0.00    -0.275 OA
ATOM     10  H   UNL     1       1.072  11.621   9.632  1.00  0.00     0.164 HD
BRANCH   8  11
ATOM     11  C   UNL     1       1.690  12.626  11.912  1.00  0.00     0.109 C 
ATOM     12  C   UNL     1       1.498  14.109  11.595  1.00  0.00     0.021 C 
BRANCH  11  13
ATOM     13  C   UNL     1       0.389  11.800  11.960  1.00  0.00     0.204 C 
BRANCH  13  14
ATOM     14  N   UNL     1       0.555  10.553  12.715  1.00  0.00    -0.340 N 
ATOM     15  C   UNL     1      -0.118   9.393  12.401  1.00  0.00     0.243 C 
ATOM     16  O   UNL     1      -0.862   9.305  11.425  1.00  0.00    -0.273 OA
ATOM     17  H   UNL     1       1.035  10.599  13.618  1.00  0.00     0.164 HD
BRANCH  15  18
ATOM     18  C   UNL     1       0.054   8.272  13.455  1.00  0.00     0.171 C 
BRANCH  18  19
ATOM     19  N   UNL     1      -1.111   8.341  14.334  1.00  0.00    -0.343 N 
ATOM     20  C   UNL     1      -1.192   9.255  15.368  1.00  0.00     0.242 CG0
ATOM     21  O   UNL     1      -0.235   9.959  15.679  1.00  0.00    -0.273 OA
ATOM     22  H   UNL     1      -1.883   7.699  14.189  1.00  0.00     0.164 HD
ATOM     23  G   UNL     1      -2.530   9.231  16.136  1.00  0.00     0.000 G0
ENDBRANCH  18  19
BRANCH  18  24
ATOM     24  C   UNL     1       0.166   6.902  12.776  1.00  0.00     0.038 C 
BRANCH  24  25
ATOM     25  C   UNL     1       1.311   6.783  11.748  1.00  0.00    -0.015 C 
ATOM     26  C   UNL     1       0.890   6.031  10.486  1.00  0.00     0.007 C 
ATOM     27  C   UNL     1       2.509   6.080  12.392  1.00  0.00     0.007 C 
ENDBRANCH  24  25
ENDBRANCH  18  24
ENDBRANCH  15  18
ENDBRANCH  13  14
BRANCH  13  28
ATOM     28  C   UNL     1      -0.784  12.558  12.588  1.00  0.00     0.327 C 
ATOM     29  O   UNL     1      -1.601  13.245  11.995  1.00  0.00    -0.250 OA
BRANCH  28  30
ATOM     30  O   UNL     1      -0.789  12.502  13.936  1.00  0.00    -0.480 OA
ATOM     31  H   UNL     1       0.158  12.551  14.183  1.00  0.00     0.296 HD
ENDBRANCH  28  30
ENDBRANCH  13  28
ENDBRANCH  11  13
ENDBRANCH   8  11
ENDBRANCH   6   7
BRANCH   6  32
ATOM     32  C   UNL     1       2.663   9.489   8.559  1.00  0.00     0.037 C 
BRANCH  32  33
ATOM     33  C   UNL     1       3.394   8.708   9.660  1.00  0.00     0.026 C 
BRANCH  33  34
ATOM     34  C   UNL     1       4.372   7.678   9.095  1.00  0.00     0.146 C 
BRANCH  34  35
ATOM     35  N   UNL     1       5.537   8.376   8.567  1.00  0.00    -0.254 NA
ATOM     36  C   UNL     1       6.220   7.817   7.640  1.00  0.00     0.185 C 
ATOM     37  N   UNL     1       7.292   8.453   7.143  1.00  0.00    -0.370 N 
ATOM     38  N   UNL     1       6.025   6.625   7.048  1.00  0.00    -0.370 N 
ATOM     39  H   UNL     1       7.499   9.365   7.531  1.00  0.00     0.159 HD
ATOM     40  H   UNL     1       7.771   8.166   6.307  1.00  0.00     0.159 HD
ATOM     41  H   UNL     1       6.714   6.233   6.427  1.00  0.00     0.159 HD
ATOM     42  H   UNL     1       5.264   6.029   7.334  1.00  0.00     0.159 HD
ENDBRANCH  34  35
ENDBRANCH  33  34
ENDBRANCH  32  33
ENDBRANCH   6  32
ENDBRANCH   4   6
ENDBRANCH   1   2
BRANCH   1  43
ATOM     43  C   UNL     1       0.739  10.193   4.494  1.00  0.00     0.102 C 
ATOM     44  C   UNL     1      -0.587  10.420   5.241  1.00  0.00     0.020 C 
BRANCH  43  45
ATOM     45  C   UNL     1       1.210   8.736   4.495  1.00  0.00     0.225 C 
ATOM     46  O   UNL     1       2.058   8.305   5.272  1.00  0.00    -0.275 OA
ATOM     47  N   UNL     1       0.690   7.944   3.497  1.00  0.00    -0.342 N 
ATOM     48  H   UNL     1      -0.109   8.266   2.968  1.00  0.00     0.164 HD
BRANCH  47  49
ATOM     49  C   UNL     1       1.024   6.520   3.395  1.00  0.00     0.192 C 
BRANCH  49  50
ATOM     50  C   UNL     1       0.724   6.021   1.980  1.00  0.00     0.047 C 
BRANCH  50  51
ATOM     51  C   UNL     1       1.941   6.135   1.052  1.00  0.00     0.103 C 
BRANCH  51  52
ATOM     52  C   UNL     1       1.658   5.570  -0.338  1.00  0.00     0.226 C 
ATOM     53  O   UNL     1       0.708   4.802  -0.503  1.00  0.00    -0.275 OA
BRANCH  52  54
ATOM     54  N   UNL     1       2.478   6.035  -1.383  1.00  0.00    -0.311 N 
ATOM     55  C   UNL     1       3.915   5.735  -1.406  1.00  0.00     0.153 C 
BRANCH  54  56
ATOM     56  C   UNL     1       1.954   6.795  -2.442  1.00  0.00     0.102 C 
ATOM     57  C   UNL     1       0.645   6.980  -2.681  1.00  0.00     0.043 C 
BRANCH  56  58
ATOM     58  C   UNL     1       2.868   7.525  -3.398  1.00  0.00     0.268 C 
ATOM     59  O   UNL     1       3.310   8.644  -3.178  1.00  0.00    -0.268 OA
ATOM     60  N   UNL     1       3.201   6.778  -4.503  1.00  0.00    -0.339 N 
ATOM     61  H   UNL     1       2.783   5.863  -4.616  1.00  0.00     0.164 HD
BRANCH  60  62
ATOM     62  C   UNL     1       4.125   7.269  -5.525  1.00  0.00     0.168 CG0
ATOM     63  C   UNL     1       3.707   6.796  -6.912  1.00  0.00     0.041 C 
ATOM     64  G   UNL     1       5.557   6.800  -5.196  1.00  0.00     0.000 G0
ENDBRANCH  60  62
ENDBRANCH  56  58
ENDBRANCH  54  56
ENDBRANCH  52  54
ENDBRANCH  51  52
ENDBRANCH  50  51
ENDBRANCH  49  50
BRANCH  49  65
ATOM     65  C   UNL     1       0.233   5.679   4.410  1.00  0.00     0.326 C 
ATOM     66  O   UNL     1       0.243   4.459   4.482  1.00  0.00    -0.250 OA
BRANCH  65  67
ATOM     67  O   UNL     1      -0.567   6.393   5.233  1.00  0.00    -0.480 OA
ATOM     68  H   UNL     1      -1.343   5.808   5.366  1.00  0.00     0.296 HD
ENDBRANCH  65  67
ENDBRANCH  49  65
ENDBRANCH  47  49
ENDBRANCH  43  45
ENDBRANCH   1  43
BRANCH   1  69
ATOM     69  C   UNL     1       3.147  11.227   4.121  1.00  0.00    -0.001 C 
ATOM     70  C   UNL     1       3.368  11.989   3.035  1.00  0.00     0.001 C 
BRANCH  70  71
ATOM     71  C   UNL     1       4.605  12.071   2.255  1.00  0.00    -0.055 C 
ATOM     72  C   UNL     1       4.518  11.893   0.920  1.00  0.00    -0.018 C 
ATOM     73  C   UNL     1       5.885  12.357   2.996  1.00  0.00     0.044 C 
BRANCH  72  74
ATOM     74  C   UNL     1       5.619  11.925  -0.129  1.00  0.00     0.038 C 
ATOM     75  C   UNL     1       5.257  13.028  -1.131  1.00  0.00     0.015 C 
BRANCH  74  76
ATOM     76  C   UNL     1       5.764  10.503  -0.748  1.00  0.00     0.128 C 
BRANCH  76  77
ATOM     77  O   UNL     1       6.134  10.605  -2.133  1.00  0.00    -0.381 OA
ATOM     78  C   UNL     1       7.400  10.032  -2.430  1.00  0.00     0.195 C 
ENDBRANCH  76  77
BRANCH  76  79
ATOM     79  C   UNL     1       6.696   9.560   0.054  1.00  0.00     0.068 C 
BRANCH  79  80
ATOM     80  C   UNL     1       6.168   8.968   1.338  1.00  0.00    -0.045 A 
ATOM     81  C   UNL     1       4.851   8.497   1.428  1.00  0.00     0.004 A 
ATOM     82  C   UNL     1       6.985   8.905   2.477  1.00  0.00     0.004 A 
ATOM     83  C   UNL     1       4.366   7.963   2.624  1.00  0.00     0.000 A 
ATOM     84  C   UNL     1       6.499   8.372   3.672  1.00  0.00     0.000 A 
ATOM     85  C   UNL     1       5.190   7.900   3.745  1.00  0.00     0.000 A 
ENDBRANCH  79  80
ENDBRANCH  76  79
ENDBRANCH  74  76
ENDBRANCH  72  74
ENDBRANCH  70  71
ENDBRANCH   1  69
TORSDOF 17
ENDMDL
MODEL 31
REMARK VINA RESULT:    -5.141      4.407     12.609
REMARK INTER + INTRA:         -24.417
REMARK INTER:                 -18.725
REMARK INTRA:                  -5.692
REMARK UNBOUND:                -9.057
REMARK SMILES C=C1C(=O)N[C@H](C)C(=O)N[C@@H](CC(C)C)C(=O)N[C@@H](C(=O)O)[C@H](C)C(=O)N[C@@H](CCCN=C(N)N)C(=O)N[C@@H](/C=C/C(C)=C/[C@H](C)[C@H](Cc2ccccc2)OC)[C@H](C)C(=O)N[C@@H](C(=O)O)CCC(=O)N1C
REMARK SMILES IDX 39 1 38 2 37 3 36 4 28 6 27 7 25 8 26 9 23 11 24 12 19 13
REMARK SMILES IDX 18 14 16 15 17 16 11 18 10 19 8 20 9 21 12 24 13 25 14 26
REMARK SMILES IDX 15 27 20 28 21 29 22 30 29 32 30 33 31 34 32 35 33 36 34 37
REMARK SMILES IDX 35 38 57 43 58 44 59 45 60 46 61 47 62 49 66 50 67 51 68 52
REMARK SMILES IDX 69 53 70 54 71 55 2 56 1 57 3 58 4 59 5 60 6 62 7 63 63 65
REMARK SMILES IDX 64 66 65 67 40 69 41 70 42 71 44 72 43 73 45 74 46 75 47 76
REMARK SMILES IDX 55 77 56 78 48 79 49 80 50 81 54 82 51 83 53 84 52 85
REMARK H PARENT 38 5 27 10 18 17 10 22 22 31 34 39 34 40 35 41 35 42 61 48
REMARK H PARENT 5 61 65 68
REMARK Flexibility Score:  369.900
ROOT
ATOM      1  C   UNL     1       3.156   5.967   7.541  1.00  0.00     0.117 C 
ENDROOT
BRANCH   1   2
ATOM      2  N   UNL     1       2.939   6.726   6.309  1.00  0.00    -0.347 N 
ATOM      3  O   UNL     1       0.792   6.029   5.887  1.00  0.00    -0.273 OA
ATOM      4  C   UNL     1       1.737   6.767   5.628  1.00  0.00     0.243 C 
ATOM      5  H   UNL     1       3.683   7.300   5.944  1.00  0.00     0.164 HD
BRANCH   4   6
ATOM      6  C   UNL     1       1.749   7.713   4.401  1.00  0.00     0.171 C 
BRANCH   6   7
ATOM      7  N   UNL     1       1.955   6.947   3.161  1.00  0.00    -0.344 N 
ATOM      8  C   UNL     1       2.733   7.454   2.143  1.00  0.00     0.226 C 
ATOM      9  O   UNL     1       3.264   8.556   2.204  1.00  0.00    -0.275 OA
ATOM     10  H   UNL     1       1.477   6.062   3.047  1.00  0.00     0.164 HD
BRANCH   8  11
ATOM     11  C   UNL     1       2.893   6.521   0.955  1.00  0.00     0.109 C 
ATOM     12  C   UNL     1       1.669   5.614   0.830  1.00  0.00     0.021 C 
BRANCH  11  13
ATOM     13  C   UNL     1       3.226   7.339  -0.309  1.00  0.00     0.204 C 
BRANCH  13  14
ATOM     14  N   UNL     1       4.578   7.903  -0.261  1.00  0.00    -0.340 N 
ATOM     15  C   UNL     1       4.884   9.157  -0.743  1.00  0.00     0.243 C 
ATOM     16  O   UNL     1       4.029   9.917  -1.195  1.00  0.00    -0.273 OA
ATOM     17  H   UNL     1       5.354   7.272  -0.041  1.00  0.00     0.164 HD
BRANCH  15  18
ATOM     18  C   UNL     1       6.404   9.454  -0.776  1.00  0.00     0.171 C 
BRANCH  18  19
ATOM     19  N   UNL     1       6.654  10.218  -1.997  1.00  0.00    -0.343 N 
ATOM     20  C   UNL     1       7.772   9.997  -2.778  1.00  0.00     0.242 CG0
ATOM     21  O   UNL     1       8.672   9.243  -2.415  1.00  0.00    -0.273 OA
ATOM     22  H   UNL     1       5.996  10.935  -2.279  1.00  0.00     0.164 HD
ATOM     23  G   UNL     1       7.825  10.842  -4.067  1.00  0.00     0.000 G0
ENDBRANCH  18  19
BRANCH  18  24
ATOM     24  C   UNL     1       6.830  10.234   0.473  1.00  0.00     0.038 C 
BRANCH  24  25
ATOM     25  C   UNL     1       7.671   9.425   1.483  1.00  0.00    -0.015 C 
ATOM     26  C   UNL     1       8.431   8.275   0.822  1.00  0.00     0.007 C 
ATOM     27  C   UNL     1       6.762   8.875   2.585  1.00  0.00     0.007 C 
ENDBRANCH  24  25
ENDBRANCH  18  24
ENDBRANCH  15  18
ENDBRANCH  13  14
BRANCH  13  28
ATOM     28  C   UNL     1       3.120   6.523  -1.601  1.00  0.00     0.327 C 
ATOM     29  O   UNL     1       3.892   5.651  -1.970  1.00  0.00    -0.250 OA
BRANCH  28  30
ATOM     30  O   UNL     1       2.120   6.935  -2.406  1.00  0.00    -0.480 OA
ATOM     31  H   UNL     1       1.759   6.107  -2.785  1.00  0.00     0.296 HD
ENDBRANCH  28  30
ENDBRANCH  13  28
ENDBRANCH  11  13
ENDBRANCH   8  11
ENDBRANCH   6   7
BRANCH   6  32
ATOM     32  C   UNL     1       0.428   8.489   4.351  1.00  0.00     0.037 C 
BRANCH  32  33
ATOM     33  C   UNL     1       0.647   9.992   4.125  1.00  0.00     0.026 C 
BRANCH  33  34
ATOM     34  C   UNL     1      -0.046  10.850   5.184  1.00  0.00     0.146 C 
BRANCH  34  35
ATOM     35  N   UNL     1       0.797  10.903   6.371  1.00  0.00    -0.254 NA
ATOM     36  C   UNL     1       1.409  11.995   6.642  1.00  0.00     0.185 C 
ATOM     37  N   UNL     1       2.184  12.057   7.735  1.00  0.00    -0.370 N 
ATOM     38  N   UNL     1       1.399  13.159   5.967  1.00  0.00    -0.370 N 
ATOM     39  H   UNL     1       2.236  11.221   8.303  1.00  0.00     0.159 HD
ATOM     40  H   UNL     1       2.553  12.915   8.108  1.00  0.00     0.159 HD
ATOM     41  H   UNL     1       2.033  13.904   6.205  1.00  0.00     0.159 HD
ATOM     42  H   UNL     1       0.870  13.253   5.114  1.00  0.00     0.159 HD
ENDBRANCH  34  35
ENDBRANCH  33  34
ENDBRANCH  32  33
ENDBRANCH   6  32
ENDBRANCH   4   6
ENDBRANCH   1   2
BRANCH   1  43
ATOM     43  C   UNL     1       3.505   6.966   8.683  1.00  0.00     0.102 C 
ATOM     44  C   UNL     1       4.226   6.308   9.872  1.00  0.00     0.020 C 
BRANCH  43  45
ATOM     45  C   UNL     1       2.281   7.796   9.080  1.00  0.00     0.225 C 
ATOM     46  O   UNL     1       1.978   8.851   8.528  1.00  0.00    -0.275 OA
ATOM     47  N   UNL     1       1.580   7.335  10.171  1.00  0.00    -0.342 N 
ATOM     48  H   UNL     1       1.748   6.399  10.513  1.00  0.00     0.164 HD
BRANCH  47  49
ATOM     49  C   UNL     1       0.367   8.008  10.643  1.00  0.00     0.192 C 
BRANCH  49  50
ATOM     50  C   UNL     1       0.579   8.507  12.074  1.00  0.00     0.047 C 
BRANCH  50  51
ATOM     51  C   UNL     1       1.255   7.455  12.964  1.00  0.00     0.103 C 
BRANCH  51  52
ATOM     52  C   UNL     1       1.316   7.893  14.426  1.00  0.00     0.226 C 
ATOM     53  O   UNL     1       1.979   8.884  14.738  1.00  0.00    -0.275 OA
BRANCH  52  54
ATOM     54  N   UNL     1       0.530   7.159  15.333  1.00  0.00    -0.311 N 
ATOM     55  C   UNL     1       1.146   6.425  16.447  1.00  0.00     0.153 C 
BRANCH  54  56
ATOM     56  C   UNL     1      -0.869   7.106  15.213  1.00  0.00     0.102 C 
ATOM     57  C   UNL     1      -1.607   5.988  15.318  1.00  0.00     0.043 C 
BRANCH  56  58
ATOM     58  C   UNL     1      -1.677   8.363  14.993  1.00  0.00     0.268 C 
ATOM     59  O   UNL     1      -1.466   9.408  15.595  1.00  0.00    -0.268 OA
ATOM     60  N   UNL     1      -2.624   8.231  14.006  1.00  0.00    -0.339 N 
ATOM     61  H   UNL     1      -2.743   7.328  13.563  1.00  0.00     0.164 HD
BRANCH  60  62
ATOM     62  C   UNL     1      -3.474   9.345  13.588  1.00  0.00     0.168 CG0
ATOM     63  C   UNL     1      -2.814  10.150  12.477  1.00  0.00     0.041 C 
ATOM     64  G   UNL     1      -3.783  10.243  14.804  1.00  0.00     0.000 G0
ENDBRANCH  60  62
ENDBRANCH  56  58
ENDBRANCH  54  56
ENDBRANCH  52  54
ENDBRANCH  51  52
ENDBRANCH  50  51
ENDBRANCH  49  50
BRANCH  49  65
ATOM     65  C   UNL     1      -0.852   7.072  10.606  1.00  0.00     0.326 C 
ATOM     66  O   UNL     1      -1.826   7.145  11.340  1.00  0.00    -0.250 OA
BRANCH  65  67
ATOM     67  O   UNL     1      -0.764   6.068   9.706  1.00  0.00    -0.480 OA
ATOM     68  H   UNL     1      -1.492   6.259   9.075  1.00  0.00     0.296 HD
ENDBRANCH  65  67
ENDBRANCH  49  65
ENDBRANCH  47  49
ENDBRANCH  43  45
ENDBRANCH   1  43
BRANCH   1  69
ATOM     69  C   UNL     1       4.148   4.872   7.196  1.00  0.00    -0.001 C 
ATOM     70  C   UNL     1       4.036   3.557   7.453  1.00  0.00     0.001 C 
BRANCH  70  71
ATOM     71  C   UNL     1       4.991   2.506   7.095  1.00  0.00    -0.055 C 
ATOM     72  C   UNL     1       4.500   1.366   6.564  1.00  0.00    -0.018 C 
ATOM     73  C   UNL     1       6.453   2.774   7.337  1.00  0.00     0.044 C 
BRANCH  72  74
ATOM     74  C   UNL     1       5.244   0.121   6.101  1.00  0.00     0.038 C 
ATOM     75  C   UNL     1       4.953  -0.049   4.605  1.00  0.00     0.015 C 
BRANCH  74  76
ATOM     76  C   UNL     1       4.811  -1.081   6.992  1.00  0.00     0.128 C 
BRANCH  76  77
ATOM     77  O   UNL     1       3.426  -0.951   7.352  1.00  0.00    -0.381 OA
ATOM     78  C   UNL     1       3.176  -1.138   8.738  1.00  0.00     0.195 C 
ENDBRANCH  76  77
BRANCH  76  79
ATOM     79  C   UNL     1       5.147  -2.466   6.385  1.00  0.00     0.068 C 
BRANCH  79  80
ATOM     80  C   UNL     1       3.999  -3.387   6.048  1.00  0.00    -0.045 A 
ATOM     81  C   UNL     1       3.277  -3.235   4.857  1.00  0.00     0.004 A 
ATOM     82  C   UNL     1       3.617  -4.398   6.943  1.00  0.00     0.004 A 
ATOM     83  C   UNL     1       2.207  -4.083   4.560  1.00  0.00     0.000 A 
ATOM     84  C   UNL     1       2.547  -5.244   6.646  1.00  0.00     0.000 A 
ATOM     85  C   UNL     1       1.843  -5.088   5.454  1.00  0.00     0.000 A 
ENDBRANCH  79  80
ENDBRANCH  76  79
ENDBRANCH  74  76
ENDBRANCH  72  74
ENDBRANCH  70  71
ENDBRANCH   1  69
TORSDOF 17
ENDMDL
MODEL 32
REMARK VINA RESULT:    -5.135      7.123     11.428
REMARK INTER + INTRA:         -24.400
REMARK INTER:                 -18.071
REMARK INTRA:                  -6.329
REMARK UNBOUND:                -9.057
REMARK SMILES C=C1C(=O)N[C@H](C)C(=O)N[C@@H](CC(C)C)C(=O)N[C@@H](C(=O)O)[C@H](C)C(=O)N[C@@H](CCCN=C(N)N)C(=O)N[C@@H](/C=C/C(C)=C/[C@H](C)[C@H](Cc2ccccc2)OC)[C@H](C)C(=O)N[C@@H](C(=O)O)CCC(=O)N1C
REMARK SMILES IDX 39 1 38 2 37 3 36 4 28 6 27 7 25 8 26 9 23 11 24 12 19 13
REMARK SMILES IDX 18 14 16 15 17 16 11 18 10 19 8 20 9 21 12 24 13 25 14 26
REMARK SMILES IDX 15 27 20 28 21 29 22 30 29 32 30 33 31 34 32 35 33 36 34 37
REMARK SMILES IDX 35 38 57 43 58 44 59 45 60 46 61 47 62 49 66 50 67 51 68 52
REMARK SMILES IDX 69 53 70 54 71 55 2 56 1 57 3 58 4 59 5 60 6 62 7 63 63 65
REMARK SMILES IDX 64 66 65 67 40 69 41 70 42 71 44 72 43 73 45 74 46 75 47 76
REMARK SMILES IDX 55 77 56 78 48 79 49 80 50 81 54 82 51 83 53 84 52 85
REMARK H PARENT 38 5 27 10 18 17 10 22 22 31 34 39 34 40 35 41 35 42 61 48
REMARK H PARENT 5 61 65 68
REMARK Flexibility Score:  369.900
ROOT
ATOM      1  C   UNL     1       3.273   4.143   7.762  1.00  0.00     0.117 C 
ENDROOT
BRANCH   1   2
ATOM      2  N   UNL     1       4.300   3.207   8.222  1.00  0.00    -0.347 N 
ATOM      3  O   UNL     1       4.195   1.738   6.462  1.00  0.00    -0.273 OA
ATOM      4  C   UNL     1       4.745   2.125   7.488  1.00  0.00     0.243 C 
ATOM      5  H   UNL     1       4.759   3.372   9.105  1.00  0.00     0.164 HD
BRANCH   4   6
ATOM      6  C   UNL     1       5.899   1.344   8.165  1.00  0.00     0.171 C 
BRANCH   6   7
ATOM      7  N   UNL     1       5.507  -0.055   8.398  1.00  0.00    -0.344 N 
ATOM      8  C   UNL     1       4.569  -0.372   9.356  1.00  0.00     0.226 C 
ATOM      9  O   UNL     1       4.039   0.475  10.066  1.00  0.00    -0.275 OA
ATOM     10  H   UNL     1       5.973  -0.788   7.877  1.00  0.00     0.164 HD
BRANCH   8  11
ATOM     11  C   UNL     1       4.233  -1.850   9.437  1.00  0.00     0.109 C 
ATOM     12  C   UNL     1       3.137  -2.084  10.478  1.00  0.00     0.021 C 
BRANCH  11  13
ATOM     13  C   UNL     1       3.915  -2.391   8.029  1.00  0.00     0.204 C 
BRANCH  13  14
ATOM     14  N   UNL     1       3.525  -3.804   8.056  1.00  0.00    -0.340 N 
ATOM     15  C   UNL     1       3.969  -4.721   7.128  1.00  0.00     0.243 C 
ATOM     16  O   UNL     1       4.775  -4.430   6.246  1.00  0.00    -0.273 OA
ATOM     17  H   UNL     1       2.747  -4.077   8.663  1.00  0.00     0.164 HD
BRANCH  15  18
ATOM     18  C   UNL     1       3.265  -6.096   7.231  1.00  0.00     0.171 C 
BRANCH  18  19
ATOM     19  N   UNL     1       3.985  -6.861   8.247  1.00  0.00    -0.343 N 
ATOM     20  C   UNL     1       4.996  -7.742   7.916  1.00  0.00     0.242 CG0
ATOM     21  O   UNL     1       5.247  -8.024   6.747  1.00  0.00    -0.273 OA
ATOM     22  H   UNL     1       3.735  -6.749   9.223  1.00  0.00     0.164 HD
ATOM     23  G   UNL     1       5.692  -8.397   9.127  1.00  0.00     0.000 G0
ENDBRANCH  18  19
BRANCH  18  24
ATOM     24  C   UNL     1       1.787  -5.921   7.601  1.00  0.00     0.038 C 
BRANCH  24  25
ATOM     25  C   UNL     1       0.824  -5.861   6.396  1.00  0.00    -0.015 C 
ATOM     26  C   UNL     1      -0.583  -6.347   6.747  1.00  0.00     0.007 C 
ATOM     27  C   UNL     1       1.386  -6.698   5.245  1.00  0.00     0.007 C 
ENDBRANCH  24  25
ENDBRANCH  18  24
ENDBRANCH  15  18
ENDBRANCH  13  14
BRANCH  13  28
ATOM     28  C   UNL     1       2.791  -1.623   7.327  1.00  0.00     0.327 C 
ATOM     29  O   UNL     1       1.592  -1.782   7.496  1.00  0.00    -0.250 OA
BRANCH  28  30
ATOM     30  O   UNL     1       3.240  -0.787   6.369  1.00  0.00    -0.480 OA
ATOM     31  H   UNL     1       4.028  -0.364   6.769  1.00  0.00     0.296 HD
ENDBRANCH  28  30
ENDBRANCH  13  28
ENDBRANCH  11  13
ENDBRANCH   8  11
ENDBRANCH   6   7
BRANCH   6  32
ATOM     32  C   UNL     1       7.148   1.423   7.279  1.00  0.00     0.037 C 
BRANCH  32  33
ATOM     33  C   UNL     1       7.562   0.047   6.739  1.00  0.00     0.026 C 
BRANCH  33  34
ATOM     34  C   UNL     1       7.395  -0.061   5.222  1.00  0.00     0.146 C 
BRANCH  34  35
ATOM     35  N   UNL     1       6.064  -0.576   4.931  1.00  0.00    -0.254 NA
ATOM     36  C   UNL     1       5.939  -1.810   4.613  1.00  0.00     0.185 C 
ATOM     37  N   UNL     1       4.716  -2.296   4.347  1.00  0.00    -0.370 N 
ATOM     38  N   UNL     1       6.890  -2.753   4.495  1.00  0.00    -0.370 N 
ATOM     39  H   UNL     1       3.943  -1.647   4.425  1.00  0.00     0.159 HD
ATOM     40  H   UNL     1       4.514  -3.277   4.262  1.00  0.00     0.159 HD
ATOM     41  H   UNL     1       6.682  -3.656   4.101  1.00  0.00     0.159 HD
ATOM     42  H   UNL     1       7.860  -2.525   4.650  1.00  0.00     0.159 HD
ENDBRANCH  34  35
ENDBRANCH  33  34
ENDBRANCH  32  33
ENDBRANCH   6  32
ENDBRANCH   4   6
ENDBRANCH   1   2
BRANCH   1  43
ATOM     43  C   UNL     1       3.852   4.972   6.580  1.00  0.00     0.102 C 
ATOM     44  C   UNL     1       4.796   6.101   7.029  1.00  0.00     0.020 C 
BRANCH  43  45
ATOM     45  C   UNL     1       2.740   5.432   5.633  1.00  0.00     0.225 C 
ATOM     46  O   UNL     1       2.286   4.724   4.738  1.00  0.00    -0.275 OA
ATOM     47  N   UNL     1       2.335   6.738   5.785  1.00  0.00    -0.342 N 
ATOM     48  H   UNL     1       2.604   7.252   6.612  1.00  0.00     0.164 HD
BRANCH  47  49
ATOM     49  C   UNL     1       1.254   7.305   4.972  1.00  0.00     0.192 C 
BRANCH  49  50
ATOM     50  C   UNL     1       1.775   8.518   4.198  1.00  0.00     0.047 C 
BRANCH  50  51
ATOM     51  C   UNL     1       2.534   8.115   2.927  1.00  0.00     0.103 C 
BRANCH  51  52
ATOM     52  C   UNL     1       3.424   9.243   2.409  1.00  0.00     0.226 C 
ATOM     53  O   UNL     1       3.162  10.411   2.702  1.00  0.00    -0.275 OA
BRANCH  52  54
ATOM     54  N   UNL     1       4.560   8.858   1.672  1.00  0.00    -0.311 N 
ATOM     55  C   UNL     1       5.855   8.650   2.333  1.00  0.00     0.153 C 
BRANCH  54  56
ATOM     56  C   UNL     1       4.497   8.652   0.284  1.00  0.00     0.102 C 
ATOM     57  C   UNL     1       4.183   7.488  -0.308  1.00  0.00     0.043 C 
BRANCH  56  58
ATOM     58  C   UNL     1       4.745   9.789  -0.680  1.00  0.00     0.268 C 
ATOM     59  O   UNL     1       4.356   9.781  -1.840  1.00  0.00    -0.268 OA
ATOM     60  N   UNL     1       5.393  10.855  -0.103  1.00  0.00    -0.339 N 
ATOM     61  H   UNL     1       5.693  10.778   0.862  1.00  0.00     0.164 HD
BRANCH  60  62
ATOM     62  C   UNL     1       5.678  12.085  -0.840  1.00  0.00     0.168 CG0
ATOM     63  C   UNL     1       4.773  13.221  -0.379  1.00  0.00     0.041 C 
ATOM     64  G   UNL     1       5.510  11.833  -2.352  1.00  0.00     0.000 G0
ENDBRANCH  60  62
ENDBRANCH  56  58
ENDBRANCH  54  56
ENDBRANCH  52  54
ENDBRANCH  51  52
ENDBRANCH  50  51
ENDBRANCH  49  50
BRANCH  49  65
ATOM     65  C   UNL     1       0.057   7.728   5.838  1.00  0.00     0.326 C 
ATOM     66  O   UNL     1       0.077   8.589   6.705  1.00  0.00    -0.250 OA
BRANCH  65  67
ATOM     67  O   UNL     1      -1.074   7.022   5.620  1.00  0.00    -0.480 OA
ATOM     68  H   UNL     1      -0.746   6.143   5.331  1.00  0.00     0.296 HD
ENDBRANCH  65  67
ENDBRANCH  49  65
ENDBRANCH  47  49
ENDBRANCH  43  45
ENDBRANCH   1  43
BRANCH   1  69
ATOM     69  C   UNL     1       2.781   4.873   8.999  1.00  0.00    -0.001 C 
ATOM     70  C   UNL     1       1.644   5.578   9.132  1.00  0.00     0.001 C 
BRANCH  70  71
ATOM     71  C   UNL     1       1.169   6.261  10.338  1.00  0.00    -0.055 C 
ATOM     72  C   UNL     1       2.095   6.728  11.201  1.00  0.00    -0.018 C 
ATOM     73  C   UNL     1      -0.319   6.401  10.525  1.00  0.00     0.044 C 
BRANCH  72  74
ATOM     74  C   UNL     1       1.900   7.470  12.515  1.00  0.00     0.038 C 
ATOM     75  C   UNL     1       3.027   8.504  12.623  1.00  0.00     0.015 C 
BRANCH  74  76
ATOM     76  C   UNL     1       1.852   6.432  13.675  1.00  0.00     0.128 C 
BRANCH  76  77
ATOM     77  O   UNL     1       3.177   6.205  14.185  1.00  0.00    -0.381 OA
ATOM     78  C   UNL     1       3.611   4.857  14.067  1.00  0.00     0.195 C 
ENDBRANCH  76  77
BRANCH  76  79
ATOM     79  C   UNL     1       0.832   6.778  14.788  1.00  0.00     0.068 C 
BRANCH  79  80
ATOM     80  C   UNL     1      -0.483   7.395  14.376  1.00  0.00    -0.045 A 
ATOM     81  C   UNL     1      -0.711   8.770  14.518  1.00  0.00     0.004 A 
ATOM     82  C   UNL     1      -1.512   6.590  13.866  1.00  0.00     0.004 A 
ATOM     83  C   UNL     1      -1.935   9.331  14.147  1.00  0.00     0.000 A 
ATOM     84  C   UNL     1      -2.736   7.152  13.496  1.00  0.00     0.000 A 
ATOM     85  C   UNL     1      -2.947   8.522  13.635  1.00  0.00     0.000 A 
ENDBRANCH  79  80
ENDBRANCH  76  79
ENDBRANCH  74  76
ENDBRANCH  72  74
ENDBRANCH  70  71
ENDBRANCH   1  69
TORSDOF 17
ENDMDL
MODEL 33
REMARK VINA RESULT:    -5.095      3.462     11.822
REMARK INTER + INTRA:         -24.279
REMARK INTER:                 -17.134
REMARK INTRA:                  -7.144
REMARK UNBOUND:                -9.057
REMARK SMILES C=C1C(=O)N[C@H](C)C(=O)N[C@@H](CC(C)C)C(=O)N[C@@H](C(=O)O)[C@H](C)C(=O)N[C@@H](CCCN=C(N)N)C(=O)N[C@@H](/C=C/C(C)=C/[C@H](C)[C@H](Cc2ccccc2)OC)[C@H](C)C(=O)N[C@@H](C(=O)O)CCC(=O)N1C
REMARK SMILES IDX 39 1 38 2 37 3 36 4 28 6 27 7 25 8 26 9 23 11 24 12 19 13
REMARK SMILES IDX 18 14 16 15 17 16 11 18 10 19 8 20 9 21 12 24 13 25 14 26
REMARK SMILES IDX 15 27 20 28 21 29 22 30 29 32 30 33 31 34 32 35 33 36 34 37
REMARK SMILES IDX 35 38 57 43 58 44 59 45 60 46 61 47 62 49 66 50 67 51 68 52
REMARK SMILES IDX 69 53 70 54 71 55 2 56 1 57 3 58 4 59 5 60 6 62 7 63 63 65
REMARK SMILES IDX 64 66 65 67 40 69 41 70 42 71 44 72 43 73 45 74 46 75 47 76
REMARK SMILES IDX 55 77 56 78 48 79 49 80 50 81 54 82 51 83 53 84 52 85
REMARK H PARENT 38 5 27 10 18 17 10 22 22 31 34 39 34 40 35 41 35 42 61 48
REMARK H PARENT 5 61 65 68
REMARK Flexibility Score:  369.900
ROOT
ATOM      1  C   UNL     1       1.959   6.670   4.937  1.00  0.00     0.117 C 
ENDROOT
BRANCH   1   2
ATOM      2  N   UNL     1       3.303   6.242   5.327  1.00  0.00    -0.347 N 
ATOM      3  O   UNL     1       4.353   8.271   5.109  1.00  0.00    -0.273 OA
ATOM      4  C   UNL     1       4.376   7.099   5.470  1.00  0.00     0.243 C 
ATOM      5  H   UNL     1       3.466   5.273   5.557  1.00  0.00     0.164 HD
BRANCH   4   6
ATOM      6  C   UNL     1       5.666   6.404   5.975  1.00  0.00     0.171 C 
BRANCH   6   7
ATOM      7  N   UNL     1       6.759   7.381   6.106  1.00  0.00    -0.344 N 
ATOM      8  C   UNL     1       7.726   7.489   5.130  1.00  0.00     0.226 C 
ATOM      9  O   UNL     1       7.739   6.777   4.133  1.00  0.00    -0.275 OA
ATOM     10  H   UNL     1       6.820   7.940   6.948  1.00  0.00     0.164 HD
BRANCH   8  11
ATOM     11  C   UNL     1       8.753   8.579   5.384  1.00  0.00     0.109 C 
ATOM     12  C   UNL     1      10.162   7.988   5.361  1.00  0.00     0.021 C 
BRANCH  11  13
ATOM     13  C   UNL     1       8.524   9.749   4.407  1.00  0.00     0.204 C 
BRANCH  13  14
ATOM     14  N   UNL     1       8.804   9.371   3.018  1.00  0.00    -0.340 N 
ATOM     15  C   UNL     1       9.641  10.098   2.199  1.00  0.00     0.243 C 
ATOM     16  O   UNL     1      10.261  11.083   2.596  1.00  0.00    -0.273 OA
ATOM     17  H   UNL     1       8.210   8.659   2.585  1.00  0.00     0.164 HD
BRANCH  15  18
ATOM     18  C   UNL     1       9.621   9.630   0.723  1.00  0.00     0.171 C 
BRANCH  18  19
ATOM     19  N   UNL     1      11.016   9.473   0.315  1.00  0.00    -0.343 N 
ATOM     20  C   UNL     1      11.624  10.357  -0.555  1.00  0.00     0.242 CG0
ATOM     21  O   UNL     1      10.987  11.237  -1.129  1.00  0.00    -0.273 OA
ATOM     22  H   UNL     1      11.553   8.692   0.673  1.00  0.00     0.164 HD
ATOM     23  G   UNL     1      13.120  10.074  -0.806  1.00  0.00     0.000 G0
ENDBRANCH  18  19
BRANCH  18  24
ATOM     24  C   UNL     1       8.842   8.317   0.582  1.00  0.00     0.038 C 
BRANCH  24  25
ATOM     25  C   UNL     1       9.659   7.143  -0.000  1.00  0.00    -0.015 C 
ATOM     26  C   UNL     1       8.909   6.402  -1.108  1.00  0.00     0.007 C 
ATOM     27  C   UNL     1      10.023   6.165   1.119  1.00  0.00     0.007 C 
ENDBRANCH  24  25
ENDBRANCH  18  24
ENDBRANCH  15  18
ENDBRANCH  13  14
BRANCH  13  28
ATOM     28  C   UNL     1       7.095  10.299   4.448  1.00  0.00     0.327 C 
ATOM     29  O   UNL     1       6.415  10.618   3.484  1.00  0.00    -0.250 OA
BRANCH  28  30
ATOM     30  O   UNL     1       6.651  10.526   5.701  1.00  0.00    -0.480 OA
ATOM     31  H   UNL     1       5.689  10.349   5.652  1.00  0.00     0.296 HD
ENDBRANCH  28  30
ENDBRANCH  13  28
ENDBRANCH  11  13
ENDBRANCH   8  11
ENDBRANCH   6   7
BRANCH   6  32
ATOM     32  C   UNL     1       5.377   5.723   7.318  1.00  0.00     0.037 C 
BRANCH  32  33
ATOM     33  C   UNL     1       6.002   4.323   7.403  1.00  0.00     0.026 C 
BRANCH  33  34
ATOM     34  C   UNL     1       4.949   3.214   7.435  1.00  0.00     0.146 C 
BRANCH  34  35
ATOM     35  N   UNL     1       5.491   2.074   8.161  1.00  0.00    -0.254 NA
ATOM     36  C   UNL     1       5.819   1.025   7.503  1.00  0.00     0.185 C 
ATOM     37  N   UNL     1       6.323  -0.030   8.161  1.00  0.00    -0.370 N 
ATOM     38  N   UNL     1       5.735   0.798   6.180  1.00  0.00    -0.370 N 
ATOM     39  H   UNL     1       6.427   0.068   9.163  1.00  0.00     0.159 HD
ATOM     40  H   UNL     1       6.761  -0.812   7.706  1.00  0.00     0.159 HD
ATOM     41  H   UNL     1       5.894  -0.120   5.798  1.00  0.00     0.159 HD
ATOM     42  H   UNL     1       5.358   1.500   5.562  1.00  0.00     0.159 HD
ENDBRANCH  34  35
ENDBRANCH  33  34
ENDBRANCH  32  33
ENDBRANCH   6  32
ENDBRANCH   4   6
ENDBRANCH   1   2
BRANCH   1  43
ATOM     43  C   UNL     1       0.945   6.135   5.989  1.00  0.00     0.102 C 
ATOM     44  C   UNL     1      -0.457   6.755   5.859  1.00  0.00     0.020 C 
BRANCH  43  45
ATOM     45  C   UNL     1       1.528   6.209   7.403  1.00  0.00     0.225 C 
ATOM     46  O   UNL     1       2.170   5.295   7.913  1.00  0.00    -0.275 OA
ATOM     47  N   UNL     1       1.207   7.341   8.117  1.00  0.00    -0.342 N 
ATOM     48  H   UNL     1       0.814   8.139   7.639  1.00  0.00     0.164 HD
BRANCH  47  49
ATOM     49  C   UNL     1       1.724   7.565   9.471  1.00  0.00     0.192 C 
BRANCH  49  50
ATOM     50  C   UNL     1       0.562   7.600  10.466  1.00  0.00     0.047 C 
BRANCH  50  51
ATOM     51  C   UNL     1       1.023   7.957  11.886  1.00  0.00     0.103 C 
BRANCH  51  52
ATOM     52  C   UNL     1       0.217   9.112  12.477  1.00  0.00     0.226 C 
ATOM     53  O   UNL     1      -0.019  10.106  11.787  1.00  0.00    -0.275 OA
BRANCH  52  54
ATOM     54  N   UNL     1      -0.280   8.928  13.781  1.00  0.00    -0.311 N 
ATOM     55  C   UNL     1      -0.299  10.036  14.746  1.00  0.00     0.153 C 
BRANCH  54  56
ATOM     56  C   UNL     1      -0.779   7.686  14.205  1.00  0.00     0.102 C 
ATOM     57  C   UNL     1      -0.086   6.781  14.915  1.00  0.00     0.043 C 
BRANCH  56  58
ATOM     58  C   UNL     1      -2.207   7.286  13.918  1.00  0.00     0.268 C 
ATOM     59  O   UNL     1      -2.561   6.778  12.863  1.00  0.00    -0.268 OA
ATOM     60  N   UNL     1      -3.050   7.490  14.984  1.00  0.00    -0.339 N 
ATOM     61  H   UNL     1      -2.681   7.926  15.821  1.00  0.00     0.164 HD
BRANCH  60  62
ATOM     62  C   UNL     1      -4.463   7.114  14.944  1.00  0.00     0.168 CG0
ATOM     63  C   UNL     1      -5.351   8.276  15.371  1.00  0.00     0.041 C 
ATOM     64  G   UNL     1      -4.697   5.886  15.848  1.00  0.00     0.000 G0
ENDBRANCH  60  62
ENDBRANCH  56  58
ENDBRANCH  54  56
ENDBRANCH  52  54
ENDBRANCH  51  52
ENDBRANCH  50  51
ENDBRANCH  49  50
BRANCH  49  65
ATOM     65  C   UNL     1       2.515   8.879   9.565  1.00  0.00     0.326 C 
ATOM     66  O   UNL     1       3.679   8.985   9.923  1.00  0.00    -0.250 OA
BRANCH  65  67
ATOM     67  O   UNL     1       1.802   9.989   9.269  1.00  0.00    -0.480 OA
ATOM     68  H   UNL     1       1.729   9.963   8.291  1.00  0.00     0.296 HD
ENDBRANCH  65  67
ENDBRANCH  49  65
ENDBRANCH  47  49
ENDBRANCH  43  45
ENDBRANCH   1  43
BRANCH   1  69
ATOM     69  C   UNL     1       1.790   6.266   3.484  1.00  0.00    -0.001 C 
ATOM     70  C   UNL     1       2.411   6.791   2.413  1.00  0.00     0.001 C 
BRANCH  70  71
ATOM     71  C   UNL     1       2.255   6.378   1.016  1.00  0.00    -0.055 C 
ATOM     72  C   UNL     1       3.169   6.820   0.126  1.00  0.00    -0.018 C 
ATOM     73  C   UNL     1       1.093   5.484   0.674  1.00  0.00     0.044 C 
BRANCH  72  74
ATOM     74  C   UNL     1       3.262   6.556  -1.370  1.00  0.00     0.038 C 
ATOM     75  C   UNL     1       4.433   5.590  -1.587  1.00  0.00     0.015 C 
BRANCH  74  76
ATOM     76  C   UNL     1       3.393   7.918  -2.112  1.00  0.00     0.128 C 
BRANCH  76  77
ATOM     77  O   UNL     1       2.134   8.278  -2.704  1.00  0.00    -0.381 OA
ATOM     78  C   UNL     1       1.323   7.162  -3.045  1.00  0.00     0.195 C 
ENDBRANCH  76  77
BRANCH  76  79
ATOM     79  C   UNL     1       3.994   9.053  -1.244  1.00  0.00     0.068 C 
BRANCH  79  80
ATOM     80  C   UNL     1       5.313   9.648  -1.673  1.00  0.00    -0.045 A 
ATOM     81  C   UNL     1       6.311   8.852  -2.249  1.00  0.00     0.004 A 
ATOM     82  C   UNL     1       5.571  11.013  -1.473  1.00  0.00     0.004 A 
ATOM     83  C   UNL     1       7.534   9.408  -2.630  1.00  0.00     0.000 A 
ATOM     84  C   UNL     1       6.795  11.568  -1.853  1.00  0.00     0.000 A 
ATOM     85  C   UNL     1       7.775  10.766  -2.433  1.00  0.00     0.000 A 
ENDBRANCH  79  80
ENDBRANCH  76  79
ENDBRANCH  74  76
ENDBRANCH  72  74
ENDBRANCH  70  71
ENDBRANCH   1  69
TORSDOF 17
ENDMDL
MODEL 34
REMARK VINA RESULT:    -5.090     15.359     18.287
REMARK INTER + INTRA:         -24.263
REMARK INTER:                 -15.611
REMARK INTRA:                  -8.652
REMARK UNBOUND:                -9.057
REMARK SMILES C=C1C(=O)N[C@H](C)C(=O)N[C@@H](CC(C)C)C(=O)N[C@@H](C(=O)O)[C@H](C)C(=O)N[C@@H](CCCN=C(N)N)C(=O)N[C@@H](/C=C/C(C)=C/[C@H](C)[C@H](Cc2ccccc2)OC)[C@H](C)C(=O)N[C@@H](C(=O)O)CCC(=O)N1C
REMARK SMILES IDX 39 1 38 2 37 3 36 4 28 6 27 7 25 8 26 9 23 11 24 12 19 13
REMARK SMILES IDX 18 14 16 15 17 16 11 18 10 19 8 20 9 21 12 24 13 25 14 26
REMARK SMILES IDX 15 27 20 28 21 29 22 30 29 32 30 33 31 34 32 35 33 36 34 37
REMARK SMILES IDX 35 38 57 43 58 44 59 45 60 46 61 47 62 49 66 50 67 51 68 52
REMARK SMILES IDX 69 53 70 54 71 55 2 56 1 57 3 58 4 59 5 60 6 62 7 63 63 65
REMARK SMILES IDX 64 66 65 67 40 69 41 70 42 71 44 72 43 73 45 74 46 75 47 76
REMARK SMILES IDX 55 77 56 78 48 79 49 80 50 81 54 82 51 83 53 84 52 85
REMARK H PARENT 38 5 27 10 18 17 10 22 22 31 34 39 34 40 35 41 35 42 61 48
REMARK H PARENT 5 61 65 68
REMARK Flexibility Score:  369.900
ROOT
ATOM      1  C   UNL     1       4.772  -8.157   9.753  1.00  0.00     0.117 C 
ENDROOT
BRANCH   1   2
ATOM      2  N   UNL     1       4.292  -7.909  11.113  1.00  0.00    -0.347 N 
ATOM      3  O   UNL     1       2.327  -9.087  10.971  1.00  0.00    -0.273 OA
ATOM      4  C   UNL     1       3.147  -8.473  11.644  1.00  0.00     0.243 C 
ATOM      5  H   UNL     1       4.841  -7.335  11.734  1.00  0.00     0.164 HD
BRANCH   4   6
ATOM      6  C   UNL     1       2.911  -8.117  13.134  1.00  0.00     0.171 C 
BRANCH   6   7
ATOM      7  N   UNL     1       1.516  -8.394  13.513  1.00  0.00    -0.344 N 
ATOM      8  C   UNL     1       0.778  -7.460  14.208  1.00  0.00     0.226 C 
ATOM      9  O   UNL     1       1.241  -6.381  14.559  1.00  0.00    -0.275 OA
ATOM     10  H   UNL     1       1.120  -9.301  13.300  1.00  0.00     0.164 HD
BRANCH   8  11
ATOM     11  C   UNL     1      -0.659  -7.872  14.477  1.00  0.00     0.109 C 
ATOM     12  C   UNL     1      -1.021  -7.596  15.936  1.00  0.00     0.021 C 
BRANCH  11  13
ATOM     13  C   UNL     1      -1.592  -7.214  13.441  1.00  0.00     0.204 C 
BRANCH  13  14
ATOM     14  N   UNL     1      -1.007  -6.001  12.863  1.00  0.00    -0.340 N 
ATOM     15  C   UNL     1      -1.742  -4.863  12.607  1.00  0.00     0.243 C 
ATOM     16  O   UNL     1      -2.931  -4.765  12.903  1.00  0.00    -0.273 OA
ATOM     17  H   UNL     1      -0.069  -6.066  12.457  1.00  0.00     0.164 HD
BRANCH  15  18
ATOM     18  C   UNL     1      -0.963  -3.790  11.807  1.00  0.00     0.171 C 
BRANCH  18  19
ATOM     19  N   UNL     1      -1.695  -2.536  11.966  1.00  0.00    -0.343 N 
ATOM     20  C   UNL     1      -1.599  -1.513  11.042  1.00  0.00     0.242 CG0
ATOM     21  O   UNL     1      -0.793  -1.557  10.116  1.00  0.00    -0.273 OA
ATOM     22  H   UNL     1      -2.287  -2.405  12.779  1.00  0.00     0.164 HD
ATOM     23  G   UNL     1      -2.505  -0.300  11.338  1.00  0.00     0.000 G0
ENDBRANCH  18  19
BRANCH  18  24
ATOM     24  C   UNL     1       0.477  -3.670  12.322  1.00  0.00     0.038 C 
BRANCH  24  25
ATOM     25  C   UNL     1       1.564  -3.846  11.241  1.00  0.00    -0.015 C 
ATOM     26  C   UNL     1       1.382  -5.129  10.430  1.00  0.00     0.007 C 
ATOM     27  C   UNL     1       2.948  -3.843  11.897  1.00  0.00     0.007 C 
ENDBRANCH  24  25
ENDBRANCH  18  24
ENDBRANCH  15  18
ENDBRANCH  13  14
BRANCH  13  28
ATOM     28  C   UNL     1      -1.954  -8.143  12.278  1.00  0.00     0.327 C 
ATOM     29  O   UNL     1      -2.750  -9.068  12.313  1.00  0.00    -0.250 OA
BRANCH  28  30
ATOM     30  O   UNL     1      -1.206  -7.927  11.177  1.00  0.00    -0.480 OA
ATOM     31  H   UNL     1      -1.836  -8.033  10.434  1.00  0.00     0.296 HD
ENDBRANCH  28  30
ENDBRANCH  13  28
ENDBRANCH  11  13
ENDBRANCH   8  11
ENDBRANCH   6   7
BRANCH   6  32
ATOM     32  C   UNL     1       3.884  -8.919  14.003  1.00  0.00     0.037 C 
BRANCH  32  33
ATOM     33  C   UNL     1       3.158  -9.912  14.922  1.00  0.00     0.026 C 
BRANCH  33  34
ATOM     34  C   UNL     1       3.387 -11.366  14.510  1.00  0.00     0.146 C 
BRANCH  34  35
ATOM     35  N   UNL     1       2.523 -11.676  13.379  1.00  0.00    -0.254 NA
ATOM     36  C   UNL     1       3.063 -12.024  12.271  1.00  0.00     0.185 C 
ATOM     37  N   UNL     1       2.277 -12.316  11.223  1.00  0.00    -0.370 N 
ATOM     38  N   UNL     1       4.368 -12.152  11.970  1.00  0.00    -0.370 N 
ATOM     39  H   UNL     1       1.278 -12.253  11.374  1.00  0.00     0.159 HD
ATOM     40  H   UNL     1       2.609 -12.759  10.384  1.00  0.00     0.159 HD
ATOM     41  H   UNL     1       4.672 -12.298  11.021  1.00  0.00     0.159 HD
ATOM     42  H   UNL     1       5.075 -11.949  12.659  1.00  0.00     0.159 HD
ENDBRANCH  34  35
ENDBRANCH  33  34
ENDBRANCH  32  33
ENDBRANCH   6  32
ENDBRANCH   4   6
ENDBRANCH   1   2
BRANCH   1  43
ATOM     43  C   UNL     1       6.030  -9.069   9.830  1.00  0.00     0.102 C 
ATOM     44  C   UNL     1       7.355  -8.292   9.745  1.00  0.00     0.020 C 
BRANCH  43  45
ATOM     45  C   UNL     1       5.927 -10.233   8.840  1.00  0.00     0.225 C 
ATOM     46  O   UNL     1       6.905 -10.852   8.429  1.00  0.00    -0.275 OA
ATOM     47  N   UNL     1       4.664 -10.491   8.358  1.00  0.00    -0.342 N 
ATOM     48  H   UNL     1       3.862 -10.081   8.814  1.00  0.00     0.164 HD
BRANCH  47  49
ATOM     49  C   UNL     1       4.410 -11.598   7.432  1.00  0.00     0.192 C 
BRANCH  49  50
ATOM     50  C   UNL     1       3.958 -11.043   6.079  1.00  0.00     0.047 C 
BRANCH  50  51
ATOM     51  C   UNL     1       5.130 -10.857   5.105  1.00  0.00     0.103 C 
BRANCH  51  52
ATOM     52  C   UNL     1       5.374 -12.102   4.256  1.00  0.00     0.226 C 
ATOM     53  O   UNL     1       4.446 -12.884   4.039  1.00  0.00    -0.275 OA
BRANCH  52  54
ATOM     54  N   UNL     1       6.659 -12.240   3.700  1.00  0.00    -0.311 N 
ATOM     55  C   UNL     1       7.848 -12.335   4.557  1.00  0.00     0.153 C 
BRANCH  54  56
ATOM     56  C   UNL     1       6.853 -12.299   2.310  1.00  0.00     0.102 C 
ATOM     57  C   UNL     1       6.275 -11.477   1.418  1.00  0.00     0.043 C 
BRANCH  56  58
ATOM     58  C   UNL     1       7.801 -13.305   1.701  1.00  0.00     0.268 C 
ATOM     59  O   UNL     1       7.637 -14.515   1.784  1.00  0.00    -0.268 OA
ATOM     60  N   UNL     1       8.824 -12.723   0.991  1.00  0.00    -0.339 N 
ATOM     61  H   UNL     1       8.895 -11.713   0.979  1.00  0.00     0.164 HD
BRANCH  60  62
ATOM     62  C   UNL     1       9.819 -13.514   0.269  1.00  0.00     0.168 CG0
ATOM     63  C   UNL     1       9.335 -13.852  -1.136  1.00  0.00     0.041 C 
ATOM     64  G   UNL     1      10.133 -14.800   1.062  1.00  0.00     0.000 G0
ENDBRANCH  60  62
ENDBRANCH  56  58
ENDBRANCH  54  56
ENDBRANCH  52  54
ENDBRANCH  51  52
ENDBRANCH  50  51
ENDBRANCH  49  50
BRANCH  49  65
ATOM     65  C   UNL     1       3.336 -12.554   7.973  1.00  0.00     0.326 C 
ATOM     66  O   UNL     1       3.533 -13.478   8.749  1.00  0.00    -0.250 OA
BRANCH  65  67
ATOM     67  O   UNL     1       2.095 -12.348   7.478  1.00  0.00    -0.480 OA
ATOM     68  H   UNL     1       2.027 -11.371   7.424  1.00  0.00     0.296 HD
ENDBRANCH  65  67
ENDBRANCH  49  65
ENDBRANCH  47  49
ENDBRANCH  43  45
ENDBRANCH   1  43
BRANCH   1  69
ATOM     69  C   UNL     1       4.891  -6.796   9.091  1.00  0.00    -0.001 C 
ATOM     70  C   UNL     1       5.002  -5.600   9.697  1.00  0.00     0.001 C 
BRANCH  70  71
ATOM     71  C   UNL     1       5.138  -4.295   9.047  1.00  0.00    -0.055 C 
ATOM     72  C   UNL     1       4.110  -3.861   8.288  1.00  0.00    -0.018 C 
ATOM     73  C   UNL     1       6.412  -3.525   9.278  1.00  0.00     0.044 C 
BRANCH  72  74
ATOM     74  C   UNL     1       3.971  -2.563   7.507  1.00  0.00     0.038 C 
ATOM     75  C   UNL     1       3.310  -1.541   8.440  1.00  0.00     0.015 C 
BRANCH  74  76
ATOM     76  C   UNL     1       3.185  -2.850   6.193  1.00  0.00     0.128 C 
BRANCH  76  77
ATOM     77  O   UNL     1       3.916  -2.344   5.063  1.00  0.00    -0.381 OA
ATOM     78  C   UNL     1       5.176  -2.973   4.870  1.00  0.00     0.195 C 
ENDBRANCH  76  77
BRANCH  76  79
ATOM     79  C   UNL     1       2.767  -4.332   6.022  1.00  0.00     0.068 C 
BRANCH  79  80
ATOM     80  C   UNL     1       1.362  -4.720   6.414  1.00  0.00    -0.045 A 
ATOM     81  C   UNL     1       0.867  -6.004   6.147  1.00  0.00     0.004 A 
ATOM     82  C   UNL     1       0.516  -3.786   7.030  1.00  0.00     0.004 A 
ATOM     83  C   UNL     1      -0.439  -6.350   6.500  1.00  0.00     0.000 A 
ATOM     84  C   UNL     1      -0.790  -4.134   7.382  1.00  0.00     0.000 A 
ATOM     85  C   UNL     1      -1.266  -5.416   7.119  1.00  0.00     0.000 A 
ENDBRANCH  79  80
ENDBRANCH  76  79
ENDBRANCH  74  76
ENDBRANCH  72  74
ENDBRANCH  70  71
ENDBRANCH   1  69
TORSDOF 17
ENDMDL
MODEL 35
REMARK VINA RESULT:    -5.061      3.957      8.656
REMARK INTER + INTRA:         -24.178
REMARK INTER:                 -16.448
REMARK INTRA:                  -7.730
REMARK UNBOUND:                -9.057
REMARK SMILES C=C1C(=O)N[C@H](C)C(=O)N[C@@H](CC(C)C)C(=O)N[C@@H](C(=O)O)[C@H](C)C(=O)N[C@@H](CCCN=C(N)N)C(=O)N[C@@H](/C=C/C(C)=C/[C@H](C)[C@H](Cc2ccccc2)OC)[C@H](C)C(=O)N[C@@H](C(=O)O)CCC(=O)N1C
REMARK SMILES IDX 39 1 38 2 37 3 36 4 28 6 27 7 25 8 26 9 23 11 24 12 19 13
REMARK SMILES IDX 18 14 16 15 17 16 11 18 10 19 8 20 9 21 12 24 13 25 14 26
REMARK SMILES IDX 15 27 20 28 21 29 22 30 29 32 30 33 31 34 32 35 33 36 34 37
REMARK SMILES IDX 35 38 57 43 58 44 59 45 60 46 61 47 62 49 66 50 67 51 68 52
REMARK SMILES IDX 69 53 70 54 71 55 2 56 1 57 3 58 4 59 5 60 6 62 7 63 63 65
REMARK SMILES IDX 64 66 65 67 40 69 41 70 42 71 44 72 43 73 45 74 46 75 47 76
REMARK SMILES IDX 55 77 56 78 48 79 49 80 50 81 54 82 51 83 53 84 52 85
REMARK H PARENT 38 5 27 10 18 17 10 22 22 31 34 39 34 40 35 41 35 42 61 48
REMARK H PARENT 5 61 65 68
REMARK Flexibility Score:  369.900
ROOT
ATOM      1  C   UNL     1       1.679   5.215   4.627  1.00  0.00     0.117 C 
ENDROOT
BRANCH   1   2
ATOM      2  N   UNL     1       1.492   6.631   4.948  1.00  0.00    -0.347 N 
ATOM      3  O   UNL     1      -0.709   6.520   5.587  1.00  0.00    -0.273 OA
ATOM      4  C   UNL     1       0.335   7.155   5.491  1.00  0.00     0.243 C 
ATOM      5  H   UNL     1       2.260   7.272   4.818  1.00  0.00     0.164 HD
BRANCH   4   6
ATOM      6  C   UNL     1       0.429   8.667   5.816  1.00  0.00     0.171 C 
BRANCH   6   7
ATOM      7  N   UNL     1       1.562   8.930   6.718  1.00  0.00    -0.344 N 
ATOM      8  C   UNL     1       1.452   8.691   8.071  1.00  0.00     0.226 C 
ATOM      9  O   UNL     1       0.421   8.277   8.587  1.00  0.00    -0.275 OA
ATOM     10  H   UNL     1       2.408   9.336   6.339  1.00  0.00     0.164 HD
BRANCH   8  11
ATOM     11  C   UNL     1       2.723   8.960   8.858  1.00  0.00     0.109 C 
ATOM     12  C   UNL     1       3.821   9.473   7.926  1.00  0.00     0.021 C 
BRANCH  11  13
ATOM     13  C   UNL     1       2.409   9.877  10.057  1.00  0.00     0.204 C 
BRANCH  13  14
ATOM     14  N   UNL     1       1.632   9.187  11.091  1.00  0.00    -0.340 N 
ATOM     15  C   UNL     1       0.658   9.814  11.839  1.00  0.00     0.243 C 
ATOM     16  O   UNL     1       0.330  10.983  11.649  1.00  0.00    -0.273 OA
ATOM     17  H   UNL     1       1.955   8.267  11.401  1.00  0.00     0.164 HD
BRANCH  15  18
ATOM     18  C   UNL     1       0.121   8.948  13.005  1.00  0.00     0.171 C 
BRANCH  18  19
ATOM     19  N   UNL     1       1.272   8.608  13.839  1.00  0.00    -0.343 N 
ATOM     20  C   UNL     1       1.498   7.318  14.278  1.00  0.00     0.242 CG0
ATOM     21  O   UNL     1       0.673   6.424  14.101  1.00  0.00    -0.273 OA
ATOM     22  H   UNL     1       1.923   9.336  14.110  1.00  0.00     0.164 HD
ATOM     23  G   UNL     1       2.804   7.137  15.079  1.00  0.00     0.000 G0
ENDBRANCH  18  19
BRANCH  18  24
ATOM     24  C   UNL     1      -0.943   9.713  13.802  1.00  0.00     0.038 C 
BRANCH  24  25
ATOM     25  C   UNL     1      -2.378   9.168  13.649  1.00  0.00    -0.015 C 
ATOM     26  C   UNL     1      -2.414   7.647  13.498  1.00  0.00     0.007 C 
ATOM     27  C   UNL     1      -3.051   9.821  12.439  1.00  0.00     0.007 C 
ENDBRANCH  24  25
ENDBRANCH  18  24
ENDBRANCH  15  18
ENDBRANCH  13  14
BRANCH  13  28
ATOM     28  C   UNL     1       3.664  10.439  10.732  1.00  0.00     0.327 C 
ATOM     29  O   UNL     1       4.462   9.811  11.412  1.00  0.00    -0.250 OA
BRANCH  28  30
ATOM     30  O   UNL     1       3.776  11.777  10.611  1.00  0.00    -0.480 OA
ATOM     31  H   UNL     1       3.909  12.092  11.529  1.00  0.00     0.296 HD
ENDBRANCH  28  30
ENDBRANCH  13  28
ENDBRANCH  11  13
ENDBRANCH   8  11
ENDBRANCH   6   7
BRANCH   6  32
ATOM     32  C   UNL     1       0.576   9.455   4.509  1.00  0.00     0.037 C 
BRANCH  32  33
ATOM     33  C   UNL     1       1.456  10.701   4.680  1.00  0.00     0.026 C 
BRANCH  33  34
ATOM     34  C   UNL     1       0.714  11.851   5.363  1.00  0.00     0.146 C 
BRANCH  34  35
ATOM     35  N   UNL     1       1.174  11.954   6.741  1.00  0.00    -0.254 NA
ATOM     36  C   UNL     1       1.775  13.023   7.110  1.00  0.00     0.185 C 
ATOM     37  N   UNL     1       2.198  13.131   8.379  1.00  0.00    -0.370 N 
ATOM     38  N   UNL     1       2.066  14.120   6.389  1.00  0.00    -0.370 N 
ATOM     39  H   UNL     1       2.006  12.347   8.990  1.00  0.00     0.159 HD
ATOM     40  H   UNL     1       2.517  13.992   8.788  1.00  0.00     0.159 HD
ATOM     41  H   UNL     1       2.667  14.840   6.756  1.00  0.00     0.159 HD
ATOM     42  H   UNL     1       1.821  14.172   5.413  1.00  0.00     0.159 HD
ENDBRANCH  34  35
ENDBRANCH  33  34
ENDBRANCH  32  33
ENDBRANCH   6  32
ENDBRANCH   4   6
ENDBRANCH   1   2
BRANCH   1  43
ATOM     43  C   UNL     1       2.985   4.720   5.313  1.00  0.00     0.102 C 
ATOM     44  C   UNL     1       3.160   3.192   5.264  1.00  0.00     0.020 C 
BRANCH  43  45
ATOM     45  C   UNL     1       3.130   5.317   6.715  1.00  0.00     0.225 C 
ATOM     46  O   UNL     1       3.773   6.337   6.947  1.00  0.00    -0.275 OA
ATOM     47  N   UNL     1       2.567   4.582   7.734  1.00  0.00    -0.342 N 
ATOM     48  H   UNL     1       1.920   3.838   7.515  1.00  0.00     0.164 HD
BRANCH  47  49
ATOM     49  C   UNL     1       2.597   5.049   9.123  1.00  0.00     0.192 C 
BRANCH  49  50
ATOM     50  C   UNL     1       3.188   3.958  10.019  1.00  0.00     0.047 C 
BRANCH  50  51
ATOM     51  C   UNL     1       3.798   4.529  11.307  1.00  0.00     0.103 C 
BRANCH  51  52
ATOM     52  C   UNL     1       5.319   4.395  11.330  1.00  0.00     0.226 C 
ATOM     53  O   UNL     1       5.889   3.761  10.440  1.00  0.00    -0.275 OA
BRANCH  52  54
ATOM     54  N   UNL     1       5.994   5.088  12.353  1.00  0.00    -0.311 N 
ATOM     55  C   UNL     1       7.134   5.963  12.048  1.00  0.00     0.153 C 
BRANCH  54  56
ATOM     56  C   UNL     1       5.602   4.973  13.697  1.00  0.00     0.102 C 
ATOM     57  C   UNL     1       5.767   3.876  14.454  1.00  0.00     0.043 C 
BRANCH  56  58
ATOM     58  C   UNL     1       4.982   6.142  14.425  1.00  0.00     0.268 C 
ATOM     59  O   UNL     1       5.635   7.074  14.875  1.00  0.00    -0.268 OA
ATOM     60  N   UNL     1       3.609   6.082  14.472  1.00  0.00    -0.339 N 
ATOM     61  H   UNL     1       3.143   5.270  14.086  1.00  0.00     0.164 HD
BRANCH  60  62
ATOM     62  C   UNL     1       2.804   7.143  15.076  1.00  0.00     0.168 CG0
ATOM     63  C   UNL     1       2.520   6.846  16.544  1.00  0.00     0.041 C 
ATOM     64  G   UNL     1       1.488   7.306  14.288  1.00  0.00     0.000 G0
ENDBRANCH  60  62
ENDBRANCH  56  58
ENDBRANCH  54  56
ENDBRANCH  52  54
ENDBRANCH  51  52
ENDBRANCH  50  51
ENDBRANCH  49  50
BRANCH  49  65
ATOM     65  C   UNL     1       1.193   5.417   9.628  1.00  0.00     0.326 C 
ATOM     66  O   UNL     1       0.140   5.065   9.118  1.00  0.00    -0.250 OA
BRANCH  65  67
ATOM     67  O   UNL     1       1.177   6.246  10.695  1.00  0.00    -0.480 OA
ATOM     68  H   UNL     1       1.642   5.735  11.392  1.00  0.00     0.296 HD
ENDBRANCH  65  67
ENDBRANCH  49  65
ENDBRANCH  47  49
ENDBRANCH  43  45
ENDBRANCH   1  43
BRANCH   1  69
ATOM     69  C   UNL     1       1.554   5.102   3.119  1.00  0.00    -0.001 C 
ATOM     70  C   UNL     1       1.970   5.987   2.196  1.00  0.00     0.001 C 
BRANCH  70  71
ATOM     71  C   UNL     1       1.863   5.857   0.741  1.00  0.00    -0.055 C 
ATOM     72  C   UNL     1       2.873   6.346  -0.008  1.00  0.00    -0.018 C 
ATOM     73  C   UNL     1       0.638   5.180   0.184  1.00  0.00     0.044 C 
BRANCH  72  74
ATOM     74  C   UNL     1       3.035   6.350  -1.522  1.00  0.00     0.038 C 
ATOM     75  C   UNL     1       4.264   5.492  -1.848  1.00  0.00     0.015 C 
BRANCH  74  76
ATOM     76  C   UNL     1       3.120   7.825  -2.013  1.00  0.00     0.128 C 
BRANCH  76  77
ATOM     77  O   UNL     1       1.808   8.306  -2.350  1.00  0.00    -0.381 OA
ATOM     78  C   UNL     1       0.960   7.310  -2.906  1.00  0.00     0.195 C 
ENDBRANCH  76  77
BRANCH  76  79
ATOM     79  C   UNL     1       3.874   8.769  -1.043  1.00  0.00     0.068 C 
BRANCH  79  80
ATOM     80  C   UNL     1       5.167   9.386  -1.518  1.00  0.00    -0.045 A 
ATOM     81  C   UNL     1       6.208   8.590  -2.013  1.00  0.00     0.004 A 
ATOM     82  C   UNL     1       5.357  10.775  -1.446  1.00  0.00     0.004 A 
ATOM     83  C   UNL     1       7.406   9.167  -2.438  1.00  0.00     0.000 A 
ATOM     84  C   UNL     1       6.556  11.351  -1.870  1.00  0.00     0.000 A 
ATOM     85  C   UNL     1       7.579  10.548  -2.367  1.00  0.00     0.000 A 
ENDBRANCH  79  80
ENDBRANCH  76  79
ENDBRANCH  74  76
ENDBRANCH  72  74
ENDBRANCH  70  71
ENDBRANCH   1  69
TORSDOF 17
ENDMDL
MODEL 36
REMARK VINA RESULT:    -5.027     10.927     15.696
REMARK INTER + INTRA:         -24.076
REMARK INTER:                 -14.842
REMARK INTRA:                  -9.235
REMARK UNBOUND:                -9.057
REMARK SMILES C=C1C(=O)N[C@H](C)C(=O)N[C@@H](CC(C)C)C(=O)N[C@@H](C(=O)O)[C@H](C)C(=O)N[C@@H](CCCN=C(N)N)C(=O)N[C@@H](/C=C/C(C)=C/[C@H](C)[C@H](Cc2ccccc2)OC)[C@H](C)C(=O)N[C@@H](C(=O)O)CCC(=O)N1C
REMARK SMILES IDX 39 1 38 2 37 3 36 4 28 6 27 7 25 8 26 9 23 11 24 12 19 13
REMARK SMILES IDX 18 14 16 15 17 16 11 18 10 19 8 20 9 21 12 24 13 25 14 26
REMARK SMILES IDX 15 27 20 28 21 29 22 30 29 32 30 33 31 34 32 35 33 36 34 37
REMARK SMILES IDX 35 38 57 43 58 44 59 45 60 46 61 47 62 49 66 50 67 51 68 52
REMARK SMILES IDX 69 53 70 54 71 55 2 56 1 57 3 58 4 59 5 60 6 62 7 63 63 65
REMARK SMILES IDX 64 66 65 67 40 69 41 70 42 71 44 72 43 73 45 74 46 75 47 76
REMARK SMILES IDX 55 77 56 78 48 79 49 80 50 81 54 82 51 83 53 84 52 85
REMARK H PARENT 38 5 27 10 18 17 10 22 22 31 34 39 34 40 35 41 35 42 61 48
REMARK H PARENT 5 61 65 68
REMARK Flexibility Score:  369.900
ROOT
ATOM      1  C   UNL     1       1.917  -2.383   9.227  1.00  0.00     0.117 C 
ENDROOT
BRANCH   1   2
ATOM      2  N   UNL     1       2.994  -1.408   9.055  1.00  0.00    -0.347 N 
ATOM      3  O   UNL     1       3.505  -1.888   6.869  1.00  0.00    -0.273 OA
ATOM      4  C   UNL     1       3.642  -1.175   7.857  1.00  0.00     0.243 C 
ATOM      5  H   UNL     1       3.262  -0.824   9.833  1.00  0.00     0.164 HD
BRANCH   4   6
ATOM      6  C   UNL     1       4.684  -0.029   7.924  1.00  0.00     0.171 C 
BRANCH   6   7
ATOM      7  N   UNL     1       5.999  -0.552   8.327  1.00  0.00    -0.344 N 
ATOM      8  C   UNL     1       6.391  -0.526   9.648  1.00  0.00     0.226 C 
ATOM      9  O   UNL     1       5.690  -0.054  10.536  1.00  0.00    -0.275 OA
ATOM     10  H   UNL     1       6.633  -0.888   7.614  1.00  0.00     0.164 HD
BRANCH   8  11
ATOM     11  C   UNL     1       7.750  -1.151   9.910  1.00  0.00     0.109 C 
ATOM     12  C   UNL     1       7.786  -2.578   9.364  1.00  0.00     0.021 C 
BRANCH  11  13
ATOM     13  C   UNL     1       8.861  -0.225   9.379  1.00  0.00     0.204 C 
BRANCH  13  14
ATOM     14  N   UNL     1       8.494   1.191   9.478  1.00  0.00    -0.340 N 
ATOM     15  C   UNL     1       8.856   2.126   8.533  1.00  0.00     0.243 C 
ATOM     16  O   UNL     1       9.461   1.826   7.505  1.00  0.00    -0.273 OA
ATOM     17  H   UNL     1       8.128   1.530  10.372  1.00  0.00     0.164 HD
BRANCH  15  18
ATOM     18  C   UNL     1       8.539   3.583   8.951  1.00  0.00     0.171 C 
BRANCH  18  19
ATOM     19  N   UNL     1       9.763   4.354   8.741  1.00  0.00    -0.343 N 
ATOM     20  C   UNL     1      10.554   4.768   9.796  1.00  0.00     0.242 CG0
ATOM     21  O   UNL     1      10.197   4.625  10.963  1.00  0.00    -0.273 OA
ATOM     22  H   UNL     1      10.041   4.599   7.797  1.00  0.00     0.164 HD
ATOM     23  G   UNL     1      11.844   5.501   9.375  1.00  0.00     0.000 G0
ENDBRANCH  18  19
BRANCH  18  24
ATOM     24  C   UNL     1       7.374   4.143   8.126  1.00  0.00     0.038 C 
BRANCH  24  25
ATOM     25  C   UNL     1       6.107   4.474   8.942  1.00  0.00    -0.015 C 
ATOM     26  C   UNL     1       4.826   4.012   8.247  1.00  0.00     0.007 C 
ATOM     27  C   UNL     1       6.039   5.981   9.199  1.00  0.00     0.007 C 
ENDBRANCH  24  25
ENDBRANCH  18  24
ENDBRANCH  15  18
ENDBRANCH  13  14
BRANCH  13  28
ATOM     28  C   UNL     1      10.195  -0.401  10.111  1.00  0.00     0.327 C 
ATOM     29  O   UNL     1      10.341  -0.636  11.301  1.00  0.00    -0.250 OA
BRANCH  28  30
ATOM     30  O   UNL     1      11.265  -0.153   9.329  1.00  0.00    -0.480 OA
ATOM     31  H   UNL     1      10.895  -0.104   8.423  1.00  0.00     0.296 HD
ENDBRANCH  28  30
ENDBRANCH  13  28
ENDBRANCH  11  13
ENDBRANCH   8  11
ENDBRANCH   6   7
BRANCH   6  32
ATOM     32  C   UNL     1       4.764   0.659   6.557  1.00  0.00     0.037 C 
BRANCH  32  33
ATOM     33  C   UNL     1       6.186   1.140   6.233  1.00  0.00     0.026 C 
BRANCH  33  34
ATOM     34  C   UNL     1       6.796   0.402   5.041  1.00  0.00     0.146 C 
BRANCH  34  35
ATOM     35  N   UNL     1       5.802  -0.512   4.495  1.00  0.00    -0.254 NA
ATOM     36  C   UNL     1       5.995  -1.773   4.615  1.00  0.00     0.185 C 
ATOM     37  N   UNL     1       5.083  -2.624   4.120  1.00  0.00    -0.370 N 
ATOM     38  N   UNL     1       7.024  -2.419   5.191  1.00  0.00    -0.370 N 
ATOM     39  H   UNL     1       4.271  -2.213   3.679  1.00  0.00     0.159 HD
ATOM     40  H   UNL     1       5.073  -3.608   4.324  1.00  0.00     0.159 HD
ATOM     41  H   UNL     1       7.131  -3.415   5.099  1.00  0.00     0.159 HD
ATOM     42  H   UNL     1       7.793  -1.904   5.592  1.00  0.00     0.159 HD
ENDBRANCH  34  35
ENDBRANCH  33  34
ENDBRANCH  32  33
ENDBRANCH   6  32
ENDBRANCH   4   6
ENDBRANCH   1   2
BRANCH   1  43
ATOM     43  C   UNL     1       0.624  -1.813   8.576  1.00  0.00     0.102 C 
ATOM     44  C   UNL     1      -0.499  -1.533   9.589  1.00  0.00     0.020 C 
BRANCH  43  45
ATOM     45  C   UNL     1       0.186  -2.668   7.383  1.00  0.00     0.225 C 
ATOM     46  O   UNL     1      -0.842  -2.455   6.747  1.00  0.00    -0.275 OA
ATOM     47  N   UNL     1       0.975  -3.764   7.119  1.00  0.00    -0.342 N 
ATOM     48  H   UNL     1       1.887  -3.839   7.547  1.00  0.00     0.164 HD
BRANCH  47  49
ATOM     49  C   UNL     1       0.697  -4.652   5.986  1.00  0.00     0.192 C 
BRANCH  49  50
ATOM     50  C   UNL     1       0.291  -6.034   6.503  1.00  0.00     0.047 C 
BRANCH  50  51
ATOM     51  C   UNL     1      -0.279  -5.979   7.927  1.00  0.00     0.103 C 
BRANCH  51  52
ATOM     52  C   UNL     1       0.767  -6.346   8.978  1.00  0.00     0.226 C 
ATOM     53  O   UNL     1       1.963  -6.185   8.731  1.00  0.00    -0.275 OA
BRANCH  52  54
ATOM     54  N   UNL     1       0.277  -6.787  10.222  1.00  0.00    -0.311 N 
ATOM     55  C   UNL     1       0.949  -7.864  10.961  1.00  0.00     0.153 C 
BRANCH  54  56
ATOM     56  C   UNL     1      -0.866  -6.213  10.804  1.00  0.00     0.102 C 
ATOM     57  C   UNL     1      -1.024  -4.904  11.057  1.00  0.00     0.043 C 
BRANCH  56  58
ATOM     58  C   UNL     1      -2.064  -7.061  11.160  1.00  0.00     0.268 C 
ATOM     59  O   UNL     1      -2.624  -7.007  12.246  1.00  0.00    -0.268 OA
ATOM     60  N   UNL     1      -2.496  -7.848  10.119  1.00  0.00    -0.339 N 
ATOM     61  H   UNL     1      -1.970  -7.844   9.254  1.00  0.00     0.164 HD
BRANCH  60  62
ATOM     62  C   UNL     1      -3.679  -8.701  10.227  1.00  0.00     0.168 CG0
ATOM     63  C   UNL     1      -3.336 -10.031  10.888  1.00  0.00     0.041 C 
ATOM     64  G   UNL     1      -4.282  -8.929   8.825  1.00  0.00     0.000 G0
ENDBRANCH  60  62
ENDBRANCH  56  58
ENDBRANCH  54  56
ENDBRANCH  52  54
ENDBRANCH  51  52
ENDBRANCH  50  51
ENDBRANCH  49  50
BRANCH  49  65
ATOM     65  C   UNL     1       1.918  -4.792   5.063  1.00  0.00     0.326 C 
ATOM     66  O   UNL     1       2.524  -5.830   4.839  1.00  0.00    -0.250 OA
BRANCH  65  67
ATOM     67  O   UNL     1       2.353  -3.633   4.523  1.00  0.00    -0.480 OA
ATOM     68  H   UNL     1       2.299  -2.996   5.268  1.00  0.00     0.296 HD
ENDBRANCH  65  67
ENDBRANCH  49  65
ENDBRANCH  47  49
ENDBRANCH  43  45
ENDBRANCH   1  43
BRANCH   1  69
ATOM     69  C   UNL     1       1.900  -2.739  10.703  1.00  0.00    -0.001 C 
ATOM     70  C   UNL     1       2.578  -3.727  11.313  1.00  0.00     0.001 C 
BRANCH  70  71
ATOM     71  C   UNL     1       2.570  -4.048  12.741  1.00  0.00    -0.055 C 
ATOM     72  C   UNL     1       1.856  -5.122  13.140  1.00  0.00    -0.018 C 
ATOM     73  C   UNL     1       3.365  -3.161  13.665  1.00  0.00     0.044 C 
BRANCH  72  74
ATOM     74  C   UNL     1       1.670  -5.689  14.540  1.00  0.00     0.038 C 
ATOM     75  C   UNL     1       2.134  -7.150  14.502  1.00  0.00     0.015 C 
BRANCH  74  76
ATOM     76  C   UNL     1       0.186  -5.486  14.968  1.00  0.00     0.128 C 
BRANCH  76  77
ATOM     77  O   UNL     1      -0.205  -6.521  15.886  1.00  0.00    -0.381 OA
ATOM     78  C   UNL     1      -0.475  -6.048  17.199  1.00  0.00     0.195 C 
ENDBRANCH  76  77
BRANCH  76  79
ATOM     79  C   UNL     1      -0.127  -4.064  15.499  1.00  0.00     0.068 C 
BRANCH  79  80
ATOM     80  C   UNL     1      -0.765  -3.080  14.548  1.00  0.00    -0.045 A 
ATOM     81  C   UNL     1      -0.070  -1.944  14.112  1.00  0.00     0.004 A 
ATOM     82  C   UNL     1      -2.082  -3.275  14.107  1.00  0.00     0.004 A 
ATOM     83  C   UNL     1      -0.671  -1.031  13.244  1.00  0.00     0.000 A 
ATOM     84  C   UNL     1      -2.683  -2.360  13.240  1.00  0.00     0.000 A 
ATOM     85  C   UNL     1      -1.978  -1.240  12.807  1.00  0.00     0.000 A 
ENDBRANCH  79  80
ENDBRANCH  76  79
ENDBRANCH  74  76
ENDBRANCH  72  74
ENDBRANCH  70  71
ENDBRANCH   1  69
TORSDOF 17
ENDMDL
MODEL 37
REMARK VINA RESULT:    -5.019      6.376     10.717
REMARK INTER + INTRA:         -24.052
REMARK INTER:                 -19.432
REMARK INTRA:                  -4.620
REMARK UNBOUND:                -9.057
REMARK SMILES C=C1C(=O)N[C@H](C)C(=O)N[C@@H](CC(C)C)C(=O)N[C@@H](C(=O)O)[C@H](C)C(=O)N[C@@H](CCCN=C(N)N)C(=O)N[C@@H](/C=C/C(C)=C/[C@H](C)[C@H](Cc2ccccc2)OC)[C@H](C)C(=O)N[C@@H](C(=O)O)CCC(=O)N1C
REMARK SMILES IDX 39 1 38 2 37 3 36 4 28 6 27 7 25 8 26 9 23 11 24 12 19 13
REMARK SMILES IDX 18 14 16 15 17 16 11 18 10 19 8 20 9 21 12 24 13 25 14 26
REMARK SMILES IDX 15 27 20 28 21 29 22 30 29 32 30 33 31 34 32 35 33 36 34 37
REMARK SMILES IDX 35 38 57 43 58 44 59 45 60 46 61 47 62 49 66 50 67 51 68 52
REMARK SMILES IDX 69 53 70 54 71 55 2 56 1 57 3 58 4 59 5 60 6 62 7 63 63 65
REMARK SMILES IDX 64 66 65 67 40 69 41 70 42 71 44 72 43 73 45 74 46 75 47 76
REMARK SMILES IDX 55 77 56 78 48 79 49 80 50 81 54 82 51 83 53 84 52 85
REMARK H PARENT 38 5 27 10 18 17 10 22 22 31 34 39 34 40 35 41 35 42 61 48
REMARK H PARENT 5 61 65 68
REMARK Flexibility Score:  369.900
ROOT
ATOM      1  C   UNL     1       3.281   4.656   7.838  1.00  0.00     0.117 C 
ENDROOT
BRANCH   1   2
ATOM      2  N   UNL     1       3.958   3.384   8.094  1.00  0.00    -0.347 N 
ATOM      3  O   UNL     1       5.890   4.235   8.996  1.00  0.00    -0.273 OA
ATOM      4  C   UNL     1       5.175   3.273   8.739  1.00  0.00     0.243 C 
ATOM      5  H   UNL     1       3.504   2.521   7.837  1.00  0.00     0.164 HD
BRANCH   4   6
ATOM      6  C   UNL     1       5.630   1.808   8.962  1.00  0.00     0.171 C 
BRANCH   6   7
ATOM      7  N   UNL     1       5.806   1.123   7.671  1.00  0.00    -0.344 N 
ATOM      8  C   UNL     1       4.837   0.270   7.190  1.00  0.00     0.226 C 
ATOM      9  O   UNL     1       3.808   0.024   7.809  1.00  0.00    -0.275 OA
ATOM     10  H   UNL     1       6.673   1.248   7.163  1.00  0.00     0.164 HD
BRANCH   8  11
ATOM     11  C   UNL     1       5.141  -0.316   5.823  1.00  0.00     0.109 C 
ATOM     12  C   UNL     1       6.136   0.574   5.079  1.00  0.00     0.021 C 
BRANCH  11  13
ATOM     13  C   UNL     1       5.574  -1.789   5.971  1.00  0.00     0.204 C 
BRANCH  13  14
ATOM     14  N   UNL     1       4.451  -2.661   6.327  1.00  0.00    -0.340 N 
ATOM     15  C   UNL     1       4.454  -3.468   7.444  1.00  0.00     0.243 C 
ATOM     16  O   UNL     1       5.378  -3.468   8.255  1.00  0.00    -0.273 OA
ATOM     17  H   UNL     1       3.725  -2.821   5.623  1.00  0.00     0.164 HD
BRANCH  15  18
ATOM     18  C   UNL     1       3.258  -4.449   7.502  1.00  0.00     0.171 C 
BRANCH  18  19
ATOM     19  N   UNL     1       3.746  -5.666   8.147  1.00  0.00    -0.343 N 
ATOM     20  C   UNL     1       3.777  -6.879   7.487  1.00  0.00     0.242 CG0
ATOM     21  O   UNL     1       3.275  -7.019   6.374  1.00  0.00    -0.273 OA
ATOM     22  H   UNL     1       4.065  -5.626   9.109  1.00  0.00     0.164 HD
ATOM     23  G   UNL     1       4.397  -8.033   8.302  1.00  0.00     0.000 G0
ENDBRANCH  18  19
BRANCH  18  24
ATOM     24  C   UNL     1       2.088  -3.832   8.278  1.00  0.00     0.038 C 
BRANCH  24  25
ATOM     25  C   UNL     1       0.696  -4.101   7.668  1.00  0.00    -0.015 C 
ATOM     26  C   UNL     1       0.234  -2.974   6.745  1.00  0.00     0.007 C 
ATOM     27  C   UNL     1      -0.327  -4.301   8.789  1.00  0.00     0.007 C 
ENDBRANCH  24  25
ENDBRANCH  18  24
ENDBRANCH  15  18
ENDBRANCH  13  14
BRANCH  13  28
ATOM     28  C   UNL     1       6.209  -2.362   4.700  1.00  0.00     0.327 C 
ATOM     29  O   UNL     1       7.403  -2.513   4.494  1.00  0.00    -0.250 OA
BRANCH  28  30
ATOM     30  O   UNL     1       5.312  -2.599   3.722  1.00  0.00    -0.480 OA
ATOM     31  H   UNL     1       4.467  -2.257   4.081  1.00  0.00     0.296 HD
ENDBRANCH  28  30
ENDBRANCH  13  28
ENDBRANCH  11  13
ENDBRANCH   8  11
ENDBRANCH   6   7
BRANCH   6  32
ATOM     32  C   UNL     1       6.934   1.803   9.767  1.00  0.00     0.037 C 
BRANCH  32  33
ATOM     33  C   UNL     1       8.010   0.918   9.122  1.00  0.00     0.026 C 
BRANCH  33  34
ATOM     34  C   UNL     1       9.193   1.727   8.591  1.00  0.00     0.146 C 
BRANCH  34  35
ATOM     35  N   UNL     1       8.773   2.443   7.394  1.00  0.00    -0.254 NA
ATOM     36  C   UNL     1       8.703   3.722   7.436  1.00  0.00     0.185 C 
ATOM     37  N   UNL     1       8.322   4.392   6.337  1.00  0.00    -0.370 N 
ATOM     38  N   UNL     1       8.966   4.549   8.463  1.00  0.00    -0.370 N 
ATOM     39  H   UNL     1       8.115   3.838   5.516  1.00  0.00     0.159 HD
ATOM     40  H   UNL     1       8.408   5.389   6.236  1.00  0.00     0.159 HD
ATOM     41  H   UNL     1       8.739   5.529   8.414  1.00  0.00     0.159 HD
ATOM     42  H   UNL     1       9.249   4.181   9.358  1.00  0.00     0.159 HD
ENDBRANCH  34  35
ENDBRANCH  33  34
ENDBRANCH  32  33
ENDBRANCH   6  32
ENDBRANCH   4   6
ENDBRANCH   1   2
BRANCH   1  43
ATOM     43  C   UNL     1       3.887   5.289   6.552  1.00  0.00     0.102 C 
ATOM     44  C   UNL     1       4.625   6.613   6.811  1.00  0.00     0.020 C 
BRANCH  43  45
ATOM     45  C   UNL     1       2.843   5.368   5.434  1.00  0.00     0.225 C 
ATOM     46  O   UNL     1       2.479   4.390   4.786  1.00  0.00    -0.275 OA
ATOM     47  N   UNL     1       2.397   6.633   5.127  1.00  0.00    -0.342 N 
ATOM     48  H   UNL     1       2.587   7.397   5.761  1.00  0.00     0.164 HD
BRANCH  47  49
ATOM     49  C   UNL     1       1.373   6.858   4.103  1.00  0.00     0.192 C 
BRANCH  49  50
ATOM     50  C   UNL     1       2.008   7.513   2.875  1.00  0.00     0.047 C 
BRANCH  50  51
ATOM     51  C   UNL     1       2.743   6.498   1.989  1.00  0.00     0.103 C 
BRANCH  51  52
ATOM     52  C   UNL     1       2.945   7.018   0.567  1.00  0.00     0.226 C 
ATOM     53  O   UNL     1       3.614   8.036   0.378  1.00  0.00    -0.275 OA
BRANCH  52  54
ATOM     54  N   UNL     1       2.401   6.237  -0.470  1.00  0.00    -0.311 N 
ATOM     55  C   UNL     1       1.319   5.278  -0.206  1.00  0.00     0.153 C 
BRANCH  54  56
ATOM     56  C   UNL     1       2.864   6.347  -1.791  1.00  0.00     0.102 C 
ATOM     57  C   UNL     1       4.023   5.841  -2.244  1.00  0.00     0.043 C 
BRANCH  56  58
ATOM     58  C   UNL     1       2.033   7.034  -2.849  1.00  0.00     0.268 C 
ATOM     59  O   UNL     1       0.936   7.527  -2.623  1.00  0.00    -0.268 OA
ATOM     60  N   UNL     1       2.663   7.106  -4.069  1.00  0.00    -0.339 N 
ATOM     61  H   UNL     1       3.568   6.663  -4.176  1.00  0.00     0.164 HD
BRANCH  60  62
ATOM     62  C   UNL     1       2.063   7.785  -5.216  1.00  0.00     0.168 CG0
ATOM     63  C   UNL     1       3.041   7.853  -6.383  1.00  0.00     0.041 C 
ATOM     64  G   UNL     1       1.609   9.199  -4.801  1.00  0.00     0.000 G0
ENDBRANCH  60  62
ENDBRANCH  56  58
ENDBRANCH  54  56
ENDBRANCH  52  54
ENDBRANCH  51  52
ENDBRANCH  50  51
ENDBRANCH  49  50
BRANCH  49  65
ATOM     65  C   UNL     1       0.236   7.750   4.625  1.00  0.00     0.326 C 
ATOM     66  O   UNL     1      -0.389   7.572   5.661  1.00  0.00    -0.250 OA
BRANCH  65  67
ATOM     67  O   UNL     1      -0.100   8.772   3.807  1.00  0.00    -0.480 OA
ATOM     68  H   UNL     1       0.478   8.641   3.025  1.00  0.00     0.296 HD
ENDBRANCH  65  67
ENDBRANCH  49  65
ENDBRANCH  47  49
ENDBRANCH  43  45
ENDBRANCH   1  43
BRANCH   1  69
ATOM     69  C   UNL     1       3.339   5.437   9.138  1.00  0.00    -0.001 C 
ATOM     70  C   UNL     1       2.308   5.963   9.822  1.00  0.00     0.001 C 
BRANCH  70  71
ATOM     71  C   UNL     1       2.375   6.697  11.087  1.00  0.00    -0.055 C 
ATOM     72  C   UNL     1       1.220   7.177  11.596  1.00  0.00    -0.018 C 
ATOM     73  C   UNL     1       3.725   6.858  11.735  1.00  0.00     0.044 C 
BRANCH  72  74
ATOM     74  C   UNL     1       0.986   7.964  12.878  1.00  0.00     0.038 C 
ATOM     75  C   UNL     1       0.792   6.944  14.006  1.00  0.00     0.015 C 
BRANCH  74  76
ATOM     76  C   UNL     1      -0.213   8.932  12.659  1.00  0.00     0.128 C 
BRANCH  76  77
ATOM     77  O   UNL     1       0.171   9.997  11.773  1.00  0.00    -0.381 OA
ATOM     78  C   UNL     1       0.113  11.286  12.370  1.00  0.00     0.195 C 
ENDBRANCH  76  77
BRANCH  76  79
ATOM     79  C   UNL     1      -1.520   8.226  12.217  1.00  0.00     0.068 C 
BRANCH  79  80
ATOM     80  C   UNL     1      -2.683   8.225  13.178  1.00  0.00    -0.045 A 
ATOM     81  C   UNL     1      -3.367   9.409  13.485  1.00  0.00     0.004 A 
ATOM     82  C   UNL     1      -3.082   7.034  13.804  1.00  0.00     0.004 A 
ATOM     83  C   UNL     1      -4.434   9.402  14.386  1.00  0.00     0.000 A 
ATOM     84  C   UNL     1      -4.149   7.029  14.706  1.00  0.00     0.000 A 
ATOM     85  C   UNL     1      -4.825   8.212  14.996  1.00  0.00     0.000 A 
ENDBRANCH  79  80
ENDBRANCH  76  79
ENDBRANCH  74  76
ENDBRANCH  72  74
ENDBRANCH  70  71
ENDBRANCH   1  69
TORSDOF 17
ENDMDL
MODEL 38
REMARK VINA RESULT:    -4.988     12.286     16.272
REMARK INTER + INTRA:         -23.958
REMARK INTER:                 -16.227
REMARK INTRA:                  -7.730
REMARK UNBOUND:                -9.057
REMARK SMILES C=C1C(=O)N[C@H](C)C(=O)N[C@@H](CC(C)C)C(=O)N[C@@H](C(=O)O)[C@H](C)C(=O)N[C@@H](CCCN=C(N)N)C(=O)N[C@@H](/C=C/C(C)=C/[C@H](C)[C@H](Cc2ccccc2)OC)[C@H](C)C(=O)N[C@@H](C(=O)O)CCC(=O)N1C
REMARK SMILES IDX 39 1 38 2 37 3 36 4 28 6 27 7 25 8 26 9 23 11 24 12 19 13
REMARK SMILES IDX 18 14 16 15 17 16 11 18 10 19 8 20 9 21 12 24 13 25 14 26
REMARK SMILES IDX 15 27 20 28 21 29 22 30 29 32 30 33 31 34 32 35 33 36 34 37
REMARK SMILES IDX 35 38 57 43 58 44 59 45 60 46 61 47 62 49 66 50 67 51 68 52
REMARK SMILES IDX 69 53 70 54 71 55 2 56 1 57 3 58 4 59 5 60 6 62 7 63 63 65
REMARK SMILES IDX 64 66 65 67 40 69 41 70 42 71 44 72 43 73 45 74 46 75 47 76
REMARK SMILES IDX 55 77 56 78 48 79 49 80 50 81 54 82 51 83 53 84 52 85
REMARK H PARENT 38 5 27 10 18 17 10 22 22 31 34 39 34 40 35 41 35 42 61 48
REMARK H PARENT 5 61 65 68
REMARK Flexibility Score:  369.900
ROOT
ATOM      1  C   UNL     1       1.506  -3.784   8.192  1.00  0.00     0.117 C 
ENDROOT
BRANCH   1   2
ATOM      2  N   UNL     1       2.813  -4.119   8.759  1.00  0.00    -0.347 N 
ATOM      3  O   UNL     1       2.704  -6.394   8.474  1.00  0.00    -0.273 OA
ATOM      4  C   UNL     1       3.347  -5.393   8.770  1.00  0.00     0.243 C 
ATOM      5  H   UNL     1       3.397  -3.382   9.124  1.00  0.00     0.164 HD
BRANCH   4   6
ATOM      6  C   UNL     1       4.783  -5.462   9.350  1.00  0.00     0.171 C 
BRANCH   6   7
ATOM      7  N   UNL     1       5.500  -6.628   8.811  1.00  0.00    -0.344 N 
ATOM      8  C   UNL     1       5.625  -7.782   9.555  1.00  0.00     0.226 C 
ATOM      9  O   UNL     1       5.174  -7.888  10.689  1.00  0.00    -0.275 OA
ATOM     10  H   UNL     1       5.944  -6.556   7.904  1.00  0.00     0.164 HD
BRANCH   8  11
ATOM     11  C   UNL     1       6.343  -8.913   8.840  1.00  0.00     0.109 C 
ATOM     12  C   UNL     1       7.430  -9.498   9.740  1.00  0.00     0.021 C 
BRANCH  11  13
ATOM     13  C   UNL     1       5.314  -9.935   8.317  1.00  0.00     0.204 C 
BRANCH  13  14
ATOM     14  N   UNL     1       4.171 -10.080   9.222  1.00  0.00    -0.340 N 
ATOM     15  C   UNL     1       3.907 -11.241   9.916  1.00  0.00     0.243 C 
ATOM     16  O   UNL     1       4.650 -12.220   9.871  1.00  0.00    -0.273 OA
ATOM     17  H   UNL     1       3.438  -9.366   9.188  1.00  0.00     0.164 HD
BRANCH  15  18
ATOM     18  C   UNL     1       2.540 -11.231  10.643  1.00  0.00     0.171 C 
BRANCH  18  19
ATOM     19  N   UNL     1       2.009 -12.590  10.555  1.00  0.00    -0.343 N 
ATOM     20  C   UNL     1       0.653 -12.848  10.610  1.00  0.00     0.242 CG0
ATOM     21  O   UNL     1      -0.160 -11.964  10.870  1.00  0.00    -0.273 OA
ATOM     22  H   UNL     1       2.650 -13.369  10.456  1.00  0.00     0.164 HD
ATOM     23  G   UNL     1       0.279 -14.333  10.421  1.00  0.00     0.000 G0
ENDBRANCH  18  19
BRANCH  18  24
ATOM     24  C   UNL     1       2.705 -10.786  12.101  1.00  0.00     0.038 C 
BRANCH  24  25
ATOM     25  C   UNL     1       2.472  -9.280  12.345  1.00  0.00    -0.015 C 
ATOM     26  C   UNL     1       2.139  -8.968  13.804  1.00  0.00     0.007 C 
ATOM     27  C   UNL     1       1.342  -8.780  11.441  1.00  0.00     0.007 C 
ENDBRANCH  24  25
ENDBRANCH  18  24
ENDBRANCH  15  18
ENDBRANCH  13  14
BRANCH  13  28
ATOM     28  C   UNL     1       4.757  -9.579   6.935  1.00  0.00     0.327 C 
ATOM     29  O   UNL     1       4.846  -8.495   6.378  1.00  0.00    -0.250 OA
BRANCH  28  30
ATOM     30  O   UNL     1       4.021 -10.569   6.390  1.00  0.00    -0.480 OA
ATOM     31  H   UNL     1       3.333 -10.755   7.062  1.00  0.00     0.296 HD
ENDBRANCH  28  30
ENDBRANCH  13  28
ENDBRANCH  11  13
ENDBRANCH   8  11
ENDBRANCH   6   7
BRANCH   6  32
ATOM     32  C   UNL     1       5.523  -4.162   9.016  1.00  0.00     0.037 C 
BRANCH  32  33
ATOM     33  C   UNL     1       6.331  -3.632  10.209  1.00  0.00     0.026 C 
BRANCH  33  34
ATOM     34  C   UNL     1       5.438  -3.150  11.352  1.00  0.00     0.146 C 
BRANCH  34  35
ATOM     35  N   UNL     1       4.763  -1.928  10.938  1.00  0.00    -0.254 NA
ATOM     36  C   UNL     1       3.568  -1.717  11.349  1.00  0.00     0.185 C 
ATOM     37  N   UNL     1       2.938  -0.592  10.977  1.00  0.00    -0.370 N 
ATOM     38  N   UNL     1       2.798  -2.485  12.139  1.00  0.00    -0.370 N 
ATOM     39  H   UNL     1       3.457   0.046  10.387  1.00  0.00     0.159 HD
ATOM     40  H   UNL     1       2.079  -0.272  11.391  1.00  0.00     0.159 HD
ATOM     41  H   UNL     1       1.823  -2.277  12.278  1.00  0.00     0.159 HD
ATOM     42  H   UNL     1       3.138  -3.371  12.481  1.00  0.00     0.159 HD
ENDBRANCH  34  35
ENDBRANCH  33  34
ENDBRANCH  32  33
ENDBRANCH   6  32
ENDBRANCH   4   6
ENDBRANCH   1   2
BRANCH   1  43
ATOM     43  C   UNL     1       1.726  -2.937   6.906  1.00  0.00     0.102 C 
ATOM     44  C   UNL     1       1.636  -3.758   5.609  1.00  0.00     0.020 C 
BRANCH  43  45
ATOM     45  C   UNL     1       2.996  -2.088   7.017  1.00  0.00     0.225 C 
ATOM     46  O   UNL     1       3.185  -1.277   7.919  1.00  0.00    -0.275 OA
ATOM     47  N   UNL     1       3.890  -2.221   5.979  1.00  0.00    -0.342 N 
ATOM     48  H   UNL     1       3.796  -2.992   5.333  1.00  0.00     0.164 HD
BRANCH  47  49
ATOM     49  C   UNL     1       5.165  -1.498   5.969  1.00  0.00     0.192 C 
BRANCH  49  50
ATOM     50  C   UNL     1       4.967  -0.114   5.346  1.00  0.00     0.047 C 
BRANCH  50  51
ATOM     51  C   UNL     1       5.333   1.018   6.316  1.00  0.00     0.103 C 
BRANCH  51  52
ATOM     52  C   UNL     1       4.335   2.173   6.253  1.00  0.00     0.226 C 
ATOM     53  O   UNL     1       3.275   2.031   5.641  1.00  0.00    -0.275 OA
BRANCH  52  54
ATOM     54  N   UNL     1       4.669   3.330   6.981  1.00  0.00    -0.311 N 
ATOM     55  C   UNL     1       6.067   3.760   7.119  1.00  0.00     0.153 C 
BRANCH  54  56
ATOM     56  C   UNL     1       3.682   4.119   7.595  1.00  0.00     0.102 C 
ATOM     57  C   UNL     1       3.272   3.985   8.867  1.00  0.00     0.043 C 
BRANCH  56  58
ATOM     58  C   UNL     1       3.018   5.251   6.847  1.00  0.00     0.268 C 
ATOM     59  O   UNL     1       2.726   6.319   7.368  1.00  0.00    -0.268 OA
ATOM     60  N   UNL     1       2.836   4.982   5.511  1.00  0.00    -0.339 N 
ATOM     61  H   UNL     1       3.095   4.069   5.158  1.00  0.00     0.164 HD
BRANCH  60  62
ATOM     62  C   UNL     1       2.267   5.965   4.589  1.00  0.00     0.168 CG0
ATOM     63  C   UNL     1       1.080   5.381   3.832  1.00  0.00     0.041 C 
ATOM     64  G   UNL     1       3.357   6.445   3.609  1.00  0.00     0.000 G0
ENDBRANCH  60  62
ENDBRANCH  56  58
ENDBRANCH  54  56
ENDBRANCH  52  54
ENDBRANCH  51  52
ENDBRANCH  50  51
ENDBRANCH  49  50
BRANCH  49  65
ATOM     65  C   UNL     1       6.243  -2.260   5.181  1.00  0.00     0.326 C 
ATOM     66  O   UNL     1       7.307  -1.795   4.800  1.00  0.00    -0.250 OA
BRANCH  65  67
ATOM     67  O   UNL     1       5.913  -3.531   4.860  1.00  0.00    -0.480 OA
ATOM     68  H   UNL     1       5.292  -3.795   5.572  1.00  0.00     0.296 HD
ENDBRANCH  65  67
ENDBRANCH  49  65
ENDBRANCH  47  49
ENDBRANCH  43  45
ENDBRANCH   1  43
BRANCH   1  69
ATOM     69  C   UNL     1       0.690  -3.195   9.328  1.00  0.00    -0.001 C 
ATOM     70  C   UNL     1       0.050  -2.012   9.347  1.00  0.00     0.001 C 
BRANCH  70  71
ATOM     71  C   UNL     1      -0.752  -1.463  10.442  1.00  0.00    -0.055 C 
ATOM     72  C   UNL     1      -0.670  -2.069  11.645  1.00  0.00    -0.018 C 
ATOM     73  C   UNL     1      -1.606  -0.257  10.150  1.00  0.00     0.044 C 
BRANCH  72  74
ATOM     74  C   UNL     1      -1.376  -1.722  12.948  1.00  0.00     0.038 C 
ATOM     75  C   UNL     1      -0.478  -0.732  13.700  1.00  0.00     0.015 C 
BRANCH  74  76
ATOM     76  C   UNL     1      -1.682  -3.041  13.718  1.00  0.00     0.128 C 
BRANCH  76  77
ATOM     77  O   UNL     1      -1.634  -2.804  15.135  1.00  0.00    -0.381 OA
ATOM     78  C   UNL     1      -0.859  -3.759  15.848  1.00  0.00     0.195 C 
ENDBRANCH  76  77
BRANCH  76  79
ATOM     79  C   UNL     1      -2.989  -3.742  13.271  1.00  0.00     0.068 C 
BRANCH  79  80
ATOM     80  C   UNL     1      -2.871  -5.032  12.496  1.00  0.00    -0.045 A 
ATOM     81  C   UNL     1      -3.962  -5.901  12.369  1.00  0.00     0.004 A 
ATOM     82  C   UNL     1      -1.648  -5.395  11.910  1.00  0.00     0.004 A 
ATOM     83  C   UNL     1      -3.840  -7.099  11.663  1.00  0.00     0.000 A 
ATOM     84  C   UNL     1      -1.527  -6.594  11.205  1.00  0.00     0.000 A 
ATOM     85  C   UNL     1      -2.623  -7.445  11.080  1.00  0.00     0.000 A 
ENDBRANCH  79  80
ENDBRANCH  76  79
ENDBRANCH  74  76
ENDBRANCH  72  74
ENDBRANCH  70  71
ENDBRANCH   1  69
TORSDOF 17
ENDMDL
MODEL 39
REMARK VINA RESULT:    -4.984      3.265     13.004
REMARK INTER + INTRA:         -23.948
REMARK INTER:                 -20.433
REMARK INTRA:                  -3.515
REMARK UNBOUND:                -9.057
REMARK SMILES C=C1C(=O)N[C@H](C)C(=O)N[C@@H](CC(C)C)C(=O)N[C@@H](C(=O)O)[C@H](C)C(=O)N[C@@H](CCCN=C(N)N)C(=O)N[C@@H](/C=C/C(C)=C/[C@H](C)[C@H](Cc2ccccc2)OC)[C@H](C)C(=O)N[C@@H](C(=O)O)CCC(=O)N1C
REMARK SMILES IDX 39 1 38 2 37 3 36 4 28 6 27 7 25 8 26 9 23 11 24 12 19 13
REMARK SMILES IDX 18 14 16 15 17 16 11 18 10 19 8 20 9 21 12 24 13 25 14 26
REMARK SMILES IDX 15 27 20 28 21 29 22 30 29 32 30 33 31 34 32 35 33 36 34 37
REMARK SMILES IDX 35 38 57 43 58 44 59 45 60 46 61 47 62 49 66 50 67 51 68 52
REMARK SMILES IDX 69 53 70 54 71 55 2 56 1 57 3 58 4 59 5 60 6 62 7 63 63 65
REMARK SMILES IDX 64 66 65 67 40 69 41 70 42 71 44 72 43 73 45 74 46 75 47 76
REMARK SMILES IDX 55 77 56 78 48 79 49 80 50 81 54 82 51 83 53 84 52 85
REMARK H PARENT 38 5 27 10 18 17 10 22 22 31 34 39 34 40 35 41 35 42 61 48
REMARK H PARENT 5 61 65 68
REMARK Flexibility Score:  369.900
ROOT
ATOM      1  C   UNL     1       4.785   7.913   3.674  1.00  0.00     0.117 C 
ENDROOT
BRANCH   1   2
ATOM      2  N   UNL     1       4.974   8.396   2.306  1.00  0.00    -0.347 N 
ATOM      3  O   UNL     1       3.179   7.333   1.348  1.00  0.00    -0.273 OA
ATOM      4  C   UNL     1       4.099   8.139   1.268  1.00  0.00     0.243 C 
ATOM      5  H   UNL     1       5.758   8.995   2.096  1.00  0.00     0.164 HD
BRANCH   4   6
ATOM      6  C   UNL     1       4.485   8.839  -0.060  1.00  0.00     0.171 C 
BRANCH   6   7
ATOM      7  N   UNL     1       3.888   8.134  -1.206  1.00  0.00    -0.344 N 
ATOM      8  C   UNL     1       4.666   7.744  -2.274  1.00  0.00     0.226 C 
ATOM      9  O   UNL     1       5.867   7.979  -2.337  1.00  0.00    -0.275 OA
ATOM     10  H   UNL     1       2.887   7.982  -1.221  1.00  0.00     0.164 HD
BRANCH   8  11
ATOM     11  C   UNL     1       3.913   6.981  -3.350  1.00  0.00     0.109 C 
ATOM     12  C   UNL     1       3.270   5.729  -2.754  1.00  0.00     0.021 C 
BRANCH  11  13
ATOM     13  C   UNL     1       2.937   7.928  -4.076  1.00  0.00     0.204 C 
BRANCH  13  14
ATOM     14  N   UNL     1       3.299   8.120  -5.484  1.00  0.00    -0.340 N 
ATOM     15  C   UNL     1       3.930   7.151  -6.233  1.00  0.00     0.243 C 
ATOM     16  O   UNL     1       4.179   6.031  -5.790  1.00  0.00    -0.273 OA
ATOM     17  H   UNL     1       3.259   9.069  -5.865  1.00  0.00     0.164 HD
BRANCH  15  18
ATOM     18  C   UNL     1       4.398   7.650  -7.623  1.00  0.00     0.171 C 
BRANCH  18  19
ATOM     19  N   UNL     1       4.833   9.034  -7.445  1.00  0.00    -0.343 N 
ATOM     20  C   UNL     1       5.509   9.718  -8.437  1.00  0.00     0.242 CG0
ATOM     21  O   UNL     1       5.893   9.155  -9.460  1.00  0.00    -0.273 OA
ATOM     22  H   UNL     1       4.640   9.508  -6.570  1.00  0.00     0.164 HD
ATOM     23  G   UNL     1       5.815  11.192  -8.099  1.00  0.00     0.000 G0
ENDBRANCH  18  19
BRANCH  18  24
ATOM     24  C   UNL     1       5.532   6.769  -8.160  1.00  0.00     0.038 C 
BRANCH  24  25
ATOM     25  C   UNL     1       5.072   5.606  -9.065  1.00  0.00    -0.015 C 
ATOM     26  C   UNL     1       5.899   4.338  -8.854  1.00  0.00     0.007 C 
ATOM     27  C   UNL     1       5.150   6.034 -10.533  1.00  0.00     0.007 C 
ENDBRANCH  24  25
ENDBRANCH  18  24
ENDBRANCH  15  18
ENDBRANCH  13  14
BRANCH  13  28
ATOM     28  C   UNL     1       1.486   7.440  -4.043  1.00  0.00     0.327 C 
ATOM     29  O   UNL     1       0.717   7.522  -3.097  1.00  0.00    -0.250 OA
BRANCH  28  30
ATOM     30  O   UNL     1       1.127   6.773  -5.159  1.00  0.00    -0.480 OA
ATOM     31  H   UNL     1       1.978   6.519  -5.572  1.00  0.00     0.296 HD
ENDBRANCH  28  30
ENDBRANCH  13  28
ENDBRANCH  11  13
ENDBRANCH   8  11
ENDBRANCH   6   7
BRANCH   6  32
ATOM     32  C   UNL     1       4.021  10.299  -0.013  1.00  0.00     0.037 C 
BRANCH  32  33
ATOM     33  C   UNL     1       5.185  11.283  -0.200  1.00  0.00     0.026 C 
BRANCH  33  34
ATOM     34  C   UNL     1       6.548  10.591  -0.161  1.00  0.00     0.146 C 
BRANCH  34  35
ATOM     35  N   UNL     1       7.532  11.456  -0.798  1.00  0.00    -0.254 NA
ATOM     36  C   UNL     1       7.849  11.231  -2.019  1.00  0.00     0.185 C 
ATOM     37  N   UNL     1       8.751  12.024  -2.617  1.00  0.00    -0.370 N 
ATOM     38  N   UNL     1       7.396  10.272  -2.846  1.00  0.00    -0.370 N 
ATOM     39  H   UNL     1       9.132  12.779  -2.061  1.00  0.00     0.159 HD
ATOM     40  H   UNL     1       8.921  12.024  -3.608  1.00  0.00     0.159 HD
ATOM     41  H   UNL     1       7.826  10.112  -3.743  1.00  0.00     0.159 HD
ATOM     42  H   UNL     1       6.724   9.593  -2.525  1.00  0.00     0.159 HD
ENDBRANCH  34  35
ENDBRANCH  33  34
ENDBRANCH  32  33
ENDBRANCH   6  32
ENDBRANCH   4   6
ENDBRANCH   1   2
BRANCH   1  43
ATOM     43  C   UNL     1       3.722   8.809   4.373  1.00  0.00     0.102 C 
ATOM     44  C   UNL     1       4.334   9.940   5.217  1.00  0.00     0.020 C 
BRANCH  43  45
ATOM     45  C   UNL     1       2.695   7.958   5.125  1.00  0.00     0.225 C 
ATOM     46  O   UNL     1       1.553   7.768   4.717  1.00  0.00    -0.275 OA
ATOM     47  N   UNL     1       3.101   7.487   6.353  1.00  0.00    -0.342 N 
ATOM     48  H   UNL     1       4.079   7.521   6.603  1.00  0.00     0.164 HD
BRANCH  47  49
ATOM     49  C   UNL     1       2.236   6.629   7.169  1.00  0.00     0.192 C 
BRANCH  49  50
ATOM     50  C   UNL     1       2.125   7.207   8.582  1.00  0.00     0.047 C 
BRANCH  50  51
ATOM     51  C   UNL     1       0.758   7.853   8.842  1.00  0.00     0.103 C 
BRANCH  51  52
ATOM     52  C   UNL     1       0.058   7.248  10.057  1.00  0.00     0.226 C 
ATOM     53  O   UNL     1      -0.469   6.138   9.967  1.00  0.00    -0.275 OA
BRANCH  52  54
ATOM     54  N   UNL     1       0.129   7.986  11.253  1.00  0.00    -0.311 N 
ATOM     55  C   UNL     1       1.402   8.551  11.719  1.00  0.00     0.153 C 
BRANCH  54  56
ATOM     56  C   UNL     1      -1.012   8.216  12.040  1.00  0.00     0.102 C 
ATOM     57  C   UNL     1      -1.769   9.325  11.990  1.00  0.00     0.043 C 
BRANCH  56  58
ATOM     58  C   UNL     1      -1.512   7.167  13.005  1.00  0.00     0.268 C 
ATOM     59  O   UNL     1      -2.430   6.402  12.746  1.00  0.00    -0.268 OA
ATOM     60  N   UNL     1      -0.788   7.119  14.173  1.00  0.00    -0.339 N 
ATOM     61  H   UNL     1      -0.048   7.796  14.315  1.00  0.00     0.164 HD
BRANCH  60  62
ATOM     62  C   UNL     1      -1.063   6.135  15.219  1.00  0.00     0.168 CG0
ATOM     63  C   UNL     1      -0.330   6.488  16.508  1.00  0.00     0.041 C 
ATOM     64  G   UNL     1      -0.657   4.731  14.728  1.00  0.00     0.000 G0
ENDBRANCH  60  62
ENDBRANCH  56  58
ENDBRANCH  54  56
ENDBRANCH  52  54
ENDBRANCH  51  52
ENDBRANCH  50  51
ENDBRANCH  49  50
BRANCH  49  65
ATOM     65  C   UNL     1       2.773   5.192   7.247  1.00  0.00     0.326 C 
ATOM     66  O   UNL     1       2.894   4.533   8.269  1.00  0.00    -0.250 OA
BRANCH  65  67
ATOM     67  O   UNL     1       3.185   4.679   6.066  1.00  0.00    -0.480 OA
ATOM     68  H   UNL     1       4.069   4.306   6.272  1.00  0.00     0.296 HD
ENDBRANCH  65  67
ENDBRANCH  49  65
ENDBRANCH  47  49
ENDBRANCH  43  45
ENDBRANCH   1  43
BRANCH   1  69
ATOM     69  C   UNL     1       6.172   7.810   4.282  1.00  0.00    -0.001 C 
ATOM     70  C   UNL     1       7.350   7.811   3.635  1.00  0.00     0.001 C 
BRANCH  70  71
ATOM     71  C   UNL     1       8.684   7.732   4.234  1.00  0.00    -0.055 C 
ATOM     72  C   UNL     1       9.728   8.173   3.502  1.00  0.00    -0.018 C 
ATOM     73  C   UNL     1       8.795   7.174   5.629  1.00  0.00     0.044 C 
BRANCH  72  74
ATOM     74  C   UNL     1      11.207   8.217   3.861  1.00  0.00     0.038 C 
ATOM     75  C   UNL     1      11.551   9.676   4.185  1.00  0.00     0.015 C 
BRANCH  74  76
ATOM     76  C   UNL     1      12.026   7.596   2.691  1.00  0.00     0.128 C 
BRANCH  76  77
ATOM     77  O   UNL     1      13.271   7.075   3.186  1.00  0.00    -0.381 OA
ATOM     78  C   UNL     1      14.403   7.846   2.808  1.00  0.00     0.195 C 
ENDBRANCH  76  77
BRANCH  76  79
ATOM     79  C   UNL     1      11.236   6.564   1.848  1.00  0.00     0.068 C 
BRANCH  79  80
ATOM     80  C   UNL     1      10.785   6.975   0.467  1.00  0.00    -0.045 A 
ATOM     81  C   UNL     1       9.634   6.424  -0.110  1.00  0.00     0.004 A 
ATOM     82  C   UNL     1      11.534   7.901  -0.274  1.00  0.00     0.004 A 
ATOM     83  C   UNL     1       9.231   6.799  -1.394  1.00  0.00     0.000 A 
ATOM     84  C   UNL     1      11.131   8.275  -1.558  1.00  0.00     0.000 A 
ATOM     85  C   UNL     1       9.979   7.725  -2.117  1.00  0.00     0.000 A 
ENDBRANCH  79  80
ENDBRANCH  76  79
ENDBRANCH  74  76
ENDBRANCH  72  74
ENDBRANCH  70  71
ENDBRANCH   1  69
TORSDOF 17
ENDMDL
MODEL 40
REMARK VINA RESULT:    -4.982     12.946     17.261
REMARK INTER + INTRA:         -23.941
REMARK INTER:                 -16.646
REMARK INTRA:                  -7.295
REMARK UNBOUND:                -9.057
REMARK SMILES C=C1C(=O)N[C@H](C)C(=O)N[C@@H](CC(C)C)C(=O)N[C@@H](C(=O)O)[C@H](C)C(=O)N[C@@H](CCCN=C(N)N)C(=O)N[C@@H](/C=C/C(C)=C/[C@H](C)[C@H](Cc2ccccc2)OC)[C@H](C)C(=O)N[C@@H](C(=O)O)CCC(=O)N1C
REMARK SMILES IDX 39 1 38 2 37 3 36 4 28 6 27 7 25 8 26 9 23 11 24 12 19 13
REMARK SMILES IDX 18 14 16 15 17 16 11 18 10 19 8 20 9 21 12 24 13 25 14 26
REMARK SMILES IDX 15 27 20 28 21 29 22 30 29 32 30 33 31 34 32 35 33 36 34 37
REMARK SMILES IDX 35 38 57 43 58 44 59 45 60 46 61 47 62 49 66 50 67 51 68 52
REMARK SMILES IDX 69 53 70 54 71 55 2 56 1 57 3 58 4 59 5 60 6 62 7 63 63 65
REMARK SMILES IDX 64 66 65 67 40 69 41 70 42 71 44 72 43 73 45 74 46 75 47 76
REMARK SMILES IDX 55 77 56 78 48 79 49 80 50 81 54 82 51 83 53 84 52 85
REMARK H PARENT 38 5 27 10 18 17 10 22 22 31 34 39 34 40 35 41 35 42 61 48
REMARK H PARENT 5 61 65 68
REMARK Flexibility Score:  369.900
ROOT
ATOM      1  C   UNL     1       3.085  -5.401   6.093  1.00  0.00     0.117 C 
ENDROOT
BRANCH   1   2
ATOM      2  N   UNL     1       3.175  -4.257   7.001  1.00  0.00    -0.347 N 
ATOM      3  O   UNL     1       4.818  -3.102   5.889  1.00  0.00    -0.273 OA
ATOM      4  C   UNL     1       3.972  -3.151   6.776  1.00  0.00     0.243 C 
ATOM      5  H   UNL     1       2.590  -4.231   7.823  1.00  0.00     0.164 HD
BRANCH   4   6
ATOM      6  C   UNL     1       3.816  -2.043   7.848  1.00  0.00     0.171 C 
BRANCH   6   7
ATOM      7  N   UNL     1       3.993  -0.713   7.242  1.00  0.00    -0.344 N 
ATOM      8  C   UNL     1       4.939   0.161   7.731  1.00  0.00     0.226 C 
ATOM      9  O   UNL     1       5.653  -0.106   8.691  1.00  0.00    -0.275 OA
ATOM     10  H   UNL     1       3.377  -0.430   6.491  1.00  0.00     0.164 HD
BRANCH   8  11
ATOM     11  C   UNL     1       5.037   1.469   6.966  1.00  0.00     0.109 C 
ATOM     12  C   UNL     1       4.773   2.648   7.903  1.00  0.00     0.021 C 
BRANCH  11  13
ATOM     13  C   UNL     1       6.378   1.531   6.208  1.00  0.00     0.204 C 
BRANCH  13  14
ATOM     14  N   UNL     1       7.520   1.668   7.118  1.00  0.00    -0.340 N 
ATOM     15  C   UNL     1       8.358   2.762   7.108  1.00  0.00     0.243 C 
ATOM     16  O   UNL     1       8.171   3.730   6.374  1.00  0.00    -0.273 OA
ATOM     17  H   UNL     1       7.819   0.841   7.642  1.00  0.00     0.164 HD
BRANCH  15  18
ATOM     18  C   UNL     1       9.608   2.592   8.006  1.00  0.00     0.171 C 
BRANCH  18  19
ATOM     19  N   UNL     1      10.068   3.937   8.343  1.00  0.00    -0.343 N 
ATOM     20  C   UNL     1      11.411   4.246   8.442  1.00  0.00     0.242 CG0
ATOM     21  O   UNL     1      12.276   3.376   8.383  1.00  0.00    -0.273 OA
ATOM     22  H   UNL     1       9.385   4.667   8.516  1.00  0.00     0.164 HD
ATOM     23  G   UNL     1      11.703   5.733   8.728  1.00  0.00     0.000 G0
ENDBRANCH  18  19
BRANCH  18  24
ATOM     24  C   UNL     1       9.265   1.783   9.264  1.00  0.00     0.038 C 
BRANCH  24  25
ATOM     25  C   UNL     1      10.043   0.458   9.410  1.00  0.00    -0.015 C 
ATOM     26  C   UNL     1      11.004   0.212   8.247  1.00  0.00     0.007 C 
ATOM     27  C   UNL     1       9.056  -0.708   9.518  1.00  0.00     0.007 C 
ENDBRANCH  24  25
ENDBRANCH  18  24
ENDBRANCH  15  18
ENDBRANCH  13  14
BRANCH  13  28
ATOM     28  C   UNL     1       6.637   0.298   5.337  1.00  0.00     0.327 C 
ATOM     29  O   UNL     1       5.883  -0.162   4.494  1.00  0.00    -0.250 OA
BRANCH  28  30
ATOM     30  O   UNL     1       7.774  -0.350   5.663  1.00  0.00    -0.480 OA
ATOM     31  H   UNL     1       7.470  -1.223   5.986  1.00  0.00     0.296 HD
ENDBRANCH  28  30
ENDBRANCH  13  28
ENDBRANCH  11  13
ENDBRANCH   8  11
ENDBRANCH   6   7
BRANCH   6  32
ATOM     32  C   UNL     1       2.437  -2.166   8.504  1.00  0.00     0.037 C 
BRANCH  32  33
ATOM     33  C   UNL     1       2.529  -2.618   9.968  1.00  0.00     0.026 C 
BRANCH  33  34
ATOM     34  C   UNL     1       3.914  -2.374  10.569  1.00  0.00     0.146 C 
BRANCH  34  35
ATOM     35  N   UNL     1       4.522  -3.659  10.883  1.00  0.00    -0.254 NA
ATOM     36  C   UNL     1       5.661  -3.943  10.369  1.00  0.00     0.185 C 
ATOM     37  N   UNL     1       6.233  -5.122  10.656  1.00  0.00    -0.370 N 
ATOM     38  N   UNL     1       6.420  -3.205   9.539  1.00  0.00    -0.370 N 
ATOM     39  H   UNL     1       5.726  -5.732  11.285  1.00  0.00     0.159 HD
ATOM     40  H   UNL     1       7.189  -5.345  10.437  1.00  0.00     0.159 HD
ATOM     41  H   UNL     1       7.232  -3.596   9.091  1.00  0.00     0.159 HD
ATOM     42  H   UNL     1       6.106  -2.300   9.225  1.00  0.00     0.159 HD
ENDBRANCH  34  35
ENDBRANCH  33  34
ENDBRANCH  32  33
ENDBRANCH   6  32
ENDBRANCH   4   6
ENDBRANCH   1   2
BRANCH   1  43
ATOM     43  C   UNL     1       1.702  -5.362   5.382  1.00  0.00     0.102 C 
ATOM     44  C   UNL     1       1.688  -4.487   4.117  1.00  0.00     0.020 C 
BRANCH  43  45
ATOM     45  C   UNL     1       0.582  -5.036   6.375  1.00  0.00     0.225 C 
ATOM     46  O   UNL     1       0.116  -3.909   6.514  1.00  0.00    -0.275 OA
ATOM     47  N   UNL     1       0.185  -6.078   7.182  1.00  0.00    -0.342 N 
ATOM     48  H   UNL     1       0.465  -7.021   6.955  1.00  0.00     0.164 HD
BRANCH  47  49
ATOM     49  C   UNL     1      -0.901  -5.922   8.155  1.00  0.00     0.192 C 
BRANCH  49  50
ATOM     50  C   UNL     1      -0.369  -6.184   9.566  1.00  0.00     0.047 C 
BRANCH  50  51
ATOM     51  C   UNL     1      -0.734  -5.060  10.545  1.00  0.00     0.103 C 
BRANCH  51  52
ATOM     52  C   UNL     1      -1.425  -5.592  11.798  1.00  0.00     0.226 C 
ATOM     53  O   UNL     1      -2.652  -5.525  11.893  1.00  0.00    -0.275 OA
BRANCH  52  54
ATOM     54  N   UNL     1      -0.598  -6.208  12.756  1.00  0.00    -0.311 N 
ATOM     55  C   UNL     1      -0.012  -5.435  13.859  1.00  0.00     0.153 C 
BRANCH  54  56
ATOM     56  C   UNL     1      -0.308  -7.582  12.697  1.00  0.00     0.102 C 
ATOM     57  C   UNL     1       0.928  -8.105  12.663  1.00  0.00     0.043 C 
BRANCH  56  58
ATOM     58  C   UNL     1      -1.415  -8.609  12.715  1.00  0.00     0.268 C 
ATOM     59  O   UNL     1      -1.975  -8.973  13.741  1.00  0.00    -0.268 OA
ATOM     60  N   UNL     1      -1.771  -9.041  11.460  1.00  0.00    -0.339 N 
ATOM     61  H   UNL     1      -1.251  -8.699  10.661  1.00  0.00     0.164 HD
BRANCH  60  62
ATOM     62  C   UNL     1      -2.864  -9.989  11.243  1.00  0.00     0.168 CG0
ATOM     63  C   UNL     1      -4.208  -9.274  11.199  1.00  0.00     0.041 C 
ATOM     64  G   UNL     1      -2.849 -11.057  12.356  1.00  0.00     0.000 G0
ENDBRANCH  60  62
ENDBRANCH  56  58
ENDBRANCH  54  56
ENDBRANCH  52  54
ENDBRANCH  51  52
ENDBRANCH  50  51
ENDBRANCH  49  50
BRANCH  49  65
ATOM     65  C   UNL     1      -2.065  -6.881   7.863  1.00  0.00     0.326 C 
ATOM     66  O   UNL     1      -2.726  -7.473   8.704  1.00  0.00    -0.250 OA
BRANCH  65  67
ATOM     67  O   UNL     1      -2.301  -7.098   6.551  1.00  0.00    -0.480 OA
ATOM     68  H   UNL     1      -1.404  -7.129   6.156  1.00  0.00     0.296 HD
ENDBRANCH  65  67
ENDBRANCH  49  65
ENDBRANCH  47  49
ENDBRANCH  43  45
ENDBRANCH   1  43
BRANCH   1  69
ATOM     69  C   UNL     1       3.455  -6.623   6.913  1.00  0.00    -0.001 C 
ATOM     70  C   UNL     1       3.976  -6.649   8.152  1.00  0.00     0.001 C 
BRANCH  70  71
ATOM     71  C   UNL     1       4.309  -7.836   8.942  1.00  0.00    -0.055 C 
ATOM     72  C   UNL     1       5.108  -8.764   8.375  1.00  0.00    -0.018 C 
ATOM     73  C   UNL     1       3.742  -7.934  10.335  1.00  0.00     0.044 C 
BRANCH  72  74
ATOM     74  C   UNL     1       5.617 -10.078   8.950  1.00  0.00     0.038 C 
ATOM     75  C   UNL     1       6.947  -9.780   9.653  1.00  0.00     0.015 C 
BRANCH  74  76
ATOM     76  C   UNL     1       5.705 -11.126   7.802  1.00  0.00     0.128 C 
BRANCH  76  77
ATOM     77  O   UNL     1       5.584 -12.454   8.339  1.00  0.00    -0.381 OA
ATOM     78  C   UNL     1       6.678 -13.302   8.019  1.00  0.00     0.195 C 
ENDBRANCH  76  77
BRANCH  76  79
ATOM     79  C   UNL     1       4.726 -10.861   6.631  1.00  0.00     0.068 C 
BRANCH  79  80
ATOM     80  C   UNL     1       5.149 -11.285   5.245  1.00  0.00    -0.045 A 
ATOM     81  C   UNL     1       5.982 -10.473   4.465  1.00  0.00     0.004 A 
ATOM     82  C   UNL     1       4.688 -12.495   4.705  1.00  0.00     0.004 A 
ATOM     83  C   UNL     1       6.357 -10.866   3.178  1.00  0.00     0.000 A 
ATOM     84  C   UNL     1       5.063 -12.887   3.418  1.00  0.00     0.000 A 
ATOM     85  C   UNL     1       5.899 -12.073   2.656  1.00  0.00     0.000 A 
ENDBRANCH  79  80
ENDBRANCH  76  79
ENDBRANCH  74  76
ENDBRANCH  72  74
ENDBRANCH  70  71
ENDBRANCH   1  69
TORSDOF 17
ENDMDL
MODEL 41
REMARK VINA RESULT:    -4.980      6.533     12.493
REMARK INTER + INTRA:         -23.935
REMARK INTER:                 -18.482
REMARK INTRA:                  -5.453
REMARK UNBOUND:                -9.057
REMARK SMILES C=C1C(=O)N[C@H](C)C(=O)N[C@@H](CC(C)C)C(=O)N[C@@H](C(=O)O)[C@H](C)C(=O)N[C@@H](CCCN=C(N)N)C(=O)N[C@@H](/C=C/C(C)=C/[C@H](C)[C@H](Cc2ccccc2)OC)[C@H](C)C(=O)N[C@@H](C(=O)O)CCC(=O)N1C
REMARK SMILES IDX 39 1 38 2 37 3 36 4 28 6 27 7 25 8 26 9 23 11 24 12 19 13
REMARK SMILES IDX 18 14 16 15 17 16 11 18 10 19 8 20 9 21 12 24 13 25 14 26
REMARK SMILES IDX 15 27 20 28 21 29 22 30 29 32 30 33 31 34 32 35 33 36 34 37
REMARK SMILES IDX 35 38 57 43 58 44 59 45 60 46 61 47 62 49 66 50 67 51 68 52
REMARK SMILES IDX 69 53 70 54 71 55 2 56 1 57 3 58 4 59 5 60 6 62 7 63 63 65
REMARK SMILES IDX 64 66 65 67 40 69 41 70 42 71 44 72 43 73 45 74 46 75 47 76
REMARK SMILES IDX 55 77 56 78 48 79 49 80 50 81 54 82 51 83 53 84 52 85
REMARK H PARENT 38 5 27 10 18 17 10 22 22 31 34 39 34 40 35 41 35 42 61 48
REMARK H PARENT 5 61 65 68
REMARK Flexibility Score:  369.900
ROOT
ATOM      1  C   UNL     1       4.848   5.292   9.002  1.00  0.00     0.117 C 
ENDROOT
BRANCH   1   2
ATOM      2  N   UNL     1       4.942   3.831   9.013  1.00  0.00    -0.347 N 
ATOM      3  O   UNL     1       6.284   3.590   7.166  1.00  0.00    -0.273 OA
ATOM      4  C   UNL     1       5.731   3.101   8.145  1.00  0.00     0.243 C 
ATOM      5  H   UNL     1       4.448   3.309   9.721  1.00  0.00     0.164 HD
BRANCH   4   6
ATOM      6  C   UNL     1       5.718   1.576   8.425  1.00  0.00     0.171 C 
BRANCH   6   7
ATOM      7  N   UNL     1       6.137   0.830   7.228  1.00  0.00    -0.344 N 
ATOM      8  C   UNL     1       5.200   0.264   6.390  1.00  0.00     0.226 C 
ATOM      9  O   UNL     1       3.996   0.332   6.604  1.00  0.00    -0.275 OA
ATOM     10  H   UNL     1       7.125   0.695   7.054  1.00  0.00     0.164 HD
BRANCH   8  11
ATOM     11  C   UNL     1       5.787  -0.424   5.170  1.00  0.00     0.109 C 
ATOM     12  C   UNL     1       6.939   0.405   4.601  1.00  0.00     0.021 C 
BRANCH  11  13
ATOM     13  C   UNL     1       6.149  -1.882   5.518  1.00  0.00     0.204 C 
BRANCH  13  14
ATOM     14  N   UNL     1       4.957  -2.719   5.694  1.00  0.00    -0.340 N 
ATOM     15  C   UNL     1       4.585  -3.245   6.912  1.00  0.00     0.243 C 
ATOM     16  O   UNL     1       5.194  -2.998   7.951  1.00  0.00    -0.273 OA
ATOM     17  H   UNL     1       4.499  -3.084   4.854  1.00  0.00     0.164 HD
BRANCH  15  18
ATOM     18  C   UNL     1       3.420  -4.261   6.817  1.00  0.00     0.171 C 
BRANCH  18  19
ATOM     19  N   UNL     1       3.539  -5.142   7.977  1.00  0.00    -0.343 N 
ATOM     20  C   UNL     1       3.716  -6.506   7.841  1.00  0.00     0.242 CG0
ATOM     21  O   UNL     1       3.650  -7.057   6.745  1.00  0.00    -0.273 OA
ATOM     22  H   UNL     1       3.483  -4.748   8.909  1.00  0.00     0.164 HD
ATOM     23  G   UNL     1       3.899  -7.260   9.174  1.00  0.00     0.000 G0
ENDBRANCH  18  19
BRANCH  18  24
ATOM     24  C   UNL     1       2.069  -3.535   6.798  1.00  0.00     0.038 C 
BRANCH  24  25
ATOM     25  C   UNL     1       1.051  -4.096   5.782  1.00  0.00    -0.015 C 
ATOM     26  C   UNL     1       0.290  -5.306   6.323  1.00  0.00     0.007 C 
ATOM     27  C   UNL     1       1.774  -4.478   4.487  1.00  0.00     0.007 C 
ENDBRANCH  24  25
ENDBRANCH  18  24
ENDBRANCH  15  18
ENDBRANCH  13  14
BRANCH  13  28
ATOM     28  C   UNL     1       7.025  -2.556   4.458  1.00  0.00     0.327 C 
ATOM     29  O   UNL     1       7.965  -2.047   3.867  1.00  0.00    -0.250 OA
BRANCH  28  30
ATOM     30  O   UNL     1       6.592  -3.788   4.120  1.00  0.00    -0.480 OA
ATOM     31  H   UNL     1       7.108  -4.391   4.695  1.00  0.00     0.296 HD
ENDBRANCH  28  30
ENDBRANCH  13  28
ENDBRANCH  11  13
ENDBRANCH   8  11
ENDBRANCH   6   7
BRANCH   6  32
ATOM     32  C   UNL     1       6.644   1.275   9.609  1.00  0.00     0.037 C 
BRANCH  32  33
ATOM     33  C   UNL     1       7.918   0.537   9.175  1.00  0.00     0.026 C 
BRANCH  33  34
ATOM     34  C   UNL     1       9.191   1.294   9.557  1.00  0.00     0.146 C 
BRANCH  34  35
ATOM     35  N   UNL     1       9.738   1.926   8.365  1.00  0.00    -0.254 NA
ATOM     36  C   UNL     1       9.584   3.189   8.213  1.00  0.00     0.185 C 
ATOM     37  N   UNL     1      10.088   3.783   7.121  1.00  0.00    -0.370 N 
ATOM     38  N   UNL     1       8.963   4.067   9.021  1.00  0.00    -0.370 N 
ATOM     39  H   UNL     1      10.581   3.188   6.467  1.00  0.00     0.159 HD
ATOM     40  H   UNL     1      10.162   4.780   7.014  1.00  0.00     0.159 HD
ATOM     41  H   UNL     1       8.787   5.013   8.724  1.00  0.00     0.159 HD
ATOM     42  H   UNL     1       8.522   3.757   9.873  1.00  0.00     0.159 HD
ENDBRANCH  34  35
ENDBRANCH  33  34
ENDBRANCH  32  33
ENDBRANCH   6  32
ENDBRANCH   4   6
ENDBRANCH   1   2
BRANCH   1  43
ATOM     43  C   UNL     1       5.027   5.811  10.458  1.00  0.00     0.102 C 
ATOM     44  C   UNL     1       6.372   5.411  11.089  1.00  0.00     0.020 C 
BRANCH  43  45
ATOM     45  C   UNL     1       3.809   5.464  11.319  1.00  0.00     0.225 C 
ATOM     46  O   UNL     1       3.419   4.313  11.496  1.00  0.00    -0.275 OA
ATOM     47  N   UNL     1       3.110   6.539  11.818  1.00  0.00    -0.342 N 
ATOM     48  H   UNL     1       3.525   7.460  11.792  1.00  0.00     0.164 HD
BRANCH  47  49
ATOM     49  C   UNL     1       1.944   6.358  12.688  1.00  0.00     0.192 C 
BRANCH  49  50
ATOM     50  C   UNL     1       0.907   7.444  12.390  1.00  0.00     0.047 C 
BRANCH  50  51
ATOM     51  C   UNL     1      -0.485   6.859  12.116  1.00  0.00     0.103 C 
BRANCH  51  52
ATOM     52  C   UNL     1      -1.481   7.207  13.221  1.00  0.00     0.226 C 
ATOM     53  O   UNL     1      -1.766   6.363  14.073  1.00  0.00    -0.275 OA
BRANCH  52  54
ATOM     54  N   UNL     1      -1.963   8.529  13.237  1.00  0.00    -0.311 N 
ATOM     55  C   UNL     1      -2.369   9.201  11.995  1.00  0.00     0.153 C 
BRANCH  54  56
ATOM     56  C   UNL     1      -2.080   9.251  14.436  1.00  0.00     0.102 C 
ATOM     57  C   UNL     1      -3.217   9.399  15.136  1.00  0.00     0.043 C 
BRANCH  56  58
ATOM     58  C   UNL     1      -0.873   9.901  15.070  1.00  0.00     0.268 C 
ATOM     59  O   UNL     1       0.009   9.269  15.634  1.00  0.00    -0.268 OA
ATOM     60  N   UNL     1      -0.837  11.264  14.890  1.00  0.00    -0.339 N 
ATOM     61  H   UNL     1      -1.613  11.714  14.420  1.00  0.00     0.164 HD
BRANCH  60  62
ATOM     62  C   UNL     1       0.276  12.083  15.369  1.00  0.00     0.168 CG0
ATOM     63  C   UNL     1       1.286  12.337  14.257  1.00  0.00     0.041 C 
ATOM     64  G   UNL     1       0.949  11.388  16.570  1.00  0.00     0.000 G0
ENDBRANCH  60  62
ENDBRANCH  56  58
ENDBRANCH  54  56
ENDBRANCH  52  54
ENDBRANCH  51  52
ENDBRANCH  50  51
ENDBRANCH  49  50
BRANCH  49  65
ATOM     65  C   UNL     1       2.331   6.419  14.174  1.00  0.00     0.326 C 
ATOM     66  O   UNL     1       2.917   5.541  14.792  1.00  0.00    -0.250 OA
BRANCH  65  67
ATOM     67  O   UNL     1       1.919   7.532  14.819  1.00  0.00    -0.480 OA
ATOM     68  H   UNL     1       1.265   7.194  15.468  1.00  0.00     0.296 HD
ENDBRANCH  65  67
ENDBRANCH  49  65
ENDBRANCH  47  49
ENDBRANCH  43  45
ENDBRANCH   1  43
BRANCH   1  69
ATOM     69  C   UNL     1       3.570   5.628   8.255  1.00  0.00    -0.001 C 
ATOM     70  C   UNL     1       2.914   6.802   8.246  1.00  0.00     0.001 C 
BRANCH  70  71
ATOM     71  C   UNL     1       1.692   7.121   7.505  1.00  0.00    -0.055 C 
ATOM     72  C   UNL     1       1.732   7.026   6.159  1.00  0.00    -0.018 C 
ATOM     73  C   UNL     1       0.476   7.526   8.296  1.00  0.00     0.044 C 
BRANCH  72  74
ATOM     74  C   UNL     1       0.631   7.289   5.142  1.00  0.00     0.038 C 
ATOM     75  C   UNL     1      -0.101   5.961   4.914  1.00  0.00     0.015 C 
BRANCH  74  76
ATOM     76  C   UNL     1       1.268   7.911   3.864  1.00  0.00     0.128 C 
BRANCH  76  77
ATOM     77  O   UNL     1       1.710   9.251   4.139  1.00  0.00    -0.381 OA
ATOM     78  C   UNL     1       2.829   9.654   3.361  1.00  0.00     0.195 C 
ENDBRANCH  76  77
BRANCH  76  79
ATOM     79  C   UNL     1       2.372   7.035   3.220  1.00  0.00     0.068 C 
BRANCH  79  80
ATOM     80  C   UNL     1       2.153   6.545   1.809  1.00  0.00    -0.045 A 
ATOM     81  C   UNL     1       3.016   6.921   0.772  1.00  0.00     0.004 A 
ATOM     82  C   UNL     1       1.056   5.722   1.509  1.00  0.00     0.004 A 
ATOM     83  C   UNL     1       2.798   6.475  -0.533  1.00  0.00     0.000 A 
ATOM     84  C   UNL     1       0.839   5.277   0.203  1.00  0.00     0.000 A 
ATOM     85  C   UNL     1       1.710   5.652  -0.817  1.00  0.00     0.000 A 
ENDBRANCH  79  80
ENDBRANCH  76  79
ENDBRANCH  74  76
ENDBRANCH  72  74
ENDBRANCH  70  71
ENDBRANCH   1  69
TORSDOF 17
ENDMDL
MODEL 42
REMARK VINA RESULT:    -4.973      6.381     12.099
REMARK INTER + INTRA:         -23.914
REMARK INTER:                 -18.106
REMARK INTRA:                  -5.808
REMARK UNBOUND:                -9.057
REMARK SMILES C=C1C(=O)N[C@H](C)C(=O)N[C@@H](CC(C)C)C(=O)N[C@@H](C(=O)O)[C@H](C)C(=O)N[C@@H](CCCN=C(N)N)C(=O)N[C@@H](/C=C/C(C)=C/[C@H](C)[C@H](Cc2ccccc2)OC)[C@H](C)C(=O)N[C@@H](C(=O)O)CCC(=O)N1C
REMARK SMILES IDX 39 1 38 2 37 3 36 4 28 6 27 7 25 8 26 9 23 11 24 12 19 13
REMARK SMILES IDX 18 14 16 15 17 16 11 18 10 19 8 20 9 21 12 24 13 25 14 26
REMARK SMILES IDX 15 27 20 28 21 29 22 30 29 32 30 33 31 34 32 35 33 36 34 37
REMARK SMILES IDX 35 38 57 43 58 44 59 45 60 46 61 47 62 49 66 50 67 51 68 52
REMARK SMILES IDX 69 53 70 54 71 55 2 56 1 57 3 58 4 59 5 60 6 62 7 63 63 65
REMARK SMILES IDX 64 66 65 67 40 69 41 70 42 71 44 72 43 73 45 74 46 75 47 76
REMARK SMILES IDX 55 77 56 78 48 79 49 80 50 81 54 82 51 83 53 84 52 85
REMARK H PARENT 38 5 27 10 18 17 10 22 22 31 34 39 34 40 35 41 35 42 61 48
REMARK H PARENT 5 61 65 68
REMARK Flexibility Score:  369.900
ROOT
ATOM      1  C   UNL     1       4.952   5.663   9.686  1.00  0.00     0.117 C 
ENDROOT
BRANCH   1   2
ATOM      2  N   UNL     1       4.645   4.242   9.522  1.00  0.00    -0.347 N 
ATOM      3  O   UNL     1       6.077   3.811   7.781  1.00  0.00    -0.273 OA
ATOM      4  C   UNL     1       5.301   3.406   8.640  1.00  0.00     0.243 C 
ATOM      5  H   UNL     1       3.949   3.815  10.115  1.00  0.00     0.164 HD
BRANCH   4   6
ATOM      6  C   UNL     1       4.843   1.927   8.725  1.00  0.00     0.171 C 
BRANCH   6   7
ATOM      7  N   UNL     1       5.476   1.131   7.661  1.00  0.00    -0.344 N 
ATOM      8  C   UNL     1       4.799   0.855   6.493  1.00  0.00     0.226 C 
ATOM      9  O   UNL     1       3.650   1.230   6.291  1.00  0.00    -0.275 OA
ATOM     10  H   UNL     1       6.399   0.746   7.819  1.00  0.00     0.164 HD
BRANCH   8  11
ATOM     11  C   UNL     1       5.605   0.070   5.473  1.00  0.00     0.109 C 
ATOM     12  C   UNL     1       7.032   0.614   5.401  1.00  0.00     0.021 C 
BRANCH  11  13
ATOM     13  C   UNL     1       5.500  -1.438   5.774  1.00  0.00     0.204 C 
BRANCH  13  14
ATOM     14  N   UNL     1       4.114  -1.862   5.992  1.00  0.00    -0.340 N 
ATOM     15  C   UNL     1       3.777  -2.946   6.773  1.00  0.00     0.243 C 
ATOM     16  O   UNL     1       4.615  -3.600   7.393  1.00  0.00    -0.273 OA
ATOM     17  H   UNL     1       3.389  -1.461   5.391  1.00  0.00     0.164 HD
BRANCH  15  18
ATOM     18  C   UNL     1       2.279  -3.328   6.689  1.00  0.00     0.171 C 
BRANCH  18  19
ATOM     19  N   UNL     1       2.219  -4.660   6.091  1.00  0.00    -0.343 N 
ATOM     20  C   UNL     1       2.042  -4.842   4.733  1.00  0.00     0.242 CG0
ATOM     21  O   UNL     1       1.795  -3.900   3.984  1.00  0.00    -0.273 OA
ATOM     22  H   UNL     1       2.303  -5.477   6.686  1.00  0.00     0.164 HD
ATOM     23  G   UNL     1       2.084  -6.315   4.277  1.00  0.00     0.000 G0
ENDBRANCH  18  19
BRANCH  18  24
ATOM     24  C   UNL     1       1.635  -3.307   8.081  1.00  0.00     0.038 C 
BRANCH  24  25
ATOM     25  C   UNL     1       0.092  -3.285   8.077  1.00  0.00    -0.015 C 
ATOM     26  C   UNL     1      -0.476  -2.236   7.120  1.00  0.00     0.007 C 
ATOM     27  C   UNL     1      -0.422  -3.021   9.495  1.00  0.00     0.007 C 
ENDBRANCH  24  25
ENDBRANCH  18  24
ENDBRANCH  15  18
ENDBRANCH  13  14
BRANCH  13  28
ATOM     28  C   UNL     1       6.074  -2.317   4.658  1.00  0.00     0.327 C 
ATOM     29  O   UNL     1       5.443  -2.829   3.745  1.00  0.00    -0.250 OA
BRANCH  28  30
ATOM     30  O   UNL     1       7.382  -2.597   4.825  1.00  0.00    -0.480 OA
ATOM     31  H   UNL     1       7.821  -1.722   4.803  1.00  0.00     0.296 HD
ENDBRANCH  28  30
ENDBRANCH  13  28
ENDBRANCH  11  13
ENDBRANCH   8  11
ENDBRANCH   6   7
BRANCH   6  32
ATOM     32  C   UNL     1       5.195   1.370  10.109  1.00  0.00     0.037 C 
BRANCH  32  33
ATOM     33  C   UNL     1       4.491   0.036  10.392  1.00  0.00     0.026 C 
BRANCH  33  34
ATOM     34  C   UNL     1       5.474  -1.081  10.745  1.00  0.00     0.146 C 
BRANCH  34  35
ATOM     35  N   UNL     1       5.903  -1.735   9.516  1.00  0.00    -0.254 NA
ATOM     36  C   UNL     1       7.127  -1.622   9.155  1.00  0.00     0.185 C 
ATOM     37  N   UNL     1       7.535  -2.224   8.027  1.00  0.00    -0.370 N 
ATOM     38  N   UNL     1       8.129  -0.959   9.761  1.00  0.00    -0.370 N 
ATOM     39  H   UNL     1       6.839  -2.754   7.518  1.00  0.00     0.159 HD
ATOM     40  H   UNL     1       8.502  -2.328   7.771  1.00  0.00     0.159 HD
ATOM     41  H   UNL     1       9.017  -0.827   9.305  1.00  0.00     0.159 HD
ATOM     42  H   UNL     1       7.962  -0.445  10.612  1.00  0.00     0.159 HD
ENDBRANCH  34  35
ENDBRANCH  33  34
ENDBRANCH  32  33
ENDBRANCH   6  32
ENDBRANCH   4   6
ENDBRANCH   1   2
BRANCH   1  43
ATOM     43  C   UNL     1       5.106   5.965  11.205  1.00  0.00     0.102 C 
ATOM     44  C   UNL     1       6.321   5.272  11.846  1.00  0.00     0.020 C 
BRANCH  43  45
ATOM     45  C   UNL     1       3.790   5.724  11.950  1.00  0.00     0.225 C 
ATOM     46  O   UNL     1       3.279   4.614  12.068  1.00  0.00    -0.275 OA
ATOM     47  N   UNL     1       3.153   6.855  12.407  1.00  0.00    -0.342 N 
ATOM     48  H   UNL     1       3.653   7.733  12.437  1.00  0.00     0.164 HD
BRANCH  47  49
ATOM     49  C   UNL     1       1.903   6.776  13.168  1.00  0.00     0.192 C 
BRANCH  49  50
ATOM     50  C   UNL     1       1.133   8.092  13.031  1.00  0.00     0.047 C 
BRANCH  50  51
ATOM     51  C   UNL     1       0.410   8.205  11.682  1.00  0.00     0.103 C 
BRANCH  51  52
ATOM     52  C   UNL     1      -1.044   7.743  11.770  1.00  0.00     0.226 C 
ATOM     53  O   UNL     1      -1.603   7.296  10.767  1.00  0.00    -0.275 OA
BRANCH  52  54
ATOM     54  N   UNL     1      -1.641   7.791  13.043  1.00  0.00    -0.311 N 
ATOM     55  C   UNL     1      -1.807   6.572  13.846  1.00  0.00     0.153 C 
BRANCH  54  56
ATOM     56  C   UNL     1      -2.093   9.001  13.596  1.00  0.00     0.102 C 
ATOM     57  C   UNL     1      -2.480   9.166  14.871  1.00  0.00     0.043 C 
BRANCH  56  58
ATOM     58  C   UNL     1      -2.134  10.263  12.767  1.00  0.00     0.268 C 
ATOM     59  O   UNL     1      -3.046  10.528  11.995  1.00  0.00    -0.268 OA
ATOM     60  N   UNL     1      -1.081  11.109  13.019  1.00  0.00    -0.339 N 
ATOM     61  H   UNL     1      -0.360  10.811  13.666  1.00  0.00     0.164 HD
BRANCH  60  62
ATOM     62  C   UNL     1      -0.958  12.414  12.372  1.00  0.00     0.168 CG0
ATOM     63  C   UNL     1       0.490  12.704  11.995  1.00  0.00     0.041 C 
ATOM     64  G   UNL     1      -1.508  13.509  13.309  1.00  0.00     0.000 G0
ENDBRANCH  60  62
ENDBRANCH  56  58
ENDBRANCH  54  56
ENDBRANCH  52  54
ENDBRANCH  51  52
ENDBRANCH  50  51
ENDBRANCH  49  50
BRANCH  49  65
ATOM     65  C   UNL     1       2.162   6.491  14.656  1.00  0.00     0.326 C 
ATOM     66  O   UNL     1       2.402   7.332  15.510  1.00  0.00    -0.250 OA
BRANCH  65  67
ATOM     67  O   UNL     1       2.169   5.180  14.986  1.00  0.00    -0.480 OA
ATOM     68  H   UNL     1       1.318   4.847  14.629  1.00  0.00     0.296 HD
ENDBRANCH  65  67
ENDBRANCH  49  65
ENDBRANCH  47  49
ENDBRANCH  43  45
ENDBRANCH   1  43
BRANCH   1  69
ATOM     69  C   UNL     1       3.903   6.418   8.891  1.00  0.00    -0.001 C 
ATOM     70  C   UNL     1       3.005   5.907   8.030  1.00  0.00     0.001 C 
BRANCH  70  71
ATOM     71  C   UNL     1       1.983   6.643   7.285  1.00  0.00    -0.055 C 
ATOM     72  C   UNL     1       1.729   6.256   6.017  1.00  0.00    -0.018 C 
ATOM     73  C   UNL     1       1.281   7.776   7.988  1.00  0.00     0.044 C 
BRANCH  72  74
ATOM     74  C   UNL     1       0.732   6.825   5.017  1.00  0.00     0.038 C 
ATOM     75  C   UNL     1      -0.101   5.650   4.490  1.00  0.00     0.015 C 
BRANCH  74  76
ATOM     76  C   UNL     1       1.513   7.613   3.925  1.00  0.00     0.128 C 
BRANCH  76  77
ATOM     77  O   UNL     1       2.017   8.843   4.474  1.00  0.00    -0.381 OA
ATOM     78  C   UNL     1       2.556   9.725   3.498  1.00  0.00     0.195 C 
ENDBRANCH  76  77
BRANCH  76  79
ATOM     79  C   UNL     1       2.609   6.782   3.211  1.00  0.00     0.068 C 
BRANCH  79  80
ATOM     80  C   UNL     1       2.444   6.516   1.734  1.00  0.00    -0.045 A 
ATOM     81  C   UNL     1       3.265   7.146   0.791  1.00  0.00     0.004 A 
ATOM     82  C   UNL     1       1.439   5.648   1.280  1.00  0.00     0.004 A 
ATOM     83  C   UNL     1       3.097   6.905  -0.574  1.00  0.00     0.000 A 
ATOM     84  C   UNL     1       1.271   5.408  -0.085  1.00  0.00     0.000 A 
ATOM     85  C   UNL     1       2.101   6.035  -1.012  1.00  0.00     0.000 A 
ENDBRANCH  79  80
ENDBRANCH  76  79
ENDBRANCH  74  76
ENDBRANCH  72  74
ENDBRANCH  70  71
ENDBRANCH   1  69
TORSDOF 17
ENDMDL
MODEL 43
REMARK VINA RESULT:    -4.969      2.678      5.775
REMARK INTER + INTRA:         -23.902
REMARK INTER:                 -16.090
REMARK INTRA:                  -7.812
REMARK UNBOUND:                -9.057
REMARK SMILES C=C1C(=O)N[C@H](C)C(=O)N[C@@H](CC(C)C)C(=O)N[C@@H](C(=O)O)[C@H](C)C(=O)N[C@@H](CCCN=C(N)N)C(=O)N[C@@H](/C=C/C(C)=C/[C@H](C)[C@H](Cc2ccccc2)OC)[C@H](C)C(=O)N[C@@H](C(=O)O)CCC(=O)N1C
REMARK SMILES IDX 39 1 38 2 37 3 36 4 28 6 27 7 25 8 26 9 23 11 24 12 19 13
REMARK SMILES IDX 18 14 16 15 17 16 11 18 10 19 8 20 9 21 12 24 13 25 14 26
REMARK SMILES IDX 15 27 20 28 21 29 22 30 29 32 30 33 31 34 32 35 33 36 34 37
REMARK SMILES IDX 35 38 57 43 58 44 59 45 60 46 61 47 62 49 66 50 67 51 68 52
REMARK SMILES IDX 69 53 70 54 71 55 2 56 1 57 3 58 4 59 5 60 6 62 7 63 63 65
REMARK SMILES IDX 64 66 65 67 40 69 41 70 42 71 44 72 43 73 45 74 46 75 47 76
REMARK SMILES IDX 55 77 56 78 48 79 49 80 50 81 54 82 51 83 53 84 52 85
REMARK H PARENT 38 5 27 10 18 17 10 22 22 31 34 39 34 40 35 41 35 42 61 48
REMARK H PARENT 5 61 65 68
REMARK Flexibility Score:  369.900
ROOT
ATOM      1  C   UNL     1       6.105   7.915   4.114  1.00  0.00     0.117 C 
ENDROOT
BRANCH   1   2
ATOM      2  N   UNL     1       6.387   7.974   5.549  1.00  0.00    -0.347 N 
ATOM      3  O   UNL     1       5.270   6.065   6.165  1.00  0.00    -0.273 OA
ATOM      4  C   UNL     1       6.022   6.991   6.449  1.00  0.00     0.243 C 
ATOM      5  H   UNL     1       6.921   8.746   5.917  1.00  0.00     0.164 HD
BRANCH   4   6
ATOM      6  C   UNL     1       6.517   7.256   7.894  1.00  0.00     0.171 C 
BRANCH   6   7
ATOM      7  N   UNL     1       5.383   7.580   8.774  1.00  0.00    -0.344 N 
ATOM      8  C   UNL     1       4.698   8.767   8.629  1.00  0.00     0.226 C 
ATOM      9  O   UNL     1       5.005   9.608   7.793  1.00  0.00    -0.275 OA
ATOM     10  H   UNL     1       5.143   6.941   9.521  1.00  0.00     0.164 HD
BRANCH   8  11
ATOM     11  C   UNL     1       3.522   8.930   9.576  1.00  0.00     0.109 C 
ATOM     12  C   UNL     1       2.526   9.942   9.007  1.00  0.00     0.021 C 
BRANCH  11  13
ATOM     13  C   UNL     1       2.924   7.548   9.907  1.00  0.00     0.204 C 
BRANCH  13  14
ATOM     14  N   UNL     1       2.063   7.590  11.093  1.00  0.00    -0.340 N 
ATOM     15  C   UNL     1       2.129   6.651  12.099  1.00  0.00     0.243 C 
ATOM     16  O   UNL     1       2.959   5.743  12.102  1.00  0.00    -0.273 OA
ATOM     17  H   UNL     1       1.258   8.222  11.080  1.00  0.00     0.164 HD
BRANCH  15  18
ATOM     18  C   UNL     1       0.989   6.778  13.140  1.00  0.00     0.171 C 
BRANCH  18  19
ATOM     19  N   UNL     1       1.572   6.456  14.441  1.00  0.00    -0.343 N 
ATOM     20  C   UNL     1       2.368   7.354  15.126  1.00  0.00     0.242 CG0
ATOM     21  O   UNL     1       2.730   8.412  14.616  1.00  0.00    -0.273 OA
ATOM     22  H   UNL     1       1.396   5.547  14.854  1.00  0.00     0.164 HD
ATOM     23  G   UNL     1       2.827   6.867  16.516  1.00  0.00     0.000 G0
ENDBRANCH  18  19
BRANCH  18  24
ATOM     24  C   UNL     1       0.397   8.192  13.125  1.00  0.00     0.038 C 
BRANCH  24  25
ATOM     25  C   UNL     1      -1.125   8.257  13.371  1.00  0.00    -0.015 C 
ATOM     26  C   UNL     1      -1.469   8.726  14.785  1.00  0.00     0.007 C 
ATOM     27  C   UNL     1      -1.746   6.880  13.120  1.00  0.00     0.007 C 
ENDBRANCH  24  25
ENDBRANCH  18  24
ENDBRANCH  15  18
ENDBRANCH  13  14
BRANCH  13  28
ATOM     28  C   UNL     1       2.093   6.960   8.763  1.00  0.00     0.327 C 
ATOM     29  O   UNL     1       0.874   6.954   8.684  1.00  0.00    -0.250 OA
BRANCH  28  30
ATOM     30  O   UNL     1       2.839   6.310   7.847  1.00  0.00    -0.480 OA
ATOM     31  H   UNL     1       2.286   6.313   7.039  1.00  0.00     0.296 HD
ENDBRANCH  28  30
ENDBRANCH  13  28
ENDBRANCH  11  13
ENDBRANCH   8  11
ENDBRANCH   6   7
BRANCH   6  32
ATOM     32  C   UNL     1       7.269   6.021   8.403  1.00  0.00     0.037 C 
BRANCH  32  33
ATOM     33  C   UNL     1       6.647   5.452   9.686  1.00  0.00     0.026 C 
BRANCH  33  34
ATOM     34  C   UNL     1       6.055   4.057   9.481  1.00  0.00     0.146 C 
BRANCH  34  35
ATOM     35  N   UNL     1       4.634   4.188   9.190  1.00  0.00    -0.254 NA
ATOM     36  C   UNL     1       3.790   3.666  10.001  1.00  0.00     0.185 C 
ATOM     37  N   UNL     1       2.478   3.785   9.745  1.00  0.00    -0.370 N 
ATOM     38  N   UNL     1       4.021   2.979  11.133  1.00  0.00    -0.370 N 
ATOM     39  H   UNL     1       2.223   4.300   8.912  1.00  0.00     0.159 HD
ATOM     40  H   UNL     1       1.759   3.560  10.411  1.00  0.00     0.159 HD
ATOM     41  H   UNL     1       3.277   2.498  11.611  1.00  0.00     0.159 HD
ATOM     42  H   UNL     1       4.964   2.798  11.441  1.00  0.00     0.159 HD
ENDBRANCH  34  35
ENDBRANCH  33  34
ENDBRANCH  32  33
ENDBRANCH   6  32
ENDBRANCH   4   6
ENDBRANCH   1   2
BRANCH   1  43
ATOM     43  C   UNL     1       7.380   8.357   3.341  1.00  0.00     0.102 C 
ATOM     44  C   UNL     1       8.466   8.962   4.246  1.00  0.00     0.020 C 
BRANCH  43  45
ATOM     45  C   UNL     1       7.018   9.231   2.136  1.00  0.00     0.225 C 
ATOM     46  O   UNL     1       7.271  10.431   2.078  1.00  0.00    -0.275 OA
ATOM     47  N   UNL     1       6.297   8.605   1.145  1.00  0.00    -0.342 N 
ATOM     48  H   UNL     1       6.231   7.597   1.136  1.00  0.00     0.164 HD
BRANCH  47  49
ATOM     49  C   UNL     1       5.912   9.307  -0.082  1.00  0.00     0.192 C 
BRANCH  49  50
ATOM     50  C   UNL     1       4.450   8.998  -0.415  1.00  0.00     0.047 C 
BRANCH  50  51
ATOM     51  C   UNL     1       4.005   7.633   0.130  1.00  0.00     0.103 C 
BRANCH  51  52
ATOM     52  C   UNL     1       3.808   6.607  -0.984  1.00  0.00     0.226 C 
ATOM     53  O   UNL     1       4.786   6.026  -1.458  1.00  0.00    -0.275 OA
BRANCH  52  54
ATOM     54  N   UNL     1       2.479   6.332  -1.354  1.00  0.00    -0.311 N 
ATOM     55  C   UNL     1       1.600   5.542  -0.482  1.00  0.00     0.153 C 
BRANCH  54  56
ATOM     56  C   UNL     1       1.943   6.804  -2.564  1.00  0.00     0.102 C 
ATOM     57  C   UNL     1       0.640   6.775  -2.890  1.00  0.00     0.043 C 
BRANCH  56  58
ATOM     58  C   UNL     1       2.828   7.445  -3.606  1.00  0.00     0.268 C 
ATOM     59  O   UNL     1       3.015   8.653  -3.675  1.00  0.00    -0.268 OA
ATOM     60  N   UNL     1       3.450   6.531  -4.423  1.00  0.00    -0.339 N 
ATOM     61  H   UNL     1       3.233   5.549  -4.308  1.00  0.00     0.164 HD
BRANCH  60  62
ATOM     62  C   UNL     1       4.399   6.933  -5.460  1.00  0.00     0.168 CG0
ATOM     63  C   UNL     1       3.685   7.212  -6.777  1.00  0.00     0.041 C 
ATOM     64  G   UNL     1       5.465   5.832  -5.640  1.00  0.00     0.000 G0
ENDBRANCH  60  62
ENDBRANCH  56  58
ENDBRANCH  54  56
ENDBRANCH  52  54
ENDBRANCH  51  52
ENDBRANCH  50  51
ENDBRANCH  49  50
BRANCH  49  65
ATOM     65  C   UNL     1       6.800   8.903  -1.270  1.00  0.00     0.326 C 
ATOM     66  O   UNL     1       7.022   9.589  -2.257  1.00  0.00    -0.250 OA
BRANCH  65  67
ATOM     67  O   UNL     1       7.310   7.655  -1.193  1.00  0.00    -0.480 OA
ATOM     68  H   UNL     1       8.280   7.803  -1.151  1.00  0.00     0.296 HD
ENDBRANCH  65  67
ENDBRANCH  49  65
ENDBRANCH  47  49
ENDBRANCH  43  45
ENDBRANCH   1  43
BRANCH   1  69
ATOM     69  C   UNL     1       4.815   8.686   3.903  1.00  0.00    -0.001 C 
ATOM     70  C   UNL     1       4.549   9.950   4.276  1.00  0.00     0.001 C 
BRANCH  70  71
ATOM     71  C   UNL     1       3.307  10.692   4.048  1.00  0.00    -0.055 C 
ATOM     72  C   UNL     1       2.330  10.580   4.973  1.00  0.00    -0.018 C 
ATOM     73  C   UNL     1       3.209  11.533   2.801  1.00  0.00     0.044 C 
BRANCH  72  74
ATOM     74  C   UNL     1       0.953  11.227   5.003  1.00  0.00     0.038 C 
ATOM     75  C   UNL     1       1.024  12.397   5.992  1.00  0.00     0.015 C 
BRANCH  74  76
ATOM     76  C   UNL     1      -0.105  10.139   5.352  1.00  0.00     0.128 C 
BRANCH  76  77
ATOM     77  O   UNL     1      -0.966   9.912   4.224  1.00  0.00    -0.381 OA
ATOM     78  C   UNL     1      -2.340  10.152   4.496  1.00  0.00     0.195 C 
ENDBRANCH  76  77
BRANCH  76  79
ATOM     79  C   UNL     1       0.502   8.830   5.917  1.00  0.00     0.068 C 
BRANCH  79  80
ATOM     80  C   UNL     1       0.569   7.630   5.003  1.00  0.00    -0.045 A 
ATOM     81  C   UNL     1       1.273   7.683   3.793  1.00  0.00     0.004 A 
ATOM     82  C   UNL     1      -0.101   6.445   5.342  1.00  0.00     0.004 A 
ATOM     83  C   UNL     1       1.319   6.573   2.947  1.00  0.00     0.000 A 
ATOM     84  C   UNL     1      -0.055   5.336   4.494  1.00  0.00     0.000 A 
ATOM     85  C   UNL     1       0.655   5.400   3.298  1.00  0.00     0.000 A 
ENDBRANCH  79  80
ENDBRANCH  76  79
ENDBRANCH  74  76
ENDBRANCH  72  74
ENDBRANCH  70  71
ENDBRANCH   1  69
TORSDOF 17
ENDMDL
MODEL 44
REMARK VINA RESULT:    -4.945      4.374      8.114
REMARK INTER + INTRA:         -23.831
REMARK INTER:                 -15.530
REMARK INTRA:                  -8.301
REMARK UNBOUND:                -9.057
REMARK SMILES C=C1C(=O)N[C@H](C)C(=O)N[C@@H](CC(C)C)C(=O)N[C@@H](C(=O)O)[C@H](C)C(=O)N[C@@H](CCCN=C(N)N)C(=O)N[C@@H](/C=C/C(C)=C/[C@H](C)[C@H](Cc2ccccc2)OC)[C@H](C)C(=O)N[C@@H](C(=O)O)CCC(=O)N1C
REMARK SMILES IDX 39 1 38 2 37 3 36 4 28 6 27 7 25 8 26 9 23 11 24 12 19 13
REMARK SMILES IDX 18 14 16 15 17 16 11 18 10 19 8 20 9 21 12 24 13 25 14 26
REMARK SMILES IDX 15 27 20 28 21 29 22 30 29 32 30 33 31 34 32 35 33 36 34 37
REMARK SMILES IDX 35 38 57 43 58 44 59 45 60 46 61 47 62 49 66 50 67 51 68 52
REMARK SMILES IDX 69 53 70 54 71 55 2 56 1 57 3 58 4 59 5 60 6 62 7 63 63 65
REMARK SMILES IDX 64 66 65 67 40 69 41 70 42 71 44 72 43 73 45 74 46 75 47 76
REMARK SMILES IDX 55 77 56 78 48 79 49 80 50 81 54 82 51 83 53 84 52 85
REMARK H PARENT 38 5 27 10 18 17 10 22 22 31 34 39 34 40 35 41 35 42 61 48
REMARK H PARENT 5 61 65 68
REMARK Flexibility Score:  369.900
ROOT
ATOM      1  C   UNL     1       6.694  10.759   1.456  1.00  0.00     0.117 C 
ENDROOT
BRANCH   1   2
ATOM      2  N   UNL     1       7.150   9.876   2.529  1.00  0.00    -0.347 N 
ATOM      3  O   UNL     1       8.164   8.288   1.218  1.00  0.00    -0.273 OA
ATOM      4  C   UNL     1       7.931   8.754   2.328  1.00  0.00     0.243 C 
ATOM      5  H   UNL     1       6.934  10.108   3.487  1.00  0.00     0.164 HD
BRANCH   4   6
ATOM      6  C   UNL     1       8.349   8.042   3.640  1.00  0.00     0.171 C 
BRANCH   6   7
ATOM      7  N   UNL     1       7.161   7.580   4.376  1.00  0.00    -0.344 N 
ATOM      8  C   UNL     1       7.161   7.536   5.753  1.00  0.00     0.226 C 
ATOM      9  O   UNL     1       8.136   7.850   6.424  1.00  0.00    -0.275 OA
ATOM     10  H   UNL     1       6.359   7.248   3.854  1.00  0.00     0.164 HD
BRANCH   8  11
ATOM     11  C   UNL     1       5.844   7.090   6.364  1.00  0.00     0.109 C 
ATOM     12  C   UNL     1       4.673   7.614   5.532  1.00  0.00     0.021 C 
BRANCH  11  13
ATOM     13  C   UNL     1       5.857   5.563   6.575  1.00  0.00     0.204 C 
BRANCH  13  14
ATOM     14  N   UNL     1       7.007   5.126   7.373  1.00  0.00    -0.340 N 
ATOM     15  C   UNL     1       7.580   3.880   7.241  1.00  0.00     0.243 C 
ATOM     16  O   UNL     1       7.204   3.066   6.398  1.00  0.00    -0.273 OA
ATOM     17  H   UNL     1       7.268   5.689   8.187  1.00  0.00     0.164 HD
BRANCH  15  18
ATOM     18  C   UNL     1       8.640   3.568   8.326  1.00  0.00     0.171 C 
BRANCH  18  19
ATOM     19  N   UNL     1       8.040   2.584   9.226  1.00  0.00    -0.343 N 
ATOM     20  C   UNL     1       8.126   2.705  10.599  1.00  0.00     0.242 CG0
ATOM     21  O   UNL     1       8.822   3.570  11.126  1.00  0.00    -0.273 OA
ATOM     22  H   UNL     1       7.551   1.786   8.836  1.00  0.00     0.164 HD
ATOM     23  G   UNL     1       7.366   1.616  11.383  1.00  0.00     0.000 G0
ENDBRANCH  18  19
BRANCH  18  24
ATOM     24  C   UNL     1       9.927   3.033   7.687  1.00  0.00     0.038 C 
BRANCH  24  25
ATOM     25  C   UNL     1      11.042   4.085   7.508  1.00  0.00    -0.015 C 
ATOM     26  C   UNL     1      12.382   3.458   7.121  1.00  0.00     0.007 C 
ATOM     27  C   UNL     1      11.204   4.890   8.800  1.00  0.00     0.007 C 
ENDBRANCH  24  25
ENDBRANCH  18  24
ENDBRANCH  15  18
ENDBRANCH  13  14
BRANCH  13  28
ATOM     28  C   UNL     1       4.597   5.038   7.269  1.00  0.00     0.327 C 
ATOM     29  O   UNL     1       4.071   5.511   8.265  1.00  0.00    -0.250 OA
BRANCH  28  30
ATOM     30  O   UNL     1       4.144   3.883   6.741  1.00  0.00    -0.480 OA
ATOM     31  H   UNL     1       4.023   3.295   7.515  1.00  0.00     0.296 HD
ENDBRANCH  28  30
ENDBRANCH  13  28
ENDBRANCH  11  13
ENDBRANCH   8  11
ENDBRANCH   6   7
BRANCH   6  32
ATOM     32  C   UNL     1       9.274   6.868   3.302  1.00  0.00     0.037 C 
BRANCH  32  33
ATOM     33  C   UNL     1      10.733   7.151   3.687  1.00  0.00     0.026 C 
BRANCH  33  34
ATOM     34  C   UNL     1      11.633   7.344   2.466  1.00  0.00     0.146 C 
BRANCH  34  35
ATOM     35  N   UNL     1      11.548   8.733   2.036  1.00  0.00    -0.254 NA
ATOM     36  C   UNL     1      11.736   9.006   0.798  1.00  0.00     0.185 C 
ATOM     37  N   UNL     1      11.655  10.281   0.390  1.00  0.00    -0.370 N 
ATOM     38  N   UNL     1      12.016   8.170  -0.218  1.00  0.00    -0.370 N 
ATOM     39  H   UNL     1      11.436  10.972   1.097  1.00  0.00     0.159 HD
ATOM     40  H   UNL     1      11.616  10.554  -0.577  1.00  0.00     0.159 HD
ATOM     41  H   UNL     1      12.280   8.521  -1.124  1.00  0.00     0.159 HD
ATOM     42  H   UNL     1      12.122   7.181  -0.054  1.00  0.00     0.159 HD
ENDBRANCH  34  35
ENDBRANCH  33  34
ENDBRANCH  32  33
ENDBRANCH   6  32
ENDBRANCH   4   6
ENDBRANCH   1   2
BRANCH   1  43
ATOM     43  C   UNL     1       7.859  11.717   1.074  1.00  0.00     0.102 C 
ATOM     44  C   UNL     1       7.578  13.190   1.416  1.00  0.00     0.020 C 
BRANCH  43  45
ATOM     45  C   UNL     1       8.306  11.489  -0.373  1.00  0.00     0.225 C 
ATOM     46  O   UNL     1       8.951  12.315  -1.014  1.00  0.00    -0.275 OA
ATOM     47  N   UNL     1       7.858  10.326  -0.956  1.00  0.00    -0.342 N 
ATOM     48  H   UNL     1       7.464   9.597  -0.378  1.00  0.00     0.164 HD
BRANCH  47  49
ATOM     49  C   UNL     1       8.236   9.959  -2.324  1.00  0.00     0.192 C 
BRANCH  49  50
ATOM     50  C   UNL     1       7.176   9.028  -2.918  1.00  0.00     0.047 C 
BRANCH  50  51
ATOM     51  C   UNL     1       6.377   8.290  -1.836  1.00  0.00     0.103 C 
BRANCH  51  52
ATOM     52  C   UNL     1       4.870   8.466  -2.015  1.00  0.00     0.226 C 
ATOM     53  O   UNL     1       4.368   9.585  -1.895  1.00  0.00    -0.275 OA
BRANCH  52  54
ATOM     54  N   UNL     1       4.145   7.319  -2.390  1.00  0.00    -0.311 N 
ATOM     55  C   UNL     1       4.343   6.039  -1.696  1.00  0.00     0.153 C 
BRANCH  54  56
ATOM     56  C   UNL     1       3.205   7.355  -3.433  1.00  0.00     0.102 C 
ATOM     57  C   UNL     1       1.882   7.522  -3.269  1.00  0.00     0.043 C 
BRANCH  56  58
ATOM     58  C   UNL     1       3.642   7.249  -4.875  1.00  0.00     0.268 C 
ATOM     59  O   UNL     1       4.396   6.376  -5.283  1.00  0.00    -0.268 OA
ATOM     60  N   UNL     1       3.057   8.190  -5.688  1.00  0.00    -0.339 N 
ATOM     61  H   UNL     1       2.451   8.886  -5.269  1.00  0.00     0.164 HD
BRANCH  60  62
ATOM     62  C   UNL     1       3.293   8.228  -7.130  1.00  0.00     0.168 CG0
ATOM     63  C   UNL     1       4.723   8.651  -7.440  1.00  0.00     0.041 C 
ATOM     64  G   UNL     1       2.284   9.188  -7.794  1.00  0.00     0.000 G0
ENDBRANCH  60  62
ENDBRANCH  56  58
ENDBRANCH  54  56
ENDBRANCH  52  54
ENDBRANCH  51  52
ENDBRANCH  50  51
ENDBRANCH  49  50
BRANCH  49  65
ATOM     65  C   UNL     1       9.605   9.263  -2.366  1.00  0.00     0.326 C 
ATOM     66  O   UNL     1       9.790   8.056  -2.328  1.00  0.00    -0.250 OA
BRANCH  65  67
ATOM     67  O   UNL     1      10.664  10.103  -2.392  1.00  0.00    -0.480 OA
ATOM     68  H   UNL     1      10.591  10.593  -1.544  1.00  0.00     0.296 HD
ENDBRANCH  65  67
ENDBRANCH  49  65
ENDBRANCH  47  49
ENDBRANCH  43  45
ENDBRANCH   1  43
BRANCH   1  69
ATOM     69  C   UNL     1       5.380  11.355   1.927  1.00  0.00    -0.001 C 
ATOM     70  C   UNL     1       4.534  10.847   2.841  1.00  0.00     0.001 C 
BRANCH  70  71
ATOM     71  C   UNL     1       3.278  11.442   3.303  1.00  0.00    -0.055 C 
ATOM     72  C   UNL     1       2.593  10.792   4.267  1.00  0.00    -0.018 C 
ATOM     73  C   UNL     1       2.844  12.742   2.676  1.00  0.00     0.044 C 
BRANCH  72  74
ATOM     74  C   UNL     1       1.279  11.169   4.935  1.00  0.00     0.038 C 
ATOM     75  C   UNL     1       1.621  12.042   6.148  1.00  0.00     0.015 C 
BRANCH  74  76
ATOM     76  C   UNL     1       0.495   9.865   5.270  1.00  0.00     0.128 C 
BRANCH  76  77
ATOM     77  O   UNL     1      -0.705  10.186   5.994  1.00  0.00    -0.381 OA
ATOM     78  C   UNL     1      -1.802  10.529   5.159  1.00  0.00     0.195 C 
ENDBRANCH  76  77
BRANCH  76  79
ATOM     79  C   UNL     1       0.230   8.958   4.042  1.00  0.00     0.068 C 
BRANCH  79  80
ATOM     80  C   UNL     1       1.023   7.680   3.923  1.00  0.00    -0.045 A 
ATOM     81  C   UNL     1       1.884   7.463   2.838  1.00  0.00     0.004 A 
ATOM     82  C   UNL     1       0.889   6.671   4.889  1.00  0.00     0.004 A 
ATOM     83  C   UNL     1       2.604   6.271   2.728  1.00  0.00     0.000 A 
ATOM     84  C   UNL     1       1.609   5.480   4.777  1.00  0.00     0.000 A 
ATOM     85  C   UNL     1       2.467   5.281   3.698  1.00  0.00     0.000 A 
ENDBRANCH  79  80
ENDBRANCH  76  79
ENDBRANCH  74  76
ENDBRANCH  72  74
ENDBRANCH  70  71
ENDBRANCH   1  69
TORSDOF 17
ENDMDL
MODEL 45
REMARK VINA RESULT:    -4.941      3.977      6.816
REMARK INTER + INTRA:         -23.820
REMARK INTER:                 -16.169
REMARK INTRA:                  -7.651
REMARK UNBOUND:                -9.057
REMARK SMILES C=C1C(=O)N[C@H](C)C(=O)N[C@@H](CC(C)C)C(=O)N[C@@H](C(=O)O)[C@H](C)C(=O)N[C@@H](CCCN=C(N)N)C(=O)N[C@@H](/C=C/C(C)=C/[C@H](C)[C@H](Cc2ccccc2)OC)[C@H](C)C(=O)N[C@@H](C(=O)O)CCC(=O)N1C
REMARK SMILES IDX 39 1 38 2 37 3 36 4 28 6 27 7 25 8 26 9 23 11 24 12 19 13
REMARK SMILES IDX 18 14 16 15 17 16 11 18 10 19 8 20 9 21 12 24 13 25 14 26
REMARK SMILES IDX 15 27 20 28 21 29 22 30 29 32 30 33 31 34 32 35 33 36 34 37
REMARK SMILES IDX 35 38 57 43 58 44 59 45 60 46 61 47 62 49 66 50 67 51 68 52
REMARK SMILES IDX 69 53 70 54 71 55 2 56 1 57 3 58 4 59 5 60 6 62 7 63 63 65
REMARK SMILES IDX 64 66 65 67 40 69 41 70 42 71 44 72 43 73 45 74 46 75 47 76
REMARK SMILES IDX 55 77 56 78 48 79 49 80 50 81 54 82 51 83 53 84 52 85
REMARK H PARENT 38 5 27 10 18 17 10 22 22 31 34 39 34 40 35 41 35 42 61 48
REMARK H PARENT 5 61 65 68
REMARK Flexibility Score:  369.900
ROOT
ATOM      1  C   UNL     1       2.377   6.565   6.329  1.00  0.00     0.117 C 
ENDROOT
BRANCH   1   2
ATOM      2  N   UNL     1       2.005   6.862   7.713  1.00  0.00    -0.347 N 
ATOM      3  O   UNL     1       3.654   8.397   8.156  1.00  0.00    -0.273 OA
ATOM      4  C   UNL     1       2.620   7.826   8.489  1.00  0.00     0.243 C 
ATOM      5  H   UNL     1       1.223   6.381   8.129  1.00  0.00     0.164 HD
BRANCH   4   6
ATOM      6  C   UNL     1       1.979   8.002   9.889  1.00  0.00     0.171 C 
BRANCH   6   7
ATOM      7  N   UNL     1       2.714   7.216  10.893  1.00  0.00    -0.344 N 
ATOM      8  C   UNL     1       2.412   5.888  11.104  1.00  0.00     0.226 C 
ATOM      9  O   UNL     1       1.521   5.308  10.495  1.00  0.00    -0.275 OA
ATOM     10  H   UNL     1       3.412   7.677  11.463  1.00  0.00     0.164 HD
BRANCH   8  11
ATOM     11  C   UNL     1       3.294   5.202  12.132  1.00  0.00     0.109 C 
ATOM     12  C   UNL     1       4.760   5.278  11.703  1.00  0.00     0.021 C 
BRANCH  11  13
ATOM     13  C   UNL     1       2.999   5.770  13.535  1.00  0.00     0.204 C 
BRANCH  13  14
ATOM     14  N   UNL     1       1.570   6.027  13.736  1.00  0.00    -0.340 N 
ATOM     15  C   UNL     1       1.095   7.133  14.407  1.00  0.00     0.243 C 
ATOM     16  O   UNL     1       1.838   8.016  14.832  1.00  0.00    -0.273 OA
ATOM     17  H   UNL     1       0.913   5.266  13.544  1.00  0.00     0.164 HD
BRANCH  15  18
ATOM     18  C   UNL     1      -0.429   7.087  14.677  1.00  0.00     0.171 C 
BRANCH  18  19
ATOM     19  N   UNL     1      -0.596   7.056  16.129  1.00  0.00    -0.343 N 
ATOM     20  C   UNL     1      -0.322   5.922  16.870  1.00  0.00     0.242 CG0
ATOM     21  O   UNL     1      -0.055   4.851  16.332  1.00  0.00    -0.273 OA
ATOM     22  H   UNL     1      -0.927   7.885  16.609  1.00  0.00     0.164 HD
ATOM     23  G   UNL     1      -0.481   6.104  18.394  1.00  0.00     0.000 G0
ENDBRANCH  18  19
BRANCH  18  24
ATOM     24  C   UNL     1      -1.126   8.303  14.057  1.00  0.00     0.038 C 
BRANCH  24  25
ATOM     25  C   UNL     1      -2.017   7.984  12.838  1.00  0.00    -0.015 C 
ATOM     26  C   UNL     1      -1.226   7.379  11.678  1.00  0.00     0.007 C 
ATOM     27  C   UNL     1      -2.725   9.258  12.370  1.00  0.00     0.007 C 
ENDBRANCH  24  25
ENDBRANCH  18  24
ENDBRANCH  15  18
ENDBRANCH  13  14
BRANCH  13  28
ATOM     28  C   UNL     1       3.459   4.849  14.669  1.00  0.00     0.327 C 
ATOM     29  O   UNL     1       4.574   4.815  15.165  1.00  0.00    -0.250 OA
BRANCH  28  30
ATOM     30  O   UNL     1       2.524   3.946  15.028  1.00  0.00    -0.480 OA
ATOM     31  H   UNL     1       1.673   4.410  14.885  1.00  0.00     0.296 HD
ENDBRANCH  28  30
ENDBRANCH  13  28
ENDBRANCH  11  13
ENDBRANCH   8  11
ENDBRANCH   6   7
BRANCH   6  32
ATOM     32  C   UNL     1       1.973   9.490  10.256  1.00  0.00     0.037 C 
BRANCH  32  33
ATOM     33  C   UNL     1       1.968   9.711  11.775  1.00  0.00     0.026 C 
BRANCH  33  34
ATOM     34  C   UNL     1       0.883  10.693  12.220  1.00  0.00     0.146 C 
BRANCH  34  35
ATOM     35  N   UNL     1       1.516  11.821  12.889  1.00  0.00    -0.254 NA
ATOM     36  C   UNL     1       1.549  11.836  14.170  1.00  0.00     0.185 C 
ATOM     37  N   UNL     1       2.134  12.868  14.797  1.00  0.00    -0.370 N 
ATOM     38  N   UNL     1       1.064  10.930  15.038  1.00  0.00    -0.370 N 
ATOM     39  H   UNL     1       2.534  13.588  14.210  1.00  0.00     0.159 HD
ATOM     40  H   UNL     1       2.353  12.870  15.778  1.00  0.00     0.159 HD
ATOM     41  H   UNL     1       1.028  11.123  16.025  1.00  0.00     0.159 HD
ATOM     42  H   UNL     1       0.583  10.109  14.706  1.00  0.00     0.159 HD
ENDBRANCH  34  35
ENDBRANCH  33  34
ENDBRANCH  32  33
ENDBRANCH   6  32
ENDBRANCH   4   6
ENDBRANCH   1   2
BRANCH   1  43
ATOM     43  C   UNL     1       1.082   6.523   5.467  1.00  0.00     0.102 C 
ATOM     44  C   UNL     1       1.226   5.681   4.188  1.00  0.00     0.020 C 
BRANCH  43  45
ATOM     45  C   UNL     1       0.538   7.934   5.224  1.00  0.00     0.225 C 
ATOM     46  O   UNL     1      -0.661   8.202   5.236  1.00  0.00    -0.275 OA
ATOM     47  N   UNL     1       1.478   8.883   4.894  1.00  0.00    -0.342 N 
ATOM     48  H   UNL     1       2.458   8.687   5.037  1.00  0.00     0.164 HD
BRANCH  47  49
ATOM     49  C   UNL     1       1.106  10.284   4.669  1.00  0.00     0.192 C 
BRANCH  49  50
ATOM     50  C   UNL     1       2.150  10.955   3.773  1.00  0.00     0.047 C 
BRANCH  50  51
ATOM     51  C   UNL     1       3.283   9.997   3.381  1.00  0.00     0.103 C 
BRANCH  51  52
ATOM     52  C   UNL     1       3.793  10.260   1.965  1.00  0.00     0.226 C 
ATOM     53  O   UNL     1       3.650  11.377   1.463  1.00  0.00    -0.275 OA
BRANCH  52  54
ATOM     54  N   UNL     1       4.478   9.203   1.339  1.00  0.00    -0.311 N 
ATOM     55  C   UNL     1       5.928   9.038   1.505  1.00  0.00     0.153 C 
BRANCH  54  56
ATOM     56  C   UNL     1       3.803   8.265   0.540  1.00  0.00     0.102 C 
ATOM     57  C   UNL     1       3.277   7.113   0.985  1.00  0.00     0.043 C 
BRANCH  56  58
ATOM     58  C   UNL     1       3.576   8.522  -0.931  1.00  0.00     0.268 C 
ATOM     59  O   UNL     1       4.032   9.493  -1.520  1.00  0.00    -0.268 OA
ATOM     60  N   UNL     1       2.862   7.523  -1.550  1.00  0.00    -0.339 N 
ATOM     61  H   UNL     1       2.510   6.757  -0.989  1.00  0.00     0.164 HD
BRANCH  60  62
ATOM     62  C   UNL     1       2.582   7.540  -2.985  1.00  0.00     0.168 CG0
ATOM     63  C   UNL     1       3.650   6.777  -3.760  1.00  0.00     0.041 C 
ATOM     64  G   UNL     1       2.490   9.000  -3.476  1.00  0.00     0.000 G0
ENDBRANCH  60  62
ENDBRANCH  56  58
ENDBRANCH  54  56
ENDBRANCH  52  54
ENDBRANCH  51  52
ENDBRANCH  50  51
ENDBRANCH  49  50
BRANCH  49  65
ATOM     65  C   UNL     1       0.995  11.060   5.991  1.00  0.00     0.326 C 
ATOM     66  O   UNL     1       0.274  12.027   6.189  1.00  0.00    -0.250 OA
BRANCH  65  67
ATOM     67  O   UNL     1       1.825  10.632   6.967  1.00  0.00    -0.480 OA
ATOM     68  H   UNL     1       1.224  10.462   7.724  1.00  0.00     0.296 HD
ENDBRANCH  65  67
ENDBRANCH  49  65
ENDBRANCH  47  49
ENDBRANCH  43  45
ENDBRANCH   1  43
BRANCH   1  69
ATOM     69  C   UNL     1       3.261   5.333   6.383  1.00  0.00    -0.001 C 
ATOM     70  C   UNL     1       3.302   4.398   7.349  1.00  0.00     0.001 C 
BRANCH  70  71
ATOM     71  C   UNL     1       4.145   3.201   7.380  1.00  0.00    -0.055 C 
ATOM     72  C   UNL     1       4.990   3.056   8.423  1.00  0.00    -0.018 C 
ATOM     73  C   UNL     1       4.005   2.214   6.251  1.00  0.00     0.044 C 
BRANCH  72  74
ATOM     74  C   UNL     1       5.970   1.930   8.718  1.00  0.00     0.038 C 
ATOM     75  C   UNL     1       5.517   1.266  10.024  1.00  0.00     0.015 C 
BRANCH  74  76
ATOM     76  C   UNL     1       7.413   2.516   8.750  1.00  0.00     0.128 C 
BRANCH  76  77
ATOM     77  O   UNL     1       7.963   2.395  10.072  1.00  0.00    -0.381 OA
ATOM     78  C   UNL     1       8.339   3.638  10.650  1.00  0.00     0.195 C 
ENDBRANCH  76  77
BRANCH  76  79
ATOM     79  C   UNL     1       8.349   1.943   7.656  1.00  0.00     0.068 C 
BRANCH  79  80
ATOM     80  C   UNL     1       7.771   0.944   6.683  1.00  0.00    -0.045 A 
ATOM     81  C   UNL     1       7.399   1.329   5.388  1.00  0.00     0.004 A 
ATOM     82  C   UNL     1       7.571  -0.389   7.073  1.00  0.00     0.004 A 
ATOM     83  C   UNL     1       6.852   0.402   4.499  1.00  0.00     0.000 A 
ATOM     84  C   UNL     1       7.024  -1.315   6.183  1.00  0.00     0.000 A 
ATOM     85  C   UNL     1       6.666  -0.920   4.896  1.00  0.00     0.000 A 
ENDBRANCH  79  80
ENDBRANCH  76  79
ENDBRANCH  74  76
ENDBRANCH  72  74
ENDBRANCH  70  71
ENDBRANCH   1  69
TORSDOF 17
ENDMDL
MODEL 46
REMARK VINA RESULT:    -4.939     14.108     17.103
REMARK INTER + INTRA:         -23.811
REMARK INTER:                 -16.683
REMARK INTRA:                  -7.129
REMARK UNBOUND:                -9.057
REMARK SMILES C=C1C(=O)N[C@H](C)C(=O)N[C@@H](CC(C)C)C(=O)N[C@@H](C(=O)O)[C@H](C)C(=O)N[C@@H](CCCN=C(N)N)C(=O)N[C@@H](/C=C/C(C)=C/[C@H](C)[C@H](Cc2ccccc2)OC)[C@H](C)C(=O)N[C@@H](C(=O)O)CCC(=O)N1C
REMARK SMILES IDX 39 1 38 2 37 3 36 4 28 6 27 7 25 8 26 9 23 11 24 12 19 13
REMARK SMILES IDX 18 14 16 15 17 16 11 18 10 19 8 20 9 21 12 24 13 25 14 26
REMARK SMILES IDX 15 27 20 28 21 29 22 30 29 32 30 33 31 34 32 35 33 36 34 37
REMARK SMILES IDX 35 38 57 43 58 44 59 45 60 46 61 47 62 49 66 50 67 51 68 52
REMARK SMILES IDX 69 53 70 54 71 55 2 56 1 57 3 58 4 59 5 60 6 62 7 63 63 65
REMARK SMILES IDX 64 66 65 67 40 69 41 70 42 71 44 72 43 73 45 74 46 75 47 76
REMARK SMILES IDX 55 77 56 78 48 79 49 80 50 81 54 82 51 83 53 84 52 85
REMARK H PARENT 38 5 27 10 18 17 10 22 22 31 34 39 34 40 35 41 35 42 61 48
REMARK H PARENT 5 61 65 68
REMARK Flexibility Score:  369.900
ROOT
ATOM      1  C   UNL     1       3.251  -6.738   8.810  1.00  0.00     0.117 C 
ENDROOT
BRANCH   1   2
ATOM      2  N   UNL     1       2.344  -6.339   9.887  1.00  0.00    -0.347 N 
ATOM      3  O   UNL     1       0.394  -6.358   8.678  1.00  0.00    -0.273 OA
ATOM      4  C   UNL     1       0.971  -6.270   9.756  1.00  0.00     0.243 C 
ATOM      5  H   UNL     1       2.720  -6.146  10.804  1.00  0.00     0.164 HD
BRANCH   4   6
ATOM      6  C   UNL     1       0.237  -5.905  11.072  1.00  0.00     0.171 C 
BRANCH   6   7
ATOM      7  N   UNL     1       0.309  -4.456  11.316  1.00  0.00    -0.344 N 
ATOM      8  C   UNL     1       1.276  -3.930  12.145  1.00  0.00     0.226 C 
ATOM      9  O   UNL     1       2.097  -4.628  12.728  1.00  0.00    -0.275 OA
ATOM     10  H   UNL     1      -0.394  -3.853  10.906  1.00  0.00     0.164 HD
BRANCH   8  11
ATOM     11  C   UNL     1       1.253  -2.415  12.251  1.00  0.00     0.109 C 
ATOM     12  C   UNL     1       0.713  -1.805  10.958  1.00  0.00     0.021 C 
BRANCH  11  13
ATOM     13  C   UNL     1       0.500  -1.994  13.530  1.00  0.00     0.204 C 
BRANCH  13  14
ATOM     14  N   UNL     1       0.236  -3.133  14.414  1.00  0.00    -0.340 N 
ATOM     15  C   UNL     1      -1.008  -3.394  14.948  1.00  0.00     0.243 C 
ATOM     16  O   UNL     1      -1.999  -2.722  14.669  1.00  0.00    -0.273 OA
ATOM     17  H   UNL     1       1.039  -3.636  14.803  1.00  0.00     0.164 HD
BRANCH  15  18
ATOM     18  C   UNL     1      -1.001  -4.518  16.012  1.00  0.00     0.171 C 
BRANCH  18  19
ATOM     19  N   UNL     1      -1.602  -3.955  17.220  1.00  0.00    -0.343 N 
ATOM     20  C   UNL     1      -0.837  -3.365  18.208  1.00  0.00     0.242 CG0
ATOM     21  O   UNL     1       0.391  -3.406  18.181  1.00  0.00    -0.273 OA
ATOM     22  H   UNL     1      -2.607  -4.000  17.343  1.00  0.00     0.164 HD
ATOM     23  G   UNL     1      -1.653  -2.758  19.368  1.00  0.00     0.000 G0
ENDBRANCH  18  19
BRANCH  18  24
ATOM     24  C   UNL     1      -1.782  -5.740  15.514  1.00  0.00     0.038 C 
BRANCH  24  25
ATOM     25  C   UNL     1      -0.970  -7.052  15.477  1.00  0.00    -0.015 C 
ATOM     26  C   UNL     1      -0.973  -7.781  16.821  1.00  0.00     0.007 C 
ATOM     27  C   UNL     1       0.472  -6.754  15.056  1.00  0.00     0.007 C 
ENDBRANCH  24  25
ENDBRANCH  18  24
ENDBRANCH  15  18
ENDBRANCH  13  14
BRANCH  13  28
ATOM     28  C   UNL     1       1.251  -0.944  14.354  1.00  0.00     0.327 C 
ATOM     29  O   UNL     1       2.364  -1.068  14.841  1.00  0.00    -0.250 OA
BRANCH  28  30
ATOM     30  O   UNL     1       0.510   0.152  14.615  1.00  0.00    -0.480 OA
ATOM     31  H   UNL     1       1.170   0.845  14.826  1.00  0.00     0.296 HD
ENDBRANCH  28  30
ENDBRANCH  13  28
ENDBRANCH  11  13
ENDBRANCH   8  11
ENDBRANCH   6   7
BRANCH   6  32
ATOM     32  C   UNL     1      -1.220  -6.373  10.981  1.00  0.00     0.037 C 
BRANCH  32  33
ATOM     33  C   UNL     1      -1.533  -7.490  11.987  1.00  0.00     0.026 C 
BRANCH  33  34
ATOM     34  C   UNL     1      -3.014  -7.869  11.999  1.00  0.00     0.146 C 
BRANCH  34  35
ATOM     35  N   UNL     1      -3.502  -7.901  10.627  1.00  0.00    -0.254 NA
ATOM     36  C   UNL     1      -3.753  -9.037  10.090  1.00  0.00     0.185 C 
ATOM     37  N   UNL     1      -4.207  -9.078   8.828  1.00  0.00    -0.370 N 
ATOM     38  N   UNL     1      -3.627 -10.267  10.619  1.00  0.00    -0.370 N 
ATOM     39  H   UNL     1      -4.338  -8.189   8.364  1.00  0.00     0.159 HD
ATOM     40  H   UNL     1      -4.588  -9.905   8.401  1.00  0.00     0.159 HD
ATOM     41  H   UNL     1      -3.724 -11.092  10.049  1.00  0.00     0.159 HD
ATOM     42  H   UNL     1      -3.280 -10.389  11.558  1.00  0.00     0.159 HD
ENDBRANCH  34  35
ENDBRANCH  33  34
ENDBRANCH  32  33
ENDBRANCH   6  32
ENDBRANCH   4   6
ENDBRANCH   1   2
BRANCH   1  43
ATOM     43  C   UNL     1       4.540  -7.337   9.444  1.00  0.00     0.102 C 
ATOM     44  C   UNL     1       5.663  -7.589   8.424  1.00  0.00     0.020 C 
BRANCH  43  45
ATOM     45  C   UNL     1       4.210  -8.550  10.319  1.00  0.00     0.225 C 
ATOM     46  O   UNL     1       4.586  -8.661  11.482  1.00  0.00    -0.275 OA
ATOM     47  N   UNL     1       3.536  -9.570   9.687  1.00  0.00    -0.342 N 
ATOM     48  H   UNL     1       3.105  -9.404   8.788  1.00  0.00     0.164 HD
BRANCH  47  49
ATOM     49  C   UNL     1       3.122 -10.778  10.408  1.00  0.00     0.192 C 
BRANCH  49  50
ATOM     50  C   UNL     1       3.095 -11.968   9.446  1.00  0.00     0.047 C 
BRANCH  50  51
ATOM     51  C   UNL     1       4.414 -12.753   9.454  1.00  0.00     0.103 C 
BRANCH  51  52
ATOM     52  C   UNL     1       4.797 -13.246   8.060  1.00  0.00     0.226 C 
ATOM     53  O   UNL     1       4.778 -14.453   7.813  1.00  0.00    -0.275 OA
BRANCH  52  54
ATOM     54  N   UNL     1       5.082 -12.255   7.101  1.00  0.00    -0.311 N 
ATOM     55  C   UNL     1       6.086 -11.216   7.364  1.00  0.00     0.153 C 
BRANCH  54  56
ATOM     56  C   UNL     1       4.424 -12.226   5.861  1.00  0.00     0.102 C 
ATOM     57  C   UNL     1       3.259 -11.600   5.623  1.00  0.00     0.043 C 
BRANCH  56  58
ATOM     58  C   UNL     1       5.030 -12.887   4.646  1.00  0.00     0.268 C 
ATOM     59  O   UNL     1       5.174 -14.098   4.544  1.00  0.00    -0.268 OA
ATOM     60  N   UNL     1       5.342 -11.998   3.645  1.00  0.00    -0.339 N 
ATOM     61  H   UNL     1       5.202 -11.009   3.812  1.00  0.00     0.164 HD
BRANCH  60  62
ATOM     62  C   UNL     1       5.882 -12.432   2.357  1.00  0.00     0.168 CG0
ATOM     63  C   UNL     1       6.268 -11.236   1.495  1.00  0.00     0.041 C 
ATOM     64  G   UNL     1       4.845 -13.315   1.633  1.00  0.00     0.000 G0
ENDBRANCH  60  62
ENDBRANCH  56  58
ENDBRANCH  54  56
ENDBRANCH  52  54
ENDBRANCH  51  52
ENDBRANCH  50  51
ENDBRANCH  49  50
BRANCH  49  65
ATOM     65  C   UNL     1       1.736 -10.609  11.048  1.00  0.00     0.326 C 
ATOM     66  O   UNL     1       1.094 -11.493  11.596  1.00  0.00    -0.250 OA
BRANCH  65  67
ATOM     67  O   UNL     1       1.201  -9.375  10.918  1.00  0.00    -0.480 OA
ATOM     68  H   UNL     1       0.780  -9.397  10.032  1.00  0.00     0.296 HD
ENDBRANCH  65  67
ENDBRANCH  49  65
ENDBRANCH  47  49
ENDBRANCH  43  45
ENDBRANCH   1  43
BRANCH   1  69
ATOM     69  C   UNL     1       3.375  -5.535   7.893  1.00  0.00    -0.001 C 
ATOM     70  C   UNL     1       2.955  -5.432   6.620  1.00  0.00     0.001 C 
BRANCH  70  71
ATOM     71  C   UNL     1       3.061  -4.258   5.752  1.00  0.00    -0.055 C 
ATOM     72  C   UNL     1       4.129  -3.448   5.918  1.00  0.00    -0.018 C 
ATOM     73  C   UNL     1       1.977  -4.040   4.728  1.00  0.00     0.044 C 
BRANCH  72  74
ATOM     74  C   UNL     1       4.499  -2.176   5.169  1.00  0.00     0.038 C 
ATOM     75  C   UNL     1       5.787  -2.469   4.390  1.00  0.00     0.015 C 
BRANCH  74  76
ATOM     76  C   UNL     1       4.605  -1.006   6.191  1.00  0.00     0.128 C 
BRANCH  76  77
ATOM     77  O   UNL     1       4.618   0.252   5.496  1.00  0.00    -0.381 OA
ATOM     78  C   UNL     1       4.030   1.317   6.231  1.00  0.00     0.195 C 
ENDBRANCH  76  77
BRANCH  76  79
ATOM     79  C   UNL     1       3.543  -1.057   7.318  1.00  0.00     0.068 C 
BRANCH  79  80
ATOM     80  C   UNL     1       4.024  -1.279   8.732  1.00  0.00    -0.045 A 
ATOM     81  C   UNL     1       4.542  -0.222   9.493  1.00  0.00     0.004 A 
ATOM     82  C   UNL     1       3.985  -2.562   9.299  1.00  0.00     0.004 A 
ATOM     83  C   UNL     1       4.998  -0.438  10.795  1.00  0.00     0.000 A 
ATOM     84  C   UNL     1       4.441  -2.777  10.602  1.00  0.00     0.000 A 
ATOM     85  C   UNL     1       4.946  -1.715  11.349  1.00  0.00     0.000 A 
ENDBRANCH  79  80
ENDBRANCH  76  79
ENDBRANCH  74  76
ENDBRANCH  72  74
ENDBRANCH  70  71
ENDBRANCH   1  69
TORSDOF 17
ENDMDL
MODEL 47
REMARK VINA RESULT:    -4.924      1.922      2.848
REMARK INTER + INTRA:         -23.768
REMARK INTER:                 -17.432
REMARK INTRA:                  -6.336
REMARK UNBOUND:                -9.057
REMARK SMILES C=C1C(=O)N[C@H](C)C(=O)N[C@@H](CC(C)C)C(=O)N[C@@H](C(=O)O)[C@H](C)C(=O)N[C@@H](CCCN=C(N)N)C(=O)N[C@@H](/C=C/C(C)=C/[C@H](C)[C@H](Cc2ccccc2)OC)[C@H](C)C(=O)N[C@@H](C(=O)O)CCC(=O)N1C
REMARK SMILES IDX 39 1 38 2 37 3 36 4 28 6 27 7 25 8 26 9 23 11 24 12 19 13
REMARK SMILES IDX 18 14 16 15 17 16 11 18 10 19 8 20 9 21 12 24 13 25 14 26
REMARK SMILES IDX 15 27 20 28 21 29 22 30 29 32 30 33 31 34 32 35 33 36 34 37
REMARK SMILES IDX 35 38 57 43 58 44 59 45 60 46 61 47 62 49 66 50 67 51 68 52
REMARK SMILES IDX 69 53 70 54 71 55 2 56 1 57 3 58 4 59 5 60 6 62 7 63 63 65
REMARK SMILES IDX 64 66 65 67 40 69 41 70 42 71 44 72 43 73 45 74 46 75 47 76
REMARK SMILES IDX 55 77 56 78 48 79 49 80 50 81 54 82 51 83 53 84 52 85
REMARK H PARENT 38 5 27 10 18 17 10 22 22 31 34 39 34 40 35 41 35 42 61 48
REMARK H PARENT 5 61 65 68
REMARK Flexibility Score:  369.900
ROOT
ATOM      1  C   UNL     1       1.233  11.525   4.573  1.00  0.00     0.117 C 
ENDROOT
BRANCH   1   2
ATOM      2  N   UNL     1       1.438  11.433   6.019  1.00  0.00    -0.347 N 
ATOM      3  O   UNL     1       3.725  11.632   6.024  1.00  0.00    -0.273 OA
ATOM      4  C   UNL     1       2.664  11.587   6.638  1.00  0.00     0.243 C 
ATOM      5  H   UNL     1       0.642  11.299   6.624  1.00  0.00     0.164 HD
BRANCH   4   6
ATOM      6  C   UNL     1       2.593  11.530   8.185  1.00  0.00     0.171 C 
BRANCH   6   7
ATOM      7  N   UNL     1       3.144  10.257   8.679  1.00  0.00    -0.344 N 
ATOM      8  C   UNL     1       2.436   9.083   8.538  1.00  0.00     0.226 C 
ATOM      9  O   UNL     1       1.324   9.040   8.025  1.00  0.00    -0.275 OA
ATOM     10  H   UNL     1       4.030  10.264   9.168  1.00  0.00     0.164 HD
BRANCH   8  11
ATOM     11  C   UNL     1       3.162   7.851   9.048  1.00  0.00     0.109 C 
ATOM     12  C   UNL     1       4.583   8.217   9.476  1.00  0.00     0.021 C 
BRANCH  11  13
ATOM     13  C   UNL     1       2.315   7.159  10.134  1.00  0.00     0.204 C 
BRANCH  13  14
ATOM     14  N   UNL     1       1.277   8.044  10.671  1.00  0.00    -0.340 N 
ATOM     15  C   UNL     1       1.196   8.379  12.006  1.00  0.00     0.243 C 
ATOM     16  O   UNL     1       2.027   8.006  12.832  1.00  0.00    -0.273 OA
ATOM     17  H   UNL     1       0.476   8.263  10.074  1.00  0.00     0.164 HD
BRANCH  15  18
ATOM     18  C   UNL     1      -0.095   9.151  12.373  1.00  0.00     0.171 C 
BRANCH  18  19
ATOM     19  N   UNL     1      -0.891   8.260  13.215  1.00  0.00    -0.343 N 
ATOM     20  C   UNL     1      -1.670   7.254  12.678  1.00  0.00     0.242 CG0
ATOM     21  O   UNL     1      -1.835   7.145  11.465  1.00  0.00    -0.273 OA
ATOM     22  H   UNL     1      -0.879   8.385  14.221  1.00  0.00     0.164 HD
ATOM     23  G   UNL     1      -2.375   6.367  13.726  1.00  0.00     0.000 G0
ENDBRANCH  18  19
BRANCH  18  24
ATOM     24  C   UNL     1       0.244  10.458  13.100  1.00  0.00     0.038 C 
BRANCH  24  25
ATOM     25  C   UNL     1      -0.414  10.613  14.488  1.00  0.00    -0.015 C 
ATOM     26  C   UNL     1      -1.218  11.907  14.613  1.00  0.00     0.007 C 
ATOM     27  C   UNL     1       0.662  10.567  15.576  1.00  0.00     0.007 C 
ENDBRANCH  24  25
ENDBRANCH  18  24
ENDBRANCH  15  18
ENDBRANCH  13  14
BRANCH  13  28
ATOM     28  C   UNL     1       1.616   5.890   9.637  1.00  0.00     0.327 C 
ATOM     29  O   UNL     1       1.744   4.766  10.099  1.00  0.00    -0.250 OA
BRANCH  28  30
ATOM     30  O   UNL     1       0.891   6.089   8.518  1.00  0.00    -0.480 OA
ATOM     31  H   UNL     1       0.080   6.539   8.833  1.00  0.00     0.296 HD
ENDBRANCH  28  30
ENDBRANCH  13  28
ENDBRANCH  11  13
ENDBRANCH   8  11
ENDBRANCH   6   7
BRANCH   6  32
ATOM     32  C   UNL     1       3.360  12.721   8.768  1.00  0.00     0.037 C 
BRANCH  32  33
ATOM     33  C   UNL     1       2.434  13.901   9.098  1.00  0.00     0.026 C 
BRANCH  33  34
ATOM     34  C   UNL     1       2.869  14.652  10.357  1.00  0.00     0.146 C 
BRANCH  34  35
ATOM     35  N   UNL     1       2.333  13.963  11.523  1.00  0.00    -0.254 NA
ATOM     36  C   UNL     1       3.142  13.597  12.446  1.00  0.00     0.185 C 
ATOM     37  N   UNL     1       2.659  12.966  13.528  1.00  0.00    -0.370 N 
ATOM     38  N   UNL     1       4.477  13.752  12.511  1.00  0.00    -0.370 N 
ATOM     39  H   UNL     1       1.658  12.819  13.558  1.00  0.00     0.159 HD
ATOM     40  H   UNL     1       3.194  12.804  14.363  1.00  0.00     0.159 HD
ATOM     41  H   UNL     1       5.020  13.297  13.225  1.00  0.00     0.159 HD
ATOM     42  H   UNL     1       4.978  14.197  11.758  1.00  0.00     0.159 HD
ENDBRANCH  34  35
ENDBRANCH  33  34
ENDBRANCH  32  33
ENDBRANCH   6  32
ENDBRANCH   4   6
ENDBRANCH   1   2
BRANCH   1  43
ATOM     43  C   UNL     1       0.335  10.337   4.124  1.00  0.00     0.102 C 
ATOM     44  C   UNL     1      -1.058  10.341   4.778  1.00  0.00     0.020 C 
BRANCH  43  45
ATOM     45  C   UNL     1       1.079   9.005   4.255  1.00  0.00     0.225 C 
ATOM     46  O   UNL     1       2.017   8.834   5.028  1.00  0.00    -0.275 OA
ATOM     47  N   UNL     1       0.689   8.020   3.377  1.00  0.00    -0.342 N 
ATOM     48  H   UNL     1      -0.173   8.122   2.860  1.00  0.00     0.164 HD
BRANCH  47  49
ATOM     49  C   UNL     1       1.289   6.682   3.411  1.00  0.00     0.192 C 
BRANCH  49  50
ATOM     50  C   UNL     1       1.021   5.965   2.085  1.00  0.00     0.047 C 
BRANCH  50  51
ATOM     51  C   UNL     1       2.064   6.312   1.014  1.00  0.00     0.103 C 
BRANCH  51  52
ATOM     52  C   UNL     1       1.744   5.663  -0.330  1.00  0.00     0.226 C 
ATOM     53  O   UNL     1       0.798   4.878  -0.419  1.00  0.00    -0.275 OA
BRANCH  52  54
ATOM     54  N   UNL     1       2.526   6.073  -1.426  1.00  0.00    -0.311 N 
ATOM     55  C   UNL     1       3.961   5.763  -1.490  1.00  0.00     0.153 C 
BRANCH  54  56
ATOM     56  C   UNL     1       1.966   6.785  -2.500  1.00  0.00     0.102 C 
ATOM     57  C   UNL     1       0.650   6.914  -2.733  1.00  0.00     0.043 C 
BRANCH  56  58
ATOM     58  C   UNL     1       2.844   7.524  -3.482  1.00  0.00     0.268 C 
ATOM     59  O   UNL     1       3.275   8.651  -3.279  1.00  0.00    -0.268 OA
ATOM     60  N   UNL     1       3.162   6.777  -4.591  1.00  0.00    -0.339 N 
ATOM     61  H   UNL     1       2.755   5.854  -4.690  1.00  0.00     0.164 HD
BRANCH  60  62
ATOM     62  C   UNL     1       4.051   7.277  -5.639  1.00  0.00     0.168 CG0
ATOM     63  C   UNL     1       3.260   7.952  -6.752  1.00  0.00     0.041 C 
ATOM     64  G   UNL     1       4.897   6.114  -6.197  1.00  0.00     0.000 G0
ENDBRANCH  60  62
ENDBRANCH  56  58
ENDBRANCH  54  56
ENDBRANCH  52  54
ENDBRANCH  51  52
ENDBRANCH  50  51
ENDBRANCH  49  50
BRANCH  49  65
ATOM     65  C   UNL     1       0.729   5.840   4.567  1.00  0.00     0.326 C 
ATOM     66  O   UNL     1       1.302   5.612   5.623  1.00  0.00    -0.250 OA
BRANCH  65  67
ATOM     67  O   UNL     1      -0.477   5.280   4.325  1.00  0.00    -0.480 OA
ATOM     68  H   UNL     1      -0.939   5.343   5.189  1.00  0.00     0.296 HD
ENDBRANCH  65  67
ENDBRANCH  49  65
ENDBRANCH  47  49
ENDBRANCH  43  45
ENDBRANCH   1  43
BRANCH   1  69
ATOM     69  C   UNL     1       2.612  11.676   3.958  1.00  0.00    -0.001 C 
ATOM     70  C   UNL     1       2.913  12.118   2.724  1.00  0.00     0.001 C 
BRANCH  70  71
ATOM     71  C   UNL     1       4.250  12.279   2.149  1.00  0.00    -0.055 C 
ATOM     72  C   UNL     1       4.403  12.016   0.834  1.00  0.00    -0.018 C 
ATOM     73  C   UNL     1       5.357  12.734   3.063  1.00  0.00     0.044 C 
BRANCH  72  74
ATOM     74  C   UNL     1       5.657  12.098  -0.025  1.00  0.00     0.038 C 
ATOM     75  C   UNL     1       5.526  13.352  -0.898  1.00  0.00     0.015 C 
BRANCH  74  76
ATOM     76  C   UNL     1       5.811  10.765  -0.815  1.00  0.00     0.128 C 
BRANCH  76  77
ATOM     77  O   UNL     1       6.306  11.033  -2.138  1.00  0.00    -0.381 OA
ATOM     78  C   UNL     1       7.553  10.413  -2.417  1.00  0.00     0.195 C 
ENDBRANCH  76  77
BRANCH  76  79
ATOM     79  C   UNL     1       6.638   9.685  -0.073  1.00  0.00     0.068 C 
BRANCH  79  80
ATOM     80  C   UNL     1       6.198   9.287   1.315  1.00  0.00    -0.045 A 
ATOM     81  C   UNL     1       7.012   9.531   2.429  1.00  0.00     0.004 A 
ATOM     82  C   UNL     1       4.969   8.637   1.508  1.00  0.00     0.004 A 
ATOM     83  C   UNL     1       6.604   9.146   3.708  1.00  0.00     0.000 A 
ATOM     84  C   UNL     1       4.562   8.252   2.787  1.00  0.00     0.000 A 
ATOM     85  C   UNL     1       5.378   8.508   3.886  1.00  0.00     0.000 A 
ENDBRANCH  79  80
ENDBRANCH  76  79
ENDBRANCH  74  76
ENDBRANCH  72  74
ENDBRANCH  70  71
ENDBRANCH   1  69
TORSDOF 17
ENDMDL
MODEL 48
REMARK VINA RESULT:    -4.918     10.300     15.501
REMARK INTER + INTRA:         -23.750
REMARK INTER:                 -13.535
REMARK INTRA:                 -10.214
REMARK UNBOUND:                -9.057
REMARK SMILES C=C1C(=O)N[C@H](C)C(=O)N[C@@H](CC(C)C)C(=O)N[C@@H](C(=O)O)[C@H](C)C(=O)N[C@@H](CCCN=C(N)N)C(=O)N[C@@H](/C=C/C(C)=C/[C@H](C)[C@H](Cc2ccccc2)OC)[C@H](C)C(=O)N[C@@H](C(=O)O)CCC(=O)N1C
REMARK SMILES IDX 39 1 38 2 37 3 36 4 28 6 27 7 25 8 26 9 23 11 24 12 19 13
REMARK SMILES IDX 18 14 16 15 17 16 11 18 10 19 8 20 9 21 12 24 13 25 14 26
REMARK SMILES IDX 15 27 20 28 21 29 22 30 29 32 30 33 31 34 32 35 33 36 34 37
REMARK SMILES IDX 35 38 57 43 58 44 59 45 60 46 61 47 62 49 66 50 67 51 68 52
REMARK SMILES IDX 69 53 70 54 71 55 2 56 1 57 3 58 4 59 5 60 6 62 7 63 63 65
REMARK SMILES IDX 64 66 65 67 40 69 41 70 42 71 44 72 43 73 45 74 46 75 47 76
REMARK SMILES IDX 55 77 56 78 48 79 49 80 50 81 54 82 51 83 53 84 52 85
REMARK H PARENT 38 5 27 10 18 17 10 22 22 31 34 39 34 40 35 41 35 42 61 48
REMARK H PARENT 5 61 65 68
REMARK Flexibility Score:  369.900
ROOT
ATOM      1  C   UNL     1       2.173  -2.561   9.213  1.00  0.00     0.117 C 
ENDROOT
BRANCH   1   2
ATOM      2  N   UNL     1       3.359  -1.724   9.029  1.00  0.00    -0.347 N 
ATOM      3  O   UNL     1       3.840  -2.334   6.869  1.00  0.00    -0.273 OA
ATOM      4  C   UNL     1       4.046  -1.609   7.836  1.00  0.00     0.243 C 
ATOM      5  H   UNL     1       3.682  -1.150   9.793  1.00  0.00     0.164 HD
BRANCH   4   6
ATOM      6  C   UNL     1       5.214  -0.591   7.886  1.00  0.00     0.171 C 
BRANCH   6   7
ATOM      7  N   UNL     1       4.784   0.653   8.544  1.00  0.00    -0.344 N 
ATOM      8  C   UNL     1       4.401   1.747   7.798  1.00  0.00     0.226 C 
ATOM      9  O   UNL     1       4.419   1.749   6.573  1.00  0.00    -0.275 OA
ATOM     10  H   UNL     1       4.820   0.712   9.554  1.00  0.00     0.164 HD
BRANCH   8  11
ATOM     11  C   UNL     1       3.933   2.933   8.622  1.00  0.00     0.109 C 
ATOM     12  C   UNL     1       4.175   2.669  10.108  1.00  0.00     0.021 C 
BRANCH  11  13
ATOM     13  C   UNL     1       4.571   4.228   8.081  1.00  0.00     0.204 C 
BRANCH  13  14
ATOM     14  N   UNL     1       5.842   3.972   7.396  1.00  0.00    -0.340 N 
ATOM     15  C   UNL     1       7.061   4.357   7.911  1.00  0.00     0.243 C 
ATOM     16  O   UNL     1       7.174   4.890   9.013  1.00  0.00    -0.273 OA
ATOM     17  H   UNL     1       5.808   3.674   6.417  1.00  0.00     0.164 HD
BRANCH  15  18
ATOM     18  C   UNL     1       8.237   4.170   6.921  1.00  0.00     0.171 C 
BRANCH  18  19
ATOM     19  N   UNL     1       8.913   5.462   6.825  1.00  0.00    -0.343 N 
ATOM     20  C   UNL     1       8.570   6.395   5.866  1.00  0.00     0.242 CG0
ATOM     21  O   UNL     1       7.774   6.131   4.967  1.00  0.00    -0.273 OA
ATOM     22  H   UNL     1       9.660   5.683   7.475  1.00  0.00     0.164 HD
ATOM     23  G   UNL     1       9.338   7.729   5.971  1.00  0.00     0.000 G0
ENDBRANCH  18  19
BRANCH  18  24
ATOM     24  C   UNL     1       9.189   3.073   7.413  1.00  0.00     0.038 C 
BRANCH  24  25
ATOM     25  C   UNL     1       8.559   1.667   7.506  1.00  0.00    -0.015 C 
ATOM     26  C   UNL     1       9.582   0.591   7.872  1.00  0.00     0.007 C 
ATOM     27  C   UNL     1       7.893   1.313   6.174  1.00  0.00     0.007 C 
ENDBRANCH  24  25
ENDBRANCH  18  24
ENDBRANCH  15  18
ENDBRANCH  13  14
BRANCH  13  28
ATOM     28  C   UNL     1       3.669   4.981   7.099  1.00  0.00     0.327 C 
ATOM     29  O   UNL     1       4.023   5.525   6.064  1.00  0.00    -0.250 OA
BRANCH  28  30
ATOM     30  O   UNL     1       2.400   5.107   7.537  1.00  0.00    -0.480 OA
ATOM     31  H   UNL     1       1.985   4.246   7.324  1.00  0.00     0.296 HD
ENDBRANCH  28  30
ENDBRANCH  13  28
ENDBRANCH  11  13
ENDBRANCH   8  11
ENDBRANCH   6   7
BRANCH   6  32
ATOM     32  C   UNL     1       6.399  -1.220   8.626  1.00  0.00     0.037 C 
BRANCH  32  33
ATOM     33  C   UNL     1       6.764  -0.446   9.900  1.00  0.00     0.026 C 
BRANCH  33  34
ATOM     34  C   UNL     1       6.358  -1.189  11.173  1.00  0.00     0.146 C 
BRANCH  34  35
ATOM     35  N   UNL     1       4.937  -0.975  11.409  1.00  0.00    -0.254 NA
ATOM     36  C   UNL     1       4.583  -0.182  12.351  1.00  0.00     0.185 C 
ATOM     37  N   UNL     1       3.276   0.027  12.574  1.00  0.00    -0.370 N 
ATOM     38  N   UNL     1       5.356   0.517  13.202  1.00  0.00    -0.370 N 
ATOM     39  H   UNL     1       2.629  -0.458  11.966  1.00  0.00     0.159 HD
ATOM     40  H   UNL     1       2.923   0.757  13.169  1.00  0.00     0.159 HD
ATOM     41  H   UNL     1       4.957   0.999  13.991  1.00  0.00     0.159 HD
ATOM     42  H   UNL     1       6.360   0.444  13.160  1.00  0.00     0.159 HD
ENDBRANCH  34  35
ENDBRANCH  33  34
ENDBRANCH  32  33
ENDBRANCH   6  32
ENDBRANCH   4   6
ENDBRANCH   1   2
BRANCH   1  43
ATOM     43  C   UNL     1       0.953  -1.840   8.568  1.00  0.00     0.102 C 
ATOM     44  C   UNL     1      -0.123  -1.429   9.587  1.00  0.00     0.020 C 
BRANCH  43  45
ATOM     45  C   UNL     1       0.411  -2.636   7.377  1.00  0.00     0.225 C 
ATOM     46  O   UNL     1      -0.636  -2.352   6.801  1.00  0.00    -0.275 OA
ATOM     47  N   UNL     1       1.126  -3.763   7.042  1.00  0.00    -0.342 N 
ATOM     48  H   UNL     1       2.054  -3.897   7.420  1.00  0.00     0.164 HD
BRANCH  47  49
ATOM     49  C   UNL     1       0.745  -4.602   5.902  1.00  0.00     0.192 C 
BRANCH  49  50
ATOM     50  C   UNL     1       0.471  -6.029   6.382  1.00  0.00     0.047 C 
BRANCH  50  51
ATOM     51  C   UNL     1      -0.159  -6.062   7.781  1.00  0.00     0.103 C 
BRANCH  51  52
ATOM     52  C   UNL     1       0.874  -6.348   8.869  1.00  0.00     0.226 C 
ATOM     53  O   UNL     1       2.069  -6.147   8.644  1.00  0.00    -0.275 OA
BRANCH  52  54
ATOM     54  N   UNL     1       0.371  -6.762  10.117  1.00  0.00    -0.311 N 
ATOM     55  C   UNL     1       1.018  -7.845  10.870  1.00  0.00     0.153 C 
BRANCH  54  56
ATOM     56  C   UNL     1      -0.759  -6.156  10.689  1.00  0.00     0.102 C 
ATOM     57  C   UNL     1      -0.898  -4.838  10.905  1.00  0.00     0.043 C 
BRANCH  56  58
ATOM     58  C   UNL     1      -1.966  -6.977  11.077  1.00  0.00     0.268 C 
ATOM     59  O   UNL     1      -2.526  -6.875  12.160  1.00  0.00    -0.268 OA
ATOM     60  N   UNL     1      -2.407  -7.799  10.067  1.00  0.00    -0.339 N 
ATOM     61  H   UNL     1      -1.881  -7.834   9.202  1.00  0.00     0.164 HD
BRANCH  60  62
ATOM     62  C   UNL     1      -3.599  -8.634  10.207  1.00  0.00     0.168 CG0
ATOM     63  C   UNL     1      -3.261  -9.962  10.875  1.00  0.00     0.041 C 
ATOM     64  G   UNL     1      -4.234  -8.867   8.820  1.00  0.00     0.000 G0
ENDBRANCH  60  62
ENDBRANCH  56  58
ENDBRANCH  54  56
ENDBRANCH  52  54
ENDBRANCH  51  52
ENDBRANCH  50  51
ENDBRANCH  49  50
BRANCH  49  65
ATOM     65  C   UNL     1       1.842  -4.628   4.826  1.00  0.00     0.326 C 
ATOM     66  O   UNL     1       2.149  -5.598   4.148  1.00  0.00    -0.250 OA
BRANCH  65  67
ATOM     67  O   UNL     1       2.532  -3.474   4.696  1.00  0.00    -0.480 OA
ATOM     68  H   UNL     1       1.914  -2.888   4.207  1.00  0.00     0.296 HD
ENDBRANCH  65  67
ENDBRANCH  49  65
ENDBRANCH  47  49
ENDBRANCH  43  45
ENDBRANCH   1  43
BRANCH   1  69
ATOM     69  C   UNL     1       2.123  -2.907  10.690  1.00  0.00    -0.001 C 
ATOM     70  C   UNL     1       2.736  -3.931  11.310  1.00  0.00     0.001 C 
BRANCH  70  71
ATOM     71  C   UNL     1       2.698  -4.243  12.740  1.00  0.00    -0.055 C 
ATOM     72  C   UNL     1       1.896  -5.252  13.141  1.00  0.00    -0.018 C 
ATOM     73  C   UNL     1       3.562  -3.422  13.661  1.00  0.00     0.044 C 
BRANCH  72  74
ATOM     74  C   UNL     1       1.660  -5.794  14.544  1.00  0.00     0.038 C 
ATOM     75  C   UNL     1       2.053  -7.276  14.528  1.00  0.00     0.015 C 
BRANCH  74  76
ATOM     76  C   UNL     1       0.181  -5.515  14.946  1.00  0.00     0.128 C 
BRANCH  76  77
ATOM     77  O   UNL     1      -0.286  -6.540  15.839  1.00  0.00    -0.381 OA
ATOM     78  C   UNL     1      -0.452  -6.097  17.179  1.00  0.00     0.195 C 
ENDBRANCH  76  77
BRANCH  76  79
ATOM     79  C   UNL     1      -0.064  -4.086  15.492  1.00  0.00     0.068 C 
BRANCH  79  80
ATOM     80  C   UNL     1      -0.592  -3.045  14.535  1.00  0.00    -0.045 A 
ATOM     81  C   UNL     1       0.178  -1.926  14.189  1.00  0.00     0.004 A 
ATOM     82  C   UNL     1      -1.881  -3.168  13.996  1.00  0.00     0.004 A 
ATOM     83  C   UNL     1      -0.324  -0.959  13.315  1.00  0.00     0.000 A 
ATOM     84  C   UNL     1      -2.382  -2.201  13.122  1.00  0.00     0.000 A 
ATOM     85  C   UNL     1      -1.603  -1.098  12.780  1.00  0.00     0.000 A 
ENDBRANCH  79  80
ENDBRANCH  76  79
ENDBRANCH  74  76
ENDBRANCH  72  74
ENDBRANCH  70  71
ENDBRANCH   1  69
TORSDOF 17
ENDMDL
MODEL 49
REMARK VINA RESULT:    -4.892     10.046     14.853
REMARK INTER + INTRA:         -23.671
REMARK INTER:                 -17.077
REMARK INTRA:                  -6.594
REMARK UNBOUND:                -9.057
REMARK SMILES C=C1C(=O)N[C@H](C)C(=O)N[C@@H](CC(C)C)C(=O)N[C@@H](C(=O)O)[C@H](C)C(=O)N[C@@H](CCCN=C(N)N)C(=O)N[C@@H](/C=C/C(C)=C/[C@H](C)[C@H](Cc2ccccc2)OC)[C@H](C)C(=O)N[C@@H](C(=O)O)CCC(=O)N1C
REMARK SMILES IDX 39 1 38 2 37 3 36 4 28 6 27 7 25 8 26 9 23 11 24 12 19 13
REMARK SMILES IDX 18 14 16 15 17 16 11 18 10 19 8 20 9 21 12 24 13 25 14 26
REMARK SMILES IDX 15 27 20 28 21 29 22 30 29 32 30 33 31 34 32 35 33 36 34 37
REMARK SMILES IDX 35 38 57 43 58 44 59 45 60 46 61 47 62 49 66 50 67 51 68 52
REMARK SMILES IDX 69 53 70 54 71 55 2 56 1 57 3 58 4 59 5 60 6 62 7 63 63 65
REMARK SMILES IDX 64 66 65 67 40 69 41 70 42 71 44 72 43 73 45 74 46 75 47 76
REMARK SMILES IDX 55 77 56 78 48 79 49 80 50 81 54 82 51 83 53 84 52 85
REMARK H PARENT 38 5 27 10 18 17 10 22 22 31 34 39 34 40 35 41 35 42 61 48
REMARK H PARENT 5 61 65 68
REMARK Flexibility Score:  369.900
ROOT
ATOM      1  C   UNL     1       1.776  -2.298   8.601  1.00  0.00     0.117 C 
ENDROOT
BRANCH   1   2
ATOM      2  N   UNL     1       2.758  -1.426   7.955  1.00  0.00    -0.347 N 
ATOM      3  O   UNL     1       3.322  -2.820   6.221  1.00  0.00    -0.273 OA
ATOM      4  C   UNL     1       3.387  -1.721   6.761  1.00  0.00     0.243 C 
ATOM      5  H   UNL     1       2.965  -0.527   8.364  1.00  0.00     0.164 HD
BRANCH   4   6
ATOM      6  C   UNL     1       4.316  -0.590   6.250  1.00  0.00     0.171 C 
BRANCH   6   7
ATOM      7  N   UNL     1       4.547   0.404   7.311  1.00  0.00    -0.344 N 
ATOM      8  C   UNL     1       4.300   1.741   7.087  1.00  0.00     0.226 C 
ATOM      9  O   UNL     1       3.904   2.168   6.009  1.00  0.00    -0.275 OA
ATOM     10  H   UNL     1       4.938   0.098   8.193  1.00  0.00     0.164 HD
BRANCH   8  11
ATOM     11  C   UNL     1       4.536   2.631   8.294  1.00  0.00     0.109 C 
ATOM     12  C   UNL     1       5.436   1.920   9.304  1.00  0.00     0.021 C 
BRANCH  11  13
ATOM     13  C   UNL     1       5.042   4.012   7.833  1.00  0.00     0.204 C 
BRANCH  13  14
ATOM     14  N   UNL     1       4.052   4.718   7.014  1.00  0.00    -0.340 N 
ATOM     15  C   UNL     1       4.382   5.757   6.170  1.00  0.00     0.243 C 
ATOM     16  O   UNL     1       5.543   6.125   5.999  1.00  0.00    -0.273 OA
ATOM     17  H   UNL     1       3.061   4.565   7.220  1.00  0.00     0.164 HD
BRANCH  15  18
ATOM     18  C   UNL     1       3.152   6.481   5.570  1.00  0.00     0.171 C 
BRANCH  18  19
ATOM     19  N   UNL     1       2.658   7.392   6.602  1.00  0.00    -0.343 N 
ATOM     20  C   UNL     1       1.348   7.357   7.038  1.00  0.00     0.242 CG0
ATOM     21  O   UNL     1       0.505   6.653   6.487  1.00  0.00    -0.273 OA
ATOM     22  H   UNL     1       3.290   8.073   7.007  1.00  0.00     0.164 HD
ATOM     23  G   UNL     1       1.033   8.338   8.186  1.00  0.00     0.000 G0
ENDBRANCH  18  19
BRANCH  18  24
ATOM     24  C   UNL     1       3.538   7.236   4.292  1.00  0.00     0.038 C 
BRANCH  24  25
ATOM     25  C   UNL     1       2.477   7.190   3.172  1.00  0.00    -0.015 C 
ATOM     26  C   UNL     1       1.376   8.233   3.366  1.00  0.00     0.007 C 
ATOM     27  C   UNL     1       1.857   5.792   3.107  1.00  0.00     0.007 C 
ENDBRANCH  24  25
ENDBRANCH  18  24
ENDBRANCH  15  18
ENDBRANCH  13  14
BRANCH  13  28
ATOM     28  C   UNL     1       5.413   4.938   8.995  1.00  0.00     0.327 C 
ATOM     29  O   UNL     1       6.542   5.268   9.325  1.00  0.00    -0.250 OA
BRANCH  28  30
ATOM     30  O   UNL     1       4.351   5.298   9.744  1.00  0.00    -0.480 OA
ATOM     31  H   UNL     1       4.426   6.272   9.818  1.00  0.00     0.296 HD
ENDBRANCH  28  30
ENDBRANCH  13  28
ENDBRANCH  11  13
ENDBRANCH   8  11
ENDBRANCH   6   7
BRANCH   6  32
ATOM     32  C   UNL     1       5.639  -1.201   5.775  1.00  0.00     0.037 C 
BRANCH  32  33
ATOM     33  C   UNL     1       6.168  -0.521   4.505  1.00  0.00     0.026 C 
BRANCH  33  34
ATOM     34  C   UNL     1       7.402   0.341   4.773  1.00  0.00     0.146 C 
BRANCH  34  35
ATOM     35  N   UNL     1       7.799   0.173   6.164  1.00  0.00    -0.254 NA
ATOM     36  C   UNL     1       8.120   1.212   6.841  1.00  0.00     0.185 C 
ATOM     37  N   UNL     1       8.483   1.069   8.125  1.00  0.00    -0.370 N 
ATOM     38  N   UNL     1       8.154   2.498   6.450  1.00  0.00    -0.370 N 
ATOM     39  H   UNL     1       8.473   0.128   8.498  1.00  0.00     0.159 HD
ATOM     40  H   UNL     1       8.579   1.838   8.765  1.00  0.00     0.159 HD
ATOM     41  H   UNL     1       8.558   3.210   7.036  1.00  0.00     0.159 HD
ATOM     42  H   UNL     1       7.920   2.752   5.503  1.00  0.00     0.159 HD
ENDBRANCH  34  35
ENDBRANCH  33  34
ENDBRANCH  32  33
ENDBRANCH   6  32
ENDBRANCH   4   6
ENDBRANCH   1   2
BRANCH   1  43
ATOM     43  C   UNL     1       0.365  -1.958   8.039  1.00  0.00     0.102 C 
ATOM     44  C   UNL     1      -0.634  -1.515   9.121  1.00  0.00     0.020 C 
BRANCH  43  45
ATOM     45  C   UNL     1      -0.153  -3.081   7.137  1.00  0.00     0.225 C 
ATOM     46  O   UNL     1      -1.262  -3.060   6.610  1.00  0.00    -0.275 OA
ATOM     47  N   UNL     1       0.670  -4.178   7.024  1.00  0.00    -0.342 N 
ATOM     48  H   UNL     1       1.630  -4.117   7.334  1.00  0.00     0.164 HD
BRANCH  47  49
ATOM     49  C   UNL     1       0.320  -5.314   6.166  1.00  0.00     0.192 C 
BRANCH  49  50
ATOM     50  C   UNL     1      -0.468  -6.347   6.976  1.00  0.00     0.047 C 
BRANCH  50  51
ATOM     51  C   UNL     1      -0.462  -6.035   8.479  1.00  0.00     0.103 C 
BRANCH  51  52
ATOM     52  C   UNL     1      -1.571  -6.777   9.223  1.00  0.00     0.226 C 
ATOM     53  O   UNL     1      -2.525  -7.237   8.593  1.00  0.00    -0.275 OA
BRANCH  52  54
ATOM     54  N   UNL     1      -1.386  -6.955  10.606  1.00  0.00    -0.311 N 
ATOM     55  C   UNL     1      -0.111  -6.614  11.249  1.00  0.00     0.153 C 
BRANCH  54  56
ATOM     56  C   UNL     1      -2.412  -7.460  11.423  1.00  0.00     0.102 C 
ATOM     57  C   UNL     1      -3.435  -6.736  11.906  1.00  0.00     0.043 C 
BRANCH  56  58
ATOM     58  C   UNL     1      -2.460  -8.924  11.791  1.00  0.00     0.268 C 
ATOM     59  O   UNL     1      -2.338  -9.330  12.939  1.00  0.00    -0.268 OA
ATOM     60  N   UNL     1      -2.720  -9.743  10.719  1.00  0.00    -0.339 N 
ATOM     61  H   UNL     1      -2.797  -9.329   9.797  1.00  0.00     0.164 HD
BRANCH  60  62
ATOM     62  C   UNL     1      -2.871 -11.190  10.862  1.00  0.00     0.168 CG0
ATOM     63  C   UNL     1      -1.579 -11.913  10.500  1.00  0.00     0.041 C 
ATOM     64  G   UNL     1      -4.036 -11.679   9.978  1.00  0.00     0.000 G0
ENDBRANCH  60  62
ENDBRANCH  56  58
ENDBRANCH  54  56
ENDBRANCH  52  54
ENDBRANCH  51  52
ENDBRANCH  50  51
ENDBRANCH  49  50
BRANCH  49  65
ATOM     65  C   UNL     1       1.569  -5.980   5.569  1.00  0.00     0.326 C 
ATOM     66  O   UNL     1       2.153  -5.618   4.557  1.00  0.00    -0.250 OA
BRANCH  65  67
ATOM     67  O   UNL     1       1.985  -7.087   6.223  1.00  0.00    -0.480 OA
ATOM     68  H   UNL     1       1.369  -7.785   5.912  1.00  0.00     0.296 HD
ENDBRANCH  65  67
ENDBRANCH  49  65
ENDBRANCH  47  49
ENDBRANCH  43  45
ENDBRANCH   1  43
BRANCH   1  69
ATOM     69  C   UNL     1       2.020  -2.178  10.094  1.00  0.00    -0.001 C 
ATOM     70  C   UNL     1       2.004  -3.165  11.007  1.00  0.00     0.001 C 
BRANCH  70  71
ATOM     71  C   UNL     1       2.261  -3.040  12.443  1.00  0.00    -0.055 C 
ATOM     72  C   UNL     1       2.782  -1.877  12.888  1.00  0.00    -0.018 C 
ATOM     73  C   UNL     1       1.920  -4.214  13.322  1.00  0.00     0.044 C 
BRANCH  72  74
ATOM     74  C   UNL     1       3.147  -1.466  14.307  1.00  0.00     0.038 C 
ATOM     75  C   UNL     1       4.275  -2.394  14.772  1.00  0.00     0.015 C 
BRANCH  74  76
ATOM     76  C   UNL     1       1.862  -1.509  15.186  1.00  0.00     0.128 C 
BRANCH  76  77
ATOM     77  O   UNL     1       2.178  -1.126  16.536  1.00  0.00    -0.381 OA
ATOM     78  C   UNL     1       2.528   0.245  16.673  1.00  0.00     0.195 C 
ENDBRANCH  76  77
BRANCH  76  79
ATOM     79  C   UNL     1       0.671  -0.710  14.600  1.00  0.00     0.068 C 
BRANCH  79  80
ATOM     80  C   UNL     1      -0.503  -1.488  14.057  1.00  0.00    -0.045 A 
ATOM     81  C   UNL     1      -1.102  -1.136  12.840  1.00  0.00     0.004 A 
ATOM     82  C   UNL     1      -1.034  -2.566  14.782  1.00  0.00     0.004 A 
ATOM     83  C   UNL     1      -2.197  -1.852  12.352  1.00  0.00     0.000 A 
ATOM     84  C   UNL     1      -2.129  -3.281  14.293  1.00  0.00     0.000 A 
ATOM     85  C   UNL     1      -2.709  -2.925  13.078  1.00  0.00     0.000 A 
ENDBRANCH  79  80
ENDBRANCH  76  79
ENDBRANCH  74  76
ENDBRANCH  72  74
ENDBRANCH  70  71
ENDBRANCH   1  69
TORSDOF 17
ENDMDL
MODEL 50
REMARK VINA RESULT:    -4.860      3.708     11.278
REMARK INTER + INTRA:         -23.578
REMARK INTER:                 -15.591
REMARK INTRA:                  -7.986
REMARK UNBOUND:                -9.057
REMARK SMILES C=C1C(=O)N[C@H](C)C(=O)N[C@@H](CC(C)C)C(=O)N[C@@H](C(=O)O)[C@H](C)C(=O)N[C@@H](CCCN=C(N)N)C(=O)N[C@@H](/C=C/C(C)=C/[C@H](C)[C@H](Cc2ccccc2)OC)[C@H](C)C(=O)N[C@@H](C(=O)O)CCC(=O)N1C
REMARK SMILES IDX 39 1 38 2 37 3 36 4 28 6 27 7 25 8 26 9 23 11 24 12 19 13
REMARK SMILES IDX 18 14 16 15 17 16 11 18 10 19 8 20 9 21 12 24 13 25 14 26
REMARK SMILES IDX 15 27 20 28 21 29 22 30 29 32 30 33 31 34 32 35 33 36 34 37
REMARK SMILES IDX 35 38 57 43 58 44 59 45 60 46 61 47 62 49 66 50 67 51 68 52
REMARK SMILES IDX 69 53 70 54 71 55 2 56 1 57 3 58 4 59 5 60 6 62 7 63 63 65
REMARK SMILES IDX 64 66 65 67 40 69 41 70 42 71 44 72 43 73 45 74 46 75 47 76
REMARK SMILES IDX 55 77 56 78 48 79 49 80 50 81 54 82 51 83 53 84 52 85
REMARK H PARENT 38 5 27 10 18 17 10 22 22 31 34 39 34 40 35 41 35 42 61 48
REMARK H PARENT 5 61 65 68
REMARK Flexibility Score:  369.900
ROOT
ATOM      1  C   UNL     1       2.532   7.158   5.209  1.00  0.00     0.117 C 
ENDROOT
BRANCH   1   2
ATOM      2  N   UNL     1       3.474   6.155   5.707  1.00  0.00    -0.347 N 
ATOM      3  O   UNL     1       5.387   7.413   5.543  1.00  0.00    -0.273 OA
ATOM      4  C   UNL     1       4.817   6.395   5.921  1.00  0.00     0.243 C 
ATOM      5  H   UNL     1       3.133   5.241   5.964  1.00  0.00     0.164 HD
BRANCH   4   6
ATOM      6  C   UNL     1       5.575   5.190   6.536  1.00  0.00     0.171 C 
BRANCH   6   7
ATOM      7  N   UNL     1       6.820   5.639   7.179  1.00  0.00    -0.344 N 
ATOM      8  C   UNL     1       8.039   5.137   6.778  1.00  0.00     0.226 C 
ATOM      9  O   UNL     1       8.147   4.290   5.899  1.00  0.00    -0.275 OA
ATOM     10  H   UNL     1       6.765   6.288   7.955  1.00  0.00     0.164 HD
BRANCH   8  11
ATOM     11  C   UNL     1       9.232   5.740   7.500  1.00  0.00     0.109 C 
ATOM     12  C   UNL     1      10.380   4.732   7.550  1.00  0.00     0.021 C 
BRANCH  11  13
ATOM     13  C   UNL     1       9.590   7.100   6.870  1.00  0.00     0.204 C 
BRANCH  13  14
ATOM     14  N   UNL     1       9.185   7.180   5.463  1.00  0.00    -0.340 N 
ATOM     15  C   UNL     1      10.084   7.360   4.435  1.00  0.00     0.243 C 
ATOM     16  O   UNL     1      11.299   7.406   4.620  1.00  0.00    -0.273 OA
ATOM     17  H   UNL     1       8.190   7.302   5.256  1.00  0.00     0.164 HD
BRANCH  15  18
ATOM     18  C   UNL     1       9.412   7.623   3.064  1.00  0.00     0.171 C 
BRANCH  18  19
ATOM     19  N   UNL     1       9.646   6.433   2.248  1.00  0.00    -0.343 N 
ATOM     20  C   UNL     1      10.618   6.402   1.267  1.00  0.00     0.242 CG0
ATOM     21  O   UNL     1      11.240   7.412   0.945  1.00  0.00    -0.273 OA
ATOM     22  H   UNL     1       9.078   5.608   2.399  1.00  0.00     0.164 HD
ATOM     23  G   UNL     1      10.771   5.037   0.566  1.00  0.00     0.000 G0
ENDBRANCH  18  19
BRANCH  18  24
ATOM     24  C   UNL     1       7.914   7.899   3.240  1.00  0.00     0.038 C 
BRANCH  24  25
ATOM     25  C   UNL     1       7.384   9.111   2.445  1.00  0.00    -0.015 C 
ATOM     26  C   UNL     1       5.903   8.975   2.088  1.00  0.00     0.007 C 
ATOM     27  C   UNL     1       8.207   9.287   1.166  1.00  0.00     0.007 C 
ENDBRANCH  24  25
ENDBRANCH  18  24
ENDBRANCH  15  18
ENDBRANCH  13  14
BRANCH  13  28
ATOM     28  C   UNL     1       8.949   8.288   7.595  1.00  0.00     0.327 C 
ATOM     29  O   UNL     1       9.443   8.926   8.513  1.00  0.00    -0.250 OA
BRANCH  28  30
ATOM     30  O   UNL     1       7.681   8.526   7.203  1.00  0.00    -0.480 OA
ATOM     31  H   UNL     1       7.158   8.467   8.029  1.00  0.00     0.296 HD
ENDBRANCH  28  30
ENDBRANCH  13  28
ENDBRANCH  11  13
ENDBRANCH   8  11
ENDBRANCH   6   7
BRANCH   6  32
ATOM     32  C   UNL     1       4.662   4.483   7.544  1.00  0.00     0.037 C 
BRANCH  32  33
ATOM     33  C   UNL     1       4.251   3.082   7.069  1.00  0.00     0.026 C 
BRANCH  33  34
ATOM     34  C   UNL     1       5.244   2.003   7.501  1.00  0.00     0.146 C 
BRANCH  34  35
ATOM     35  N   UNL     1       6.059   1.627   6.354  1.00  0.00    -0.254 NA
ATOM     36  C   UNL     1       5.620   0.724   5.558  1.00  0.00     0.185 C 
ATOM     37  N   UNL     1       6.360   0.374   4.495  1.00  0.00    -0.370 N 
ATOM     38  N   UNL     1       4.469   0.031   5.619  1.00  0.00    -0.370 N 
ATOM     39  H   UNL     1       7.239   0.860   4.373  1.00  0.00     0.159 HD
ATOM     40  H   UNL     1       6.014  -0.191   3.738  1.00  0.00     0.159 HD
ATOM     41  H   UNL     1       4.300  -0.753   5.011  1.00  0.00     0.159 HD
ATOM     42  H   UNL     1       3.821   0.179   6.377  1.00  0.00     0.159 HD
ENDBRANCH  34  35
ENDBRANCH  33  34
ENDBRANCH  32  33
ENDBRANCH   6  32
ENDBRANCH   4   6
ENDBRANCH   1   2
BRANCH   1  43
ATOM     43  C   UNL     1       1.407   7.351   6.266  1.00  0.00     0.102 C 
ATOM     44  C   UNL     1       0.623   8.662   6.094  1.00  0.00     0.020 C 
BRANCH  43  45
ATOM     45  C   UNL     1       1.942   7.129   7.684  1.00  0.00     0.225 C 
ATOM     46  O   UNL     1       1.790   6.079   8.302  1.00  0.00    -0.275 OA
ATOM     47  N   UNL     1       2.531   8.224   8.274  1.00  0.00    -0.342 N 
ATOM     48  H   UNL     1       2.782   9.022   7.707  1.00  0.00     0.164 HD
BRANCH  47  49
ATOM     49  C   UNL     1       3.119   8.149   9.614  1.00  0.00     0.192 C 
BRANCH  49  50
ATOM     50  C   UNL     1       2.485   9.212  10.515  1.00  0.00     0.047 C 
BRANCH  50  51
ATOM     51  C   UNL     1       0.990   8.957  10.751  1.00  0.00     0.103 C 
BRANCH  51  52
ATOM     52  C   UNL     1       0.580   9.246  12.193  1.00  0.00     0.226 C 
ATOM     53  O   UNL     1       1.432   9.597  13.012  1.00  0.00    -0.275 OA
BRANCH  52  54
ATOM     54  N   UNL     1      -0.795   9.162  12.483  1.00  0.00    -0.311 N 
ATOM     55  C   UNL     1      -1.665  10.340  12.370  1.00  0.00     0.153 C 
BRANCH  54  56
ATOM     56  C   UNL     1      -1.386   7.952  12.884  1.00  0.00     0.102 C 
ATOM     57  C   UNL     1      -1.238   6.777  12.251  1.00  0.00     0.043 C 
BRANCH  56  58
ATOM     58  C   UNL     1      -2.230   7.879  14.135  1.00  0.00     0.268 C 
ATOM     59  O   UNL     1      -1.885   8.365  15.204  1.00  0.00    -0.268 OA
ATOM     60  N   UNL     1      -3.446   7.273  13.932  1.00  0.00    -0.339 N 
ATOM     61  H   UNL     1      -3.652   6.887  13.018  1.00  0.00     0.164 HD
BRANCH  60  62
ATOM     62  C   UNL     1      -4.444   7.152  14.994  1.00  0.00     0.168 CG0
ATOM     63  C   UNL     1      -5.352   8.375  15.034  1.00  0.00     0.041 C 
ATOM     64  G   UNL     1      -3.734   6.955  16.350  1.00  0.00     0.000 G0
ENDBRANCH  60  62
ENDBRANCH  56  58
ENDBRANCH  54  56
ENDBRANCH  52  54
ENDBRANCH  51  52
ENDBRANCH  50  51
ENDBRANCH  49  50
BRANCH  49  65
ATOM     65  C   UNL     1       4.642   8.356   9.578  1.00  0.00     0.326 C 
ATOM     66  O   UNL     1       5.438   7.664   8.961  1.00  0.00    -0.250 OA
BRANCH  65  67
ATOM     67  O   UNL     1       5.092   9.368  10.352  1.00  0.00    -0.480 OA
ATOM     68  H   UNL     1       4.291   9.661  10.838  1.00  0.00     0.296 HD
ENDBRANCH  65  67
ENDBRANCH  49  65
ENDBRANCH  47  49
ENDBRANCH  43  45
ENDBRANCH   1  43
BRANCH   1  69
ATOM     69  C   UNL     1       2.153   6.723   3.805  1.00  0.00    -0.001 C 
ATOM     70  C   UNL     1       2.848   6.922   2.672  1.00  0.00     0.001 C 
BRANCH  70  71
ATOM     71  C   UNL     1       2.482   6.478   1.325  1.00  0.00    -0.055 C 
ATOM     72  C   UNL     1       3.267   6.870   0.300  1.00  0.00    -0.018 C 
ATOM     73  C   UNL     1       1.260   5.609   1.181  1.00  0.00     0.044 C 
BRANCH  72  74
ATOM     74  C   UNL     1       3.136   6.563  -1.185  1.00  0.00     0.038 C 
ATOM     75  C   UNL     1       4.127   5.438  -1.505  1.00  0.00     0.015 C 
BRANCH  74  76
ATOM     76  C   UNL     1       3.359   7.878  -1.989  1.00  0.00     0.128 C 
BRANCH  76  77
ATOM     77  O   UNL     1       2.134   8.277  -2.628  1.00  0.00    -0.381 OA
ATOM     78  C   UNL     1       1.172   7.235  -2.718  1.00  0.00     0.195 C 
ENDBRANCH  76  77
BRANCH  76  79
ATOM     79  C   UNL     1       4.004   9.019  -1.163  1.00  0.00     0.068 C 
BRANCH  79  80
ATOM     80  C   UNL     1       5.346   9.546  -1.612  1.00  0.00    -0.045 A 
ATOM     81  C   UNL     1       6.318   8.687  -2.142  1.00  0.00     0.004 A 
ATOM     82  C   UNL     1       5.652  10.908  -1.478  1.00  0.00     0.004 A 
ATOM     83  C   UNL     1       7.562   9.179  -2.542  1.00  0.00     0.000 A 
ATOM     84  C   UNL     1       6.897  11.400  -1.877  1.00  0.00     0.000 A 
ATOM     85  C   UNL     1       7.850  10.536  -2.410  1.00  0.00     0.000 A 
ENDBRANCH  79  80
ENDBRANCH  76  79
ENDBRANCH  74  76
ENDBRANCH  72  74
ENDBRANCH  70  71
ENDBRANCH   1  69
TORSDOF 17
ENDMDL
