MODEL 1
REMARK VINA RESULT:    -4.941      0.000      0.000
REMARK INTER + INTRA:         -10.026
REMARK INTER:                  -8.406
REMARK INTRA:                  -1.619
REMARK UNBOUND:                -1.619
REMARK SMILES CC[C@H](C)[C@@H]1NC(=O)[C@H]2CSC(=N2)[C@@H]([C@@H](C)CC)NC(=O)c2csc(n2)CNC(=O)[C@H]2N=C1O[C@@H]2C
REMARK SMILES IDX 27 1 25 2 22 3 26 4 23 5 24 6 20 7 19 8 21 9 14 11 12 12
REMARK SMILES IDX 11 13 10 14 13 15 9 16 15 18 16 19 17 20 18 21 28 22 29 23
REMARK SMILES IDX 30 24 31 26 32 27 35 28 33 29 34 30 36 31 5 32 6 33 7 34
REMARK SMILES IDX 8 35 3 38 4 39 2 40 1 41
REMARK H PARENT 19 10 28 25 6 36
REMARK Flexibility Score:   91.900
ROOT
ATOM      1  C   UNL     1       2.668   3.651 -13.563  1.00  0.00     0.183 C 
ENDROOT
BRANCH   1   2
ATOM      2  C   UNL     1       2.444   3.747 -12.081  1.00  0.00     0.113 A 
ATOM      3  C   UNL     1       1.527   3.381 -10.083  1.00  0.00     0.139 A 
ATOM      4  N   UNL     1       1.600   2.978 -11.418  1.00  0.00    -0.234 NA
ATOM      5  C   UNL     1       2.374   4.420  -9.752  1.00  0.00     0.101 A 
ATOM      6  S   UNL     1       3.259   4.924 -11.134  1.00  0.00    -0.125 S 
BRANCH   3   7
ATOM      7  C   UNL     1       0.578   2.736  -9.173  1.00  0.00     0.271 C 
ATOM      8  N   UNL     1       1.100   1.590  -8.626  1.00  0.00    -0.341 N 
ATOM      9  O   UNL     1      -0.553   3.156  -8.960  1.00  0.00    -0.267 OA
ATOM     10  H   UNL     1       2.065   1.380  -8.880  1.00  0.00     0.164 HD
BRANCH   8  11
ATOM     11  C   UNL     1       0.334   0.639  -7.836  1.00  0.00     0.140 C 
BRANCH  11  12
ATOM     12  C   UNL     1       0.969  -0.742  -8.020  1.00  0.00     0.091 C 
ATOM     13  S   UNL     1       2.351  -1.218  -7.061  1.00  0.00    -0.106 SA
ATOM     14  C   UNL     1       2.168  -2.925  -7.620  1.00  0.00     0.113 C 
ATOM     15  N   UNL     1       0.560  -1.571  -8.929  1.00  0.00    -0.267 NA
ATOM     16  C   UNL     1       1.432  -2.788  -8.944  1.00  0.00     0.205 CG0
ATOM     17  G   UNL     1       2.426  -2.736 -10.116  1.00  0.00     0.000 G0
ENDBRANCH  11  12
BRANCH  11  18
ATOM     18  C   UNL     1       0.080   1.093  -6.376  1.00  0.00     0.015 C 
ATOM     19  C   UNL     1       1.161   2.087  -5.929  1.00  0.00     0.010 C 
BRANCH  18  20
ATOM     20  C   UNL     1      -1.336   1.641  -6.108  1.00  0.00     0.002 C 
ATOM     21  C   UNL     1      -1.365   2.709  -5.020  1.00  0.00     0.004 C 
ENDBRANCH  18  20
ENDBRANCH  11  18
ENDBRANCH   8  11
ENDBRANCH   3   7
ENDBRANCH   1   2
BRANCH   1  22
ATOM     22  N   UNL     1       2.214   2.345 -13.986  1.00  0.00    -0.348 N 
ATOM     23  C   UNL     1       3.020   1.249 -14.133  1.00  0.00     0.249 C 
ATOM     24  O   UNL     1       4.210   1.245 -13.837  1.00  0.00    -0.272 OA
ATOM     25  H   UNL     1       1.244   2.241 -14.279  1.00  0.00     0.163 HD
BRANCH  23  26
ATOM     26  C   UNL     1       2.262   0.018 -14.650  1.00  0.00     0.238 C 
ATOM     27  N   UNL     1       3.019  -1.213 -14.287  1.00  0.00    -0.236 NA
ATOM     28  C   UNL     1       0.903  -0.132 -13.989  1.00  0.00     0.206 C 
ATOM     29  C   UNL     1       2.262  -1.775 -13.392  1.00  0.00     0.208 C 
ATOM     30  O   UNL     1       1.088  -1.191 -13.051  1.00  0.00    -0.474 OA
ATOM     31  C   UNL     1      -0.184  -0.540 -14.974  1.00  0.00     0.056 C 
BRANCH  29  32
ATOM     32  C   UNL     1       2.579  -3.046 -12.609  1.00  0.00     0.171 C 
BRANCH  32  33
ATOM     33  N   UNL     1       1.843  -3.080 -11.355  1.00  0.00    -0.342 N 
ATOM     34  C   UNL     1       2.412  -2.737 -10.152  1.00  0.00     0.246 CG0
ATOM     35  O   UNL     1       3.588  -2.400 -10.039  1.00  0.00    -0.273 OA
ATOM     36  H   UNL     1       0.881  -3.399 -11.321  1.00  0.00     0.164 HD
ATOM     37  G   UNL     1       1.448  -2.783  -8.955  1.00  0.00     0.000 G0
ENDBRANCH  32  33
BRANCH  32  38
ATOM     38  C   UNL     1       2.322  -4.301 -13.484  1.00  0.00     0.017 C 
ATOM     39  C   UNL     1       3.385  -5.369 -13.197  1.00  0.00     0.010 C 
BRANCH  38  40
ATOM     40  C   UNL     1       0.891  -4.864 -13.324  1.00  0.00     0.002 C 
ATOM     41  C   UNL     1      -0.081  -4.367 -14.386  1.00  0.00     0.004 C 
ENDBRANCH  38  40
ENDBRANCH  32  38
ENDBRANCH  29  32
ENDBRANCH  23  26
ENDBRANCH   1  22
TORSDOF 4
ENDMDL
MODEL 2
REMARK VINA RESULT:    -4.865      2.624      5.476
REMARK INTER + INTRA:          -9.897
REMARK INTER:                  -8.386
REMARK INTRA:                  -1.511
REMARK UNBOUND:                -1.619
REMARK SMILES CC[C@H](C)[C@@H]1NC(=O)[C@H]2CSC(=N2)[C@@H]([C@@H](C)CC)NC(=O)c2csc(n2)CNC(=O)[C@H]2N=C1O[C@@H]2C
REMARK SMILES IDX 27 1 25 2 22 3 26 4 23 5 24 6 20 7 19 8 21 9 14 11 12 12
REMARK SMILES IDX 11 13 10 14 13 15 9 16 15 18 16 19 17 20 18 21 28 22 29 23
REMARK SMILES IDX 30 24 31 26 32 27 35 28 33 29 34 30 36 31 5 32 6 33 7 34
REMARK SMILES IDX 8 35 3 38 4 39 2 40 1 41
REMARK H PARENT 19 10 28 25 6 36
REMARK Flexibility Score:   91.900
ROOT
ATOM      1  C   UNL     1      -0.136  -1.423  -8.180  1.00  0.00     0.183 C 
ENDROOT
BRANCH   1   2
ATOM      2  C   UNL     1       1.094  -0.563  -8.110  1.00  0.00     0.113 A 
ATOM      3  C   UNL     1       2.622   0.944  -8.711  1.00  0.00     0.139 A 
ATOM      4  N   UNL     1       1.359   0.406  -8.967  1.00  0.00    -0.234 NA
ATOM      5  C   UNL     1       3.264   0.400  -7.615  1.00  0.00     0.101 A 
ATOM      6  S   UNL     1       2.289  -0.821  -6.905  1.00  0.00    -0.125 S 
BRANCH   3   7
ATOM      7  C   UNL     1       3.175   1.969  -9.598  1.00  0.00     0.271 C 
ATOM      8  N   UNL     1       2.397   2.145 -10.716  1.00  0.00    -0.341 N 
ATOM      9  O   UNL     1       4.222   2.566  -9.378  1.00  0.00    -0.267 OA
ATOM     10  H   UNL     1       1.541   1.592 -10.748  1.00  0.00     0.164 HD
BRANCH   8  11
ATOM     11  C   UNL     1       2.782   2.953 -11.861  1.00  0.00     0.140 C 
BRANCH  11  12
ATOM     12  C   UNL     1       2.734   2.059 -13.104  1.00  0.00     0.091 C 
ATOM     13  S   UNL     1       2.032   2.648 -14.593  1.00  0.00    -0.106 SA
ATOM     14  C   UNL     1       2.702   1.229 -15.485  1.00  0.00     0.113 C 
ATOM     15  N   UNL     1       3.136   0.828 -13.080  1.00  0.00    -0.267 NA
ATOM     16  C   UNL     1       2.869   0.175 -14.401  1.00  0.00     0.205 CG0
ATOM     17  G   UNL     1       1.628  -0.729 -14.325  1.00  0.00     0.000 G0
ENDBRANCH  11  12
BRANCH  11  18
ATOM     18  C   UNL     1       2.035   4.308 -11.956  1.00  0.00     0.015 C 
ATOM     19  C   UNL     1       0.520   4.092 -11.838  1.00  0.00     0.010 C 
BRANCH  18  20
ATOM     20  C   UNL     1       2.529   5.387 -10.972  1.00  0.00     0.002 C 
ATOM     21  C   UNL     1       1.644   5.517  -9.737  1.00  0.00     0.004 C 
ENDBRANCH  18  20
ENDBRANCH  11  18
ENDBRANCH   8  11
ENDBRANCH   3   7
ENDBRANCH   1   2
BRANCH   1  22
ATOM     22  N   UNL     1       0.115  -2.458  -9.158  1.00  0.00    -0.348 N 
ATOM     23  C   UNL     1      -0.705  -2.747 -10.214  1.00  0.00     0.249 C 
ATOM     24  O   UNL     1      -1.705  -2.093 -10.488  1.00  0.00    -0.272 OA
ATOM     25  H   UNL     1       0.911  -3.078  -9.014  1.00  0.00     0.163 HD
BRANCH  23  26
ATOM     26  C   UNL     1      -0.204  -3.935 -11.049  1.00  0.00     0.238 C 
ATOM     27  N   UNL     1      -0.523  -3.696 -12.484  1.00  0.00    -0.236 NA
ATOM     28  C   UNL     1       1.307  -4.078 -10.986  1.00  0.00     0.206 C 
ATOM     29  C   UNL     1       0.646  -3.504 -13.020  1.00  0.00     0.208 C 
ATOM     30  O   UNL     1       1.755  -3.576 -12.244  1.00  0.00    -0.474 OA
ATOM     31  C   UNL     1       1.752  -5.528 -10.854  1.00  0.00     0.056 C 
BRANCH  29  32
ATOM     32  C   UNL     1       0.924  -3.139 -14.476  1.00  0.00     0.171 C 
BRANCH  32  33
ATOM     33  N   UNL     1       1.927  -2.090 -14.566  1.00  0.00    -0.342 N 
ATOM     34  C   UNL     1       1.640  -0.767 -14.326  1.00  0.00     0.246 CG0
ATOM     35  O   UNL     1       0.514  -0.366 -14.045  1.00  0.00    -0.273 OA
ATOM     36  H   UNL     1       2.879  -2.298 -14.848  1.00  0.00     0.164 HD
ATOM     37  G   UNL     1       2.853   0.174 -14.416  1.00  0.00     0.000 G0
ENDBRANCH  32  33
BRANCH  32  38
ATOM     38  C   UNL     1       1.310  -4.403 -15.288  1.00  0.00     0.017 C 
ATOM     39  C   UNL     1       2.828  -4.622 -15.231  1.00  0.00     0.010 C 
BRANCH  38  40
ATOM     40  C   UNL     1       0.536  -5.665 -14.843  1.00  0.00     0.002 C 
ATOM     41  C   UNL     1       0.995  -6.939 -15.541  1.00  0.00     0.004 C 
ENDBRANCH  38  40
ENDBRANCH  32  38
ENDBRANCH  29  32
ENDBRANCH  23  26
ENDBRANCH   1  22
TORSDOF 4
ENDMDL
MODEL 3
REMARK VINA RESULT:    -4.854     21.299     24.216
REMARK INTER + INTRA:          -9.878
REMARK INTER:                  -8.178
REMARK INTRA:                  -1.700
REMARK UNBOUND:                -1.619
REMARK SMILES CC[C@H](C)[C@@H]1NC(=O)[C@H]2CSC(=N2)[C@@H]([C@@H](C)CC)NC(=O)c2csc(n2)CNC(=O)[C@H]2N=C1O[C@@H]2C
REMARK SMILES IDX 27 1 25 2 22 3 26 4 23 5 24 6 20 7 19 8 21 9 14 11 12 12
REMARK SMILES IDX 11 13 10 14 13 15 9 16 15 18 16 19 17 20 18 21 28 22 29 23
REMARK SMILES IDX 30 24 31 26 32 27 35 28 33 29 34 30 36 31 5 32 6 33 7 34
REMARK SMILES IDX 8 35 3 38 4 39 2 40 1 41
REMARK H PARENT 19 10 28 25 6 36
REMARK Flexibility Score:   91.900
ROOT
ATOM      1  C   UNL     1      -4.079   7.703  10.809  1.00  0.00     0.183 C 
ENDROOT
BRANCH   1   2
ATOM      2  C   UNL     1      -2.750   7.415  10.172  1.00  0.00     0.113 A 
ATOM      3  C   UNL     1      -0.917   7.723   8.943  1.00  0.00     0.139 A 
ATOM      4  N   UNL     1      -2.043   8.317   9.515  1.00  0.00    -0.234 NA
ATOM      5  C   UNL     1      -0.768   6.381   9.233  1.00  0.00     0.101 A 
ATOM      6  S   UNL     1      -2.067   5.841  10.216  1.00  0.00    -0.125 S 
BRANCH   3   7
ATOM      7  C   UNL     1      -0.032   8.509   8.081  1.00  0.00     0.271 C 
ATOM      8  N   UNL     1       0.726   9.395   8.807  1.00  0.00    -0.341 N 
ATOM      9  O   UNL     1      -0.003   8.407   6.861  1.00  0.00    -0.267 OA
ATOM     10  H   UNL     1       0.609   9.348   9.819  1.00  0.00     0.164 HD
BRANCH   8  11
ATOM     11  C   UNL     1       1.556  10.434   8.220  1.00  0.00     0.140 C 
BRANCH  11  12
ATOM     12  C   UNL     1       1.081  11.782   8.769  1.00  0.00     0.091 C 
ATOM     13  S   UNL     1       1.871  12.506  10.150  1.00  0.00    -0.106 SA
ATOM     14  C   UNL     1       0.996  14.057   9.853  1.00  0.00     0.113 C 
ATOM     15  N   UNL     1       0.044  12.393   8.287  1.00  0.00    -0.267 NA
ATOM     16  C   UNL     1      -0.244  13.625   9.087  1.00  0.00     0.205 CG0
ATOM     17  G   UNL     1      -1.422  13.392  10.047  1.00  0.00     0.000 G0
ENDBRANCH  11  12
BRANCH  11  18
ATOM     18  C   UNL     1       3.078  10.151   8.310  1.00  0.00     0.015 C 
ATOM     19  C   UNL     1       3.365   9.111   9.402  1.00  0.00     0.010 C 
BRANCH  18  20
ATOM     20  C   UNL     1       3.742   9.762   6.974  1.00  0.00     0.002 C 
ATOM     21  C   UNL     1       4.897   8.782   7.145  1.00  0.00     0.004 C 
ENDBRANCH  18  20
ENDBRANCH  11  18
ENDBRANCH   8  11
ENDBRANCH   3   7
ENDBRANCH   1   2
BRANCH   1  22
ATOM     22  N   UNL     1      -4.619   8.883  10.171  1.00  0.00    -0.348 N 
ATOM     23  C   UNL     1      -5.712   8.893   9.348  1.00  0.00     0.249 C 
ATOM     24  O   UNL     1      -6.402   7.902   9.134  1.00  0.00    -0.272 OA
ATOM     25  H   UNL     1      -4.109   9.761  10.264  1.00  0.00     0.163 HD
BRANCH  23  26
ATOM     26  C   UNL     1      -6.013  10.286   8.774  1.00  0.00     0.238 C 
ATOM     27  N   UNL     1      -5.739  11.315   9.815  1.00  0.00    -0.236 NA
ATOM     28  C   UNL     1      -5.099  10.631   7.611  1.00  0.00     0.206 C 
ATOM     29  C   UNL     1      -4.690  11.930   9.357  1.00  0.00     0.208 C 
ATOM     30  O   UNL     1      -4.161  11.550   8.168  1.00  0.00    -0.474 OA
ATOM     31  C   UNL     1      -5.838  11.321   6.472  1.00  0.00     0.056 C 
BRANCH  29  32
ATOM     32  C   UNL     1      -3.919  13.046  10.056  1.00  0.00     0.171 C 
BRANCH  32  33
ATOM     33  N   UNL     1      -2.668  13.324   9.367  1.00  0.00    -0.342 N 
ATOM     34  C   UNL     1      -1.460  13.386  10.020  1.00  0.00     0.246 CG0
ATOM     35  O   UNL     1      -1.346  13.239  11.234  1.00  0.00    -0.273 OA
ATOM     36  H   UNL     1      -2.651  13.520   8.372  1.00  0.00     0.164 HD
ATOM     37  G   UNL     1      -0.252  13.633   9.102  1.00  0.00     0.000 G0
ENDBRANCH  32  33
BRANCH  32  38
ATOM     38  C   UNL     1      -4.808  14.308  10.208  1.00  0.00     0.017 C 
ATOM     39  C   UNL     1      -4.282  15.189  11.348  1.00  0.00     0.010 C 
BRANCH  38  40
ATOM     40  C   UNL     1      -4.950  15.106   8.891  1.00  0.00     0.002 C 
ATOM     41  C   UNL     1      -6.366  15.109   8.330  1.00  0.00     0.004 C 
ENDBRANCH  38  40
ENDBRANCH  32  38
ENDBRANCH  29  32
ENDBRANCH  23  26
ENDBRANCH   1  22
TORSDOF 4
ENDMDL
MODEL 4
REMARK VINA RESULT:    -4.679     16.836     21.750
REMARK INTER + INTRA:          -9.581
REMARK INTER:                  -8.836
REMARK INTRA:                  -0.745
REMARK UNBOUND:                -1.619
REMARK SMILES CC[C@H](C)[C@@H]1NC(=O)[C@H]2CSC(=N2)[C@@H]([C@@H](C)CC)NC(=O)c2csc(n2)CNC(=O)[C@H]2N=C1O[C@@H]2C
REMARK SMILES IDX 27 1 25 2 22 3 26 4 23 5 24 6 20 7 19 8 21 9 14 11 12 12
REMARK SMILES IDX 11 13 10 14 13 15 9 16 15 18 16 19 17 20 18 21 28 22 29 23
REMARK SMILES IDX 30 24 31 26 32 27 35 28 33 29 34 30 36 31 5 32 6 33 7 34
REMARK SMILES IDX 8 35 3 38 4 39 2 40 1 41
REMARK H PARENT 19 10 28 25 6 36
REMARK Flexibility Score:   91.900
ROOT
ATOM      1  C   UNL     1      -9.962   0.317  10.790  1.00  0.00     0.183 C 
ENDROOT
BRANCH   1   2
ATOM      2  C   UNL     1     -10.060   0.058   9.314  1.00  0.00     0.113 A 
ATOM      3  C   UNL     1      -9.469  -0.019   7.166  1.00  0.00     0.139 A 
ATOM      4  N   UNL     1      -9.041   0.173   8.482  1.00  0.00    -0.234 NA
ATOM      5  C   UNL     1     -10.807  -0.336   7.040  1.00  0.00     0.101 A 
ATOM      6  S   UNL     1     -11.554  -0.371   8.585  1.00  0.00    -0.125 S 
BRANCH   3   7
ATOM      7  C   UNL     1      -8.529   0.158   6.057  1.00  0.00     0.271 C 
ATOM      8  N   UNL     1      -7.664   1.199   6.288  1.00  0.00    -0.341 N 
ATOM      9  O   UNL     1      -8.544  -0.520   5.038  1.00  0.00    -0.267 OA
ATOM     10  H   UNL     1      -7.758   1.657   7.194  1.00  0.00     0.164 HD
BRANCH   8  11
ATOM     11  C   UNL     1      -6.745   1.734   5.297  1.00  0.00     0.140 C 
BRANCH  11  12
ATOM     12  C   UNL     1      -5.327   1.322   5.700  1.00  0.00     0.091 C 
ATOM     13  S   UNL     1      -5.011  -0.280   6.324  1.00  0.00    -0.106 SA
ATOM     14  C   UNL     1      -3.234  -0.007   6.162  1.00  0.00     0.113 C 
ATOM     15  N   UNL     1      -4.334   2.154   5.666  1.00  0.00    -0.267 NA
ATOM     16  C   UNL     1      -3.101   1.507   6.215  1.00  0.00     0.205 CG0
ATOM     17  G   UNL     1      -2.827   1.979   7.652  1.00  0.00     0.000 G0
ENDBRANCH  11  12
BRANCH  11  18
ATOM     18  C   UNL     1      -7.158   1.440   3.832  1.00  0.00     0.015 C 
ATOM     19  C   UNL     1      -8.143   2.504   3.329  1.00  0.00     0.010 C 
BRANCH  18  20
ATOM     20  C   UNL     1      -5.979   1.257   2.854  1.00  0.00     0.002 C 
ATOM     21  C   UNL     1      -5.793  -0.190   2.411  1.00  0.00     0.004 C 
ENDBRANCH  18  20
ENDBRANCH  11  18
ENDBRANCH   8  11
ENDBRANCH   3   7
ENDBRANCH   1   2
BRANCH   1  22
ATOM     22  N   UNL     1      -8.558   0.334  11.134  1.00  0.00    -0.348 N 
ATOM     23  C   UNL     1      -7.752   1.438  11.070  1.00  0.00     0.249 C 
ATOM     24  O   UNL     1      -8.167   2.558  10.793  1.00  0.00    -0.272 OA
ATOM     25  H   UNL     1      -8.104  -0.551  11.358  1.00  0.00     0.163 HD
BRANCH  23  26
ATOM     26  C   UNL     1      -6.294   1.134  11.443  1.00  0.00     0.238 C 
ATOM     27  N   UNL     1      -5.428   1.343  10.250  1.00  0.00    -0.236 NA
ATOM     28  C   UNL     1      -5.766   2.087  12.502  1.00  0.00     0.206 C 
ATOM     29  C   UNL     1      -4.737   2.398  10.565  1.00  0.00     0.208 C 
ATOM     30  O   UNL     1      -4.927   2.983  11.774  1.00  0.00    -0.474 OA
ATOM     31  C   UNL     1      -4.924   1.382  13.557  1.00  0.00     0.056 C 
BRANCH  29  32
ATOM     32  C   UNL     1      -3.728   3.118   9.675  1.00  0.00     0.171 C 
BRANCH  32  33
ATOM     33  N   UNL     1      -3.821   2.650   8.301  1.00  0.00    -0.342 N 
ATOM     34  C   UNL     1      -2.801   1.969   7.679  1.00  0.00     0.246 CG0
ATOM     35  O   UNL     1      -1.728   1.727   8.225  1.00  0.00    -0.273 OA
ATOM     36  H   UNL     1      -4.639   2.846   7.735  1.00  0.00     0.164 HD
ATOM     37  G   UNL     1      -3.122   1.511   6.247  1.00  0.00     0.000 G0
ENDBRANCH  32  33
BRANCH  32  38
ATOM     38  C   UNL     1      -3.900   4.655   9.793  1.00  0.00     0.017 C 
ATOM     39  C   UNL     1      -2.542   5.351   9.634  1.00  0.00     0.010 C 
BRANCH  38  40
ATOM     40  C   UNL     1      -4.949   5.222   8.808  1.00  0.00     0.002 C 
ATOM     41  C   UNL     1      -5.679   6.450   9.335  1.00  0.00     0.004 C 
ENDBRANCH  38  40
ENDBRANCH  32  38
ENDBRANCH  29  32
ENDBRANCH  23  26
ENDBRANCH   1  22
TORSDOF 4
ENDMDL
MODEL 5
REMARK VINA RESULT:    -4.641      6.385      9.528
REMARK INTER + INTRA:          -9.516
REMARK INTER:                  -7.942
REMARK INTRA:                  -1.574
REMARK UNBOUND:                -1.619
REMARK SMILES CC[C@H](C)[C@@H]1NC(=O)[C@H]2CSC(=N2)[C@@H]([C@@H](C)CC)NC(=O)c2csc(n2)CNC(=O)[C@H]2N=C1O[C@@H]2C
REMARK SMILES IDX 27 1 25 2 22 3 26 4 23 5 24 6 20 7 19 8 21 9 14 11 12 12
REMARK SMILES IDX 11 13 10 14 13 15 9 16 15 18 16 19 17 20 18 21 28 22 29 23
REMARK SMILES IDX 30 24 31 26 32 27 35 28 33 29 34 30 36 31 5 32 6 33 7 34
REMARK SMILES IDX 8 35 3 38 4 39 2 40 1 41
REMARK H PARENT 19 10 28 25 6 36
REMARK Flexibility Score:   91.900
ROOT
ATOM      1  C   UNL     1      -2.198  -2.122   0.341  1.00  0.00     0.183 C 
ENDROOT
BRANCH   1   2
ATOM      2  C   UNL     1      -3.106  -1.014  -0.110  1.00  0.00     0.113 A 
ATOM      3  C   UNL     1      -3.893   0.662  -1.350  1.00  0.00     0.139 A 
ATOM      4  N   UNL     1      -2.980  -0.391  -1.267  1.00  0.00    -0.234 NA
ATOM      5  C   UNL     1      -4.737   0.774  -0.262  1.00  0.00     0.101 A 
ATOM      6  S   UNL     1      -4.371  -0.438   0.897  1.00  0.00    -0.125 S 
BRANCH   3   7
ATOM      7  C   UNL     1      -3.873   1.560  -2.506  1.00  0.00     0.271 C 
ATOM      8  N   UNL     1      -4.388   0.955  -3.626  1.00  0.00    -0.341 N 
ATOM      9  O   UNL     1      -3.419   2.697  -2.477  1.00  0.00    -0.267 OA
ATOM     10  H   UNL     1      -4.750   0.012  -3.490  1.00  0.00     0.164 HD
BRANCH   8  11
ATOM     11  C   UNL     1      -4.331   1.525  -4.963  1.00  0.00     0.140 C 
BRANCH  11  12
ATOM     12  C   UNL     1      -3.924   0.410  -5.931  1.00  0.00     0.091 C 
ATOM     13  S   UNL     1      -5.122  -0.692  -6.568  1.00  0.00    -0.106 SA
ATOM     14  C   UNL     1      -3.928  -1.315  -7.770  1.00  0.00     0.113 C 
ATOM     15  N   UNL     1      -2.687   0.197  -6.253  1.00  0.00    -0.267 NA
ATOM     16  C   UNL     1      -2.584  -1.016  -7.124  1.00  0.00     0.205 CG0
ATOM     17  G   UNL     1      -2.086  -2.228  -6.319  1.00  0.00     0.000 G0
ENDBRANCH  11  12
BRANCH  11  18
ATOM     18  C   UNL     1      -5.583   2.352  -5.350  1.00  0.00     0.015 C 
ATOM     19  C   UNL     1      -6.779   1.954  -4.474  1.00  0.00     0.010 C 
BRANCH  18  20
ATOM     20  C   UNL     1      -5.371   3.879  -5.354  1.00  0.00     0.002 C 
ATOM     21  C   UNL     1      -6.665   4.660  -5.155  1.00  0.00     0.004 C 
ENDBRANCH  18  20
ENDBRANCH  11  18
ENDBRANCH   8  11
ENDBRANCH   3   7
ENDBRANCH   1   2
BRANCH   1  22
ATOM     22  N   UNL     1      -1.103  -2.195  -0.600  1.00  0.00    -0.348 N 
ATOM     23  C   UNL     1      -0.662  -3.346  -1.195  1.00  0.00     0.249 C 
ATOM     24  O   UNL     1      -1.213  -4.431  -1.050  1.00  0.00    -0.272 OA
ATOM     25  H   UNL     1      -0.559  -1.351  -0.777  1.00  0.00     0.163 HD
BRANCH  23  26
ATOM     26  C   UNL     1       0.554  -3.117  -2.105  1.00  0.00     0.238 C 
ATOM     27  N   UNL     1       0.455  -4.012  -3.291  1.00  0.00    -0.236 NA
ATOM     28  C   UNL     1       0.589  -1.705  -2.663  1.00  0.00     0.206 C 
ATOM     29  C   UNL     1       0.229  -3.186  -4.269  1.00  0.00     0.208 C 
ATOM     30  O   UNL     1       0.163  -1.856  -4.016  1.00  0.00    -0.474 OA
ATOM     31  C   UNL     1       1.991  -1.109  -2.658  1.00  0.00     0.056 C 
BRANCH  29  32
ATOM     32  C   UNL     1      -0.034  -3.559  -5.725  1.00  0.00     0.171 C 
BRANCH  32  33
ATOM     33  N   UNL     1      -0.710  -2.478  -6.424  1.00  0.00    -0.342 N 
ATOM     34  C   UNL     1      -2.064  -2.266  -6.329  1.00  0.00     0.246 CG0
ATOM     35  O   UNL     1      -2.810  -2.986  -5.670  1.00  0.00    -0.273 OA
ATOM     36  H   UNL     1      -0.202  -1.856  -7.045  1.00  0.00     0.164 HD
ATOM     37  G   UNL     1      -2.573  -1.035  -7.098  1.00  0.00     0.000 G0
ENDBRANCH  32  33
BRANCH  32  38
ATOM     38  C   UNL     1       1.285  -3.986  -6.422  1.00  0.00     0.017 C 
ATOM     39  C   UNL     1       1.014  -4.337  -7.891  1.00  0.00     0.010 C 
BRANCH  38  40
ATOM     40  C   UNL     1       2.407  -2.931  -6.286  1.00  0.00     0.002 C 
ATOM     41  C   UNL     1       2.529  -2.012  -7.495  1.00  0.00     0.004 C 
ENDBRANCH  38  40
ENDBRANCH  32  38
ENDBRANCH  29  32
ENDBRANCH  23  26
ENDBRANCH   1  22
TORSDOF 4
ENDMDL
MODEL 6
REMARK VINA RESULT:    -4.528      6.417     10.071
REMARK INTER + INTRA:          -9.324
REMARK INTER:                  -7.692
REMARK INTRA:                  -1.632
REMARK UNBOUND:                -1.619
REMARK SMILES CC[C@H](C)[C@@H]1NC(=O)[C@H]2CSC(=N2)[C@@H]([C@@H](C)CC)NC(=O)c2csc(n2)CNC(=O)[C@H]2N=C1O[C@@H]2C
REMARK SMILES IDX 27 1 25 2 22 3 26 4 23 5 24 6 20 7 19 8 21 9 14 11 12 12
REMARK SMILES IDX 11 13 10 14 13 15 9 16 15 18 16 19 17 20 18 21 28 22 29 23
REMARK SMILES IDX 30 24 31 26 32 27 35 28 33 29 34 30 36 31 5 32 6 33 7 34
REMARK SMILES IDX 8 35 3 38 4 39 2 40 1 41
REMARK H PARENT 19 10 28 25 6 36
REMARK Flexibility Score:   91.900
ROOT
ATOM      1  C   UNL     1      -2.771  -3.112  -2.169  1.00  0.00     0.183 C 
ENDROOT
BRANCH   1   2
ATOM      2  C   UNL     1      -1.765  -2.542  -3.127  1.00  0.00     0.113 A 
ATOM      3  C   UNL     1      -0.937  -1.341  -4.811  1.00  0.00     0.139 A 
ATOM      4  N   UNL     1      -2.036  -1.573  -3.982  1.00  0.00    -0.234 NA
ATOM      5  C   UNL     1       0.172  -2.110  -4.520  1.00  0.00     0.101 A 
ATOM      6  S   UNL     1      -0.165  -3.161  -3.206  1.00  0.00    -0.125 S 
BRANCH   3   7
ATOM      7  C   UNL     1      -1.038  -0.375  -5.908  1.00  0.00     0.271 C 
ATOM      8  N   UNL     1      -1.831   0.694  -5.569  1.00  0.00    -0.341 N 
ATOM      9  O   UNL     1      -0.506  -0.527  -7.000  1.00  0.00    -0.267 OA
ATOM     10  H   UNL     1      -2.186   0.694  -4.613  1.00  0.00     0.164 HD
BRANCH   8  11
ATOM     11  C   UNL     1      -2.268   1.716  -6.505  1.00  0.00     0.140 C 
BRANCH  11  12
ATOM     12  C   UNL     1      -3.765   1.947  -6.283  1.00  0.00     0.091 C 
ATOM     13  S   UNL     1      -4.391   2.230  -4.675  1.00  0.00    -0.106 SA
ATOM     14  C   UNL     1      -5.982   2.728  -5.368  1.00  0.00     0.113 C 
ATOM     15  N   UNL     1      -4.624   1.870  -7.251  1.00  0.00    -0.267 NA
ATOM     16  C   UNL     1      -6.014   2.033  -6.720  1.00  0.00     0.205 CG0
ATOM     17  G   UNL     1      -6.725   0.674  -6.617  1.00  0.00     0.000 G0
ENDBRANCH  11  12
BRANCH  11  18
ATOM     18  C   UNL     1      -1.371   2.981  -6.523  1.00  0.00     0.015 C 
ATOM     19  C   UNL     1      -0.989   3.386  -5.093  1.00  0.00     0.010 C 
BRANCH  18  20
ATOM     20  C   UNL     1      -0.128   2.876  -7.429  1.00  0.00     0.002 C 
ATOM     21  C   UNL     1       1.171   2.733  -6.644  1.00  0.00     0.004 C 
ENDBRANCH  18  20
ENDBRANCH  11  18
ENDBRANCH   8  11
ENDBRANCH   3   7
ENDBRANCH   1   2
BRANCH   1  22
ATOM     22  N   UNL     1      -4.072  -2.622  -2.565  1.00  0.00    -0.348 N 
ATOM     23  C   UNL     1      -5.189  -3.400  -2.706  1.00  0.00     0.249 C 
ATOM     24  O   UNL     1      -5.217  -4.592  -2.424  1.00  0.00    -0.272 OA
ATOM     25  H   UNL     1      -4.157  -1.645  -2.845  1.00  0.00     0.163 HD
BRANCH  23  26
ATOM     26  C   UNL     1      -6.410  -2.605  -3.193  1.00  0.00     0.238 C 
ATOM     27  N   UNL     1      -6.001  -1.715  -4.315  1.00  0.00    -0.236 NA
ATOM     28  C   UNL     1      -7.486  -3.512  -3.766  1.00  0.00     0.206 C 
ATOM     29  C   UNL     1      -6.591  -2.243  -5.345  1.00  0.00     0.208 C 
ATOM     30  O   UNL     1      -7.368  -3.341  -5.177  1.00  0.00    -0.474 OA
ATOM     31  C   UNL     1      -8.888  -3.095  -3.342  1.00  0.00     0.056 C 
BRANCH  29  32
ATOM     32  C   UNL     1      -6.466  -1.781  -6.794  1.00  0.00     0.171 C 
BRANCH  32  33
ATOM     33  N   UNL     1      -5.960  -0.420  -6.864  1.00  0.00    -0.342 N 
ATOM     34  C   UNL     1      -6.755   0.679  -6.640  1.00  0.00     0.246 CG0
ATOM     35  O   UNL     1      -7.955   0.598  -6.391  1.00  0.00    -0.273 OA
ATOM     36  H   UNL     1      -4.997  -0.231  -7.120  1.00  0.00     0.164 HD
ATOM     37  G   UNL     1      -6.014   2.025  -6.703  1.00  0.00     0.000 G0
ENDBRANCH  32  33
BRANCH  32  38
ATOM     38  C   UNL     1      -5.602  -2.779  -7.609  1.00  0.00     0.017 C 
ATOM     39  C   UNL     1      -6.505  -3.734  -8.401  1.00  0.00     0.010 C 
BRANCH  38  40
ATOM     40  C   UNL     1      -4.573  -2.078  -8.525  1.00  0.00     0.002 C 
ATOM     41  C   UNL     1      -4.041  -2.970  -9.639  1.00  0.00     0.004 C 
ENDBRANCH  38  40
ENDBRANCH  32  38
ENDBRANCH  29  32
ENDBRANCH  23  26
ENDBRANCH   1  22
TORSDOF 4
ENDMDL
MODEL 7
REMARK VINA RESULT:    -4.423      7.123     10.004
REMARK INTER + INTRA:          -9.146
REMARK INTER:                  -7.495
REMARK INTRA:                  -1.651
REMARK UNBOUND:                -1.619
REMARK SMILES CC[C@H](C)[C@@H]1NC(=O)[C@H]2CSC(=N2)[C@@H]([C@@H](C)CC)NC(=O)c2csc(n2)CNC(=O)[C@H]2N=C1O[C@@H]2C
REMARK SMILES IDX 27 1 25 2 22 3 26 4 23 5 24 6 20 7 19 8 21 9 14 11 12 12
REMARK SMILES IDX 11 13 10 14 13 15 9 16 15 18 16 19 17 20 18 21 28 22 29 23
REMARK SMILES IDX 30 24 31 26 32 27 35 28 33 29 34 30 36 31 5 32 6 33 7 34
REMARK SMILES IDX 8 35 3 38 4 39 2 40 1 41
REMARK H PARENT 19 10 28 25 6 36
REMARK Flexibility Score:   91.900
ROOT
ATOM      1  C   UNL     1      -4.222  -4.062  -8.717  1.00  0.00     0.183 C 
ENDROOT
BRANCH   1   2
ATOM      2  C   UNL     1      -2.988  -3.804  -7.900  1.00  0.00     0.113 A 
ATOM      3  C   UNL     1      -1.648  -2.864  -6.388  1.00  0.00     0.139 A 
ATOM      4  N   UNL     1      -2.954  -2.981  -6.868  1.00  0.00    -0.234 NA
ATOM      5  C   UNL     1      -0.725  -3.657  -7.042  1.00  0.00     0.101 A 
ATOM      6  S   UNL     1      -1.491  -4.546  -8.294  1.00  0.00    -0.125 S 
BRANCH   3   7
ATOM      7  C   UNL     1      -1.346  -1.926  -5.304  1.00  0.00     0.271 C 
ATOM      8  N   UNL     1      -2.050  -2.227  -4.164  1.00  0.00    -0.341 N 
ATOM      9  O   UNL     1      -0.586  -0.973  -5.421  1.00  0.00    -0.267 OA
ATOM     10  H   UNL     1      -2.627  -3.066  -4.211  1.00  0.00     0.164 HD
BRANCH   8  11
ATOM     11  C   UNL     1      -2.103  -1.374  -2.988  1.00  0.00     0.140 C 
BRANCH  11  12
ATOM     12  C   UNL     1      -3.577  -1.146  -2.640  1.00  0.00     0.091 C 
ATOM     13  S   UNL     1      -4.748  -2.427  -2.853  1.00  0.00    -0.106 SA
ATOM     14  C   UNL     1      -5.972  -1.480  -1.924  1.00  0.00     0.113 C 
ATOM     15  N   UNL     1      -4.020   0.008  -2.251  1.00  0.00    -0.267 NA
ATOM     16  C   UNL     1      -5.507  -0.041  -2.089  1.00  0.00     0.205 CG0
ATOM     17  G   UNL     1      -6.211   0.625  -3.282  1.00  0.00     0.000 G0
ENDBRANCH  11  12
BRANCH  11  18
ATOM     18  C   UNL     1      -1.186  -1.841  -1.829  1.00  0.00     0.015 C 
ATOM     19  C   UNL     1      -1.004  -0.714  -0.803  1.00  0.00     0.010 C 
BRANCH  18  20
ATOM     20  C   UNL     1      -1.622  -3.156  -1.151  1.00  0.00     0.002 C 
ATOM     21  C   UNL     1      -0.444  -4.039  -0.753  1.00  0.00     0.004 C 
ENDBRANCH  18  20
ENDBRANCH  11  18
ENDBRANCH   8  11
ENDBRANCH   3   7
ENDBRANCH   1   2
BRANCH   1  22
ATOM     22  N   UNL     1      -5.319  -3.375  -8.073  1.00  0.00    -0.348 N 
ATOM     23  C   UNL     1      -6.021  -2.338  -8.625  1.00  0.00     0.249 C 
ATOM     24  O   UNL     1      -5.841  -1.940  -9.771  1.00  0.00    -0.272 OA
ATOM     25  H   UNL     1      -5.539  -3.613  -7.107  1.00  0.00     0.163 HD
BRANCH  23  26
ATOM     26  C   UNL     1      -7.092  -1.775  -7.680  1.00  0.00     0.238 C 
ATOM     27  N   UNL     1      -6.432  -1.200  -6.475  1.00  0.00    -0.236 NA
ATOM     28  C   UNL     1      -7.859  -0.624  -8.311  1.00  0.00     0.206 C 
ATOM     29  C   UNL     1      -6.627   0.078  -6.609  1.00  0.00     0.208 C 
ATOM     30  O   UNL     1      -7.323   0.537  -7.678  1.00  0.00    -0.474 OA
ATOM     31  C   UNL     1      -9.353  -0.690  -8.023  1.00  0.00     0.056 C 
BRANCH  29  32
ATOM     32  C   UNL     1      -6.098   1.175  -5.690  1.00  0.00     0.171 C 
BRANCH  32  33
ATOM     33  N   UNL     1      -5.554   0.609  -4.466  1.00  0.00    -0.342 N 
ATOM     34  C   UNL     1      -6.222   0.657  -3.266  1.00  0.00     0.246 CG0
ATOM     35  O   UNL     1      -7.315   1.201  -3.129  1.00  0.00    -0.273 OA
ATOM     36  H   UNL     1      -4.632   0.186  -4.448  1.00  0.00     0.164 HD
ATOM     37  G   UNL     1      -5.502  -0.051  -2.106  1.00  0.00     0.000 G0
ENDBRANCH  32  33
BRANCH  32  38
ATOM     38  C   UNL     1      -5.073   2.064  -6.441  1.00  0.00     0.017 C 
ATOM     39  C   UNL     1      -4.795   3.341  -5.638  1.00  0.00     0.010 C 
BRANCH  38  40
ATOM     40  C   UNL     1      -3.765   1.316  -6.788  1.00  0.00     0.002 C 
ATOM     41  C   UNL     1      -2.543   1.849  -6.053  1.00  0.00     0.004 C 
ENDBRANCH  38  40
ENDBRANCH  32  38
ENDBRANCH  29  32
ENDBRANCH  23  26
ENDBRANCH   1  22
TORSDOF 4
ENDMDL
MODEL 8
REMARK VINA RESULT:    -4.408     16.403     20.249
REMARK INTER + INTRA:          -9.119
REMARK INTER:                  -8.970
REMARK INTRA:                  -0.149
REMARK UNBOUND:                -1.619
REMARK SMILES CC[C@H](C)[C@@H]1NC(=O)[C@H]2CSC(=N2)[C@@H]([C@@H](C)CC)NC(=O)c2csc(n2)CNC(=O)[C@H]2N=C1O[C@@H]2C
REMARK SMILES IDX 27 1 25 2 22 3 26 4 23 5 24 6 20 7 19 8 21 9 14 11 12 12
REMARK SMILES IDX 11 13 10 14 13 15 9 16 15 18 16 19 17 20 18 21 28 22 29 23
REMARK SMILES IDX 30 24 31 26 32 27 35 28 33 29 34 30 36 31 5 32 6 33 7 34
REMARK SMILES IDX 8 35 3 38 4 39 2 40 1 41
REMARK H PARENT 19 10 28 25 6 36
REMARK Flexibility Score:   91.900
ROOT
ATOM      1  C   UNL     1       1.423   0.655   5.890  1.00  0.00     0.183 C 
ENDROOT
BRANCH   1   2
ATOM      2  C   UNL     1       0.278  -0.037   5.207  1.00  0.00     0.113 A 
ATOM      3  C   UNL     1      -1.777  -0.831   4.872  1.00  0.00     0.139 A 
ATOM      4  N   UNL     1      -0.965  -0.005   5.651  1.00  0.00    -0.234 NA
ATOM      5  C   UNL     1      -1.130  -1.430   3.808  1.00  0.00     0.101 A 
ATOM      6  S   UNL     1       0.525  -0.976   3.792  1.00  0.00    -0.125 S 
BRANCH   3   7
ATOM      7  C   UNL     1      -3.181  -1.034   5.236  1.00  0.00     0.271 C 
ATOM      8  N   UNL     1      -3.888   0.143   5.199  1.00  0.00    -0.341 N 
ATOM      9  O   UNL     1      -3.650  -2.116   5.564  1.00  0.00    -0.267 OA
ATOM     10  H   UNL     1      -3.367   0.960   4.883  1.00  0.00     0.164 HD
BRANCH   8  11
ATOM     11  C   UNL     1      -5.249   0.294   5.686  1.00  0.00     0.140 C 
BRANCH  11  12
ATOM     12  C   UNL     1      -5.226   1.297   6.843  1.00  0.00     0.091 C 
ATOM     13  S   UNL     1      -4.933   2.994   6.541  1.00  0.00    -0.106 SA
ATOM     14  C   UNL     1      -5.427   3.394   8.230  1.00  0.00     0.113 C 
ATOM     15  N   UNL     1      -5.345   0.924   8.078  1.00  0.00    -0.267 NA
ATOM     16  C   UNL     1      -5.177   2.100   8.989  1.00  0.00     0.205 CG0
ATOM     17  G   UNL     1      -3.777   2.105   9.625  1.00  0.00     0.000 G0
ENDBRANCH  11  12
BRANCH  11  18
ATOM     18  C   UNL     1      -6.293   0.554   4.570  1.00  0.00     0.015 C 
ATOM     19  C   UNL     1      -6.379  -0.653   3.626  1.00  0.00     0.010 C 
BRANCH  18  20
ATOM     20  C   UNL     1      -7.688   0.973   5.077  1.00  0.00     0.002 C 
ATOM     21  C   UNL     1      -8.669   1.266   3.947  1.00  0.00     0.004 C 
ENDBRANCH  18  20
ENDBRANCH  11  18
ENDBRANCH   8  11
ENDBRANCH   3   7
ENDBRANCH   1   2
BRANCH   1  22
ATOM     22  N   UNL     1       0.915   1.890   6.444  1.00  0.00    -0.348 N 
ATOM     23  C   UNL     1       1.165   2.336   7.713  1.00  0.00     0.249 C 
ATOM     24  O   UNL     1       1.924   1.766   8.489  1.00  0.00    -0.272 OA
ATOM     25  H   UNL     1       0.253   2.433   5.890  1.00  0.00     0.163 HD
BRANCH  23  26
ATOM     26  C   UNL     1       0.442   3.653   8.034  1.00  0.00     0.238 C 
ATOM     27  N   UNL     1      -0.944   3.355   8.491  1.00  0.00    -0.236 NA
ATOM     28  C   UNL     1       1.099   4.396   9.185  1.00  0.00     0.206 C 
ATOM     29  C   UNL     1      -0.917   3.673   9.751  1.00  0.00     0.208 C 
ATOM     30  O   UNL     1       0.226   4.164  10.290  1.00  0.00    -0.474 OA
ATOM     31  C   UNL     1       1.184   5.897   8.940  1.00  0.00     0.056 C 
BRANCH  29  32
ATOM     32  C   UNL     1      -2.057   3.503  10.751  1.00  0.00     0.171 C 
BRANCH  32  33
ATOM     33  N   UNL     1      -3.327   3.326  10.066  1.00  0.00    -0.342 N 
ATOM     34  C   UNL     1      -3.783   2.096   9.656  1.00  0.00     0.246 CG0
ATOM     35  O   UNL     1      -3.145   1.058   9.813  1.00  0.00    -0.273 OA
ATOM     36  H   UNL     1      -3.911   4.121   9.830  1.00  0.00     0.164 HD
ATOM     37  G   UNL     1      -5.175   2.117   9.004  1.00  0.00     0.000 G0
ENDBRANCH  32  33
BRANCH  32  38
ATOM     38  C   UNL     1      -1.746   2.345  11.736  1.00  0.00     0.017 C 
ATOM     39  C   UNL     1      -0.232   2.115  11.819  1.00  0.00     0.010 C 
BRANCH  38  40
ATOM     40  C   UNL     1      -2.366   2.562  13.136  1.00  0.00     0.002 C 
ATOM     41  C   UNL     1      -2.459   1.288  13.965  1.00  0.00     0.004 C 
ENDBRANCH  38  40
ENDBRANCH  32  38
ENDBRANCH  29  32
ENDBRANCH  23  26
ENDBRANCH   1  22
TORSDOF 4
ENDMDL
MODEL 9
REMARK VINA RESULT:    -4.357      5.967      8.671
REMARK INTER + INTRA:          -9.032
REMARK INTER:                  -7.660
REMARK INTRA:                  -1.372
REMARK UNBOUND:                -1.619
REMARK SMILES CC[C@H](C)[C@@H]1NC(=O)[C@H]2CSC(=N2)[C@@H]([C@@H](C)CC)NC(=O)c2csc(n2)CNC(=O)[C@H]2N=C1O[C@@H]2C
REMARK SMILES IDX 27 1 25 2 22 3 26 4 23 5 24 6 20 7 19 8 21 9 14 11 12 12
REMARK SMILES IDX 11 13 10 14 13 15 9 16 15 18 16 19 17 20 18 21 28 22 29 23
REMARK SMILES IDX 30 24 31 26 32 27 35 28 33 29 34 30 36 31 5 32 6 33 7 34
REMARK SMILES IDX 8 35 3 38 4 39 2 40 1 41
REMARK H PARENT 19 10 28 25 6 36
REMARK Flexibility Score:   91.900
ROOT
ATOM      1  C   UNL     1      -0.641  -4.641  -8.427  1.00  0.00     0.183 C 
ENDROOT
BRANCH   1   2
ATOM      2  C   UNL     1       0.442  -4.062  -7.563  1.00  0.00     0.113 A 
ATOM      3  C   UNL     1       1.427  -2.756  -6.049  1.00  0.00     0.139 A 
ATOM      4  N   UNL     1       0.218  -3.194  -6.593  1.00  0.00    -0.234 NA
ATOM      5  C   UNL     1       2.548  -3.355  -6.590  1.00  0.00     0.101 A 
ATOM      6  S   UNL     1       2.091  -4.467  -7.815  1.00  0.00    -0.125 S 
BRANCH   3   7
ATOM      7  C   UNL     1       1.433  -1.712  -5.022  1.00  0.00     0.271 C 
ATOM      8  N   UNL     1       0.760  -2.110  -3.893  1.00  0.00    -0.341 N 
ATOM      9  O   UNL     1       1.948  -0.611  -5.173  1.00  0.00    -0.267 OA
ATOM     10  H   UNL     1       0.405  -3.065  -3.905  1.00  0.00     0.164 HD
BRANCH   8  11
ATOM     11  C   UNL     1       0.437  -1.230  -2.782  1.00  0.00     0.140 C 
BRANCH  11  12
ATOM     12  C   UNL     1      -1.055  -1.386  -2.477  1.00  0.00     0.091 C 
ATOM     13  S   UNL     1      -1.860  -2.915  -2.744  1.00  0.00    -0.106 SA
ATOM     14  C   UNL     1      -3.308  -2.325  -1.841  1.00  0.00     0.113 C 
ATOM     15  N   UNL     1      -1.784  -0.389  -2.085  1.00  0.00    -0.267 NA
ATOM     16  C   UNL     1      -3.215  -0.813  -1.970  1.00  0.00     0.205 CG0
ATOM     17  G   UNL     1      -4.032  -0.320  -3.176  1.00  0.00     0.000 G0
ENDBRANCH  11  12
BRANCH  11  18
ATOM     18  C   UNL     1       1.404  -1.356  -1.576  1.00  0.00     0.015 C 
ATOM     19  C   UNL     1       0.791  -2.249  -0.490  1.00  0.00     0.010 C 
BRANCH  18  20
ATOM     20  C   UNL     1       2.832  -1.811  -1.940  1.00  0.00     0.002 C 
ATOM     21  C   UNL     1       3.783  -0.645  -2.188  1.00  0.00     0.004 C 
ENDBRANCH  18  20
ENDBRANCH  11  18
ENDBRANCH   8  11
ENDBRANCH   3   7
ENDBRANCH   1   2
BRANCH   1  22
ATOM     22  N   UNL     1      -1.906  -4.166  -7.912  1.00  0.00    -0.348 N 
ATOM     23  C   UNL     1      -2.595  -3.093  -8.407  1.00  0.00     0.249 C 
ATOM     24  O   UNL     1      -2.246  -2.471  -9.404  1.00  0.00    -0.272 OA
ATOM     25  H   UNL     1      -2.278  -4.600  -7.068  1.00  0.00     0.163 HD
BRANCH  23  26
ATOM     26  C   UNL     1      -3.880  -2.796  -7.618  1.00  0.00     0.238 C 
ATOM     27  N   UNL     1      -3.527  -2.092  -6.354  1.00  0.00    -0.236 NA
ATOM     28  C   UNL     1      -4.801  -1.848  -8.368  1.00  0.00     0.206 C 
ATOM     29  C   UNL     1      -3.991  -0.893  -6.541  1.00  0.00     0.208 C 
ATOM     30  O   UNL     1      -4.630  -0.599  -7.700  1.00  0.00    -0.474 OA
ATOM     31  C   UNL     1      -6.265  -2.256  -8.269  1.00  0.00     0.056 C 
BRANCH  29  32
ATOM     32  C   UNL     1      -3.848   0.291  -5.589  1.00  0.00     0.171 C 
BRANCH  32  33
ATOM     33  N   UNL     1      -3.266  -0.128  -4.323  1.00  0.00    -0.342 N 
ATOM     34  C   UNL     1      -4.013  -0.293  -3.182  1.00  0.00     0.246 CG0
ATOM     35  O   UNL     1      -5.222  -0.076  -3.135  1.00  0.00    -0.273 OA
ATOM     36  H   UNL     1      -2.267  -0.279  -4.230  1.00  0.00     0.164 HD
ATOM     37  G   UNL     1      -3.218  -0.797  -1.967  1.00  0.00     0.000 G0
ENDBRANCH  32  33
BRANCH  32  38
ATOM     38  C   UNL     1      -3.047   1.436  -6.262  1.00  0.00     0.017 C 
ATOM     39  C   UNL     1      -2.994   2.658  -5.336  1.00  0.00     0.010 C 
BRANCH  38  40
ATOM     40  C   UNL     1      -1.632   1.000  -6.709  1.00  0.00     0.002 C 
ATOM     41  C   UNL     1      -0.716   2.166  -7.055  1.00  0.00     0.004 C 
ENDBRANCH  38  40
ENDBRANCH  32  38
ENDBRANCH  29  32
ENDBRANCH  23  26
ENDBRANCH   1  22
TORSDOF 4
ENDMDL
MODEL 10
REMARK VINA RESULT:    -4.151     17.585     23.111
REMARK INTER + INTRA:          -8.683
REMARK INTER:                  -8.455
REMARK INTRA:                  -0.228
REMARK UNBOUND:                -1.619
REMARK SMILES CC[C@H](C)[C@@H]1NC(=O)[C@H]2CSC(=N2)[C@@H]([C@@H](C)CC)NC(=O)c2csc(n2)CNC(=O)[C@H]2N=C1O[C@@H]2C
REMARK SMILES IDX 27 1 25 2 22 3 26 4 23 5 24 6 20 7 19 8 21 9 14 11 12 12
REMARK SMILES IDX 11 13 10 14 13 15 9 16 15 18 16 19 17 20 18 21 28 22 29 23
REMARK SMILES IDX 30 24 31 26 32 27 35 28 33 29 34 30 36 31 5 32 6 33 7 34
REMARK SMILES IDX 8 35 3 38 4 39 2 40 1 41
REMARK H PARENT 19 10 28 25 6 36
REMARK Flexibility Score:   91.900
ROOT
ATOM      1  C   UNL     1      -9.522   0.178  11.081  1.00  0.00     0.183 C 
ENDROOT
BRANCH   1   2
ATOM      2  C   UNL     1      -9.689  -0.073   9.610  1.00  0.00     0.113 A 
ATOM      3  C   UNL     1      -9.315   0.058   7.417  1.00  0.00     0.139 A 
ATOM      4  N   UNL     1      -8.832   0.342   8.696  1.00  0.00    -0.234 NA
ATOM      5  C   UNL     1     -10.515  -0.626   7.398  1.00  0.00     0.101 A 
ATOM      6  S   UNL     1     -11.065  -0.899   9.001  1.00  0.00    -0.125 S 
BRANCH   3   7
ATOM      7  C   UNL     1      -8.579   0.515   6.237  1.00  0.00     0.271 C 
ATOM      8  N   UNL     1      -7.265   0.782   6.532  1.00  0.00    -0.341 N 
ATOM      9  O   UNL     1      -9.090   0.671   5.134  1.00  0.00    -0.267 OA
ATOM     10  H   UNL     1      -6.979   0.582   7.490  1.00  0.00     0.164 HD
BRANCH   8  11
ATOM     11  C   UNL     1      -6.336   1.425   5.617  1.00  0.00     0.140 C 
BRANCH  11  12
ATOM     12  C   UNL     1      -5.494   2.418   6.423  1.00  0.00     0.091 C 
ATOM     13  S   UNL     1      -4.076   1.879   7.291  1.00  0.00    -0.106 SA
ATOM     14  C   UNL     1      -3.580   3.593   7.570  1.00  0.00     0.113 C 
ATOM     15  N   UNL     1      -5.836   3.661   6.553  1.00  0.00    -0.267 NA
ATOM     16  C   UNL     1      -4.889   4.361   7.477  1.00  0.00     0.205 CG0
ATOM     17  G   UNL     1      -5.514   4.539   8.870  1.00  0.00     0.000 G0
ENDBRANCH  11  12
BRANCH  11  18
ATOM     18  C   UNL     1      -5.557   0.436   4.712  1.00  0.00     0.015 C 
ATOM     19  C   UNL     1      -5.255  -0.861   5.473  1.00  0.00     0.010 C 
BRANCH  18  20
ATOM     20  C   UNL     1      -6.221   0.149   3.350  1.00  0.00     0.002 C 
ATOM     21  C   UNL     1      -6.427   1.406   2.512  1.00  0.00     0.004 C 
ENDBRANCH  18  20
ENDBRANCH  11  18
ENDBRANCH   8  11
ENDBRANCH   3   7
ENDBRANCH   1   2
BRANCH   1  22
ATOM     22  N   UNL     1      -8.124   0.461  11.316  1.00  0.00    -0.348 N 
ATOM     23  C   UNL     1      -7.608   0.909  12.502  1.00  0.00     0.249 C 
ATOM     24  O   UNL     1      -8.277   1.036  13.521  1.00  0.00    -0.272 OA
ATOM     25  H   UNL     1      -7.480   0.409  10.528  1.00  0.00     0.163 HD
BRANCH  23  26
ATOM     26  C   UNL     1      -6.097   1.174  12.431  1.00  0.00     0.238 C 
ATOM     27  N   UNL     1      -5.817   2.128  11.323  1.00  0.00    -0.236 NA
ATOM     28  C   UNL     1      -5.578   1.848  13.689  1.00  0.00     0.206 C 
ATOM     29  C   UNL     1      -5.445   3.207  11.945  1.00  0.00     0.208 C 
ATOM     30  O   UNL     1      -5.385   3.207  13.300  1.00  0.00    -0.474 OA
ATOM     31  C   UNL     1      -4.241   1.280  14.149  1.00  0.00     0.056 C 
BRANCH  29  32
ATOM     32  C   UNL     1      -5.101   4.548  11.304  1.00  0.00     0.171 C 
BRANCH  32  33
ATOM     33  N   UNL     1      -4.682   4.371   9.923  1.00  0.00    -0.342 N 
ATOM     34  C   UNL     1      -5.536   4.550   8.861  1.00  0.00     0.246 CG0
ATOM     35  O   UNL     1      -6.720   4.847   8.996  1.00  0.00    -0.273 OA
ATOM     36  H   UNL     1      -3.740   4.070   9.695  1.00  0.00     0.164 HD
ATOM     37  G   UNL     1      -4.882   4.373   7.481  1.00  0.00     0.000 G0
ENDBRANCH  32  33
BRANCH  32  38
ATOM     38  C   UNL     1      -6.289   5.537  11.443  1.00  0.00     0.017 C 
ATOM     39  C   UNL     1      -7.244   5.059  12.544  1.00  0.00     0.010 C 
BRANCH  38  40
ATOM     40  C   UNL     1      -5.834   6.996  11.677  1.00  0.00     0.002 C 
ATOM     41  C   UNL     1      -4.941   7.167  12.899  1.00  0.00     0.004 C 
ENDBRANCH  38  40
ENDBRANCH  32  38
ENDBRANCH  29  32
ENDBRANCH  23  26
ENDBRANCH   1  22
TORSDOF 4
ENDMDL
