MODEL 1
REMARK VINA RESULT:    -6.459      0.000      0.000
REMARK INTER + INTRA:         -17.576
REMARK INTER:                 -13.067
REMARK INTRA:                  -4.509
REMARK UNBOUND:                -4.509
REMARK SMILES CC[C@@H](C)[C@@H](NC(=O)[C@@H](O)Cc1ccc(O)c(Cl)c1)C(=O)N1[C@H](C(=O)NCCCCN=C(N)N)C[C@H]2CC[C@H](OS(=O)(=O)O)C[C@@H]21
REMARK SMILES IDX 22 1 36 2 46 3 35 4 23 5 45 6 37 7 39 8 38 9 20 10 21 11
REMARK SMILES IDX 5 12 6 13 7 14 8 15 9 17 11 18 12 19 17 20 19 21 15 22 14 23
REMARK SMILES IDX 13 24 18 25 16 26 10 28 3 30 4 31 2 32 1 33 24 34 25 35
REMARK SMILES IDX 26 36 27 38 28 39 29 40 30 41 31 42 32 43 33 44 34 45 40 50
REMARK SMILES IDX 41 51 42 52 43 53 44 54
REMARK H PARENT 6 16 16 27 10 29 26 37 33 46 33 47 34 48 34 49 44 55
ROOT
ATOM      1  N   UNL     1       0.173  -6.415   2.275  1.00  0.00    -0.326 N 
ATOM      2  C   UNL     1      -1.111  -7.731   3.746  1.00  0.00     0.014 C 
ATOM      3  C   UNL     1      -1.203  -6.562   2.760  1.00  0.00     0.091 C 
ATOM      4  C   UNL     1       0.268  -7.545   4.358  1.00  0.00     0.041 C 
ATOM      5  C   UNL     1       1.091  -7.246   3.092  1.00  0.00     0.175 C 
ATOM      6  C   UNL     1      -2.300  -6.871   1.744  1.00  0.00     0.059 C 
ATOM      7  C   UNL     1      -2.327  -7.774   4.650  1.00  0.00     0.008 C 
ATOM      8  C   UNL     1      -3.460  -7.714   2.319  1.00  0.00     0.143 C 
ATOM      9  C   UNL     1      -3.617  -7.521   3.841  1.00  0.00     0.034 C 
ENDROOT
BRANCH   1  10
ATOM     10  C   UNL     1       0.704  -5.506   1.376  1.00  0.00     0.246 C 
ATOM     11  O   UNL     1       1.017  -5.891   0.245  1.00  0.00    -0.272 OA
BRANCH  10  12
ATOM     12  C   UNL     1       0.857  -4.015   1.794  1.00  0.00     0.174 C 
BRANCH  12  13
ATOM     13  N   UNL     1       1.979  -3.868   2.721  1.00  0.00    -0.342 N 
ATOM     14  C   UNL     1       2.952  -2.898   2.637  1.00  0.00     0.249 C 
ATOM     15  O   UNL     1       2.969  -2.021   1.782  1.00  0.00    -0.272 OA
ATOM     16  H   UNL     1       2.184  -4.611   3.385  1.00  0.00     0.164 HD
BRANCH  14  17
ATOM     17  C   UNL     1       4.011  -3.019   3.753  1.00  0.00     0.207 C 
BRANCH  17  18
ATOM     18  C   UNL     1       3.417  -2.605   5.103  1.00  0.00     0.077 C 
BRANCH  18  19
ATOM     19  C   UNL     1       2.861  -3.791   5.859  1.00  0.00    -0.043 A 
ATOM     20  C   UNL     1       1.286  -4.717   7.454  1.00  0.00     0.083 A 
ATOM     21  C   UNL     1       1.764  -3.631   6.720  1.00  0.00     0.028 A 
ATOM     22  C   UNL     1       1.898  -5.965   7.335  1.00  0.00     0.134 A 
ATOM     23  C   UNL     1       2.985  -6.138   6.485  1.00  0.00     0.048 A 
ATOM     24  C   UNL     1       3.468  -5.052   5.751  1.00  0.00     0.008 A 
ATOM     25  Cl  UNL     1      -0.063  -4.501   8.507  1.00  0.00    -0.080 Cl
BRANCH  22  26
ATOM     26  O   UNL     1       1.471  -7.057   8.041  1.00  0.00    -0.506 OA
ATOM     27  H   UNL     1       1.481  -7.812   7.424  1.00  0.00     0.293 HD
ENDBRANCH  22  26
ENDBRANCH  18  19
ENDBRANCH  17  18
BRANCH  17  28
ATOM     28  O   UNL     1       5.159  -2.202   3.467  1.00  0.00    -0.383 OA
ATOM     29  H   UNL     1       5.944  -2.746   3.705  1.00  0.00     0.211 HD
ENDBRANCH  17  28
ENDBRANCH  14  17
ENDBRANCH  12  13
BRANCH  12  30
ATOM     30  C   UNL     1      -0.459  -3.412   2.357  1.00  0.00     0.018 C 
ATOM     31  C   UNL     1      -0.712  -2.013   1.772  1.00  0.00     0.010 C 
BRANCH  30  32
ATOM     32  C   UNL     1      -0.506  -3.358   3.903  1.00  0.00     0.002 C 
ATOM     33  C   UNL     1      -0.970  -2.034   4.495  1.00  0.00     0.004 C 
ENDBRANCH  30  32
ENDBRANCH  12  30
ENDBRANCH  10  12
ENDBRANCH   1  10
BRANCH   5  34
ATOM     34  C   UNL     1       1.473  -8.548   2.337  1.00  0.00     0.242 C 
ATOM     35  O   UNL     1       0.800  -9.575   2.415  1.00  0.00    -0.273 OA
ATOM     36  N   UNL     1       2.647  -8.486   1.620  1.00  0.00    -0.354 N 
ATOM     37  H   UNL     1       3.223  -7.646   1.691  1.00  0.00     0.163 HD
BRANCH  36  38
ATOM     38  C   UNL     1       3.041  -9.525   0.692  1.00  0.00     0.116 C 
BRANCH  38  39
ATOM     39  C   UNL     1       3.007  -8.984  -0.736  1.00  0.00     0.023 C 
BRANCH  39  40
ATOM     40  C   UNL     1       2.294  -9.928  -1.699  1.00  0.00     0.026 C 
BRANCH  40  41
ATOM     41  C   UNL     1       1.137 -10.642  -1.001  1.00  0.00     0.146 C 
BRANCH  41  42
ATOM     42  N   UNL     1      -0.125 -10.014  -1.371  1.00  0.00    -0.254 NA
ATOM     43  C   UNL     1      -1.145 -10.146  -0.609  1.00  0.00     0.185 C 
ATOM     44  N   UNL     1      -1.276 -10.807   0.556  1.00  0.00    -0.370 N 
ATOM     45  N   UNL     1      -2.300  -9.563  -0.970  1.00  0.00    -0.370 N 
ATOM     46  H   UNL     1      -2.187 -11.032   0.918  1.00  0.00     0.159 HD
ATOM     47  H   UNL     1      -0.494 -11.295   0.982  1.00  0.00     0.159 HD
ATOM     48  H   UNL     1      -2.286  -9.037  -1.834  1.00  0.00     0.159 HD
ATOM     49  H   UNL     1      -3.061  -9.420  -0.330  1.00  0.00     0.159 HD
ENDBRANCH  41  42
ENDBRANCH  40  41
ENDBRANCH  39  40
ENDBRANCH  38  39
ENDBRANCH  36  38
ENDBRANCH   5  34
BRANCH   8  50
ATOM     50  O   UNL     1      -3.234  -9.100   2.058  1.00  0.00    -0.245 OA
BRANCH  50  51
ATOM     51  S   UNL     1      -4.475 -10.147   2.154  1.00  0.00     0.397 S 
ATOM     52  O   UNL     1      -5.685  -9.387   2.373  1.00  0.00    -0.169 OA
ATOM     53  O   UNL     1      -4.110 -11.256   3.010  1.00  0.00    -0.169 OA
BRANCH  51  54
ATOM     54  O   UNL     1      -4.569 -10.695   0.646  1.00  0.00    -0.264 OA
ATOM     55  H   UNL     1      -5.367 -11.259   0.582  1.00  0.00     0.236 HD
ENDBRANCH  51  54
ENDBRANCH  50  51
ENDBRANCH   8  50
TORSDOF 19
ENDMDL
MODEL 2
REMARK VINA RESULT:    -6.418      4.107      6.937
REMARK INTER + INTRA:         -17.493
REMARK INTER:                 -12.982
REMARK INTRA:                  -4.511
REMARK UNBOUND:                -4.509
REMARK SMILES CC[C@@H](C)[C@@H](NC(=O)[C@@H](O)Cc1ccc(O)c(Cl)c1)C(=O)N1[C@H](C(=O)NCCCCN=C(N)N)C[C@H]2CC[C@H](OS(=O)(=O)O)C[C@@H]21
REMARK SMILES IDX 22 1 36 2 46 3 35 4 23 5 45 6 37 7 39 8 38 9 20 10 21 11
REMARK SMILES IDX 5 12 6 13 7 14 8 15 9 17 11 18 12 19 17 20 19 21 15 22 14 23
REMARK SMILES IDX 13 24 18 25 16 26 10 28 3 30 4 31 2 32 1 33 24 34 25 35
REMARK SMILES IDX 26 36 27 38 28 39 29 40 30 41 31 42 32 43 33 44 34 45 40 50
REMARK SMILES IDX 41 51 42 52 43 53 44 54
REMARK H PARENT 6 16 16 27 10 29 26 37 33 46 33 47 34 48 34 49 44 55
ROOT
ATOM      1  N   UNL     1      -1.875  -9.576   2.655  1.00  0.00    -0.326 N 
ATOM      2  C   UNL     1      -2.884  -9.963   0.563  1.00  0.00     0.014 C 
ATOM      3  C   UNL     1      -1.711  -9.244   1.236  1.00  0.00     0.091 C 
ATOM      4  C   UNL     1      -3.984  -9.858   1.608  1.00  0.00     0.041 C 
ATOM      5  C   UNL     1      -3.192 -10.222   2.876  1.00  0.00     0.175 C 
ATOM      6  C   UNL     1      -0.420  -9.667   0.538  1.00  0.00     0.059 C 
ATOM      7  C   UNL     1      -3.126  -9.416  -0.830  1.00  0.00     0.008 C 
ATOM      8  C   UNL     1      -0.599  -9.979  -0.964  1.00  0.00     0.143 C 
ATOM      9  C   UNL     1      -1.791  -9.215  -1.576  1.00  0.00     0.034 C 
ENDROOT
BRANCH   1  10
ATOM     10  C   UNL     1      -1.119  -9.191   3.749  1.00  0.00     0.246 C 
ATOM     11  O   UNL     1      -0.586 -10.060   4.447  1.00  0.00    -0.272 OA
BRANCH  10  12
ATOM     12  C   UNL     1      -0.923  -7.677   4.052  1.00  0.00     0.174 C 
BRANCH  12  13
ATOM     13  N   UNL     1      -0.046  -7.077   3.046  1.00  0.00    -0.342 N 
ATOM     14  C   UNL     1      -0.394  -6.037   2.214  1.00  0.00     0.249 C 
ATOM     15  O   UNL     1      -1.481  -5.474   2.244  1.00  0.00    -0.272 OA
ATOM     16  H   UNL     1       0.826  -7.538   2.799  1.00  0.00     0.164 HD
BRANCH  14  17
ATOM     17  C   UNL     1       0.743  -5.640   1.249  1.00  0.00     0.207 C 
BRANCH  17  18
ATOM     18  C   UNL     1       2.040  -6.365   1.623  1.00  0.00     0.077 C 
BRANCH  18  19
ATOM     19  C   UNL     1       2.430  -7.392   0.584  1.00  0.00    -0.043 A 
ATOM     20  C   UNL     1       2.415  -8.168  -1.714  1.00  0.00     0.083 A 
ATOM     21  C   UNL     1       2.098  -7.195  -0.765  1.00  0.00     0.028 A 
ATOM     22  C   UNL     1       3.063  -9.340  -1.323  1.00  0.00     0.134 A 
ATOM     23  C   UNL     1       3.398  -9.547   0.010  1.00  0.00     0.048 A 
ATOM     24  C   UNL     1       3.080  -8.577   0.963  1.00  0.00     0.008 A 
ATOM     25  Cl  UNL     1       1.999  -7.908  -3.367  1.00  0.00    -0.080 Cl
BRANCH  22  26
ATOM     26  O   UNL     1       3.385 -10.326  -2.215  1.00  0.00    -0.506 OA
ATOM     27  H   UNL     1       3.160 -11.174  -1.789  1.00  0.00     0.293 HD
ENDBRANCH  22  26
ENDBRANCH  18  19
ENDBRANCH  17  18
BRANCH  17  28
ATOM     28  O   UNL     1       0.967  -4.221   1.270  1.00  0.00    -0.383 OA
ATOM     29  H   UNL     1       1.919  -4.099   1.487  1.00  0.00     0.211 HD
ENDBRANCH  17  28
ENDBRANCH  14  17
ENDBRANCH  12  13
BRANCH  12  30
ATOM     30  C   UNL     1      -0.429  -7.414   5.500  1.00  0.00     0.018 C 
ATOM     31  C   UNL     1      -0.959  -6.068   6.021  1.00  0.00     0.010 C 
BRANCH  30  32
ATOM     32  C   UNL     1       1.110  -7.475   5.653  1.00  0.00     0.002 C 
ATOM     33  C   UNL     1       1.784  -6.151   5.987  1.00  0.00     0.004 C 
ENDBRANCH  30  32
ENDBRANCH  12  30
ENDBRANCH  10  12
ENDBRANCH   1  10
BRANCH   5  34
ATOM     34  C   UNL     1      -3.032 -11.758   3.030  1.00  0.00     0.242 C 
ATOM     35  O   UNL     1      -2.011 -12.352   2.682  1.00  0.00    -0.273 OA
ATOM     36  N   UNL     1      -4.133 -12.415   3.531  1.00  0.00    -0.354 N 
ATOM     37  H   UNL     1      -4.992 -11.885   3.688  1.00  0.00     0.163 HD
BRANCH  36  38
ATOM     38  C   UNL     1      -4.087 -13.804   3.939  1.00  0.00     0.116 C 
BRANCH  38  39
ATOM     39  C   UNL     1      -3.471 -13.914   5.332  1.00  0.00     0.023 C 
BRANCH  39  40
ATOM     40  C   UNL     1      -4.521 -13.881   6.438  1.00  0.00     0.026 C 
BRANCH  40  41
ATOM     41  C   UNL     1      -4.471 -12.553   7.193  1.00  0.00     0.146 C 
BRANCH  41  42
ATOM     42  N   UNL     1      -3.085 -12.176   7.436  1.00  0.00    -0.254 NA
ATOM     43  C   UNL     1      -2.653 -11.047   7.015  1.00  0.00     0.185 C 
ATOM     44  N   UNL     1      -3.291 -10.072   6.342  1.00  0.00    -0.370 N 
ATOM     45  N   UNL     1      -1.371 -10.720   7.245  1.00  0.00    -0.370 N 
ATOM     46  H   UNL     1      -2.773  -9.354   5.865  1.00  0.00     0.159 HD
ATOM     47  H   UNL     1      -4.273 -10.149   6.096  1.00  0.00     0.159 HD
ATOM     48  H   UNL     1      -0.820 -11.397   7.756  1.00  0.00     0.159 HD
ATOM     49  H   UNL     1      -1.026  -9.780   7.164  1.00  0.00     0.159 HD
ENDBRANCH  41  42
ENDBRANCH  40  41
ENDBRANCH  39  40
ENDBRANCH  38  39
ENDBRANCH  36  38
ENDBRANCH   5  34
BRANCH   8  50
ATOM     50  O   UNL     1      -0.814 -11.378  -1.151  1.00  0.00    -0.245 OA
BRANCH  50  51
ATOM     51  S   UNL     1       0.388 -12.304  -1.738  1.00  0.00     0.397 S 
ATOM     52  O   UNL     1      -0.193 -13.534  -2.227  1.00  0.00    -0.169 OA
ATOM     53  O   UNL     1       1.498 -12.305  -0.808  1.00  0.00    -0.169 OA
BRANCH  51  54
ATOM     54  O   UNL     1       0.837 -11.481  -3.045  1.00  0.00    -0.264 OA
ATOM     55  H   UNL     1       1.773 -11.704  -3.230  1.00  0.00     0.236 HD
ENDBRANCH  51  54
ENDBRANCH  50  51
ENDBRANCH   8  50
TORSDOF 19
ENDMDL
MODEL 3
REMARK VINA RESULT:    -6.409      2.768      6.008
REMARK INTER + INTRA:         -17.474
REMARK INTER:                 -13.169
REMARK INTRA:                  -4.305
REMARK UNBOUND:                -4.509
REMARK SMILES CC[C@@H](C)[C@@H](NC(=O)[C@@H](O)Cc1ccc(O)c(Cl)c1)C(=O)N1[C@H](C(=O)NCCCCN=C(N)N)C[C@H]2CC[C@H](OS(=O)(=O)O)C[C@@H]21
REMARK SMILES IDX 22 1 36 2 46 3 35 4 23 5 45 6 37 7 39 8 38 9 20 10 21 11
REMARK SMILES IDX 5 12 6 13 7 14 8 15 9 17 11 18 12 19 17 20 19 21 15 22 14 23
REMARK SMILES IDX 13 24 18 25 16 26 10 28 3 30 4 31 2 32 1 33 24 34 25 35
REMARK SMILES IDX 26 36 27 38 28 39 29 40 30 41 31 42 32 43 33 44 34 45 40 50
REMARK SMILES IDX 41 51 42 52 43 53 44 54
REMARK H PARENT 6 16 16 27 10 29 26 37 33 46 33 47 34 48 34 49 44 55
ROOT
ATOM      1  N   UNL     1      -2.192  -8.424   2.203  1.00  0.00    -0.326 N 
ATOM      2  C   UNL     1      -4.041  -9.376   3.305  1.00  0.00     0.014 C 
ATOM      3  C   UNL     1      -2.814  -9.726   2.459  1.00  0.00     0.091 C 
ATOM      4  C   UNL     1      -4.472  -8.035   2.733  1.00  0.00     0.041 C 
ATOM      5  C   UNL     1      -3.105  -7.333   2.626  1.00  0.00     0.175 C 
ATOM      6  C   UNL     1      -2.000 -10.784   3.202  1.00  0.00     0.059 C 
ATOM      7  C   UNL     1      -5.030 -10.526   3.329  1.00  0.00     0.008 C 
ATOM      8  C   UNL     1      -2.858 -11.738   4.061  1.00  0.00     0.143 C 
ATOM      9  C   UNL     1      -4.296 -11.870   3.519  1.00  0.00     0.034 C 
ENDROOT
BRANCH   1  10
ATOM     10  C   UNL     1      -1.059  -8.110   1.473  1.00  0.00     0.246 C 
ATOM     11  O   UNL     1      -1.183  -7.725   0.305  1.00  0.00    -0.272 OA
BRANCH  10  12
ATOM     12  C   UNL     1       0.340  -8.206   2.148  1.00  0.00     0.174 C 
BRANCH  12  13
ATOM     13  N   UNL     1       0.241  -7.821   3.556  1.00  0.00    -0.342 N 
ATOM     14  C   UNL     1       0.795  -8.519   4.606  1.00  0.00     0.249 C 
ATOM     15  O   UNL     1       1.463  -9.536   4.473  1.00  0.00    -0.272 OA
ATOM     16  H   UNL     1      -0.410  -7.091   3.834  1.00  0.00     0.164 HD
BRANCH  14  17
ATOM     17  C   UNL     1       0.500  -7.867   5.974  1.00  0.00     0.207 C 
BRANCH  17  18
ATOM     18  C   UNL     1       1.807  -7.494   6.682  1.00  0.00     0.077 C 
BRANCH  18  19
ATOM     19  C   UNL     1       2.086  -6.010   6.601  1.00  0.00    -0.043 A 
ATOM     20  C   UNL     1       3.269  -4.145   5.598  1.00  0.00     0.083 A 
ATOM     21  C   UNL     1       2.975  -5.508   5.638  1.00  0.00     0.028 A 
ATOM     22  C   UNL     1       2.679  -3.276   6.517  1.00  0.00     0.134 A 
ATOM     23  C   UNL     1       1.796  -3.760   7.476  1.00  0.00     0.048 A 
ATOM     24  C   UNL     1       1.502  -5.124   7.520  1.00  0.00     0.008 A 
ATOM     25  Cl  UNL     1       4.364  -3.547   4.408  1.00  0.00    -0.080 Cl
BRANCH  22  26
ATOM     26  O   UNL     1       2.943  -1.934   6.524  1.00  0.00    -0.506 OA
ATOM     27  H   UNL     1       2.669  -1.598   7.397  1.00  0.00     0.293 HD
ENDBRANCH  22  26
ENDBRANCH  18  19
ENDBRANCH  17  18
BRANCH  17  28
ATOM     28  O   UNL     1      -0.262  -8.749   6.814  1.00  0.00    -0.383 OA
ATOM     29  H   UNL     1      -1.012  -8.215   7.160  1.00  0.00     0.211 HD
ENDBRANCH  17  28
ENDBRANCH  14  17
ENDBRANCH  12  13
BRANCH  12  30
ATOM     30  C   UNL     1       1.430  -7.402   1.389  1.00  0.00     0.018 C 
ATOM     31  C   UNL     1       2.598  -8.314   0.984  1.00  0.00     0.010 C 
BRANCH  30  32
ATOM     32  C   UNL     1       1.958  -6.177   2.175  1.00  0.00     0.002 C 
ATOM     33  C   UNL     1       1.585  -4.820   1.594  1.00  0.00     0.004 C 
ENDBRANCH  30  32
ENDBRANCH  12  30
ENDBRANCH  10  12
ENDBRANCH   1  10
BRANCH   5  34
ATOM     34  C   UNL     1      -2.659  -6.740   3.989  1.00  0.00     0.242 C 
ATOM     35  O   UNL     1      -2.706  -7.387   5.035  1.00  0.00    -0.273 OA
ATOM     36  N   UNL     1      -2.258  -5.423   3.951  1.00  0.00    -0.354 N 
ATOM     37  H   UNL     1      -2.355  -4.905   3.077  1.00  0.00     0.163 HD
BRANCH  36  38
ATOM     38  C   UNL     1      -1.611  -4.779   5.076  1.00  0.00     0.116 C 
BRANCH  38  39
ATOM     39  C   UNL     1      -0.592  -3.760   4.573  1.00  0.00     0.023 C 
BRANCH  39  40
ATOM     40  C   UNL     1      -0.770  -2.390   5.219  1.00  0.00     0.026 C 
BRANCH  40  41
ATOM     41  C   UNL     1      -0.019  -1.317   4.431  1.00  0.00     0.146 C 
BRANCH  41  42
ATOM     42  N   UNL     1       0.269  -1.803   3.088  1.00  0.00    -0.254 NA
ATOM     43  C   UNL     1      -0.259  -1.222   2.078  1.00  0.00     0.185 C 
ATOM     44  N   UNL     1      -1.092  -0.167   2.024  1.00  0.00    -0.370 N 
ATOM     45  N   UNL     1       0.015  -1.688   0.848  1.00  0.00    -0.370 N 
ATOM     46  H   UNL     1      -1.619   0.029   1.190  1.00  0.00     0.159 HD
ATOM     47  H   UNL     1      -1.393   0.318   2.864  1.00  0.00     0.159 HD
ATOM     48  H   UNL     1       0.644  -2.479   0.799  1.00  0.00     0.159 HD
ATOM     49  H   UNL     1      -0.160  -1.158   0.014  1.00  0.00     0.159 HD
ENDBRANCH  41  42
ENDBRANCH  40  41
ENDBRANCH  39  40
ENDBRANCH  38  39
ENDBRANCH  36  38
ENDBRANCH   5  34
BRANCH   8  50
ATOM     50  O   UNL     1      -2.923 -11.264   5.406  1.00  0.00    -0.245 OA
BRANCH  50  51
ATOM     51  S   UNL     1      -2.318 -12.176   6.609  1.00  0.00     0.397 S 
ATOM     52  O   UNL     1      -1.527 -11.320   7.464  1.00  0.00    -0.169 OA
ATOM     53  O   UNL     1      -1.785 -13.408   6.064  1.00  0.00    -0.169 OA
BRANCH  51  54
ATOM     54  O   UNL     1      -3.638 -12.538   7.452  1.00  0.00    -0.264 OA
ATOM     55  H   UNL     1      -3.483 -12.268   8.380  1.00  0.00     0.236 HD
ENDBRANCH  51  54
ENDBRANCH  50  51
ENDBRANCH   8  50
TORSDOF 19
ENDMDL
MODEL 4
REMARK VINA RESULT:    -6.341      3.813      8.305
REMARK INTER + INTRA:         -17.336
REMARK INTER:                 -14.660
REMARK INTRA:                  -2.676
REMARK UNBOUND:                -4.509
REMARK SMILES CC[C@@H](C)[C@@H](NC(=O)[C@@H](O)Cc1ccc(O)c(Cl)c1)C(=O)N1[C@H](C(=O)NCCCCN=C(N)N)C[C@H]2CC[C@H](OS(=O)(=O)O)C[C@@H]21
REMARK SMILES IDX 22 1 36 2 46 3 35 4 23 5 45 6 37 7 39 8 38 9 20 10 21 11
REMARK SMILES IDX 5 12 6 13 7 14 8 15 9 17 11 18 12 19 17 20 19 21 15 22 14 23
REMARK SMILES IDX 13 24 18 25 16 26 10 28 3 30 4 31 2 32 1 33 24 34 25 35
REMARK SMILES IDX 26 36 27 38 28 39 29 40 30 41 31 42 32 43 33 44 34 45 40 50
REMARK SMILES IDX 41 51 42 52 43 53 44 54
REMARK H PARENT 6 16 16 27 10 29 26 37 33 46 33 47 34 48 34 49 44 55
ROOT
ATOM      1  N   UNL     1       0.371  -9.501   0.552  1.00  0.00    -0.326 N 
ATOM      2  C   UNL     1       2.365  -9.194  -0.660  1.00  0.00     0.014 C 
ATOM      3  C   UNL     1       1.056  -9.987  -0.649  1.00  0.00     0.091 C 
ATOM      4  C   UNL     1       2.685  -9.055   0.821  1.00  0.00     0.041 C 
ATOM      5  C   UNL     1       1.296  -8.674   1.365  1.00  0.00     0.175 C 
ATOM      6  C   UNL     1       0.367  -9.801  -2.000  1.00  0.00     0.059 C 
ATOM      7  C   UNL     1       3.381  -9.837  -1.583  1.00  0.00     0.008 C 
ATOM      8  C   UNL     1       1.349  -9.616  -3.178  1.00  0.00     0.143 C 
ATOM      9  C   UNL     1       2.714 -10.278  -2.903  1.00  0.00     0.034 C 
ENDROOT
BRANCH   1  10
ATOM     10  C   UNL     1      -0.851  -9.871   1.088  1.00  0.00     0.246 C 
ATOM     11  O   UNL     1      -0.903 -10.839   1.854  1.00  0.00    -0.272 OA
BRANCH  10  12
ATOM     12  C   UNL     1      -2.121  -9.038   0.750  1.00  0.00     0.174 C 
BRANCH  12  13
ATOM     13  N   UNL     1      -2.986  -8.947   1.926  1.00  0.00    -0.342 N 
ATOM     14  C   UNL     1      -2.941  -7.940   2.864  1.00  0.00     0.249 C 
ATOM     15  O   UNL     1      -2.180  -6.982   2.801  1.00  0.00    -0.272 OA
ATOM     16  H   UNL     1      -3.556  -9.745   2.194  1.00  0.00     0.164 HD
BRANCH  14  17
ATOM     17  C   UNL     1      -3.970  -8.136   3.997  1.00  0.00     0.207 C 
BRANCH  17  18
ATOM     18  C   UNL     1      -4.748  -9.441   3.795  1.00  0.00     0.077 C 
BRANCH  18  19
ATOM     19  C   UNL     1      -4.619 -10.362   4.987  1.00  0.00    -0.043 A 
ATOM     20  C   UNL     1      -3.750 -12.393   5.990  1.00  0.00     0.083 A 
ATOM     21  C   UNL     1      -3.828 -11.519   4.905  1.00  0.00     0.028 A 
ATOM     22  C   UNL     1      -4.461 -12.119   7.159  1.00  0.00     0.134 A 
ATOM     23  C   UNL     1      -5.248 -10.977   7.254  1.00  0.00     0.048 A 
ATOM     24  C   UNL     1      -5.329 -10.101   6.169  1.00  0.00     0.008 A 
ATOM     25  Cl  UNL     1      -2.774 -13.809   5.871  1.00  0.00    -0.080 Cl
BRANCH  22  26
ATOM     26  O   UNL     1      -4.424 -12.952   8.245  1.00  0.00    -0.506 OA
ATOM     27  H   UNL     1      -5.317 -12.939   8.638  1.00  0.00     0.293 HD
ENDBRANCH  22  26
ENDBRANCH  18  19
ENDBRANCH  17  18
BRANCH  17  28
ATOM     28  O   UNL     1      -4.892  -7.036   4.055  1.00  0.00    -0.383 OA
ATOM     29  H   UNL     1      -4.870  -6.615   3.165  1.00  0.00     0.211 HD
ENDBRANCH  17  28
ENDBRANCH  14  17
ENDBRANCH  12  13
BRANCH  12  30
ATOM     30  C   UNL     1      -2.873  -9.571  -0.499  1.00  0.00     0.018 C 
ATOM     31  C   UNL     1      -3.161  -8.433  -1.491  1.00  0.00     0.010 C 
BRANCH  30  32
ATOM     32  C   UNL     1      -4.182 -10.326  -0.161  1.00  0.00     0.002 C 
ATOM     33  C   UNL     1      -4.007 -11.783   0.244  1.00  0.00     0.004 C 
ENDBRANCH  30  32
ENDBRANCH  12  30
ENDBRANCH  10  12
ENDBRANCH   1  10
BRANCH   5  34
ATOM     34  C   UNL     1       1.000  -7.163   1.169  1.00  0.00     0.242 C 
ATOM     35  O   UNL     1       0.182  -6.754   0.345  1.00  0.00    -0.273 OA
ATOM     36  N   UNL     1       1.758  -6.313   1.943  1.00  0.00    -0.354 N 
ATOM     37  H   UNL     1       2.504  -6.705   2.518  1.00  0.00     0.163 HD
BRANCH  36  38
ATOM     38  C   UNL     1       1.468  -4.897   2.047  1.00  0.00     0.116 C 
BRANCH  38  39
ATOM     39  C   UNL     1       2.357  -4.114   1.085  1.00  0.00     0.023 C 
BRANCH  39  40
ATOM     40  C   UNL     1       3.841  -4.390   1.306  1.00  0.00     0.026 C 
BRANCH  40  41
ATOM     41  C   UNL     1       4.343  -3.677   2.561  1.00  0.00     0.146 C 
BRANCH  41  42
ATOM     42  N   UNL     1       5.796  -3.762   2.628  1.00  0.00    -0.254 NA
ATOM     43  C   UNL     1       6.505  -2.744   2.312  1.00  0.00     0.185 C 
ATOM     44  N   UNL     1       6.127  -1.519   1.901  1.00  0.00    -0.370 N 
ATOM     45  N   UNL     1       7.843  -2.844   2.375  1.00  0.00    -0.370 N 
ATOM     46  H   UNL     1       6.784  -0.902   1.456  1.00  0.00     0.159 HD
ATOM     47  H   UNL     1       5.147  -1.267   1.810  1.00  0.00     0.159 HD
ATOM     48  H   UNL     1       8.212  -3.733   2.685  1.00  0.00     0.159 HD
ATOM     49  H   UNL     1       8.449  -2.043   2.377  1.00  0.00     0.159 HD
ENDBRANCH  41  42
ENDBRANCH  40  41
ENDBRANCH  39  40
ENDBRANCH  38  39
ENDBRANCH  36  38
ENDBRANCH   5  34
BRANCH   8  50
ATOM     50  O   UNL     1       1.561  -8.225  -3.425  1.00  0.00    -0.245 OA
BRANCH  50  51
ATOM     51  S   UNL     1       2.076  -7.740  -4.889  1.00  0.00     0.397 S 
ATOM     52  O   UNL     1       1.642  -6.374  -5.084  1.00  0.00    -0.169 OA
ATOM     53  O   UNL     1       1.801  -8.771  -5.868  1.00  0.00    -0.169 OA
BRANCH  51  54
ATOM     54  O   UNL     1       3.668  -7.667  -4.679  1.00  0.00    -0.264 OA
ATOM     55  H   UNL     1       3.876  -8.098  -3.825  1.00  0.00     0.236 HD
ENDBRANCH  51  54
ENDBRANCH  50  51
ENDBRANCH   8  50
TORSDOF 19
ENDMDL
MODEL 5
REMARK VINA RESULT:    -6.203      6.945     10.852
REMARK INTER + INTRA:         -17.057
REMARK INTER:                 -13.370
REMARK INTRA:                  -3.687
REMARK UNBOUND:                -4.509
REMARK SMILES CC[C@@H](C)[C@@H](NC(=O)[C@@H](O)Cc1ccc(O)c(Cl)c1)C(=O)N1[C@H](C(=O)NCCCCN=C(N)N)C[C@H]2CC[C@H](OS(=O)(=O)O)C[C@@H]21
REMARK SMILES IDX 22 1 36 2 46 3 35 4 23 5 45 6 37 7 39 8 38 9 20 10 21 11
REMARK SMILES IDX 5 12 6 13 7 14 8 15 9 17 11 18 12 19 17 20 19 21 15 22 14 23
REMARK SMILES IDX 13 24 18 25 16 26 10 28 3 30 4 31 2 32 1 33 24 34 25 35
REMARK SMILES IDX 26 36 27 38 28 39 29 40 30 41 31 42 32 43 33 44 34 45 40 50
REMARK SMILES IDX 41 51 42 52 43 53 44 54
REMARK H PARENT 6 16 16 27 10 29 26 37 33 46 33 47 34 48 34 49 44 55
ROOT
ATOM      1  N   UNL     1       6.244  -2.119   1.044  1.00  0.00    -0.326 N 
ATOM      2  C   UNL     1       6.663  -1.286  -1.118  1.00  0.00     0.014 C 
ATOM      3  C   UNL     1       6.539  -0.863   0.349  1.00  0.00     0.091 C 
ATOM      4  C   UNL     1       5.637  -2.403  -1.232  1.00  0.00     0.041 C 
ATOM      5  C   UNL     1       5.943  -3.187   0.058  1.00  0.00     0.175 C 
ATOM      6  C   UNL     1       7.803  -0.098   0.739  1.00  0.00     0.059 C 
ATOM      7  C   UNL     1       6.561  -0.086  -2.039  1.00  0.00     0.008 C 
ATOM      8  C   UNL     1       8.431   0.700  -0.424  1.00  0.00     0.143 C 
ATOM      9  C   UNL     1       7.384   1.096  -1.486  1.00  0.00     0.034 C 
ENDROOT
BRANCH   1  10
ATOM     10  C   UNL     1       6.011  -2.356   2.388  1.00  0.00     0.246 C 
ATOM     11  O   UNL     1       6.946  -2.253   3.188  1.00  0.00    -0.272 OA
BRANCH  10  12
ATOM     12  C   UNL     1       4.571  -2.704   2.866  1.00  0.00     0.174 C 
BRANCH  12  13
ATOM     13  N   UNL     1       3.596  -1.875   2.158  1.00  0.00    -0.342 N 
ATOM     14  C   UNL     1       2.605  -2.354   1.331  1.00  0.00     0.249 C 
ATOM     15  O   UNL     1       2.410  -3.544   1.117  1.00  0.00    -0.272 OA
ATOM     16  H   UNL     1       3.729  -0.868   2.113  1.00  0.00     0.164 HD
BRANCH  14  17
ATOM     17  C   UNL     1       1.747  -1.227   0.716  1.00  0.00     0.207 C 
BRANCH  17  18
ATOM     18  C   UNL     1       1.927   0.074   1.504  1.00  0.00     0.077 C 
BRANCH  18  19
ATOM     19  C   UNL     1       2.695   1.109   0.712  1.00  0.00    -0.043 A 
ATOM     20  C   UNL     1       3.543   1.932  -1.406  1.00  0.00     0.083 A 
ATOM     21  C   UNL     1       2.793   1.003  -0.684  1.00  0.00     0.028 A 
ATOM     22  C   UNL     1       4.200   2.967  -0.741  1.00  0.00     0.134 A 
ATOM     23  C   UNL     1       4.112   3.084   0.641  1.00  0.00     0.048 A 
ATOM     24  C   UNL     1       3.363   2.155   1.367  1.00  0.00     0.008 A 
ATOM     25  Cl  UNL     1       3.652   1.785  -3.121  1.00  0.00    -0.080 Cl
BRANCH  22  26
ATOM     26  O   UNL     1       4.956   3.895  -1.405  1.00  0.00    -0.506 OA
ATOM     27  H   UNL     1       4.451   4.151  -2.199  1.00  0.00     0.293 HD
ENDBRANCH  22  26
ENDBRANCH  18  19
ENDBRANCH  17  18
BRANCH  17  28
ATOM     28  O   UNL     1       0.356  -1.586   0.700  1.00  0.00    -0.383 OA
ATOM     29  H   UNL     1      -0.132  -0.798   1.032  1.00  0.00     0.211 HD
ENDBRANCH  17  28
ENDBRANCH  14  17
ENDBRANCH  12  13
BRANCH  12  30
ATOM     30  C   UNL     1       4.414  -2.617   4.408  1.00  0.00     0.018 C 
ATOM     31  C   UNL     1       4.095  -3.997   5.004  1.00  0.00     0.010 C 
BRANCH  30  32
ATOM     32  C   UNL     1       3.357  -1.582   4.867  1.00  0.00     0.002 C 
ATOM     33  C   UNL     1       2.015  -2.166   5.290  1.00  0.00     0.004 C 
ENDBRANCH  30  32
ENDBRANCH  12  30
ENDBRANCH  10  12
ENDBRANCH   1  10
BRANCH   5  34
ATOM     34  C   UNL     1       7.163  -4.130  -0.121  1.00  0.00     0.242 C 
ATOM     35  O   UNL     1       7.164  -5.056  -0.932  1.00  0.00    -0.273 OA
ATOM     36  N   UNL     1       8.219  -3.890   0.729  1.00  0.00    -0.354 N 
ATOM     37  H   UNL     1       8.111  -3.186   1.460  1.00  0.00     0.163 HD
BRANCH  36  38
ATOM     38  C   UNL     1       9.509  -4.526   0.559  1.00  0.00     0.116 C 
BRANCH  38  39
ATOM     39  C   UNL     1      10.326  -3.770  -0.486  1.00  0.00     0.023 C 
BRANCH  39  40
ATOM     40  C   UNL     1      10.493  -4.559  -1.779  1.00  0.00     0.026 C 
BRANCH  40  41
ATOM     41  C   UNL     1      10.880  -6.008  -1.484  1.00  0.00     0.146 C 
BRANCH  41  42
ATOM     42  N   UNL     1       9.891  -6.910  -2.060  1.00  0.00    -0.254 NA
ATOM     43  C   UNL     1      10.272  -8.007  -2.599  1.00  0.00     0.185 C 
ATOM     44  N   UNL     1      11.509  -8.518  -2.740  1.00  0.00    -0.370 N 
ATOM     45  N   UNL     1       9.345  -8.822  -3.129  1.00  0.00    -0.370 N 
ATOM     46  H   UNL     1      11.685  -9.262  -3.394  1.00  0.00     0.159 HD
ATOM     47  H   UNL     1      12.328  -8.036  -2.383  1.00  0.00     0.159 HD
ATOM     48  H   UNL     1       8.385  -8.515  -3.057  1.00  0.00     0.159 HD
ATOM     49  H   UNL     1       9.529  -9.784  -3.349  1.00  0.00     0.159 HD
ENDBRANCH  41  42
ENDBRANCH  40  41
ENDBRANCH  39  40
ENDBRANCH  38  39
ENDBRANCH  36  38
ENDBRANCH   5  34
BRANCH   8  50
ATOM     50  O   UNL     1       9.448  -0.075  -1.058  1.00  0.00    -0.245 OA
BRANCH  50  51
ATOM     51  S   UNL     1      10.820   0.648  -1.549  1.00  0.00     0.397 S 
ATOM     52  O   UNL     1      11.910  -0.280  -1.352  1.00  0.00    -0.169 OA
ATOM     53  O   UNL     1      10.870   1.999  -1.030  1.00  0.00    -0.169 OA
BRANCH  51  54
ATOM     54  O   UNL     1      10.601   0.736  -3.140  1.00  0.00    -0.264 OA
ATOM     55  H   UNL     1      11.052  -0.032  -3.546  1.00  0.00     0.236 HD
ENDBRANCH  51  54
ENDBRANCH  50  51
ENDBRANCH   8  50
TORSDOF 19
ENDMDL
MODEL 6
REMARK VINA RESULT:    -6.172      5.352      9.057
REMARK INTER + INTRA:         -16.995
REMARK INTER:                 -12.011
REMARK INTRA:                  -4.984
REMARK UNBOUND:                -4.509
REMARK SMILES CC[C@@H](C)[C@@H](NC(=O)[C@@H](O)Cc1ccc(O)c(Cl)c1)C(=O)N1[C@H](C(=O)NCCCCN=C(N)N)C[C@H]2CC[C@H](OS(=O)(=O)O)C[C@@H]21
REMARK SMILES IDX 22 1 36 2 46 3 35 4 23 5 45 6 37 7 39 8 38 9 20 10 21 11
REMARK SMILES IDX 5 12 6 13 7 14 8 15 9 17 11 18 12 19 17 20 19 21 15 22 14 23
REMARK SMILES IDX 13 24 18 25 16 26 10 28 3 30 4 31 2 32 1 33 24 34 25 35
REMARK SMILES IDX 26 36 27 38 28 39 29 40 30 41 31 42 32 43 33 44 34 45 40 50
REMARK SMILES IDX 41 51 42 52 43 53 44 54
REMARK H PARENT 6 16 16 27 10 29 26 37 33 46 33 47 34 48 34 49 44 55
ROOT
ATOM      1  N   UNL     1       2.760  -1.158   6.529  1.00  0.00    -0.326 N 
ATOM      2  C   UNL     1       3.634  -2.882   5.186  1.00  0.00     0.014 C 
ATOM      3  C   UNL     1       2.779  -2.620   6.429  1.00  0.00     0.091 C 
ATOM      4  C   UNL     1       4.659  -1.760   5.241  1.00  0.00     0.041 C 
ATOM      5  C   UNL     1       3.743  -0.571   5.585  1.00  0.00     0.175 C 
ATOM      6  C   UNL     1       1.449  -3.353   6.264  1.00  0.00     0.059 C 
ATOM      7  C   UNL     1       4.109  -4.322   5.149  1.00  0.00     0.008 C 
ATOM      8  C   UNL     1       1.557  -4.661   5.452  1.00  0.00     0.143 C 
ATOM      9  C   UNL     1       2.966  -5.282   5.539  1.00  0.00     0.034 C 
ENDROOT
BRANCH   1  10
ATOM     10  C   UNL     1       2.157  -0.340   7.470  1.00  0.00     0.246 C 
ATOM     11  O   UNL     1       2.653   0.765   7.712  1.00  0.00    -0.272 OA
BRANCH  10  12
ATOM     12  C   UNL     1       0.848  -0.810   8.168  1.00  0.00     0.174 C 
BRANCH  12  13
ATOM     13  N   UNL     1      -0.239   0.122   7.868  1.00  0.00    -0.342 N 
ATOM     14  C   UNL     1      -1.360  -0.183   7.129  1.00  0.00     0.249 C 
ATOM     15  O   UNL     1      -1.586  -1.291   6.658  1.00  0.00    -0.272 OA
ATOM     16  H   UNL     1      -0.119   1.114   8.057  1.00  0.00     0.164 HD
BRANCH  14  17
ATOM     17  C   UNL     1      -2.316   1.019   6.973  1.00  0.00     0.207 C 
BRANCH  17  18
ATOM     18  C   UNL     1      -1.784   2.230   7.746  1.00  0.00     0.077 C 
BRANCH  18  19
ATOM     19  C   UNL     1      -1.536   3.412   6.837  1.00  0.00    -0.043 A 
ATOM     20  C   UNL     1      -0.160   5.291   6.158  1.00  0.00     0.083 A 
ATOM     21  C   UNL     1      -0.362   4.171   6.965  1.00  0.00     0.028 A 
ATOM     22  C   UNL     1      -1.125   5.660   5.221  1.00  0.00     0.134 A 
ATOM     23  C   UNL     1      -2.292   4.917   5.083  1.00  0.00     0.048 A 
ATOM     24  C   UNL     1      -2.499   3.797   5.891  1.00  0.00     0.008 A 
ATOM     25  Cl  UNL     1       1.289   6.211   6.331  1.00  0.00    -0.080 Cl
BRANCH  22  26
ATOM     26  O   UNL     1      -0.976   6.756   4.414  1.00  0.00    -0.506 OA
ATOM     27  H   UNL     1      -0.032   6.998   4.443  1.00  0.00     0.293 HD
ENDBRANCH  22  26
ENDBRANCH  18  19
ENDBRANCH  17  18
BRANCH  17  28
ATOM     28  O   UNL     1      -3.634   0.695   7.444  1.00  0.00    -0.383 OA
ATOM     29  H   UNL     1      -4.013   1.535   7.790  1.00  0.00     0.211 HD
ENDBRANCH  17  28
ENDBRANCH  14  17
ENDBRANCH  12  13
BRANCH  12  30
ATOM     30  C   UNL     1       1.029  -1.038   9.693  1.00  0.00     0.018 C 
ATOM     31  C   UNL     1       0.500  -2.420  10.105  1.00  0.00     0.010 C 
BRANCH  30  32
ATOM     32  C   UNL     1       0.381   0.063  10.567  1.00  0.00     0.002 C 
ATOM     33  C   UNL     1       1.298   1.220  10.944  1.00  0.00     0.004 C 
ENDBRANCH  30  32
ENDBRANCH  12  30
ENDBRANCH  10  12
ENDBRANCH   1  10
BRANCH   5  34
ATOM     34  C   UNL     1       3.030  -0.015   4.323  1.00  0.00     0.242 C 
ATOM     35  O   UNL     1       2.635  -0.746   3.415  1.00  0.00    -0.273 OA
ATOM     36  N   UNL     1       2.919   1.356   4.269  1.00  0.00    -0.354 N 
ATOM     37  H   UNL     1       3.372   1.914   4.994  1.00  0.00     0.163 HD
BRANCH  36  38
ATOM     38  C   UNL     1       2.100   2.028   3.281  1.00  0.00     0.116 C 
BRANCH  38  39
ATOM     39  C   UNL     1       0.817   2.538   3.932  1.00  0.00     0.023 C 
BRANCH  39  40
ATOM     40  C   UNL     1      -0.426   1.831   3.401  1.00  0.00     0.026 C 
BRANCH  40  41
ATOM     41  C   UNL     1      -0.053   0.821   2.316  1.00  0.00     0.146 C 
BRANCH  41  42
ATOM     42  N   UNL     1      -1.140  -0.134   2.138  1.00  0.00    -0.254 NA
ATOM     43  C   UNL     1      -1.152  -1.214   2.825  1.00  0.00     0.185 C 
ATOM     44  N   UNL     1      -0.282  -1.662   3.749  1.00  0.00    -0.370 N 
ATOM     45  N   UNL     1      -2.160  -2.083   2.643  1.00  0.00    -0.370 N 
ATOM     46  H   UNL     1      -0.282  -2.629   4.027  1.00  0.00     0.159 HD
ATOM     47  H   UNL     1       0.533  -1.121   4.019  1.00  0.00     0.159 HD
ATOM     48  H   UNL     1      -2.864  -1.818   1.968  1.00  0.00     0.159 HD
ATOM     49  H   UNL     1      -2.368  -2.819   3.294  1.00  0.00     0.159 HD
ENDBRANCH  41  42
ENDBRANCH  40  41
ENDBRANCH  39  40
ENDBRANCH  38  39
ENDBRANCH  36  38
ENDBRANCH   5  34
BRANCH   8  50
ATOM     50  O   UNL     1       1.255  -4.413   4.079  1.00  0.00    -0.245 OA
BRANCH  50  51
ATOM     51  S   UNL     1       0.081  -5.268   3.347  1.00  0.00     0.397 S 
ATOM     52  O   UNL     1       0.521  -6.642   3.256  1.00  0.00    -0.169 OA
ATOM     53  O   UNL     1      -0.397  -4.545   2.188  1.00  0.00    -0.169 OA
BRANCH  51  54
ATOM     54  O   UNL     1      -1.084  -5.255   4.455  1.00  0.00    -0.264 OA
ATOM     55  H   UNL     1      -0.665  -5.104   5.327  1.00  0.00     0.236 HD
ENDBRANCH  51  54
ENDBRANCH  50  51
ENDBRANCH   8  50
TORSDOF 19
ENDMDL
MODEL 7
REMARK VINA RESULT:    -6.143      4.279      8.758
REMARK INTER + INTRA:         -16.936
REMARK INTER:                 -13.439
REMARK INTRA:                  -3.497
REMARK UNBOUND:                -4.509
REMARK SMILES CC[C@@H](C)[C@@H](NC(=O)[C@@H](O)Cc1ccc(O)c(Cl)c1)C(=O)N1[C@H](C(=O)NCCCCN=C(N)N)C[C@H]2CC[C@H](OS(=O)(=O)O)C[C@@H]21
REMARK SMILES IDX 22 1 36 2 46 3 35 4 23 5 45 6 37 7 39 8 38 9 20 10 21 11
REMARK SMILES IDX 5 12 6 13 7 14 8 15 9 17 11 18 12 19 17 20 19 21 15 22 14 23
REMARK SMILES IDX 13 24 18 25 16 26 10 28 3 30 4 31 2 32 1 33 24 34 25 35
REMARK SMILES IDX 26 36 27 38 28 39 29 40 30 41 31 42 32 43 33 44 34 45 40 50
REMARK SMILES IDX 41 51 42 52 43 53 44 54
REMARK H PARENT 6 16 16 27 10 29 26 37 33 46 33 47 34 48 34 49 44 55
ROOT
ATOM      1  N   UNL     1      -1.289  -6.866   4.608  1.00  0.00    -0.326 N 
ATOM      2  C   UNL     1       0.751  -5.911   3.921  1.00  0.00     0.014 C 
ATOM      3  C   UNL     1      -0.602  -6.404   3.398  1.00  0.00     0.091 C 
ATOM      4  C   UNL     1       1.040  -6.875   5.062  1.00  0.00     0.041 C 
ATOM      5  C   UNL     1      -0.339  -6.907   5.747  1.00  0.00     0.175 C 
ATOM      6  C   UNL     1      -1.243  -5.281   2.585  1.00  0.00     0.059 C 
ATOM      7  C   UNL     1       1.752  -5.776   2.791  1.00  0.00     0.008 C 
ATOM      8  C   UNL     1      -0.222  -4.378   1.859  1.00  0.00     0.143 C 
ATOM      9  C   UNL     1       1.096  -5.120   1.558  1.00  0.00     0.034 C 
ENDROOT
BRANCH   1  10
ATOM     10  C   UNL     1      -2.543  -7.434   4.754  1.00  0.00     0.246 C 
ATOM     11  O   UNL     1      -3.472  -6.739   5.179  1.00  0.00    -0.272 OA
BRANCH  10  12
ATOM     12  C   UNL     1      -2.766  -8.918   4.341  1.00  0.00     0.174 C 
BRANCH  12  13
ATOM     13  N   UNL     1      -2.804  -9.029   2.883  1.00  0.00    -0.342 N 
ATOM     14  C   UNL     1      -2.242 -10.054   2.154  1.00  0.00     0.249 C 
ATOM     15  O   UNL     1      -1.665 -11.011   2.656  1.00  0.00    -0.272 OA
ATOM     16  H   UNL     1      -3.109  -8.236   2.325  1.00  0.00     0.164 HD
BRANCH  14  17
ATOM     17  C   UNL     1      -2.435  -9.878   0.633  1.00  0.00     0.207 C 
BRANCH  17  18
ATOM     18  C   UNL     1      -1.624  -8.682   0.125  1.00  0.00     0.077 C 
BRANCH  18  19
ATOM     19  C   UNL     1      -0.192  -9.063  -0.180  1.00  0.00    -0.043 A 
ATOM     20  C   UNL     1       1.435 -10.141  -1.620  1.00  0.00     0.083 A 
ATOM     21  C   UNL     1       0.121  -9.747  -1.365  1.00  0.00     0.028 A 
ATOM     22  C   UNL     1       2.441  -9.856  -0.696  1.00  0.00     0.134 A 
ATOM     23  C   UNL     1       2.145  -9.179   0.481  1.00  0.00     0.048 A 
ATOM     24  C   UNL     1       0.830  -8.785   0.740  1.00  0.00     0.008 A 
ATOM     25  Cl  UNL     1       1.801 -10.981  -3.081  1.00  0.00    -0.080 Cl
BRANCH  22  26
ATOM     26  O   UNL     1       3.742 -10.231  -0.897  1.00  0.00    -0.506 OA
ATOM     27  H   UNL     1       4.081  -9.684  -1.629  1.00  0.00     0.293 HD
ENDBRANCH  22  26
ENDBRANCH  18  19
ENDBRANCH  17  18
BRANCH  17  28
ATOM     28  O   UNL     1      -3.821  -9.687   0.306  1.00  0.00    -0.383 OA
ATOM     29  H   UNL     1      -3.873  -8.825  -0.167  1.00  0.00     0.211 HD
ENDBRANCH  17  28
ENDBRANCH  14  17
ENDBRANCH  12  13
BRANCH  12  30
ATOM     30  C   UNL     1      -4.014  -9.547   5.016  1.00  0.00     0.018 C 
ATOM     31  C   UNL     1      -3.630 -10.806   5.810  1.00  0.00     0.010 C 
BRANCH  30  32
ATOM     32  C   UNL     1      -5.159  -9.872   4.025  1.00  0.00     0.002 C 
ATOM     33  C   UNL     1      -5.478 -11.352   3.862  1.00  0.00     0.004 C 
ENDBRANCH  30  32
ENDBRANCH  12  30
ENDBRANCH  10  12
ENDBRANCH   1  10
BRANCH   5  34
ATOM     34  C   UNL     1      -0.544  -5.683   6.678  1.00  0.00     0.242 C 
ATOM     35  O   UNL     1       0.399  -5.020   7.110  1.00  0.00    -0.273 OA
ATOM     36  N   UNL     1      -1.850  -5.426   7.030  1.00  0.00    -0.354 N 
ATOM     37  H   UNL     1      -2.576  -6.082   6.738  1.00  0.00     0.163 HD
BRANCH  36  38
ATOM     38  C   UNL     1      -2.243  -4.208   7.708  1.00  0.00     0.116 C 
BRANCH  38  39
ATOM     39  C   UNL     1      -2.764  -4.539   9.105  1.00  0.00     0.023 C 
BRANCH  39  40
ATOM     40  C   UNL     1      -4.067  -3.815   9.428  1.00  0.00     0.026 C 
BRANCH  40  41
ATOM     41  C   UNL     1      -5.146  -4.808   9.860  1.00  0.00     0.146 C 
BRANCH  41  42
ATOM     42  N   UNL     1      -4.918  -6.094   9.215  1.00  0.00    -0.254 NA
ATOM     43  C   UNL     1      -5.571  -6.397   8.157  1.00  0.00     0.185 C 
ATOM     44  N   UNL     1      -6.497  -5.692   7.480  1.00  0.00    -0.370 N 
ATOM     45  N   UNL     1      -5.350  -7.589   7.580  1.00  0.00    -0.370 N 
ATOM     46  H   UNL     1      -7.101  -6.145   6.815  1.00  0.00     0.159 HD
ATOM     47  H   UNL     1      -6.776  -4.760   7.772  1.00  0.00     0.159 HD
ATOM     48  H   UNL     1      -4.659  -8.180   8.023  1.00  0.00     0.159 HD
ATOM     49  H   UNL     1      -5.635  -7.800   6.640  1.00  0.00     0.159 HD
ENDBRANCH  41  42
ENDBRANCH  40  41
ENDBRANCH  39  40
ENDBRANCH  38  39
ENDBRANCH  36  38
ENDBRANCH   5  34
BRANCH   8  50
ATOM     50  O   UNL     1       0.075  -3.232   2.659  1.00  0.00    -0.245 OA
BRANCH  50  51
ATOM     51  S   UNL     1      -0.437  -1.765   2.180  1.00  0.00     0.397 S 
ATOM     52  O   UNL     1       0.277  -0.770   2.949  1.00  0.00    -0.169 OA
ATOM     53  O   UNL     1      -1.882  -1.760   2.087  1.00  0.00    -0.169 OA
BRANCH  51  54
ATOM     54  O   UNL     1       0.156  -1.673   0.688  1.00  0.00    -0.264 OA
ATOM     55  H   UNL     1      -0.281  -2.365   0.151  1.00  0.00     0.236 HD
ENDBRANCH  51  54
ENDBRANCH  50  51
ENDBRANCH   8  50
TORSDOF 19
ENDMDL
MODEL 8
REMARK VINA RESULT:    -6.058      2.701      4.227
REMARK INTER + INTRA:         -16.765
REMARK INTER:                 -12.773
REMARK INTRA:                  -3.992
REMARK UNBOUND:                -4.509
REMARK SMILES CC[C@@H](C)[C@@H](NC(=O)[C@@H](O)Cc1ccc(O)c(Cl)c1)C(=O)N1[C@H](C(=O)NCCCCN=C(N)N)C[C@H]2CC[C@H](OS(=O)(=O)O)C[C@@H]21
REMARK SMILES IDX 22 1 36 2 46 3 35 4 23 5 45 6 37 7 39 8 38 9 20 10 21 11
REMARK SMILES IDX 5 12 6 13 7 14 8 15 9 17 11 18 12 19 17 20 19 21 15 22 14 23
REMARK SMILES IDX 13 24 18 25 16 26 10 28 3 30 4 31 2 32 1 33 24 34 25 35
REMARK SMILES IDX 26 36 27 38 28 39 29 40 30 41 31 42 32 43 33 44 34 45 40 50
REMARK SMILES IDX 41 51 42 52 43 53 44 54
REMARK H PARENT 6 16 16 27 10 29 26 37 33 46 33 47 34 48 34 49 44 55
ROOT
ATOM      1  N   UNL     1       0.405  -6.896   2.992  1.00  0.00    -0.326 N 
ATOM      2  C   UNL     1      -0.848  -8.714   2.174  1.00  0.00     0.014 C 
ATOM      3  C   UNL     1      -0.964  -7.249   2.604  1.00  0.00     0.091 C 
ATOM      4  C   UNL     1       0.212  -9.257   3.120  1.00  0.00     0.041 C 
ATOM      5  C   UNL     1       1.246  -8.118   3.055  1.00  0.00     0.175 C 
ATOM      6  C   UNL     1      -1.620  -6.464   1.469  1.00  0.00     0.059 C 
ATOM      7  C   UNL     1      -2.211  -9.375   2.128  1.00  0.00     0.008 C 
ATOM      8  C   UNL     1      -2.633  -7.289   0.647  1.00  0.00     0.143 C 
ATOM      9  C   UNL     1      -3.247  -8.439   1.471  1.00  0.00     0.034 C 
ENDROOT
BRANCH   1  10
ATOM     10  C   UNL     1       0.910  -5.704   3.483  1.00  0.00     0.246 C 
ATOM     11  O   UNL     1       1.419  -4.898   2.698  1.00  0.00    -0.272 OA
BRANCH  10  12
ATOM     12  C   UNL     1       0.786  -5.387   5.002  1.00  0.00     0.174 C 
BRANCH  12  13
ATOM     13  N   UNL     1       0.339  -4.007   5.188  1.00  0.00    -0.342 N 
ATOM     14  C   UNL     1      -0.902  -3.525   4.837  1.00  0.00     0.249 C 
ATOM     15  O   UNL     1      -1.789  -4.214   4.349  1.00  0.00    -0.272 OA
ATOM     16  H   UNL     1       1.013  -3.288   5.435  1.00  0.00     0.164 HD
BRANCH  14  17
ATOM     17  C   UNL     1      -1.065  -2.021   5.145  1.00  0.00     0.207 C 
BRANCH  17  18
ATOM     18  C   UNL     1      -0.065  -1.582   6.218  1.00  0.00     0.077 C 
BRANCH  18  19
ATOM     19  C   UNL     1       1.204  -1.027   5.611  1.00  0.00    -0.043 A 
ATOM     20  C   UNL     1       3.494  -0.265   5.855  1.00  0.00     0.083 A 
ATOM     21  C   UNL     1       2.341  -0.824   6.408  1.00  0.00     0.028 A 
ATOM     22  C   UNL     1       3.518   0.096   4.507  1.00  0.00     0.134 A 
ATOM     23  C   UNL     1       2.398  -0.099   3.706  1.00  0.00     0.048 A 
ATOM     24  C   UNL     1       1.242  -0.657   4.257  1.00  0.00     0.008 A 
ATOM     25  Cl  UNL     1       4.881  -0.024   6.850  1.00  0.00    -0.080 Cl
BRANCH  22  26
ATOM     26  O   UNL     1       4.621   0.657   3.923  1.00  0.00    -0.506 OA
ATOM     27  H   UNL     1       5.114   1.110   4.632  1.00  0.00     0.293 HD
ENDBRANCH  22  26
ENDBRANCH  18  19
ENDBRANCH  17  18
BRANCH  17  28
ATOM     28  O   UNL     1      -2.400  -1.726   5.588  1.00  0.00    -0.383 OA
ATOM     29  H   UNL     1      -2.912  -1.500   4.778  1.00  0.00     0.211 HD
ENDBRANCH  17  28
ENDBRANCH  14  17
ENDBRANCH  12  13
BRANCH  12  30
ATOM     30  C   UNL     1       2.088  -5.699   5.787  1.00  0.00     0.018 C 
ATOM     31  C   UNL     1       1.781  -6.514   7.053  1.00  0.00     0.010 C 
BRANCH  30  32
ATOM     32  C   UNL     1       2.910  -4.439   6.153  1.00  0.00     0.002 C 
ATOM     33  C   UNL     1       3.960  -4.027   5.130  1.00  0.00     0.004 C 
ENDBRANCH  30  32
ENDBRANCH  12  30
ENDBRANCH  10  12
ENDBRANCH   1  10
BRANCH   5  34
ATOM     34  C   UNL     1       2.145  -8.232   1.795  1.00  0.00     0.242 C 
ATOM     35  O   UNL     1       2.849  -9.218   1.577  1.00  0.00    -0.273 OA
ATOM     36  N   UNL     1       2.138  -7.131   0.968  1.00  0.00    -0.354 N 
ATOM     37  H   UNL     1       1.627  -6.298   1.263  1.00  0.00     0.163 HD
BRANCH  36  38
ATOM     38  C   UNL     1       2.742  -7.149  -0.348  1.00  0.00     0.116 C 
BRANCH  38  39
ATOM     39  C   UNL     1       1.664  -7.345  -1.411  1.00  0.00     0.023 C 
BRANCH  39  40
ATOM     40  C   UNL     1       2.071  -8.359  -2.474  1.00  0.00     0.026 C 
BRANCH  40  41
ATOM     41  C   UNL     1       2.183  -9.760  -1.873  1.00  0.00     0.146 C 
BRANCH  41  42
ATOM     42  N   UNL     1       0.975 -10.071  -1.120  1.00  0.00    -0.254 NA
ATOM     43  C   UNL     1      -0.021 -10.609  -1.717  1.00  0.00     0.185 C 
ATOM     44  N   UNL     1      -0.168 -10.968  -3.006  1.00  0.00    -0.370 N 
ATOM     45  N   UNL     1      -1.128 -10.884  -1.007  1.00  0.00    -0.370 N 
ATOM     46  H   UNL     1      -1.080 -11.151  -3.387  1.00  0.00     0.159 HD
ATOM     47  H   UNL     1       0.579 -10.843  -3.682  1.00  0.00     0.159 HD
ATOM     48  H   UNL     1      -1.098 -10.652  -0.023  1.00  0.00     0.159 HD
ATOM     49  H   UNL     1      -1.844 -11.507  -1.335  1.00  0.00     0.159 HD
ENDBRANCH  41  42
ENDBRANCH  40  41
ENDBRANCH  39  40
ENDBRANCH  38  39
ENDBRANCH  36  38
ENDBRANCH   5  34
BRANCH   8  50
ATOM     50  O   UNL     1      -1.993  -7.846  -0.502  1.00  0.00    -0.245 OA
BRANCH  50  51
ATOM     51  S   UNL     1      -2.814  -7.961  -1.901  1.00  0.00     0.397 S 
ATOM     52  O   UNL     1      -1.864  -8.241  -2.954  1.00  0.00    -0.169 OA
ATOM     53  O   UNL     1      -3.759  -6.869  -2.002  1.00  0.00    -0.169 OA
BRANCH  51  54
ATOM     54  O   UNL     1      -3.648  -9.320  -1.690  1.00  0.00    -0.264 OA
ATOM     55  H   UNL     1      -3.346  -9.728  -0.853  1.00  0.00     0.236 HD
ENDBRANCH  51  54
ENDBRANCH  50  51
ENDBRANCH   8  50
TORSDOF 19
ENDMDL
MODEL 9
REMARK VINA RESULT:    -5.985      4.793      9.354
REMARK INTER + INTRA:         -16.616
REMARK INTER:                 -13.243
REMARK INTRA:                  -3.373
REMARK UNBOUND:                -4.509
REMARK SMILES CC[C@@H](C)[C@@H](NC(=O)[C@@H](O)Cc1ccc(O)c(Cl)c1)C(=O)N1[C@H](C(=O)NCCCCN=C(N)N)C[C@H]2CC[C@H](OS(=O)(=O)O)C[C@@H]21
REMARK SMILES IDX 22 1 36 2 46 3 35 4 23 5 45 6 37 7 39 8 38 9 20 10 21 11
REMARK SMILES IDX 5 12 6 13 7 14 8 15 9 17 11 18 12 19 17 20 19 21 15 22 14 23
REMARK SMILES IDX 13 24 18 25 16 26 10 28 3 30 4 31 2 32 1 33 24 34 25 35
REMARK SMILES IDX 26 36 27 38 28 39 29 40 30 41 31 42 32 43 33 44 34 45 40 50
REMARK SMILES IDX 41 51 42 52 43 53 44 54
REMARK H PARENT 6 16 16 27 10 29 26 37 33 46 33 47 34 48 34 49 44 55
ROOT
ATOM      1  N   UNL     1       0.499  -1.760   2.733  1.00  0.00    -0.326 N 
ATOM      2  C   UNL     1       2.078  -0.421   3.855  1.00  0.00     0.014 C 
ATOM      3  C   UNL     1       1.118  -1.597   4.052  1.00  0.00     0.091 C 
ATOM      4  C   UNL     1       1.332   0.458   2.863  1.00  0.00     0.041 C 
ATOM      5  C   UNL     1       0.847  -0.609   1.864  1.00  0.00     0.175 C 
ATOM      6  C   UNL     1       1.904  -2.771   4.632  1.00  0.00     0.059 C 
ATOM      7  C   UNL     1       2.506   0.159   5.188  1.00  0.00     0.008 C 
ATOM      8  C   UNL     1       3.074  -2.345   5.545  1.00  0.00     0.143 C 
ATOM      9  C   UNL     1       2.832  -0.967   6.192  1.00  0.00     0.034 C 
ENDROOT
BRANCH   1  10
ATOM     10  C   UNL     1      -0.467  -2.657   2.310  1.00  0.00     0.246 C 
ATOM     11  O   UNL     1      -1.512  -2.224   1.811  1.00  0.00    -0.272 OA
BRANCH  10  12
ATOM     12  C   UNL     1      -0.201  -4.185   2.433  1.00  0.00     0.174 C 
BRANCH  12  13
ATOM     13  N   UNL     1       0.656  -4.631   1.335  1.00  0.00    -0.342 N 
ATOM     14  C   UNL     1       1.793  -5.393   1.479  1.00  0.00     0.249 C 
ATOM     15  O   UNL     1       2.203  -5.809   2.556  1.00  0.00    -0.272 OA
ATOM     16  H   UNL     1       0.532  -4.235   0.406  1.00  0.00     0.164 HD
BRANCH  14  17
ATOM     17  C   UNL     1       2.489  -5.686   0.133  1.00  0.00     0.207 C 
BRANCH  17  18
ATOM     18  C   UNL     1       2.836  -7.174   0.021  1.00  0.00     0.077 C 
BRANCH  18  19
ATOM     19  C   UNL     1       1.890  -7.903  -0.907  1.00  0.00    -0.043 A 
ATOM     20  C   UNL     1       1.388  -8.835  -3.089  1.00  0.00     0.083 A 
ATOM     21  C   UNL     1       2.280  -8.206  -2.220  1.00  0.00     0.028 A 
ATOM     22  C   UNL     1       0.103  -9.162  -2.654  1.00  0.00     0.134 A 
ATOM     23  C   UNL     1      -0.297  -8.868  -1.355  1.00  0.00     0.048 A 
ATOM     24  C   UNL     1       0.594  -8.237  -0.484  1.00  0.00     0.008 A 
ATOM     25  Cl  UNL     1       1.885  -9.199  -4.699  1.00  0.00    -0.080 Cl
BRANCH  22  26
ATOM     26  O   UNL     1      -0.811  -9.769  -3.472  1.00  0.00    -0.506 OA
ATOM     27  H   UNL     1      -1.564 -10.027  -2.909  1.00  0.00     0.293 HD
ENDBRANCH  22  26
ENDBRANCH  18  19
ENDBRANCH  17  18
BRANCH  17  28
ATOM     28  O   UNL     1       3.687  -4.906  -0.011  1.00  0.00    -0.383 OA
ATOM     29  H   UNL     1       3.446  -3.987   0.246  1.00  0.00     0.211 HD
ENDBRANCH  17  28
ENDBRANCH  14  17
ENDBRANCH  12  13
BRANCH  12  30
ATOM     30  C   UNL     1      -1.508  -5.015   2.539  1.00  0.00     0.018 C 
ATOM     31  C   UNL     1      -1.925  -5.192   4.008  1.00  0.00     0.010 C 
BRANCH  30  32
ATOM     32  C   UNL     1      -1.428  -6.394   1.839  1.00  0.00     0.002 C 
ATOM     33  C   UNL     1      -2.704  -6.845   1.141  1.00  0.00     0.004 C 
ENDBRANCH  30  32
ENDBRANCH  12  30
ENDBRANCH  10  12
ENDBRANCH   1  10
BRANCH   5  34
ATOM     34  C   UNL     1       1.962  -0.998   0.857  1.00  0.00     0.242 C 
ATOM     35  O   UNL     1       2.271  -2.169   0.637  1.00  0.00    -0.273 OA
ATOM     36  N   UNL     1       2.616   0.062   0.269  1.00  0.00    -0.354 N 
ATOM     37  H   UNL     1       2.397   1.009   0.581  1.00  0.00     0.163 HD
BRANCH  36  38
ATOM     38  C   UNL     1       3.526  -0.112  -0.844  1.00  0.00     0.116 C 
BRANCH  38  39
ATOM     39  C   UNL     1       4.103   1.239  -1.258  1.00  0.00     0.023 C 
BRANCH  39  40
ATOM     40  C   UNL     1       3.454   1.787  -2.524  1.00  0.00     0.026 C 
BRANCH  40  41
ATOM     41  C   UNL     1       3.331   3.309  -2.455  1.00  0.00     0.146 C 
BRANCH  41  42
ATOM     42  N   UNL     1       2.297   3.677  -1.497  1.00  0.00    -0.254 NA
ATOM     43  C   UNL     1       2.339   4.822  -0.927  1.00  0.00     0.185 C 
ATOM     44  N   UNL     1       3.229   5.823  -1.061  1.00  0.00    -0.370 N 
ATOM     45  N   UNL     1       1.379   5.140  -0.043  1.00  0.00    -0.370 N 
ATOM     46  H   UNL     1       3.278   6.560  -0.379  1.00  0.00     0.159 HD
ATOM     47  H   UNL     1       4.014   5.755  -1.701  1.00  0.00     0.159 HD
ATOM     48  H   UNL     1       0.663   4.443   0.111  1.00  0.00     0.159 HD
ATOM     49  H   UNL     1       1.208   6.082   0.259  1.00  0.00     0.159 HD
ENDBRANCH  41  42
ENDBRANCH  40  41
ENDBRANCH  39  40
ENDBRANCH  38  39
ENDBRANCH  36  38
ENDBRANCH   5  34
BRANCH   8  50
ATOM     50  O   UNL     1       4.286  -2.285   4.792  1.00  0.00    -0.245 OA
BRANCH  50  51
ATOM     51  S   UNL     1       5.019  -3.665   4.340  1.00  0.00     0.397 S 
ATOM     52  O   UNL     1       4.460  -4.744   5.122  1.00  0.00    -0.169 OA
ATOM     53  O   UNL     1       6.449  -3.450   4.254  1.00  0.00    -0.169 OA
BRANCH  51  54
ATOM     54  O   UNL     1       4.458  -3.869   2.847  1.00  0.00    -0.264 OA
ATOM     55  H   UNL     1       4.144  -4.793   2.770  1.00  0.00     0.236 HD
ENDBRANCH  51  54
ENDBRANCH  50  51
ENDBRANCH   8  50
TORSDOF 19
ENDMDL
MODEL 10
REMARK VINA RESULT:    -5.959      3.308      8.325
REMARK INTER + INTRA:         -16.564
REMARK INTER:                 -12.734
REMARK INTRA:                  -3.831
REMARK UNBOUND:                -4.509
REMARK SMILES CC[C@@H](C)[C@@H](NC(=O)[C@@H](O)Cc1ccc(O)c(Cl)c1)C(=O)N1[C@H](C(=O)NCCCCN=C(N)N)C[C@H]2CC[C@H](OS(=O)(=O)O)C[C@@H]21
REMARK SMILES IDX 22 1 36 2 46 3 35 4 23 5 45 6 37 7 39 8 38 9 20 10 21 11
REMARK SMILES IDX 5 12 6 13 7 14 8 15 9 17 11 18 12 19 17 20 19 21 15 22 14 23
REMARK SMILES IDX 13 24 18 25 16 26 10 28 3 30 4 31 2 32 1 33 24 34 25 35
REMARK SMILES IDX 26 36 27 38 28 39 29 40 30 41 31 42 32 43 33 44 34 45 40 50
REMARK SMILES IDX 41 51 42 52 43 53 44 54
REMARK H PARENT 6 16 16 27 10 29 26 37 33 46 33 47 34 48 34 49 44 55
ROOT
ATOM      1  N   UNL     1       0.865  -5.102   3.406  1.00  0.00    -0.326 N 
ATOM      2  C   UNL     1       2.581  -4.863   5.001  1.00  0.00     0.014 C 
ATOM      3  C   UNL     1       2.180  -4.476   3.574  1.00  0.00     0.091 C 
ATOM      4  C   UNL     1       1.987  -6.255   5.149  1.00  0.00     0.041 C 
ATOM      5  C   UNL     1       0.594  -6.025   4.536  1.00  0.00     0.175 C 
ATOM      6  C   UNL     1       2.282  -2.958   3.439  1.00  0.00     0.059 C 
ATOM      7  C   UNL     1       4.067  -4.661   5.220  1.00  0.00     0.008 C 
ATOM      8  C   UNL     1       3.390  -2.329   4.311  1.00  0.00     0.143 C 
ATOM      9  C   UNL     1       4.531  -3.324   4.604  1.00  0.00     0.034 C 
ENDROOT
BRANCH   1  10
ATOM     10  C   UNL     1       0.020  -5.112   2.310  1.00  0.00     0.246 C 
ATOM     11  O   UNL     1      -0.696  -4.128   2.094  1.00  0.00    -0.272 OA
BRANCH  10  12
ATOM     12  C   UNL     1       0.021  -6.338   1.351  1.00  0.00     0.174 C 
BRANCH  12  13
ATOM     13  N   UNL     1      -0.946  -7.333   1.813  1.00  0.00    -0.342 N 
ATOM     14  C   UNL     1      -2.185  -7.549   1.254  1.00  0.00     0.249 C 
ATOM     15  O   UNL     1      -2.608  -6.942   0.278  1.00  0.00    -0.272 OA
ATOM     16  H   UNL     1      -0.801  -7.801   2.704  1.00  0.00     0.164 HD
BRANCH  14  17
ATOM     17  C   UNL     1      -2.980  -8.657   1.977  1.00  0.00     0.207 C 
BRANCH  17  18
ATOM     18  C   UNL     1      -2.083  -9.867   2.254  1.00  0.00     0.077 C 
BRANCH  18  19
ATOM     19  C   UNL     1      -1.944 -10.137   3.736  1.00  0.00    -0.043 A 
ATOM     20  C   UNL     1      -0.772  -9.806   5.833  1.00  0.00     0.083 A 
ATOM     21  C   UNL     1      -0.927  -9.516   4.477  1.00  0.00     0.028 A 
ATOM     22  C   UNL     1      -1.628 -10.715   6.455  1.00  0.00     0.134 A 
ATOM     23  C   UNL     1      -2.639 -11.337   5.733  1.00  0.00     0.048 A 
ATOM     24  C   UNL     1      -2.796 -11.051   4.375  1.00  0.00     0.008 A 
ATOM     25  Cl  UNL     1       0.484  -9.033   6.727  1.00  0.00    -0.080 Cl
BRANCH  22  26
ATOM     26  O   UNL     1      -1.508 -11.039   7.780  1.00  0.00    -0.506 OA
ATOM     27  H   UNL     1      -0.961 -10.343   8.190  1.00  0.00     0.293 HD
ENDBRANCH  22  26
ENDBRANCH  18  19
ENDBRANCH  17  18
BRANCH  17  28
ATOM     28  O   UNL     1      -4.114  -9.072   1.199  1.00  0.00    -0.383 OA
ATOM     29  H   UNL     1      -3.921  -8.803   0.272  1.00  0.00     0.211 HD
ENDBRANCH  17  28
ENDBRANCH  14  17
ENDBRANCH  12  13
BRANCH  12  30
ATOM     30  C   UNL     1       1.438  -6.939   1.148  1.00  0.00     0.018 C 
ATOM     31  C   UNL     1       1.944  -6.675  -0.279  1.00  0.00     0.010 C 
BRANCH  30  32
ATOM     32  C   UNL     1       1.525  -8.450   1.472  1.00  0.00     0.002 C 
ATOM     33  C   UNL     1       1.451  -9.380   0.267  1.00  0.00     0.004 C 
ENDBRANCH  30  32
ENDBRANCH  12  30
ENDBRANCH  10  12
ENDBRANCH   1  10
BRANCH   5  34
ATOM     34  C   UNL     1      -0.379  -5.375   5.556  1.00  0.00     0.242 C 
ATOM     35  O   UNL     1      -0.492  -5.785   6.711  1.00  0.00    -0.273 OA
ATOM     36  N   UNL     1      -1.144  -4.343   5.060  1.00  0.00    -0.354 N 
ATOM     37  H   UNL     1      -1.092  -4.128   4.063  1.00  0.00     0.163 HD
BRANCH  36  38
ATOM     38  C   UNL     1      -1.940  -3.489   5.917  1.00  0.00     0.116 C 
BRANCH  38  39
ATOM     39  C   UNL     1      -1.090  -2.327   6.425  1.00  0.00     0.023 C 
BRANCH  39  40
ATOM     40  C   UNL     1      -1.609  -0.974   5.951  1.00  0.00     0.026 C 
BRANCH  40  41
ATOM     41  C   UNL     1      -0.680  -0.377   4.893  1.00  0.00     0.146 C 
BRANCH  41  42
ATOM     42  N   UNL     1      -0.759  -1.163   3.669  1.00  0.00    -0.254 NA
ATOM     43  C   UNL     1      -0.759  -0.570   2.535  1.00  0.00     0.185 C 
ATOM     44  N   UNL     1      -0.694   0.743   2.244  1.00  0.00    -0.370 N 
ATOM     45  N   UNL     1      -0.836  -1.312   1.418  1.00  0.00    -0.370 N 
ATOM     46  H   UNL     1      -0.948   1.079   1.332  1.00  0.00     0.159 HD
ATOM     47  H   UNL     1      -0.617   1.446   2.972  1.00  0.00     0.159 HD
ATOM     48  H   UNL     1      -0.880  -2.314   1.547  1.00  0.00     0.159 HD
ATOM     49  H   UNL     1      -0.606  -0.952   0.509  1.00  0.00     0.159 HD
ENDBRANCH  41  42
ENDBRANCH  40  41
ENDBRANCH  39  40
ENDBRANCH  38  39
ENDBRANCH  36  38
ENDBRANCH   5  34
BRANCH   8  50
ATOM     50  O   UNL     1       2.843  -1.888   5.554  1.00  0.00    -0.245 OA
BRANCH  50  51
ATOM     51  S   UNL     1       3.304  -0.455   6.170  1.00  0.00     0.397 S 
ATOM     52  O   UNL     1       3.296  -0.565   7.612  1.00  0.00    -0.169 OA
ATOM     53  O   UNL     1       2.608   0.615   5.486  1.00  0.00    -0.169 OA
BRANCH  51  54
ATOM     54  O   UNL     1       4.854  -0.390   5.745  1.00  0.00    -0.264 OA
ATOM     55  H   UNL     1       5.265  -1.245   5.985  1.00  0.00     0.236 HD
ENDBRANCH  51  54
ENDBRANCH  50  51
ENDBRANCH   8  50
TORSDOF 19
ENDMDL
