MODEL 1
REMARK VINA RESULT:    -5.411      0.000      0.000
REMARK INTER + INTRA:         -11.413
REMARK INTER:                  -9.681
REMARK INTRA:                  -1.732
REMARK UNBOUND:                -1.732
REMARK SMILES CC[C@H](C)[C@H]1NC(=O)c2coc(n2)[C@H](C(C)C)NC(=O)[C@H]([C@@H](C)O)NC(=O)[C@H](C)NC(=O)c2csc1n2
REMARK SMILES IDX 11 1 13 2 12 3 9 4 10 5 7 6 6 7 8 8 5 10 36 11 35 12 34 13
REMARK SMILES IDX 37 14 33 15 31 16 32 17 30 18 28 20 29 21 3 23 4 24 2 25
REMARK SMILES IDX 1 26 14 27 18 28 19 29 20 30 21 32 25 33 26 34 27 35 22 38
REMARK SMILES IDX 23 39 24 40 15 42 16 43 17 44
REMARK H PARENT 6 9 30 19 18 31 25 36 24 41
REMARK Flexibility Score:   94.900
ROOT
ATOM      1  O   UNL     1      -4.163   3.654  13.501  1.00  0.00    -0.446 OA
ATOM      2  N   UNL     1      -3.861   5.397  12.103  1.00  0.00    -0.207 NA
ATOM      3  C   UNL     1      -4.126   5.014  13.339  1.00  0.00     0.217 A 
ATOM      4  C   UNL     1      -3.687   4.211  11.410  1.00  0.00     0.167 A 
ATOM      5  C   UNL     1      -3.871   3.154  12.268  1.00  0.00     0.231 A 
ENDROOT
BRANCH   4   6
ATOM      6  C   UNL     1      -3.389   4.158   9.990  1.00  0.00     0.273 C 
ATOM      7  N   UNL     1      -2.038   4.124   9.753  1.00  0.00    -0.341 N 
ATOM      8  O   UNL     1      -4.248   4.168   9.116  1.00  0.00    -0.267 OA
ATOM      9  H   UNL     1      -1.445   4.215  10.573  1.00  0.00     0.164 HD
BRANCH   7  10
ATOM     10  C   UNL     1      -1.459   4.317   8.438  1.00  0.00     0.145 C 
BRANCH  10  11
ATOM     11  C   UNL     1      -0.974   5.757   8.355  1.00  0.00     0.116 A 
ATOM     12  S   UNL     1      -1.004   6.583   6.843  1.00  0.00    -0.124 S 
ATOM     13  C   UNL     1      -0.397   7.987   7.606  1.00  0.00     0.101 A 
ATOM     14  N   UNL     1      -0.528   6.467   9.378  1.00  0.00    -0.234 NA
ATOM     15  C   UNL     1      -0.209   7.760   8.956  1.00  0.00     0.139 A 
BRANCH  15  16
ATOM     16  C   UNL     1       0.275   8.778   9.891  1.00  0.00     0.271 C 
ATOM     17  O   UNL     1       1.441   8.835  10.266  1.00  0.00    -0.267 OA
ATOM     18  N   UNL     1      -0.703   9.659  10.301  1.00  0.00    -0.339 N 
ATOM     19  H   UNL     1      -1.651   9.440  10.006  1.00  0.00     0.164 HD
BRANCH  18  20
ATOM     20  C   UNL     1      -0.420  10.697  11.283  1.00  0.00     0.168 CG0
ATOM     21  C   UNL     1      -0.459  12.089  10.648  1.00  0.00     0.041 C 
ATOM     22  G   UNL     1      -1.409  10.689  12.459  1.00  0.00     0.000 G0
ENDBRANCH  18  20
ENDBRANCH  15  16
ENDBRANCH  10  11
BRANCH  10  23
ATOM     23  C   UNL     1      -0.330   3.295   8.139  1.00  0.00     0.015 C 
ATOM     24  C   UNL     1       0.318   2.715   9.408  1.00  0.00     0.010 C 
BRANCH  23  25
ATOM     25  C   UNL     1      -0.803   2.126   7.246  1.00  0.00     0.002 C 
ATOM     26  C   UNL     1      -2.237   2.265   6.753  1.00  0.00     0.004 C 
ENDBRANCH  23  25
ENDBRANCH  10  23
ENDBRANCH   7  10
ENDBRANCH   4   6
BRANCH   3  27
ATOM     27  C   UNL     1      -4.429   5.899  14.517  1.00  0.00     0.171 C 
BRANCH  27  28
ATOM     28  N   UNL     1      -4.359   7.284  14.065  1.00  0.00    -0.342 N 
ATOM     29  C   UNL     1      -3.216   8.046  14.167  1.00  0.00     0.245 C 
ATOM     30  O   UNL     1      -2.165   7.610  14.634  1.00  0.00    -0.273 OA
ATOM     31  H   UNL     1      -5.154   7.677  13.563  1.00  0.00     0.164 HD
BRANCH  29  32
ATOM     32  C   UNL     1      -3.295   9.444  13.518  1.00  0.00     0.200 C 
BRANCH  32  33
ATOM     33  N   UNL     1      -2.223   9.550  12.521  1.00  0.00    -0.340 N 
ATOM     34  C   UNL     1      -1.413  10.665  12.458  1.00  0.00     0.243 CG0
ATOM     35  O   UNL     1      -1.592  11.641  13.184  1.00  0.00    -0.273 OA
ATOM     36  H   UNL     1      -2.071   8.775  11.887  1.00  0.00     0.164 HD
ATOM     37  G   UNL     1      -0.424  10.704  11.281  1.00  0.00     0.000 G0
ENDBRANCH  32  33
BRANCH  32  38
ATOM     38  C   UNL     1      -4.698   9.713  12.925  1.00  0.00     0.143 C 
ATOM     39  C   UNL     1      -5.325  11.026  13.381  1.00  0.00     0.041 C 
BRANCH  38  40
ATOM     40  O   UNL     1      -4.636   9.700  11.486  1.00  0.00    -0.391 OA
ATOM     41  H   UNL     1      -3.880   9.132  11.244  1.00  0.00     0.211 HD
ENDBRANCH  38  40
ENDBRANCH  32  38
ENDBRANCH  29  32
ENDBRANCH  27  28
BRANCH  27  42
ATOM     42  C   UNL     1      -5.736   5.621  15.299  1.00  0.00     0.015 C 
ATOM     43  C   UNL     1      -6.716   6.797  15.388  1.00  0.00     0.010 C 
ATOM     44  C   UNL     1      -6.455   4.368  14.788  1.00  0.00     0.010 C 
ENDBRANCH  27  42
ENDBRANCH   3  27
TORSDOF 5
ENDMDL
MODEL 2
REMARK VINA RESULT:    -5.252      1.670      2.165
REMARK INTER + INTRA:         -11.129
REMARK INTER:                  -8.970
REMARK INTRA:                  -2.159
REMARK UNBOUND:                -1.732
REMARK SMILES CC[C@H](C)[C@H]1NC(=O)c2coc(n2)[C@H](C(C)C)NC(=O)[C@H]([C@@H](C)O)NC(=O)[C@H](C)NC(=O)c2csc1n2
REMARK SMILES IDX 11 1 13 2 12 3 9 4 10 5 7 6 6 7 8 8 5 10 36 11 35 12 34 13
REMARK SMILES IDX 37 14 33 15 31 16 32 17 30 18 28 20 29 21 3 23 4 24 2 25
REMARK SMILES IDX 1 26 14 27 18 28 19 29 20 30 21 32 25 33 26 34 27 35 22 38
REMARK SMILES IDX 23 39 24 40 15 42 16 43 17 44
REMARK H PARENT 6 9 30 19 18 31 25 36 24 41
REMARK Flexibility Score:   94.900
ROOT
ATOM      1  O   UNL     1      -3.953   5.937  14.038  1.00  0.00    -0.446 OA
ATOM      2  N   UNL     1      -3.693   6.799  11.971  1.00  0.00    -0.207 NA
ATOM      3  C   UNL     1      -3.829   7.057  13.260  1.00  0.00     0.217 A 
ATOM      4  C   UNL     1      -3.701   5.416  11.900  1.00  0.00     0.167 A 
ATOM      5  C   UNL     1      -3.860   4.898  13.162  1.00  0.00     0.231 A 
ENDROOT
BRANCH   4   6
ATOM      6  C   UNL     1      -3.589   4.686  10.650  1.00  0.00     0.273 C 
ATOM      7  N   UNL     1      -2.282   4.542  10.258  1.00  0.00    -0.341 N 
ATOM      8  O   UNL     1      -4.554   4.274  10.017  1.00  0.00    -0.267 OA
ATOM      9  H   UNL     1      -1.595   5.016  10.837  1.00  0.00     0.164 HD
BRANCH   7  10
ATOM     10  C   UNL     1      -1.896   4.077   8.941  1.00  0.00     0.145 C 
BRANCH  10  11
ATOM     11  C   UNL     1      -0.936   5.102   8.354  1.00  0.00     0.116 A 
ATOM     12  S   UNL     1      -0.567   5.062   6.671  1.00  0.00    -0.124 S 
ATOM     13  C   UNL     1       0.433   6.434   6.865  1.00  0.00     0.101 A 
ATOM     14  N   UNL     1      -0.346   6.067   9.039  1.00  0.00    -0.234 NA
ATOM     15  C   UNL     1       0.432   6.850   8.183  1.00  0.00     0.139 A 
BRANCH  15  16
ATOM     16  C   UNL     1       1.172   8.018   8.667  1.00  0.00     0.271 C 
ATOM     17  O   UNL     1       2.397   8.067   8.686  1.00  0.00    -0.267 OA
ATOM     18  N   UNL     1       0.359   9.047   9.092  1.00  0.00    -0.339 N 
ATOM     19  H   UNL     1      -0.636   8.841   9.130  1.00  0.00     0.164 HD
BRANCH  18  20
ATOM     20  C   UNL     1       0.919  10.261   9.669  1.00  0.00     0.168 CG0
ATOM     21  C   UNL     1       1.128  11.339   8.603  1.00  0.00     0.041 C 
ATOM     22  G   UNL     1       0.032  10.859  10.774  1.00  0.00     0.000 G0
ENDBRANCH  18  20
ENDBRANCH  15  16
ENDBRANCH  10  11
BRANCH  10  23
ATOM     23  C   UNL     1      -1.289   2.650   8.977  1.00  0.00     0.015 C 
ATOM     24  C   UNL     1      -1.313   2.014  10.377  1.00  0.00     0.010 C 
BRANCH  23  25
ATOM     25  C   UNL     1      -1.971   1.684   7.982  1.00  0.00     0.002 C 
ATOM     26  C   UNL     1      -2.916   2.369   7.005  1.00  0.00     0.004 C 
ENDBRANCH  23  25
ENDBRANCH  10  23
ENDBRANCH   7  10
ENDBRANCH   4   6
BRANCH   3  27
ATOM     27  C   UNL     1      -3.911   8.411  13.909  1.00  0.00     0.171 C 
BRANCH  27  28
ATOM     28  N   UNL     1      -3.645   9.415  12.884  1.00  0.00    -0.342 N 
ATOM     29  C   UNL     1      -2.469  10.128  12.823  1.00  0.00     0.245 C 
ATOM     30  O   UNL     1      -1.547   9.960  13.621  1.00  0.00    -0.273 OA
ATOM     31  H   UNL     1      -4.314   9.527  12.123  1.00  0.00     0.164 HD
BRANCH  29  32
ATOM     32  C   UNL     1      -2.318  11.050  11.595  1.00  0.00     0.200 C 
BRANCH  32  33
ATOM     33  N   UNL     1      -1.310  10.466  10.701  1.00  0.00    -0.340 N 
ATOM     34  C   UNL     1       0.014  10.850  10.769  1.00  0.00     0.243 CG0
ATOM     35  O   UNL     1       0.395  11.737  11.529  1.00  0.00    -0.273 OA
ATOM     36  H   UNL     1      -1.600   9.754  10.042  1.00  0.00     0.164 HD
ATOM     37  G   UNL     1       0.934  10.263   9.686  1.00  0.00     0.000 G0
ENDBRANCH  32  33
BRANCH  32  38
ATOM     38  C   UNL     1      -3.677  11.286  10.896  1.00  0.00     0.143 C 
ATOM     39  C   UNL     1      -4.278  12.663  11.154  1.00  0.00     0.041 C 
BRANCH  38  40
ATOM     40  O   UNL     1      -3.541  11.095   9.475  1.00  0.00    -0.391 OA
ATOM     41  H   UNL     1      -4.180  11.697   9.049  1.00  0.00     0.211 HD
ENDBRANCH  38  40
ENDBRANCH  32  38
ENDBRANCH  29  32
ENDBRANCH  27  28
BRANCH  27  42
ATOM     42  C   UNL     1      -5.194   8.742  14.710  1.00  0.00     0.015 C 
ATOM     43  C   UNL     1      -5.354  10.209  15.126  1.00  0.00     0.010 C 
ATOM     44  C   UNL     1      -6.458   8.252  13.996  1.00  0.00     0.010 C 
ENDBRANCH  27  42
ENDBRANCH   3  27
TORSDOF 5
ENDMDL
MODEL 3
REMARK VINA RESULT:    -4.818      8.497     13.235
REMARK INTER + INTRA:         -10.352
REMARK INTER:                  -7.894
REMARK INTRA:                  -2.458
REMARK UNBOUND:                -1.732
REMARK SMILES CC[C@H](C)[C@H]1NC(=O)c2coc(n2)[C@H](C(C)C)NC(=O)[C@H]([C@@H](C)O)NC(=O)[C@H](C)NC(=O)c2csc1n2
REMARK SMILES IDX 11 1 13 2 12 3 9 4 10 5 7 6 6 7 8 8 5 10 36 11 35 12 34 13
REMARK SMILES IDX 37 14 33 15 31 16 32 17 30 18 28 20 29 21 3 23 4 24 2 25
REMARK SMILES IDX 1 26 14 27 18 28 19 29 20 30 21 32 25 33 26 34 27 35 22 38
REMARK SMILES IDX 23 39 24 40 15 42 16 43 17 44
REMARK H PARENT 6 9 30 19 18 31 25 36 24 41
REMARK Flexibility Score:   94.900
ROOT
ATOM      1  O   UNL     1       2.796   8.180  -0.396  1.00  0.00    -0.446 OA
ATOM      2  N   UNL     1       3.491   8.839   1.644  1.00  0.00    -0.207 NA
ATOM      3  C   UNL     1       3.814   8.676   0.374  1.00  0.00     0.217 A 
ATOM      4  C   UNL     1       2.164   8.451   1.710  1.00  0.00     0.167 A 
ATOM      5  C   UNL     1       1.747   8.051   0.464  1.00  0.00     0.231 A 
ENDROOT
BRANCH   4   6
ATOM      6  C   UNL     1       1.396   8.456   2.942  1.00  0.00     0.273 C 
ATOM      7  N   UNL     1       2.054   9.113   3.951  1.00  0.00    -0.341 N 
ATOM      8  O   UNL     1       0.304   7.914   3.062  1.00  0.00    -0.267 OA
ATOM      9  H   UNL     1       2.993   9.431   3.730  1.00  0.00     0.164 HD
BRANCH   7  10
ATOM     10  C   UNL     1       1.636   9.056   5.338  1.00  0.00     0.145 C 
BRANCH  10  11
ATOM     11  C   UNL     1       2.562   8.087   6.059  1.00  0.00     0.116 A 
ATOM     12  S   UNL     1       1.894   6.850   7.057  1.00  0.00    -0.124 S 
ATOM     13  C   UNL     1       3.471   6.278   7.388  1.00  0.00     0.101 A 
ATOM     14  N   UNL     1       3.882   8.097   5.978  1.00  0.00    -0.234 NA
ATOM     15  C   UNL     1       4.412   7.045   6.729  1.00  0.00     0.139 A 
BRANCH  15  16
ATOM     16  C   UNL     1       5.853   6.792   6.790  1.00  0.00     0.271 C 
ATOM     17  O   UNL     1       6.512   6.941   7.813  1.00  0.00    -0.267 OA
ATOM     18  N   UNL     1       6.389   6.373   5.590  1.00  0.00    -0.339 N 
ATOM     19  H   UNL     1       5.762   6.396   4.791  1.00  0.00     0.164 HD
BRANCH  18  20
ATOM     20  C   UNL     1       7.819   6.138   5.444  1.00  0.00     0.168 CG0
ATOM     21  C   UNL     1       8.158   4.654   5.595  1.00  0.00     0.041 C 
ATOM     22  G   UNL     1       8.363   6.609   4.086  1.00  0.00     0.000 G0
ENDBRANCH  18  20
ENDBRANCH  15  16
ENDBRANCH  10  11
BRANCH  10  23
ATOM     23  C   UNL     1       1.615  10.459   6.001  1.00  0.00     0.015 C 
ATOM     24  C   UNL     1       0.639  11.437   5.326  1.00  0.00     0.010 C 
BRANCH  23  25
ATOM     25  C   UNL     1       1.293  10.402   7.511  1.00  0.00     0.002 C 
ATOM     26  C   UNL     1       0.436  11.560   8.005  1.00  0.00     0.004 C 
ENDBRANCH  23  25
ENDBRANCH  10  23
ENDBRANCH   7  10
ENDBRANCH   4   6
BRANCH   3  27
ATOM     27  C   UNL     1       5.156   8.923  -0.260  1.00  0.00     0.171 C 
BRANCH  27  28
ATOM     28  N   UNL     1       6.073   7.895   0.221  1.00  0.00    -0.342 N 
ATOM     29  C   UNL     1       7.007   8.128   1.205  1.00  0.00     0.245 C 
ATOM     30  O   UNL     1       7.127   9.217   1.764  1.00  0.00    -0.273 OA
ATOM     31  H   UNL     1       5.955   6.939  -0.113  1.00  0.00     0.164 HD
BRANCH  29  32
ATOM     32  C   UNL     1       7.798   6.887   1.671  1.00  0.00     0.200 C 
BRANCH  32  33
ATOM     33  N   UNL     1       7.414   6.589   3.057  1.00  0.00    -0.340 N 
ATOM     34  C   UNL     1       8.345   6.601   4.075  1.00  0.00     0.243 CG0
ATOM     35  O   UNL     1       9.539   6.796   3.861  1.00  0.00    -0.273 OA
ATOM     36  H   UNL     1       6.441   6.394   3.259  1.00  0.00     0.164 HD
ATOM     37  G   UNL     1       7.834   6.138   5.449  1.00  0.00     0.000 G0
ENDBRANCH  32  33
BRANCH  32  38
ATOM     38  C   UNL     1       7.584   5.689   0.716  1.00  0.00     0.143 C 
ATOM     39  C   UNL     1       8.592   4.561   0.898  1.00  0.00     0.041 C 
BRANCH  38  40
ATOM     40  O   UNL     1       6.255   5.159   0.880  1.00  0.00    -0.391 OA
ATOM     41  H   UNL     1       6.042   5.228   1.830  1.00  0.00     0.211 HD
ENDBRANCH  38  40
ENDBRANCH  32  38
ENDBRANCH  29  32
ENDBRANCH  27  28
BRANCH  27  42
ATOM     42  C   UNL     1       5.203   9.053  -1.802  1.00  0.00     0.015 C 
ATOM     43  C   UNL     1       6.041  10.217  -2.342  1.00  0.00     0.010 C 
ATOM     44  C   UNL     1       5.621   7.741  -2.474  1.00  0.00     0.010 C 
ENDBRANCH  27  42
ENDBRANCH   3  27
TORSDOF 5
ENDMDL
MODEL 4
REMARK VINA RESULT:    -4.423     16.591     19.445
REMARK INTER + INTRA:          -9.646
REMARK INTER:                  -7.139
REMARK INTRA:                  -2.507
REMARK UNBOUND:                -1.732
REMARK SMILES CC[C@H](C)[C@H]1NC(=O)c2coc(n2)[C@H](C(C)C)NC(=O)[C@H]([C@@H](C)O)NC(=O)[C@H](C)NC(=O)c2csc1n2
REMARK SMILES IDX 11 1 13 2 12 3 9 4 10 5 7 6 6 7 8 8 5 10 36 11 35 12 34 13
REMARK SMILES IDX 37 14 33 15 31 16 32 17 30 18 28 20 29 21 3 23 4 24 2 25
REMARK SMILES IDX 1 26 14 27 18 28 19 29 20 30 21 32 25 33 26 34 27 35 22 38
REMARK SMILES IDX 23 39 24 40 15 42 16 43 17 44
REMARK H PARENT 6 9 30 19 18 31 25 36 24 41
REMARK Flexibility Score:   94.900
ROOT
ATOM      1  O   UNL     1      11.905   5.056  -4.702  1.00  0.00    -0.446 OA
ATOM      2  N   UNL     1      12.813   5.133  -2.641  1.00  0.00    -0.207 NA
ATOM      3  C   UNL     1      12.302   5.827  -3.642  1.00  0.00     0.217 A 
ATOM      4  C   UNL     1      12.722   3.817  -3.058  1.00  0.00     0.167 A 
ATOM      5  C   UNL     1      12.167   3.777  -4.314  1.00  0.00     0.231 A 
ENDROOT
BRANCH   4   6
ATOM      6  C   UNL     1      13.188   2.697  -2.260  1.00  0.00     0.273 C 
ATOM      7  N   UNL     1      12.158   2.080  -1.596  1.00  0.00    -0.341 N 
ATOM      8  O   UNL     1      14.365   2.368  -2.176  1.00  0.00    -0.267 OA
ATOM      9  H   UNL     1      11.247   2.521  -1.689  1.00  0.00     0.164 HD
BRANCH   7  10
ATOM     10  C   UNL     1      12.365   1.101  -0.547  1.00  0.00     0.145 C 
BRANCH  10  11
ATOM     11  C   UNL     1      12.205   1.816   0.787  1.00  0.00     0.116 A 
ATOM     12  S   UNL     1      12.617   1.001   2.248  1.00  0.00    -0.124 S 
ATOM     13  C   UNL     1      12.212   2.404   3.137  1.00  0.00     0.101 A 
ATOM     14  N   UNL     1      11.774   3.058   0.935  1.00  0.00    -0.234 NA
ATOM     15  C   UNL     1      11.792   3.409   2.287  1.00  0.00     0.139 A 
BRANCH  15  16
ATOM     16  C   UNL     1      11.401   4.746   2.740  1.00  0.00     0.271 C 
ATOM     17  O   UNL     1      11.303   5.044   3.925  1.00  0.00    -0.267 OA
ATOM     18  N   UNL     1      11.158   5.628   1.709  1.00  0.00    -0.339 N 
ATOM     19  H   UNL     1      11.164   5.230   0.773  1.00  0.00     0.164 HD
BRANCH  18  20
ATOM     20  C   UNL     1      10.692   6.984   1.969  1.00  0.00     0.168 CG0
ATOM     21  C   UNL     1      11.861   7.968   2.045  1.00  0.00     0.041 C 
ATOM     22  G   UNL     1       9.717   7.493   0.895  1.00  0.00     0.000 G0
ENDBRANCH  18  20
ENDBRANCH  15  16
ENDBRANCH  10  11
BRANCH  10  23
ATOM     23  C   UNL     1      11.412  -0.116  -0.684  1.00  0.00     0.015 C 
ATOM     24  C   UNL     1      10.276   0.111  -1.695  1.00  0.00     0.010 C 
BRANCH  23  25
ATOM     25  C   UNL     1      12.156  -1.418  -1.059  1.00  0.00     0.002 C 
ATOM     26  C   UNL     1      12.741  -1.413  -2.465  1.00  0.00     0.004 C 
ENDBRANCH  23  25
ENDBRANCH  10  23
ENDBRANCH   7  10
ENDBRANCH   4   6
BRANCH   3  27
ATOM     27  C   UNL     1      12.175   7.322  -3.738  1.00  0.00     0.171 C 
BRANCH  27  28
ATOM     28  N   UNL     1      11.441   7.784  -2.564  1.00  0.00    -0.342 N 
ATOM     29  C   UNL     1      10.200   8.374  -2.644  1.00  0.00     0.245 C 
ATOM     30  O   UNL     1       9.610   8.543  -3.711  1.00  0.00    -0.273 OA
ATOM     31  H   UNL     1      11.814   7.575  -1.639  1.00  0.00     0.164 HD
BRANCH  29  32
ATOM     32  C   UNL     1       9.525   8.678  -1.290  1.00  0.00     0.200 C 
BRANCH  32  33
ATOM     33  N   UNL     1      10.325   8.057  -0.227  1.00  0.00    -0.340 N 
ATOM     34  C   UNL     1       9.729   7.486   0.878  1.00  0.00     0.243 CG0
ATOM     35  O   UNL     1       8.513   7.527   1.054  1.00  0.00    -0.273 OA
ATOM     36  H   UNL     1      11.333   8.035  -0.329  1.00  0.00     0.164 HD
ATOM     37  G   UNL     1      10.688   6.996   1.975  1.00  0.00     0.000 G0
ENDBRANCH  32  33
BRANCH  32  38
ATOM     38  C   UNL     1       9.327  10.198  -1.085  1.00  0.00     0.143 C 
ATOM     39  C   UNL     1      10.617  11.007  -1.140  1.00  0.00     0.041 C 
BRANCH  38  40
ATOM     40  O   UNL     1       8.410  10.712  -2.070  1.00  0.00    -0.391 OA
ATOM     41  H   UNL     1       8.337  10.032  -2.766  1.00  0.00     0.211 HD
ENDBRANCH  38  40
ENDBRANCH  32  38
ENDBRANCH  29  32
ENDBRANCH  27  28
BRANCH  27  42
ATOM     42  C   UNL     1      13.475   8.136  -3.953  1.00  0.00     0.015 C 
ATOM     43  C   UNL     1      14.110   8.715  -2.683  1.00  0.00     0.010 C 
ATOM     44  C   UNL     1      14.516   7.351  -4.757  1.00  0.00     0.010 C 
ENDBRANCH  27  42
ENDBRANCH   3  27
TORSDOF 5
ENDMDL
MODEL 5
REMARK VINA RESULT:    -4.340     16.857     21.498
REMARK INTER + INTRA:          -9.498
REMARK INTER:                  -7.436
REMARK INTRA:                  -2.062
REMARK UNBOUND:                -1.732
REMARK SMILES CC[C@H](C)[C@H]1NC(=O)c2coc(n2)[C@H](C(C)C)NC(=O)[C@H]([C@@H](C)O)NC(=O)[C@H](C)NC(=O)c2csc1n2
REMARK SMILES IDX 11 1 13 2 12 3 9 4 10 5 7 6 6 7 8 8 5 10 36 11 35 12 34 13
REMARK SMILES IDX 37 14 33 15 31 16 32 17 30 18 28 20 29 21 3 23 4 24 2 25
REMARK SMILES IDX 1 26 14 27 18 28 19 29 20 30 21 32 25 33 26 34 27 35 22 38
REMARK SMILES IDX 23 39 24 40 15 42 16 43 17 44
REMARK H PARENT 6 9 30 19 18 31 25 36 24 41
REMARK Flexibility Score:   94.900
ROOT
ATOM      1  O   UNL     1       1.722  -5.117  -8.879  1.00  0.00    -0.446 OA
ATOM      2  N   UNL     1       0.706  -3.383  -7.859  1.00  0.00    -0.207 NA
ATOM      3  C   UNL     1       1.394  -3.788  -8.911  1.00  0.00     0.217 A 
ATOM      4  C   UNL     1       0.548  -4.526  -7.096  1.00  0.00     0.167 A 
ATOM      5  C   UNL     1       1.168  -5.579  -7.723  1.00  0.00     0.231 A 
ENDROOT
BRANCH   4   6
ATOM      6  C   UNL     1      -0.148  -4.540  -5.821  1.00  0.00     0.273 C 
ATOM      7  N   UNL     1      -0.962  -3.445  -5.673  1.00  0.00    -0.341 N 
ATOM      8  O   UNL     1      -0.000  -5.415  -4.977  1.00  0.00    -0.267 OA
ATOM      9  H   UNL     1      -0.912  -2.755  -6.417  1.00  0.00     0.164 HD
BRANCH   7  10
ATOM     10  C   UNL     1      -1.576  -3.080  -4.412  1.00  0.00     0.145 C 
BRANCH  10  11
ATOM     11  C   UNL     1      -0.827  -1.873  -3.867  1.00  0.00     0.116 A 
ATOM     12  S   UNL     1      -1.592  -0.837  -2.721  1.00  0.00    -0.124 S 
ATOM     13  C   UNL     1      -0.172   0.110  -2.640  1.00  0.00     0.101 A 
ATOM     14  N   UNL     1       0.411  -1.539  -4.192  1.00  0.00    -0.234 NA
ATOM     15  C   UNL     1       0.801  -0.405  -3.475  1.00  0.00     0.139 A 
BRANCH  15  16
ATOM     16  C   UNL     1       2.143   0.166  -3.609  1.00  0.00     0.271 C 
ATOM     17  O   UNL     1       2.729   0.711  -2.680  1.00  0.00    -0.267 OA
ATOM     18  N   UNL     1       2.676   0.030  -4.873  1.00  0.00    -0.339 N 
ATOM     19  H   UNL     1       2.049  -0.340  -5.582  1.00  0.00     0.164 HD
BRANCH  18  20
ATOM     20  C   UNL     1       3.974   0.598  -5.210  1.00  0.00     0.168 CG0
ATOM     21  C   UNL     1       5.109  -0.378  -4.892  1.00  0.00     0.041 C 
ATOM     22  G   UNL     1       4.087   0.983  -6.694  1.00  0.00     0.000 G0
ENDBRANCH  18  20
ENDBRANCH  15  16
ENDBRANCH  10  11
BRANCH  10  23
ATOM     23  C   UNL     1      -3.098  -2.815  -4.556  1.00  0.00     0.015 C 
ATOM     24  C   UNL     1      -3.492  -2.267  -5.938  1.00  0.00     0.010 C 
BRANCH  23  25
ATOM     25  C   UNL     1      -3.954  -4.067  -4.258  1.00  0.00     0.002 C 
ATOM     26  C   UNL     1      -5.353  -3.752  -3.744  1.00  0.00     0.004 C 
ENDBRANCH  23  25
ENDBRANCH  10  23
ENDBRANCH   7  10
ENDBRANCH   4   6
BRANCH   3  27
ATOM     27  C   UNL     1       1.873  -2.945 -10.061  1.00  0.00     0.171 C 
BRANCH  27  28
ATOM     28  N   UNL     1       2.924  -2.065  -9.562  1.00  0.00    -0.342 N 
ATOM     29  C   UNL     1       2.886  -0.696  -9.711  1.00  0.00     0.245 C 
ATOM     30  O   UNL     1       1.954  -0.113 -10.262  1.00  0.00    -0.273 OA
ATOM     31  H   UNL     1       3.670  -2.465  -8.995  1.00  0.00     0.164 HD
BRANCH  29  32
ATOM     32  C   UNL     1       4.021   0.076  -9.005  1.00  0.00     0.200 C 
BRANCH  32  33
ATOM     33  N   UNL     1       3.858  -0.089  -7.556  1.00  0.00    -0.340 N 
ATOM     34  C   UNL     1       4.064   0.963  -6.688  1.00  0.00     0.243 CG0
ATOM     35  O   UNL     1       4.452   2.062  -7.080  1.00  0.00    -0.273 OA
ATOM     36  H   UNL     1       3.568  -0.993  -7.200  1.00  0.00     0.164 HD
ATOM     37  G   UNL     1       3.995   0.617  -5.192  1.00  0.00     0.000 G0
ENDBRANCH  32  33
BRANCH  32  38
ATOM     38  C   UNL     1       5.411  -0.375  -9.512  1.00  0.00     0.143 C 
ATOM     39  C   UNL     1       5.565  -0.332 -11.027  1.00  0.00     0.041 C 
BRANCH  38  40
ATOM     40  O   UNL     1       6.440   0.437  -8.914  1.00  0.00    -0.391 OA
ATOM     41  H   UNL     1       6.094   1.349  -8.883  1.00  0.00     0.211 HD
ENDBRANCH  38  40
ENDBRANCH  32  38
ENDBRANCH  29  32
ENDBRANCH  27  28
BRANCH  27  42
ATOM     42  C   UNL     1       2.310  -3.681 -11.351  1.00  0.00     0.015 C 
ATOM     43  C   UNL     1       1.216  -4.493 -12.053  1.00  0.00     0.010 C 
ATOM     44  C   UNL     1       2.991  -2.736 -12.347  1.00  0.00     0.010 C 
ENDBRANCH  27  42
ENDBRANCH   3  27
TORSDOF 5
ENDMDL
MODEL 6
REMARK VINA RESULT:    -4.112     15.654     20.112
REMARK INTER + INTRA:          -9.090
REMARK INTER:                  -6.910
REMARK INTRA:                  -2.179
REMARK UNBOUND:                -1.732
REMARK SMILES CC[C@H](C)[C@H]1NC(=O)c2coc(n2)[C@H](C(C)C)NC(=O)[C@H]([C@@H](C)O)NC(=O)[C@H](C)NC(=O)c2csc1n2
REMARK SMILES IDX 11 1 13 2 12 3 9 4 10 5 7 6 6 7 8 8 5 10 36 11 35 12 34 13
REMARK SMILES IDX 37 14 33 15 31 16 32 17 30 18 28 20 29 21 3 23 4 24 2 25
REMARK SMILES IDX 1 26 14 27 18 28 19 29 20 30 21 32 25 33 26 34 27 35 22 38
REMARK SMILES IDX 23 39 24 40 15 42 16 43 17 44
REMARK H PARENT 6 9 30 19 18 31 25 36 24 41
REMARK Flexibility Score:   94.900
ROOT
ATOM      1  O   UNL     1      -5.198 -10.984  -1.471  1.00  0.00    -0.446 OA
ATOM      2  N   UNL     1      -5.710 -10.106   0.541  1.00  0.00    -0.207 NA
ATOM      3  C   UNL     1      -5.410 -11.201  -0.135  1.00  0.00     0.217 A 
ATOM      4  C   UNL     1      -5.667  -9.099  -0.407  1.00  0.00     0.167 A 
ATOM      5  C   UNL     1      -5.354  -9.640  -1.630  1.00  0.00     0.231 A 
ENDROOT
BRANCH   4   6
ATOM      6  C   UNL     1      -5.952  -7.708  -0.101  1.00  0.00     0.273 C 
ATOM      7  N   UNL     1      -5.060  -6.859  -0.708  1.00  0.00    -0.341 N 
ATOM      8  O   UNL     1      -6.864  -7.348   0.633  1.00  0.00    -0.267 OA
ATOM      9  H   UNL     1      -4.300  -7.307  -1.213  1.00  0.00     0.164 HD
BRANCH   7  10
ATOM     10  C   UNL     1      -4.958  -5.451  -0.380  1.00  0.00     0.145 C 
BRANCH  10  11
ATOM     11  C   UNL     1      -4.089  -5.330   0.863  1.00  0.00     0.116 A 
ATOM     12  S   UNL     1      -3.915  -3.801   1.639  1.00  0.00    -0.124 S 
ATOM     13  C   UNL     1      -2.923  -4.525   2.827  1.00  0.00     0.101 A 
ATOM     14  N   UNL     1      -3.440  -6.331   1.435  1.00  0.00    -0.234 NA
ATOM     15  C   UNL     1      -2.779  -5.876   2.579  1.00  0.00     0.139 A 
BRANCH  15  16
ATOM     16  C   UNL     1      -2.008  -6.782   3.433  1.00  0.00     0.271 C 
ATOM     17  O   UNL     1      -1.266  -6.384   4.325  1.00  0.00    -0.267 OA
ATOM     18  N   UNL     1      -2.201  -8.115   3.138  1.00  0.00    -0.339 N 
ATOM     19  H   UNL     1      -2.752  -8.311   2.307  1.00  0.00     0.164 HD
BRANCH  18  20
ATOM     20  C   UNL     1      -1.465  -9.157   3.840  1.00  0.00     0.168 CG0
ATOM     21  C   UNL     1      -2.245  -9.669   5.053  1.00  0.00     0.041 C 
ATOM     22  G   UNL     1      -1.143 -10.365   2.944  1.00  0.00     0.000 G0
ENDBRANCH  18  20
ENDBRANCH  15  16
ENDBRANCH  10  11
BRANCH  10  23
ATOM     23  C   UNL     1      -4.415  -4.611  -1.566  1.00  0.00     0.015 C 
ATOM     24  C   UNL     1      -3.031  -5.072  -2.055  1.00  0.00     0.010 C 
BRANCH  23  25
ATOM     25  C   UNL     1      -5.381  -4.582  -2.772  1.00  0.00     0.002 C 
ATOM     26  C   UNL     1      -4.683  -4.509  -4.122  1.00  0.00     0.004 C 
ENDBRANCH  23  25
ENDBRANCH  10  23
ENDBRANCH   7  10
ENDBRANCH   4   6
BRANCH   3  27
ATOM     27  C   UNL     1      -5.338 -12.605   0.398  1.00  0.00     0.171 C 
BRANCH  27  28
ATOM     28  N   UNL     1      -4.247 -12.660   1.366  1.00  0.00    -0.342 N 
ATOM     29  C   UNL     1      -2.921 -12.682   0.996  1.00  0.00     0.245 C 
ATOM     30  O   UNL     1      -2.557 -12.641  -0.178  1.00  0.00    -0.273 OA
ATOM     31  H   UNL     1      -4.468 -12.580   2.358  1.00  0.00     0.164 HD
BRANCH  29  32
ATOM     32  C   UNL     1      -1.911 -12.609   2.161  1.00  0.00     0.200 C 
BRANCH  32  33
ATOM     33  N   UNL     1      -2.128 -11.348   2.881  1.00  0.00    -0.340 N 
ATOM     34  C   UNL     1      -1.145 -10.383   2.948  1.00  0.00     0.243 CG0
ATOM     35  O   UNL     1      -0.027 -10.559   2.466  1.00  0.00    -0.273 OA
ATOM     36  H   UNL     1      -3.029 -11.187   3.315  1.00  0.00     0.164 HD
ATOM     37  G   UNL     1      -1.456  -9.176   3.848  1.00  0.00     0.000 G0
ENDBRANCH  32  33
BRANCH  32  38
ATOM     38  C   UNL     1      -2.012 -13.851   3.076  1.00  0.00     0.143 C 
ATOM     39  C   UNL     1      -0.726 -14.179   3.826  1.00  0.00     0.041 C 
BRANCH  38  40
ATOM     40  O   UNL     1      -3.077 -13.676   4.030  1.00  0.00    -0.391 OA
ATOM     41  H   UNL     1      -3.802 -13.221   3.559  1.00  0.00     0.211 HD
ENDBRANCH  38  40
ENDBRANCH  32  38
ENDBRANCH  29  32
ENDBRANCH  27  28
BRANCH  27  42
ATOM     42  C   UNL     1      -6.639 -13.218   0.971  1.00  0.00     0.015 C 
ATOM     43  C   UNL     1      -7.889 -13.049   0.100  1.00  0.00     0.010 C 
ATOM     44  C   UNL     1      -6.457 -14.689   1.360  1.00  0.00     0.010 C 
ENDBRANCH  27  42
ENDBRANCH   3  27
TORSDOF 5
ENDMDL
MODEL 7
REMARK VINA RESULT:    -4.096      8.551     12.731
REMARK INTER + INTRA:          -9.062
REMARK INTER:                  -6.582
REMARK INTRA:                  -2.479
REMARK UNBOUND:                -1.732
REMARK SMILES CC[C@H](C)[C@H]1NC(=O)c2coc(n2)[C@H](C(C)C)NC(=O)[C@H]([C@@H](C)O)NC(=O)[C@H](C)NC(=O)c2csc1n2
REMARK SMILES IDX 11 1 13 2 12 3 9 4 10 5 7 6 6 7 8 8 5 10 36 11 35 12 34 13
REMARK SMILES IDX 37 14 33 15 31 16 32 17 30 18 28 20 29 21 3 23 4 24 2 25
REMARK SMILES IDX 1 26 14 27 18 28 19 29 20 30 21 32 25 33 26 34 27 35 22 38
REMARK SMILES IDX 23 39 24 40 15 42 16 43 17 44
REMARK H PARENT 6 9 30 19 18 31 25 36 24 41
REMARK Flexibility Score:   94.900
ROOT
ATOM      1  O   UNL     1      -8.299  -4.407  10.996  1.00  0.00    -0.446 OA
ATOM      2  N   UNL     1      -6.138  -4.278  11.628  1.00  0.00    -0.207 NA
ATOM      3  C   UNL     1      -7.032  -4.916  10.893  1.00  0.00     0.217 A 
ATOM      4  C   UNL     1      -6.860  -3.265  12.235  1.00  0.00     0.167 A 
ATOM      5  C   UNL     1      -8.175  -3.349  11.846  1.00  0.00     0.231 A 
ENDROOT
BRANCH   4   6
ATOM      6  C   UNL     1      -6.269  -2.312  13.158  1.00  0.00     0.273 C 
ATOM      7  N   UNL     1      -5.913  -1.146  12.528  1.00  0.00    -0.341 N 
ATOM      8  O   UNL     1      -6.090  -2.542  14.348  1.00  0.00    -0.267 OA
ATOM      9  H   UNL     1      -6.037  -1.134  11.520  1.00  0.00     0.164 HD
BRANCH   7  10
ATOM     10  C   UNL     1      -5.085  -0.131  13.149  1.00  0.00     0.145 C 
BRANCH  10  11
ATOM     11  C   UNL     1      -3.636  -0.448  12.811  1.00  0.00     0.116 A 
ATOM     12  S   UNL     1      -2.370   0.195  13.788  1.00  0.00    -0.124 S 
ATOM     13  C   UNL     1      -1.220  -0.615  12.817  1.00  0.00     0.101 A 
ATOM     14  N   UNL     1      -3.242  -1.214  11.807  1.00  0.00    -0.234 NA
ATOM     15  C   UNL     1      -1.849  -1.327  11.815  1.00  0.00     0.139 A 
BRANCH  15  16
ATOM     16  C   UNL     1      -1.139  -2.150  10.833  1.00  0.00     0.271 C 
ATOM     17  O   UNL     1       0.052  -2.003  10.580  1.00  0.00    -0.267 OA
ATOM     18  N   UNL     1      -1.936  -3.098  10.228  1.00  0.00    -0.339 N 
ATOM     19  H   UNL     1      -2.929  -3.045  10.442  1.00  0.00     0.164 HD
BRANCH  18  20
ATOM     20  C   UNL     1      -1.417  -3.962   9.177  1.00  0.00     0.168 CG0
ATOM     21  C   UNL     1      -0.979  -5.317   9.735  1.00  0.00     0.041 C 
ATOM     22  G   UNL     1      -2.442  -4.222   8.061  1.00  0.00     0.000 G0
ENDBRANCH  18  20
ENDBRANCH  15  16
ENDBRANCH  10  11
BRANCH  10  23
ATOM     23  C   UNL     1      -5.493   1.303  12.718  1.00  0.00     0.015 C 
ATOM     24  C   UNL     1      -6.652   1.328  11.707  1.00  0.00     0.010 C 
BRANCH  23  25
ATOM     25  C   UNL     1      -5.862   2.206  13.916  1.00  0.00     0.002 C 
ATOM     26  C   UNL     1      -4.780   3.210  14.290  1.00  0.00     0.004 C 
ENDBRANCH  23  25
ENDBRANCH  10  23
ENDBRANCH   7  10
ENDBRANCH   4   6
BRANCH   3  27
ATOM     27  C   UNL     1      -6.800  -6.130  10.035  1.00  0.00     0.171 C 
BRANCH  27  28
ATOM     28  N   UNL     1      -5.595  -5.895   9.246  1.00  0.00    -0.342 N 
ATOM     29  C   UNL     1      -5.524  -6.158   7.896  1.00  0.00     0.245 C 
ATOM     30  O   UNL     1      -6.476  -6.596   7.252  1.00  0.00    -0.273 OA
ATOM     31  H   UNL     1      -4.804  -5.427   9.686  1.00  0.00     0.164 HD
BRANCH  29  32
ATOM     32  C   UNL     1      -4.212  -5.724   7.208  1.00  0.00     0.200 C 
BRANCH  32  33
ATOM     33  N   UNL     1      -3.267  -5.294   8.247  1.00  0.00    -0.340 N 
ATOM     34  C   UNL     1      -2.445  -4.203   8.059  1.00  0.00     0.243 CG0
ATOM     35  O   UNL     1      -2.419  -3.584   6.997  1.00  0.00    -0.273 OA
ATOM     36  H   UNL     1      -3.244  -5.804   9.122  1.00  0.00     0.164 HD
ATOM     37  G   UNL     1      -1.411  -3.948   9.168  1.00  0.00     0.000 G0
ENDBRANCH  32  33
BRANCH  32  38
ATOM     38  C   UNL     1      -3.648  -6.848   6.308  1.00  0.00     0.143 C 
ATOM     39  C   UNL     1      -3.326  -8.139   7.052  1.00  0.00     0.041 C 
BRANCH  38  40
ATOM     40  O   UNL     1      -4.575  -7.140   5.244  1.00  0.00    -0.391 OA
ATOM     41  H   UNL     1      -4.722  -8.104   5.259  1.00  0.00     0.211 HD
ENDBRANCH  38  40
ENDBRANCH  32  38
ENDBRANCH  29  32
ENDBRANCH  27  28
BRANCH  27  42
ATOM     42  C   UNL     1      -6.757  -7.506  10.743  1.00  0.00     0.015 C 
ATOM     43  C   UNL     1      -7.326  -8.681   9.939  1.00  0.00     0.010 C 
ATOM     44  C   UNL     1      -5.353  -7.843  11.256  1.00  0.00     0.010 C 
ENDBRANCH  27  42
ENDBRANCH   3  27
TORSDOF 5
ENDMDL
MODEL 8
REMARK VINA RESULT:    -4.054     26.365     30.670
REMARK INTER + INTRA:          -8.986
REMARK INTER:                  -6.579
REMARK INTRA:                  -2.407
REMARK UNBOUND:                -1.732
REMARK SMILES CC[C@H](C)[C@H]1NC(=O)c2coc(n2)[C@H](C(C)C)NC(=O)[C@H]([C@@H](C)O)NC(=O)[C@H](C)NC(=O)c2csc1n2
REMARK SMILES IDX 11 1 13 2 12 3 9 4 10 5 7 6 6 7 8 8 5 10 36 11 35 12 34 13
REMARK SMILES IDX 37 14 33 15 31 16 32 17 30 18 28 20 29 21 3 23 4 24 2 25
REMARK SMILES IDX 1 26 14 27 18 28 19 29 20 30 21 32 25 33 26 34 27 35 22 38
REMARK SMILES IDX 23 39 24 40 15 42 16 43 17 44
REMARK H PARENT 6 9 30 19 18 31 25 36 24 41
REMARK Flexibility Score:   94.900
ROOT
ATOM      1  O   UNL     1      15.863  -7.933  -7.311  1.00  0.00    -0.446 OA
ATOM      2  N   UNL     1      14.900  -9.487  -8.630  1.00  0.00    -0.207 NA
ATOM      3  C   UNL     1      14.935  -8.214  -8.278  1.00  0.00     0.217 A 
ATOM      4  C   UNL     1      15.888 -10.078  -7.863  1.00  0.00     0.167 A 
ATOM      5  C   UNL     1      16.471  -9.126  -7.062  1.00  0.00     0.231 A 
ENDROOT
BRANCH   4   6
ATOM      6  C   UNL     1      16.192 -11.498  -7.916  1.00  0.00     0.273 C 
ATOM      7  N   UNL     1      15.158 -12.220  -8.456  1.00  0.00    -0.341 N 
ATOM      8  O   UNL     1      17.238 -11.983  -7.503  1.00  0.00    -0.267 OA
ATOM      9  H   UNL     1      14.316 -11.693  -8.669  1.00  0.00     0.164 HD
BRANCH   7  10
ATOM     10  C   UNL     1      15.091 -13.667  -8.403  1.00  0.00     0.145 C 
BRANCH  10  11
ATOM     11  C   UNL     1      13.726 -14.044  -7.845  1.00  0.00     0.116 A 
ATOM     12  S   UNL     1      13.581 -15.388  -6.776  1.00  0.00    -0.124 S 
ATOM     13  C   UNL     1      11.905 -15.084  -6.633  1.00  0.00     0.101 A 
ATOM     14  N   UNL     1      12.598 -13.403  -8.103  1.00  0.00    -0.234 NA
ATOM     15  C   UNL     1      11.546 -13.988  -7.393  1.00  0.00     0.139 A 
BRANCH  15  16
ATOM     16  C   UNL     1      10.183 -13.457  -7.460  1.00  0.00     0.271 C 
ATOM     17  O   UNL     1       9.222 -14.134  -7.809  1.00  0.00    -0.267 OA
ATOM     18  N   UNL     1      10.090 -12.131  -7.093  1.00  0.00    -0.339 N 
ATOM     19  H   UNL     1      10.972 -11.651  -6.933  1.00  0.00     0.164 HD
BRANCH  18  20
ATOM     20  C   UNL     1       8.823 -11.416  -7.163  1.00  0.00     0.168 CG0
ATOM     21  C   UNL     1       8.120 -11.394  -5.804  1.00  0.00     0.041 C 
ATOM     22  G   UNL     1       8.987  -9.960  -7.631  1.00  0.00     0.000 G0
ENDBRANCH  18  20
ENDBRANCH  15  16
ENDBRANCH  10  11
BRANCH  10  23
ATOM     23  C   UNL     1      15.365 -14.318  -9.784  1.00  0.00     0.015 C 
ATOM     24  C   UNL     1      14.607 -15.639  -9.996  1.00  0.00     0.010 C 
BRANCH  23  25
ATOM     25  C   UNL     1      15.050 -13.372 -10.965  1.00  0.00     0.002 C 
ATOM     26  C   UNL     1      13.804 -13.756 -11.750  1.00  0.00     0.004 C 
ENDBRANCH  23  25
ENDBRANCH  10  23
ENDBRANCH   7  10
ENDBRANCH   4   6
BRANCH   3  27
ATOM     27  C   UNL     1      14.049  -7.109  -8.784  1.00  0.00     0.171 C 
BRANCH  27  28
ATOM     28  N   UNL     1      12.768  -7.211  -8.093  1.00  0.00    -0.342 N 
ATOM     29  C   UNL     1      11.678  -7.856  -8.631  1.00  0.00     0.245 C 
ATOM     30  O   UNL     1      11.707  -8.408  -9.730  1.00  0.00    -0.273 OA
ATOM     31  H   UNL     1      12.703  -6.878  -7.131  1.00  0.00     0.164 HD
BRANCH  29  32
ATOM     32  C   UNL     1      10.453  -7.972  -7.699  1.00  0.00     0.200 C 
BRANCH  32  33
ATOM     33  N   UNL     1      10.210  -9.396  -7.433  1.00  0.00    -0.340 N 
ATOM     34  C   UNL     1       8.965  -9.957  -7.626  1.00  0.00     0.243 CG0
ATOM     35  O   UNL     1       7.994  -9.284  -7.965  1.00  0.00    -0.273 OA
ATOM     36  H   UNL     1      10.985  -9.971  -7.123  1.00  0.00     0.164 HD
ATOM     37  G   UNL     1       8.817 -11.421  -7.180  1.00  0.00     0.000 G0
ENDBRANCH  32  33
BRANCH  32  38
ATOM     38  C   UNL     1      10.645  -7.143  -6.408  1.00  0.00     0.143 C 
ATOM     39  C   UNL     1       9.362  -6.919  -5.615  1.00  0.00     0.041 C 
BRANCH  38  40
ATOM     40  O   UNL     1      11.617  -7.777  -5.554  1.00  0.00    -0.391 OA
ATOM     41  H   UNL     1      11.990  -8.523  -6.061  1.00  0.00     0.211 HD
ENDBRANCH  38  40
ENDBRANCH  32  38
ENDBRANCH  29  32
ENDBRANCH  27  28
BRANCH  27  42
ATOM     42  C   UNL     1      14.609  -5.666  -8.735  1.00  0.00     0.015 C 
ATOM     43  C   UNL     1      14.424  -4.841 -10.014  1.00  0.00     0.010 C 
ATOM     44  C   UNL     1      14.087  -4.890  -7.521  1.00  0.00     0.010 C 
ENDBRANCH  27  42
ENDBRANCH   3  27
TORSDOF 5
ENDMDL
MODEL 9
REMARK VINA RESULT:    -4.029      9.524     13.964
REMARK INTER + INTRA:          -8.942
REMARK INTER:                  -6.827
REMARK INTRA:                  -2.115
REMARK UNBOUND:                -1.732
REMARK SMILES CC[C@H](C)[C@H]1NC(=O)c2coc(n2)[C@H](C(C)C)NC(=O)[C@H]([C@@H](C)O)NC(=O)[C@H](C)NC(=O)c2csc1n2
REMARK SMILES IDX 11 1 13 2 12 3 9 4 10 5 7 6 6 7 8 8 5 10 36 11 35 12 34 13
REMARK SMILES IDX 37 14 33 15 31 16 32 17 30 18 28 20 29 21 3 23 4 24 2 25
REMARK SMILES IDX 1 26 14 27 18 28 19 29 20 30 21 32 25 33 26 34 27 35 22 38
REMARK SMILES IDX 23 39 24 40 15 42 16 43 17 44
REMARK H PARENT 6 9 30 19 18 31 25 36 24 41
REMARK Flexibility Score:   94.900
ROOT
ATOM      1  O   UNL     1       6.289  12.192   1.045  1.00  0.00    -0.446 OA
ATOM      2  N   UNL     1       7.204  10.708   2.473  1.00  0.00    -0.207 NA
ATOM      3  C   UNL     1       6.463  10.879   1.393  1.00  0.00     0.217 A 
ATOM      4  C   UNL     1       7.563  11.992   2.845  1.00  0.00     0.167 A 
ATOM      5  C   UNL     1       7.003  12.891   1.971  1.00  0.00     0.231 A 
ENDROOT
BRANCH   4   6
ATOM      6  C   UNL     1       8.382  12.281   4.010  1.00  0.00     0.273 C 
ATOM      7  N   UNL     1       9.364  11.340   4.189  1.00  0.00    -0.341 N 
ATOM      8  O   UNL     1       8.192  13.239   4.750  1.00  0.00    -0.267 OA
ATOM      9  H   UNL     1       9.341  10.552   3.549  1.00  0.00     0.164 HD
BRANCH   7  10
ATOM     10  C   UNL     1      10.158  11.245   5.398  1.00  0.00     0.145 C 
BRANCH  10  11
ATOM     11  C   UNL     1       9.433  10.307   6.353  1.00  0.00     0.116 A 
ATOM     12  S   UNL     1       9.658  10.477   8.053  1.00  0.00    -0.124 S 
ATOM     13  C   UNL     1       8.561   9.194   8.319  1.00  0.00     0.101 A 
ATOM     14  N   UNL     1       8.603   9.345   5.986  1.00  0.00    -0.234 NA
ATOM     15  C   UNL     1       8.083   8.710   7.116  1.00  0.00     0.139 A 
BRANCH  15  16
ATOM     16  C   UNL     1       7.104   7.626   7.008  1.00  0.00     0.271 C 
ATOM     17  O   UNL     1       7.392   6.449   7.199  1.00  0.00    -0.267 OA
ATOM     18  N   UNL     1       5.838   8.058   6.674  1.00  0.00    -0.339 N 
ATOM     19  H   UNL     1       5.754   9.042   6.433  1.00  0.00     0.164 HD
BRANCH  18  20
ATOM     20  C   UNL     1       4.751   7.113   6.456  1.00  0.00     0.168 CG0
ATOM     21  C   UNL     1       3.453   7.600   7.102  1.00  0.00     0.041 C 
ATOM     22  G   UNL     1       4.470   6.863   4.966  1.00  0.00     0.000 G0
ENDBRANCH  18  20
ENDBRANCH  15  16
ENDBRANCH  10  11
BRANCH  10  23
ATOM     23  C   UNL     1      11.612  10.787   5.110  1.00  0.00     0.015 C 
ATOM     24  C   UNL     1      11.691   9.541   4.212  1.00  0.00     0.010 C 
BRANCH  23  25
ATOM     25  C   UNL     1      12.478  11.904   4.484  1.00  0.00     0.002 C 
ATOM     26  C   UNL     1      13.411  11.419   3.382  1.00  0.00     0.004 C 
ENDBRANCH  23  25
ENDBRANCH  10  23
ENDBRANCH   7  10
ENDBRANCH   4   6
BRANCH   3  27
ATOM     27  C   UNL     1       5.781   9.811   0.583  1.00  0.00     0.171 C 
BRANCH  27  28
ATOM     28  N   UNL     1       4.682   9.278   1.381  1.00  0.00    -0.342 N 
ATOM     29  C   UNL     1       4.697   8.013   1.924  1.00  0.00     0.245 C 
ATOM     30  O   UNL     1       5.646   7.242   1.788  1.00  0.00    -0.273 OA
ATOM     31  H   UNL     1       3.913   9.898   1.632  1.00  0.00     0.164 HD
BRANCH  29  32
ATOM     32  C   UNL     1       3.505   7.675   2.844  1.00  0.00     0.200 C 
BRANCH  32  33
ATOM     33  N   UNL     1       3.928   7.870   4.236  1.00  0.00    -0.340 N 
ATOM     34  C   UNL     1       4.473   6.837   4.970  1.00  0.00     0.243 CG0
ATOM     35  O   UNL     1       4.570   5.698   4.517  1.00  0.00    -0.273 OA
ATOM     36  H   UNL     1       3.832   8.791   4.647  1.00  0.00     0.164 HD
ATOM     37  G   UNL     1       4.743   7.143   6.452  1.00  0.00     0.000 G0
ENDBRANCH  32  33
BRANCH  32  38
ATOM     38  C   UNL     1       2.252   8.502   2.472  1.00  0.00     0.143 C 
ATOM     39  C   UNL     1       0.996   7.666   2.258  1.00  0.00     0.041 C 
BRANCH  38  40
ATOM     40  O   UNL     1       1.991   9.485   3.493  1.00  0.00    -0.391 OA
ATOM     41  H   UNL     1       2.738  10.112   3.474  1.00  0.00     0.211 HD
ENDBRANCH  38  40
ENDBRANCH  32  38
ENDBRANCH  29  32
ENDBRANCH  27  28
BRANCH  27  42
ATOM     42  C   UNL     1       5.317  10.186  -0.846  1.00  0.00     0.015 C 
ATOM     43  C   UNL     1       6.438  10.498  -1.844  1.00  0.00     0.010 C 
ATOM     44  C   UNL     1       4.360   9.142  -1.430  1.00  0.00     0.010 C 
ENDBRANCH  27  42
ENDBRANCH   3  27
TORSDOF 5
ENDMDL
MODEL 10
REMARK VINA RESULT:    -3.896     29.093     31.841
REMARK INTER + INTRA:          -8.703
REMARK INTER:                  -6.373
REMARK INTRA:                  -2.330
REMARK UNBOUND:                -1.732
REMARK SMILES CC[C@H](C)[C@H]1NC(=O)c2coc(n2)[C@H](C(C)C)NC(=O)[C@H]([C@@H](C)O)NC(=O)[C@H](C)NC(=O)c2csc1n2
REMARK SMILES IDX 11 1 13 2 12 3 9 4 10 5 7 6 6 7 8 8 5 10 36 11 35 12 34 13
REMARK SMILES IDX 37 14 33 15 31 16 32 17 30 18 28 20 29 21 3 23 4 24 2 25
REMARK SMILES IDX 1 26 14 27 18 28 19 29 20 30 21 32 25 33 26 34 27 35 22 38
REMARK SMILES IDX 23 39 24 40 15 42 16 43 17 44
REMARK H PARENT 6 9 30 19 18 31 25 36 24 41
REMARK Flexibility Score:   94.900
ROOT
ATOM      1  O   UNL     1      16.685 -13.019  -8.418  1.00  0.00    -0.446 OA
ATOM      2  N   UNL     1      16.266 -11.088  -9.503  1.00  0.00    -0.207 NA
ATOM      3  C   UNL     1      15.884 -12.335  -9.294  1.00  0.00     0.217 A 
ATOM      4  C   UNL     1      17.376 -10.932  -8.691  1.00  0.00     0.167 A 
ATOM      5  C   UNL     1      17.625 -12.112  -8.033  1.00  0.00     0.231 A 
ENDROOT
BRANCH   4   6
ATOM      6  C   UNL     1      18.137  -9.697  -8.615  1.00  0.00     0.273 C 
ATOM      7  N   UNL     1      18.067  -9.131  -7.368  1.00  0.00    -0.341 N 
ATOM      8  O   UNL     1      18.744  -9.216  -9.565  1.00  0.00    -0.267 OA
ATOM      9  H   UNL     1      17.451  -9.596  -6.707  1.00  0.00     0.164 HD
BRANCH   7  10
ATOM     10  C   UNL     1      18.522  -7.785  -7.083  1.00  0.00     0.145 C 
BRANCH  10  11
ATOM     11  C   UNL     1      17.377  -6.835  -7.401  1.00  0.00     0.116 A 
ATOM     12  S   UNL     1      17.663  -5.136  -7.447  1.00  0.00    -0.124 S 
ATOM     13  C   UNL     1      16.027  -4.879  -7.871  1.00  0.00     0.101 A 
ATOM     14  N   UNL     1      16.136  -7.206  -7.669  1.00  0.00    -0.234 NA
ATOM     15  C   UNL     1      15.356  -6.084  -7.958  1.00  0.00     0.139 A 
BRANCH  15  16
ATOM     16  C   UNL     1      13.944  -6.202  -8.329  1.00  0.00     0.271 C 
ATOM     17  O   UNL     1      13.165  -5.256  -8.293  1.00  0.00    -0.267 OA
ATOM     18  N   UNL     1      13.583  -7.474  -8.722  1.00  0.00    -0.339 N 
ATOM     19  H   UNL     1      14.291  -8.194  -8.603  1.00  0.00     0.164 HD
BRANCH  18  20
ATOM     20  C   UNL     1      12.203  -7.795  -9.063  1.00  0.00     0.168 CG0
ATOM     21  C   UNL     1      12.018  -7.918 -10.577  1.00  0.00     0.041 C 
ATOM     22  G   UNL     1      11.724  -9.108  -8.422  1.00  0.00     0.000 G0
ENDBRANCH  18  20
ENDBRANCH  15  16
ENDBRANCH  10  11
BRANCH  10  23
ATOM     23  C   UNL     1      19.028  -7.633  -5.624  1.00  0.00     0.015 C 
ATOM     24  C   UNL     1      18.854  -8.910  -4.784  1.00  0.00     0.010 C 
BRANCH  23  25
ATOM     25  C   UNL     1      20.506  -7.188  -5.546  1.00  0.00     0.002 C 
ATOM     26  C   UNL     1      20.699  -5.772  -5.021  1.00  0.00     0.004 C 
ENDBRANCH  23  25
ENDBRANCH  10  23
ENDBRANCH   7  10
ENDBRANCH   4   6
BRANCH   3  27
ATOM     27  C   UNL     1      14.733 -13.052  -9.945  1.00  0.00     0.171 C 
BRANCH  27  28
ATOM     28  N   UNL     1      13.538 -12.237  -9.761  1.00  0.00    -0.342 N 
ATOM     29  C   UNL     1      12.504 -12.603  -8.928  1.00  0.00     0.245 C 
ATOM     30  O   UNL     1      12.520 -13.638  -8.264  1.00  0.00    -0.273 OA
ATOM     31  H   UNL     1      13.504 -11.312 -10.189  1.00  0.00     0.164 HD
BRANCH  29  32
ATOM     32  C   UNL     1      11.385 -11.552  -8.764  1.00  0.00     0.200 C 
BRANCH  32  33
ATOM     33  N   UNL     1      11.910 -10.250  -9.192  1.00  0.00    -0.340 N 
ATOM     34  C   UNL     1      11.721  -9.116  -8.429  1.00  0.00     0.243 CG0
ATOM     35  O   UNL     1      11.055  -9.132  -7.396  1.00  0.00    -0.273 OA
ATOM     36  H   UNL     1      12.437 -10.200 -10.056  1.00  0.00     0.164 HD
ATOM     37  G   UNL     1      12.201  -7.800  -9.062  1.00  0.00     0.000 G0
ENDBRANCH  32  33
BRANCH  32  38
ATOM     38  C   UNL     1      10.105 -11.967  -9.525  1.00  0.00     0.143 C 
ATOM     39  C   UNL     1      10.315 -12.198 -11.017  1.00  0.00     0.041 C 
BRANCH  38  40
ATOM     40  O   UNL     1       9.549 -13.161  -8.941  1.00  0.00    -0.391 OA
ATOM     41  H   UNL     1       9.493 -13.002  -7.980  1.00  0.00     0.211 HD
ENDBRANCH  38  40
ENDBRANCH  32  38
ENDBRANCH  29  32
ENDBRANCH  27  28
BRANCH  27  42
ATOM     42  C   UNL     1      14.906 -13.485 -11.422  1.00  0.00     0.015 C 
ATOM     43  C   UNL     1      14.229 -12.581 -12.459  1.00  0.00     0.010 C 
ATOM     44  C   UNL     1      16.378 -13.701 -11.787  1.00  0.00     0.010 C 
ENDBRANCH  27  42
ENDBRANCH   3  27
TORSDOF 5
ENDMDL
