MODEL 1
REMARK VINA RESULT:    -4.716      0.000      0.000
REMARK INTER + INTRA:         -20.337
REMARK INTER:                 -13.539
REMARK INTRA:                  -6.797
REMARK UNBOUND:                -6.797
REMARK SMILES CCCCCC(=O)N[C@H](CC(=O)O)C(=O)N[C@H]1C(=O)N[C@H](CCCN=C(N)N)C(=O)N[C@@H]2CC[C@H](O)N(C2=O)[C@@H](CC(C)C)C(=O)N(C)[C@@H](Cc2ccccc2)C(=O)N[C@H](C(C)C)C(=O)O[C@@H]1C
REMARK SMILES IDX 30 1 31 2 29 3 32 5 35 6 37 7 34 8 38 9 33 10 39 11 36 12
REMARK SMILES IDX 40 14 41 15 42 16 43 17 44 18 45 19 46 20 47 21 48 22 49 23
REMARK SMILES IDX 50 24 51 25 52 26 56 27 53 28 55 29 54 30 57 31 58 32 59 33
REMARK SMILES IDX 60 35 61 36 62 37 63 38 64 39 65 40 66 41 67 42 68 43 21 45
REMARK SMILES IDX 20 46 18 47 19 48 17 50 16 52 14 53 15 54 9 56 8 57 6 58
REMARK SMILES IDX 7 59 5 61 4 62 3 63 2 64 1 65 10 66 11 67 12 68 13 69 22 71
REMARK SMILES IDX 23 72 24 73 25 74 26 75 27 76 28 77
REMARK H PARENT 31 4 36 13 59 34 20 49 16 55 8 60 13 70 27 78 27 79 28 80
REMARK H PARENT 28 81
REMARK Flexibility Score:  259.900
ROOT
ATOM      1  O   UNL     1      -0.720  -3.562   8.679  1.00  0.00    -0.273 OA
ATOM      2  N   UNL     1       0.173  -5.462   7.769  1.00  0.00    -0.343 N 
ATOM      3  C   UNL     1      -0.490  -4.769   8.760  1.00  0.00     0.243 C 
ATOM      4  H   UNL     1       0.332  -6.457   7.864  1.00  0.00     0.164 HD
ENDROOT
BRANCH   2   5
ATOM      5  C   UNL     1       0.739  -4.758   6.624  1.00  0.00     0.171 C 
ATOM      6  C   UNL     1       2.813  -5.453   4.721  1.00  0.00     0.214 C 
ATOM      7  N   UNL     1       3.165  -4.737   5.925  1.00  0.00    -0.303 N 
ATOM      8  C   UNL     1       1.405  -5.152   4.231  1.00  0.00     0.057 C 
ATOM      9  C   UNL     1       2.232  -4.419   6.899  1.00  0.00     0.247 C 
ATOM     10  C   UNL     1       0.404  -5.477   5.318  1.00  0.00     0.040 C 
ATOM     11  O   UNL     1       2.556  -3.882   7.966  1.00  0.00    -0.272 OA
BRANCH   6  12
ATOM     12  O   UNL     1       2.959  -6.830   4.980  1.00  0.00    -0.373 OA
ATOM     13  H   UNL     1       2.965  -6.940   5.955  1.00  0.00     0.213 HD
ENDBRANCH   6  12
BRANCH   7  14
ATOM     14  C   UNL     1       4.602  -4.479   6.155  1.00  0.00     0.177 C 
BRANCH  14  15
ATOM     15  C   UNL     1       4.989  -2.993   6.282  1.00  0.00     0.038 C 
BRANCH  15  16
ATOM     16  C   UNL     1       6.290  -2.605   7.020  1.00  0.00    -0.015 C 
ATOM     17  C   UNL     1       6.048  -2.271   8.495  1.00  0.00     0.007 C 
ATOM     18  C   UNL     1       6.923  -1.381   6.347  1.00  0.00     0.007 C 
ENDBRANCH  15  16
ENDBRANCH  14  15
BRANCH  14  19
ATOM     19  C   UNL     1       5.242  -5.656   6.969  1.00  0.00     0.245 C 
ATOM     20  O   UNL     1       5.113  -5.616   8.204  1.00  0.00    -0.272 OA
BRANCH  19  21
ATOM     21  N   UNL     1       6.021  -6.650   6.404  1.00  0.00    -0.332 N 
ATOM     22  C   UNL     1       6.474  -6.684   5.025  1.00  0.00     0.147 C 
BRANCH  21  23
ATOM     23  C   UNL     1       6.425  -7.793   7.269  1.00  0.00     0.178 C 
BRANCH  23  24
ATOM     24  C   UNL     1       7.407  -7.429   8.402  1.00  0.00     0.070 C 
BRANCH  24  25
ATOM     25  C   UNL     1       8.567  -6.530   8.045  1.00  0.00    -0.045 A 
ATOM     26  C   UNL     1       8.595  -5.194   8.465  1.00  0.00     0.004 A 
ATOM     27  C   UNL     1       9.635  -7.023   7.280  1.00  0.00     0.004 A 
ATOM     28  C   UNL     1       9.663  -4.364   8.116  1.00  0.00     0.000 A 
ATOM     29  C   UNL     1      10.702  -6.193   6.933  1.00  0.00     0.000 A 
ATOM     30  C   UNL     1      10.714  -4.863   7.350  1.00  0.00     0.000 A 
ENDBRANCH  24  25
ENDBRANCH  23  24
BRANCH  23  31
ATOM     31  C   UNL     1       5.230  -8.676   7.700  1.00  0.00     0.243 C 
ATOM     32  O   UNL     1       5.120  -9.186   8.812  1.00  0.00    -0.273 OA
ATOM     33  N   UNL     1       4.376  -8.998   6.659  1.00  0.00    -0.341 N 
ATOM     34  H   UNL     1       4.523  -8.546   5.754  1.00  0.00     0.164 HD
BRANCH  33  35
ATOM     35  C   UNL     1       3.246  -9.918   6.809  1.00  0.00     0.194 C 
BRANCH  35  36
ATOM     36  C   UNL     1       2.869 -10.679   5.507  1.00  0.00     0.017 C 
ATOM     37  C   UNL     1       4.122 -11.196   4.779  1.00  0.00     0.010 C 
ATOM     38  C   UNL     1       2.081  -9.820   4.511  1.00  0.00     0.010 C 
ENDBRANCH  35  36
BRANCH  35  39
ATOM     39  C   UNL     1       2.009  -9.243   7.465  1.00  0.00     0.329 C 
ATOM     40  O   UNL     1       1.868  -8.031   7.577  1.00  0.00    -0.250 OA
BRANCH  39  41
ATOM     41  O   UNL     1       1.051 -10.150   7.826  1.00  0.00    -0.458 OA
BRANCH  41  42
ATOM     42  C   UNL     1       0.624 -10.116   9.208  1.00  0.00     0.205 CG0
ATOM     43  C   UNL     1       0.543 -11.561   9.695  1.00  0.00     0.056 C 
ATOM     44  G   UNL     1      -0.735  -9.391   9.285  1.00  0.00     0.000 G0
ENDBRANCH  41  42
ENDBRANCH  39  41
ENDBRANCH  35  39
ENDBRANCH  33  35
ENDBRANCH  23  31
ENDBRANCH  21  23
ENDBRANCH  19  21
ENDBRANCH  14  19
ENDBRANCH   7  14
ENDBRANCH   2   5
BRANCH   3  45
ATOM     45  C   UNL     1      -0.940  -5.611   9.962  1.00  0.00     0.171 C 
BRANCH  45  46
ATOM     46  N   UNL     1      -1.130  -6.961   9.448  1.00  0.00    -0.342 N 
ATOM     47  C   UNL     1      -0.550  -8.059  10.030  1.00  0.00     0.247 C 
ATOM     48  O   UNL     1       0.112  -7.995  11.066  1.00  0.00    -0.273 OA
ATOM     49  H   UNL     1      -1.718  -7.066   8.622  1.00  0.00     0.164 HD
BRANCH  47  50
ATOM     50  C   UNL     1      -0.761  -9.381   9.278  1.00  0.00     0.212 CG0
ATOM     51  G   UNL     1       0.603 -10.095   9.195  1.00  0.00     0.000 G0
BRANCH  50  52
ATOM     52  N   UNL     1      -1.752 -10.119  10.057  1.00  0.00    -0.339 N 
ATOM     53  C   UNL     1      -3.099  -9.853  10.012  1.00  0.00     0.243 C 
ATOM     54  O   UNL     1      -3.570  -8.933   9.349  1.00  0.00    -0.273 OA
ATOM     55  H   UNL     1      -1.411 -10.821  10.711  1.00  0.00     0.164 HD
BRANCH  53  56
ATOM     56  C   UNL     1      -3.939 -10.703  10.987  1.00  0.00     0.182 C 
BRANCH  56  57
ATOM     57  N   UNL     1      -3.176 -11.024  12.197  1.00  0.00    -0.344 N 
ATOM     58  C   UNL     1      -3.712 -10.907  13.457  1.00  0.00     0.220 C 
ATOM     59  O   UNL     1      -4.834 -10.458  13.661  1.00  0.00    -0.275 OA
ATOM     60  H   UNL     1      -2.284 -11.493  12.068  1.00  0.00     0.164 HD
BRANCH  58  61
ATOM     61  C   UNL     1      -2.764 -11.349  14.557  1.00  0.00     0.100 C 
BRANCH  61  62
ATOM     62  C   UNL     1      -1.763 -10.272  14.977  1.00  0.00     0.010 C 
BRANCH  62  63
ATOM     63  C   UNL     1      -2.397  -9.073  15.695  1.00  0.00     0.000 C 
BRANCH  63  64
ATOM     64  C   UNL     1      -2.114  -7.725  15.034  1.00  0.00    -0.003 C 
ATOM     65  C   UNL     1      -0.689  -7.655  14.504  1.00  0.00     0.004 C 
ENDBRANCH  63  64
ENDBRANCH  62  63
ENDBRANCH  61  62
ENDBRANCH  58  61
ENDBRANCH  56  57
BRANCH  56  66
ATOM     66  C   UNL     1      -4.492 -11.954  10.305  1.00  0.00     0.157 C 
BRANCH  66  67
ATOM     67  C   UNL     1      -3.652 -13.159  10.616  1.00  0.00     0.305 C 
ATOM     68  O   UNL     1      -3.909 -14.044  11.419  1.00  0.00    -0.252 OA
BRANCH  67  69
ATOM     69  O   UNL     1      -2.542 -13.220   9.857  1.00  0.00    -0.481 OA
ATOM     70  H   UNL     1      -2.429 -14.172   9.654  1.00  0.00     0.296 HD
ENDBRANCH  67  69
ENDBRANCH  66  67
ENDBRANCH  56  66
ENDBRANCH  53  56
ENDBRANCH  50  52
ENDBRANCH  47  50
ENDBRANCH  45  46
BRANCH  45  71
ATOM     71  C   UNL     1      -2.234  -5.044  10.556  1.00  0.00     0.037 C 
BRANCH  71  72
ATOM     72  C   UNL     1      -2.332  -5.294  12.063  1.00  0.00     0.026 C 
BRANCH  72  73
ATOM     73  C   UNL     1      -3.786  -5.381  12.523  1.00  0.00     0.146 C 
BRANCH  73  74
ATOM     74  N   UNL     1      -4.535  -6.105  11.500  1.00  0.00    -0.254 NA
ATOM     75  C   UNL     1      -5.303  -7.058  11.882  1.00  0.00     0.185 C 
ATOM     76  N   UNL     1      -6.006  -7.742  10.965  1.00  0.00    -0.370 N 
ATOM     77  N   UNL     1      -5.532  -7.511  13.127  1.00  0.00    -0.370 N 
ATOM     78  H   UNL     1      -5.885  -7.470  10.000  1.00  0.00     0.159 HD
ATOM     79  H   UNL     1      -6.510  -8.587  11.171  1.00  0.00     0.159 HD
ATOM     80  H   UNL     1      -5.074  -7.088  13.920  1.00  0.00     0.159 HD
ATOM     81  H   UNL     1      -6.247  -8.194  13.318  1.00  0.00     0.159 HD
ENDBRANCH  73  74
ENDBRANCH  72  73
ENDBRANCH  71  72
ENDBRANCH  45  71
ENDBRANCH   3  45
TORSDOF 20
ENDMDL
MODEL 2
REMARK VINA RESULT:    -4.152      7.598     12.839
REMARK INTER + INTRA:         -18.716
REMARK INTER:                 -10.388
REMARK INTRA:                  -8.327
REMARK UNBOUND:                -6.797
REMARK SMILES CCCCCC(=O)N[C@H](CC(=O)O)C(=O)N[C@H]1C(=O)N[C@H](CCCN=C(N)N)C(=O)N[C@@H]2CC[C@H](O)N(C2=O)[C@@H](CC(C)C)C(=O)N(C)[C@@H](Cc2ccccc2)C(=O)N[C@H](C(C)C)C(=O)O[C@@H]1C
REMARK SMILES IDX 30 1 31 2 29 3 32 5 35 6 37 7 34 8 38 9 33 10 39 11 36 12
REMARK SMILES IDX 40 14 41 15 42 16 43 17 44 18 45 19 46 20 47 21 48 22 49 23
REMARK SMILES IDX 50 24 51 25 52 26 56 27 53 28 55 29 54 30 57 31 58 32 59 33
REMARK SMILES IDX 60 35 61 36 62 37 63 38 64 39 65 40 66 41 67 42 68 43 21 45
REMARK SMILES IDX 20 46 18 47 19 48 17 50 16 52 14 53 15 54 9 56 8 57 6 58
REMARK SMILES IDX 7 59 5 61 4 62 3 63 2 64 1 65 10 66 11 67 12 68 13 69 22 71
REMARK SMILES IDX 23 72 24 73 25 74 26 75 27 76 28 77
REMARK H PARENT 31 4 36 13 59 34 20 49 16 55 8 60 13 70 27 78 27 79 28 80
REMARK H PARENT 28 81
REMARK Flexibility Score:  259.900
ROOT
ATOM      1  O   UNL     1       5.527   2.571   6.895  1.00  0.00    -0.273 OA
ATOM      2  N   UNL     1       4.569   2.145   8.928  1.00  0.00    -0.343 N 
ATOM      3  C   UNL     1       5.139   1.758   7.734  1.00  0.00     0.243 C 
ATOM      4  H   UNL     1       4.275   1.448   9.600  1.00  0.00     0.164 HD
ENDROOT
BRANCH   2   5
ATOM      5  C   UNL     1       4.291   3.552   9.196  1.00  0.00     0.171 C 
ATOM      6  C   UNL     1       4.467   5.936   7.555  1.00  0.00     0.214 C 
ATOM      7  N   UNL     1       5.607   5.530   8.343  1.00  0.00    -0.303 N 
ATOM      8  C   UNL     1       3.136   5.538   8.174  1.00  0.00     0.057 C 
ATOM      9  C   UNL     1       5.608   4.375   9.109  1.00  0.00     0.247 C 
ATOM     10  C   UNL     1       3.095   4.040   8.380  1.00  0.00     0.040 C 
ATOM     11  O   UNL     1       6.618   3.989   9.712  1.00  0.00    -0.272 OA
BRANCH   6  12
ATOM     12  O   UNL     1       4.605   5.366   6.274  1.00  0.00    -0.373 OA
ATOM     13  H   UNL     1       5.226   4.612   6.360  1.00  0.00     0.213 HD
ENDBRANCH   6  12
BRANCH   7  14
ATOM     14  C   UNL     1       6.845   6.324   8.190  1.00  0.00     0.177 C 
BRANCH  14  15
ATOM     15  C   UNL     1       7.211   6.695   6.739  1.00  0.00     0.038 C 
BRANCH  15  16
ATOM     16  C   UNL     1       8.370   5.957   6.034  1.00  0.00    -0.015 C 
ATOM     17  C   UNL     1       8.235   5.979   4.509  1.00  0.00     0.007 C 
ATOM     18  C   UNL     1       8.408   4.494   6.492  1.00  0.00     0.007 C 
ENDBRANCH  15  16
ENDBRANCH  14  15
BRANCH  14  19
ATOM     19  C   UNL     1       7.062   7.241   9.442  1.00  0.00     0.245 C 
ATOM     20  O   UNL     1       6.067   7.851   9.868  1.00  0.00    -0.272 OA
BRANCH  19  21
ATOM     21  N   UNL     1       8.298   7.488  10.013  1.00  0.00    -0.332 N 
ATOM     22  C   UNL     1       8.724   8.751  10.588  1.00  0.00     0.147 C 
BRANCH  21  23
ATOM     23  C   UNL     1       9.288   6.376  10.035  1.00  0.00     0.178 C 
BRANCH  23  24
ATOM     24  C   UNL     1      10.743   6.801   9.749  1.00  0.00     0.070 C 
BRANCH  24  25
ATOM     25  C   UNL     1      11.148   6.934   8.299  1.00  0.00    -0.045 A 
ATOM     26  C   UNL     1      10.938   8.132   7.603  1.00  0.00     0.004 A 
ATOM     27  C   UNL     1      11.737   5.853   7.627  1.00  0.00     0.004 A 
ATOM     28  C   UNL     1      11.300   8.242   6.259  1.00  0.00     0.000 A 
ATOM     29  C   UNL     1      12.099   5.965   6.283  1.00  0.00     0.000 A 
ATOM     30  C   UNL     1      11.877   7.159   5.599  1.00  0.00     0.000 A 
ENDBRANCH  24  25
ENDBRANCH  23  24
BRANCH  23  31
ATOM     31  C   UNL     1       9.112   5.435  11.251  1.00  0.00     0.243 C 
ATOM     32  O   UNL     1       8.810   5.818  12.378  1.00  0.00    -0.273 OA
ATOM     33  N   UNL     1       9.507   4.131  11.004  1.00  0.00    -0.341 N 
ATOM     34  H   UNL     1       9.753   3.872  10.045  1.00  0.00     0.164 HD
BRANCH  33  35
ATOM     35  C   UNL     1       9.540   3.096  12.040  1.00  0.00     0.194 C 
BRANCH  35  36
ATOM     36  C   UNL     1      10.961   2.540  12.339  1.00  0.00     0.017 C 
ATOM     37  C   UNL     1      11.041   1.939  13.752  1.00  0.00     0.010 C 
ATOM     38  C   UNL     1      12.060   3.604  12.229  1.00  0.00     0.010 C 
ENDBRANCH  35  36
BRANCH  35  39
ATOM     39  C   UNL     1       8.514   1.957  11.780  1.00  0.00     0.329 C 
ATOM     40  O   UNL     1       7.405   1.901  12.297  1.00  0.00    -0.250 OA
BRANCH  39  41
ATOM     41  O   UNL     1       8.954   1.066  10.840  1.00  0.00    -0.458 OA
BRANCH  41  42
ATOM     42  C   UNL     1       8.512  -0.303  10.998  1.00  0.00     0.205 CG0
ATOM     43  C   UNL     1       9.588  -1.039  11.794  1.00  0.00     0.056 C 
ATOM     44  G   UNL     1       8.293  -0.914   9.600  1.00  0.00     0.000 G0
ENDBRANCH  41  42
ENDBRANCH  39  41
ENDBRANCH  35  39
ENDBRANCH  33  35
ENDBRANCH  23  31
ENDBRANCH  21  23
ENDBRANCH  19  21
ENDBRANCH  14  19
ENDBRANCH   7  14
ENDBRANCH   2   5
BRANCH   3  45
ATOM     45  C   UNL     1       5.276   0.243   7.533  1.00  0.00     0.171 C 
BRANCH  45  46
ATOM     46  N   UNL     1       6.611  -0.098   8.006  1.00  0.00    -0.342 N 
ATOM     47  C   UNL     1       6.826  -0.764   9.187  1.00  0.00     0.247 C 
ATOM     48  O   UNL     1       5.909  -1.184   9.894  1.00  0.00    -0.273 OA
ATOM     49  H   UNL     1       7.398   0.182   7.423  1.00  0.00     0.164 HD
BRANCH  47  50
ATOM     50  C   UNL     1       8.300  -0.925   9.584  1.00  0.00     0.212 CG0
ATOM     51  G   UNL     1       8.477  -0.309  10.986  1.00  0.00     0.000 G0
BRANCH  50  52
ATOM     52  N   UNL     1       8.558  -2.362   9.548  1.00  0.00    -0.339 N 
ATOM     53  C   UNL     1       9.251  -2.981   8.536  1.00  0.00     0.243 C 
ATOM     54  O   UNL     1       9.663  -2.376   7.550  1.00  0.00    -0.273 OA
ATOM     55  H   UNL     1       8.145  -2.935  10.282  1.00  0.00     0.164 HD
BRANCH  53  56
ATOM     56  C   UNL     1       9.322  -4.515   8.672  1.00  0.00     0.182 C 
BRANCH  56  57
ATOM     57  N   UNL     1       8.265  -5.163   7.888  1.00  0.00    -0.344 N 
ATOM     58  C   UNL     1       8.538  -5.993   6.828  1.00  0.00     0.220 C 
ATOM     59  O   UNL     1       9.676  -6.192   6.418  1.00  0.00    -0.275 OA
ATOM     60  H   UNL     1       7.319  -5.106   8.256  1.00  0.00     0.164 HD
BRANCH  58  61
ATOM     61  C   UNL     1       7.295  -6.597   6.202  1.00  0.00     0.100 C 
BRANCH  61  62
ATOM     62  C   UNL     1       6.896  -5.950   4.876  1.00  0.00     0.010 C 
BRANCH  62  63
ATOM     63  C   UNL     1       5.566  -6.458   4.305  1.00  0.00     0.000 C 
BRANCH  63  64
ATOM     64  C   UNL     1       5.068  -7.757   4.936  1.00  0.00    -0.003 C 
ATOM     65  C   UNL     1       5.208  -8.930   3.976  1.00  0.00     0.004 C 
ENDBRANCH  63  64
ENDBRANCH  62  63
ENDBRANCH  61  62
ENDBRANCH  58  61
ENDBRANCH  56  57
BRANCH  56  66
ATOM     66  C   UNL     1       9.303  -4.950  10.136  1.00  0.00     0.157 C 
BRANCH  66  67
ATOM     67  C   UNL     1       8.078  -5.762  10.446  1.00  0.00     0.305 C 
ATOM     68  O   UNL     1       8.002  -6.980  10.507  1.00  0.00    -0.252 OA
BRANCH  67  69
ATOM     69  O   UNL     1       7.008  -4.991  10.719  1.00  0.00    -0.481 OA
ATOM     70  H   UNL     1       7.237  -4.109  10.357  1.00  0.00     0.296 HD
ENDBRANCH  67  69
ENDBRANCH  66  67
ENDBRANCH  56  66
ENDBRANCH  53  56
ENDBRANCH  50  52
ENDBRANCH  47  50
ENDBRANCH  45  46
BRANCH  45  71
ATOM     71  C   UNL     1       5.091  -0.118   6.055  1.00  0.00     0.037 C 
BRANCH  71  72
ATOM     72  C   UNL     1       6.090  -1.183   5.593  1.00  0.00     0.026 C 
BRANCH  72  73
ATOM     73  C   UNL     1       5.475  -2.581   5.629  1.00  0.00     0.146 C 
BRANCH  73  74
ATOM     74  N   UNL     1       5.755  -3.159   6.939  1.00  0.00    -0.254 NA
ATOM     75  C   UNL     1       4.785  -3.709   7.571  1.00  0.00     0.185 C 
ATOM     76  N   UNL     1       5.012  -4.250   8.779  1.00  0.00    -0.370 N 
ATOM     77  N   UNL     1       3.500  -3.840   7.198  1.00  0.00    -0.370 N 
ATOM     78  H   UNL     1       5.953  -4.188   9.139  1.00  0.00     0.159 HD
ATOM     79  H   UNL     1       4.279  -4.566   9.391  1.00  0.00     0.159 HD
ATOM     80  H   UNL     1       3.184  -3.482   6.309  1.00  0.00     0.159 HD
ATOM     81  H   UNL     1       2.850  -4.395   7.729  1.00  0.00     0.159 HD
ENDBRANCH  73  74
ENDBRANCH  72  73
ENDBRANCH  71  72
ENDBRANCH  45  71
ENDBRANCH   3  45
TORSDOF 20
ENDMDL
MODEL 3
REMARK VINA RESULT:    -4.095      1.538      2.233
REMARK INTER + INTRA:         -18.552
REMARK INTER:                 -13.011
REMARK INTRA:                  -5.540
REMARK UNBOUND:                -6.797
REMARK SMILES CCCCCC(=O)N[C@H](CC(=O)O)C(=O)N[C@H]1C(=O)N[C@H](CCCN=C(N)N)C(=O)N[C@@H]2CC[C@H](O)N(C2=O)[C@@H](CC(C)C)C(=O)N(C)[C@@H](Cc2ccccc2)C(=O)N[C@H](C(C)C)C(=O)O[C@@H]1C
REMARK SMILES IDX 30 1 31 2 29 3 32 5 35 6 37 7 34 8 38 9 33 10 39 11 36 12
REMARK SMILES IDX 40 14 41 15 42 16 43 17 44 18 45 19 46 20 47 21 48 22 49 23
REMARK SMILES IDX 50 24 51 25 52 26 56 27 53 28 55 29 54 30 57 31 58 32 59 33
REMARK SMILES IDX 60 35 61 36 62 37 63 38 64 39 65 40 66 41 67 42 68 43 21 45
REMARK SMILES IDX 20 46 18 47 19 48 17 50 16 52 14 53 15 54 9 56 8 57 6 58
REMARK SMILES IDX 7 59 5 61 4 62 3 63 2 64 1 65 10 66 11 67 12 68 13 69 22 71
REMARK SMILES IDX 23 72 24 73 25 74 26 75 27 76 28 77
REMARK H PARENT 31 4 36 13 59 34 20 49 16 55 8 60 13 70 27 78 27 79 28 80
REMARK H PARENT 28 81
REMARK Flexibility Score:  259.900
ROOT
ATOM      1  O   UNL     1       0.015  -2.719   8.658  1.00  0.00    -0.273 OA
ATOM      2  N   UNL     1       0.646  -4.807   7.972  1.00  0.00    -0.343 N 
ATOM      3  C   UNL     1       0.099  -3.927   8.881  1.00  0.00     0.243 C 
ATOM      4  H   UNL     1       0.686  -5.796   8.183  1.00  0.00     0.164 HD
ENDROOT
BRANCH   2   5
ATOM      5  C   UNL     1       1.261  -4.318   6.743  1.00  0.00     0.171 C 
ATOM      6  C   UNL     1       3.300  -5.413   4.996  1.00  0.00     0.214 C 
ATOM      7  N   UNL     1       3.688  -4.547   6.085  1.00  0.00    -0.303 N 
ATOM      8  C   UNL     1       1.916  -5.105   4.446  1.00  0.00     0.057 C 
ATOM      9  C   UNL     1       2.771  -4.031   6.987  1.00  0.00     0.247 C 
ATOM     10  C   UNL     1       0.890  -5.203   5.554  1.00  0.00     0.040 C 
ATOM     11  O   UNL     1       3.120  -3.361   7.967  1.00  0.00    -0.272 OA
BRANCH   6  12
ATOM     12  O   UNL     1       3.360  -6.742   5.461  1.00  0.00    -0.373 OA
ATOM     13  H   UNL     1       4.160  -6.813   6.024  1.00  0.00     0.213 HD
ENDBRANCH   6  12
BRANCH   7  14
ATOM     14  C   UNL     1       5.136  -4.344   6.296  1.00  0.00     0.177 C 
BRANCH  14  15
ATOM     15  C   UNL     1       5.612  -2.880   6.215  1.00  0.00     0.038 C 
BRANCH  15  16
ATOM     16  C   UNL     1       6.717  -2.385   7.175  1.00  0.00    -0.015 C 
ATOM     17  C   UNL     1       6.153  -1.892   8.511  1.00  0.00     0.007 C 
ATOM     18  C   UNL     1       7.490  -1.230   6.524  1.00  0.00     0.007 C 
ENDBRANCH  15  16
ENDBRANCH  14  15
BRANCH  14  19
ATOM     19  C   UNL     1       5.700  -5.428   7.278  1.00  0.00     0.245 C 
ATOM     20  O   UNL     1       5.653  -5.162   8.491  1.00  0.00    -0.272 OA
BRANCH  19  21
ATOM     21  N   UNL     1       6.335  -6.586   6.866  1.00  0.00    -0.332 N 
ATOM     22  C   UNL     1       6.734  -6.889   5.503  1.00  0.00     0.147 C 
BRANCH  21  23
ATOM     23  C   UNL     1       6.629  -7.622   7.895  1.00  0.00     0.178 C 
BRANCH  23  24
ATOM     24  C   UNL     1       7.826  -7.298   8.813  1.00  0.00     0.070 C 
BRANCH  24  25
ATOM     25  C   UNL     1       8.919  -6.427   8.237  1.00  0.00    -0.045 A 
ATOM     26  C   UNL     1       9.905  -6.970   7.404  1.00  0.00     0.004 A 
ATOM     27  C   UNL     1       8.963  -5.057   8.536  1.00  0.00     0.004 A 
ATOM     28  C   UNL     1      10.921  -6.162   6.890  1.00  0.00     0.000 A 
ATOM     29  C   UNL     1       9.978  -4.250   8.020  1.00  0.00     0.000 A 
ATOM     30  C   UNL     1      10.959  -4.804   7.200  1.00  0.00     0.000 A 
ENDBRANCH  24  25
ENDBRANCH  23  24
BRANCH  23  31
ATOM     31  C   UNL     1       5.362  -8.121   8.629  1.00  0.00     0.243 C 
ATOM     32  O   UNL     1       5.164  -7.977   9.833  1.00  0.00    -0.273 OA
ATOM     33  N   UNL     1       4.544  -8.915   7.843  1.00  0.00    -0.341 N 
ATOM     34  H   UNL     1       4.764  -9.002   6.847  1.00  0.00     0.164 HD
BRANCH  33  35
ATOM     35  C   UNL     1       3.353  -9.594   8.360  1.00  0.00     0.194 C 
BRANCH  35  36
ATOM     36  C   UNL     1       3.176 -11.049   7.843  1.00  0.00     0.017 C 
ATOM     37  C   UNL     1       3.719 -12.072   8.856  1.00  0.00     0.010 C 
ATOM     38  C   UNL     1       3.884 -11.306   6.508  1.00  0.00     0.010 C 
ENDBRANCH  35  36
BRANCH  35  39
ATOM     39  C   UNL     1       2.059  -8.752   8.178  1.00  0.00     0.329 C 
ATOM     40  O   UNL     1       2.033  -7.634   7.678  1.00  0.00    -0.250 OA
BRANCH  39  41
ATOM     41  O   UNL     1       0.937  -9.435   8.559  1.00  0.00    -0.458 OA
BRANCH  41  42
ATOM     42  C   UNL     1       0.523  -9.271   9.936  1.00  0.00     0.205 CG0
ATOM     43  C   UNL     1       0.273 -10.666  10.505  1.00  0.00     0.056 C 
ATOM     44  G   UNL     1      -0.739  -8.386   9.969  1.00  0.00     0.000 G0
ENDBRANCH  41  42
ENDBRANCH  39  41
ENDBRANCH  35  39
ENDBRANCH  33  35
ENDBRANCH  23  31
ENDBRANCH  21  23
ENDBRANCH  19  21
ENDBRANCH  14  19
ENDBRANCH   7  14
ENDBRANCH   2   5
BRANCH   3  45
ATOM     45  C   UNL     1      -0.415  -4.560  10.180  1.00  0.00     0.171 C 
BRANCH  45  46
ATOM     46  N   UNL     1      -0.792  -5.923   9.832  1.00  0.00    -0.342 N 
ATOM     47  C   UNL     1      -0.353  -7.013  10.542  1.00  0.00     0.247 C 
ATOM     48  O   UNL     1       0.327  -6.914  11.564  1.00  0.00    -0.273 OA
ATOM     49  H   UNL     1      -1.401  -6.047   9.025  1.00  0.00     0.164 HD
BRANCH  47  50
ATOM     50  C   UNL     1      -0.750  -8.374   9.955  1.00  0.00     0.212 CG0
ATOM     51  G   UNL     1       0.507  -9.268   9.957  1.00  0.00     0.000 G0
BRANCH  50  52
ATOM     52  N   UNL     1      -1.816  -8.876  10.818  1.00  0.00    -0.339 N 
ATOM     53  C   UNL     1      -3.097  -8.379  10.803  1.00  0.00     0.243 C 
ATOM     54  O   UNL     1      -3.432  -7.434  10.095  1.00  0.00    -0.273 OA
ATOM     55  H   UNL     1      -1.572  -9.585  11.506  1.00  0.00     0.164 HD
BRANCH  53  56
ATOM     56  C   UNL     1      -4.025  -9.006  11.863  1.00  0.00     0.182 C 
BRANCH  56  57
ATOM     57  N   UNL     1      -3.471 -10.266  12.369  1.00  0.00    -0.344 N 
ATOM     58  C   UNL     1      -3.422 -10.563  13.709  1.00  0.00     0.220 C 
ATOM     59  O   UNL     1      -3.768  -9.770  14.577  1.00  0.00    -0.275 OA
ATOM     60  H   UNL     1      -3.268 -10.988  11.682  1.00  0.00     0.164 HD
BRANCH  58  61
ATOM     61  C   UNL     1      -2.864 -11.944  13.999  1.00  0.00     0.100 C 
BRANCH  61  62
ATOM     62  C   UNL     1      -1.430 -11.930  14.530  1.00  0.00     0.010 C 
BRANCH  62  63
ATOM     63  C   UNL     1      -1.313 -12.241  16.028  1.00  0.00     0.000 C 
BRANCH  63  64
ATOM     64  C   UNL     1      -1.254 -13.732  16.356  1.00  0.00    -0.003 C 
ATOM     65  C   UNL     1      -2.203 -14.090  17.491  1.00  0.00     0.004 C 
ENDBRANCH  63  64
ENDBRANCH  62  63
ENDBRANCH  61  62
ENDBRANCH  58  61
ENDBRANCH  56  57
BRANCH  56  66
ATOM     66  C   UNL     1      -5.448  -9.173  11.333  1.00  0.00     0.157 C 
BRANCH  66  67
ATOM     67  C   UNL     1      -5.531 -10.302  10.346  1.00  0.00     0.305 C 
ATOM     68  O   UNL     1      -5.274 -10.253   9.153  1.00  0.00    -0.252 OA
BRANCH  67  69
ATOM     69  O   UNL     1      -5.889 -11.464  10.926  1.00  0.00    -0.481 OA
ATOM     70  H   UNL     1      -5.216 -11.613  11.623  1.00  0.00     0.296 HD
ENDBRANCH  67  69
ENDBRANCH  66  67
ENDBRANCH  56  66
ENDBRANCH  53  56
ENDBRANCH  50  52
ENDBRANCH  47  50
ENDBRANCH  45  46
BRANCH  45  71
ATOM     71  C   UNL     1      -1.608  -3.766  10.725  1.00  0.00     0.037 C 
BRANCH  71  72
ATOM     72  C   UNL     1      -1.825  -4.007  12.221  1.00  0.00     0.026 C 
BRANCH  72  73
ATOM     73  C   UNL     1      -2.877  -5.087  12.467  1.00  0.00     0.146 C 
BRANCH  73  74
ATOM     74  N   UNL     1      -3.041  -5.230  13.910  1.00  0.00    -0.254 NA
ATOM     75  C   UNL     1      -2.498  -6.243  14.478  1.00  0.00     0.185 C 
ATOM     76  N   UNL     1      -2.631  -6.401  15.805  1.00  0.00    -0.370 N 
ATOM     77  N   UNL     1      -1.772  -7.231  13.928  1.00  0.00    -0.370 N 
ATOM     78  H   UNL     1      -3.170  -5.703  16.297  1.00  0.00     0.159 HD
ATOM     79  H   UNL     1      -2.360  -7.236  16.293  1.00  0.00     0.159 HD
ATOM     80  H   UNL     1      -1.586  -7.241  12.936  1.00  0.00     0.159 HD
ATOM     81  H   UNL     1      -1.296  -7.915  14.493  1.00  0.00     0.159 HD
ENDBRANCH  73  74
ENDBRANCH  72  73
ENDBRANCH  71  72
ENDBRANCH  45  71
ENDBRANCH   3  45
TORSDOF 20
ENDMDL
MODEL 4
REMARK VINA RESULT:    -4.077      2.796      9.392
REMARK INTER + INTRA:         -18.502
REMARK INTER:                 -10.748
REMARK INTRA:                  -7.754
REMARK UNBOUND:                -6.797
REMARK SMILES CCCCCC(=O)N[C@H](CC(=O)O)C(=O)N[C@H]1C(=O)N[C@H](CCCN=C(N)N)C(=O)N[C@@H]2CC[C@H](O)N(C2=O)[C@@H](CC(C)C)C(=O)N(C)[C@@H](Cc2ccccc2)C(=O)N[C@H](C(C)C)C(=O)O[C@@H]1C
REMARK SMILES IDX 30 1 31 2 29 3 32 5 35 6 37 7 34 8 38 9 33 10 39 11 36 12
REMARK SMILES IDX 40 14 41 15 42 16 43 17 44 18 45 19 46 20 47 21 48 22 49 23
REMARK SMILES IDX 50 24 51 25 52 26 56 27 53 28 55 29 54 30 57 31 58 32 59 33
REMARK SMILES IDX 60 35 61 36 62 37 63 38 64 39 65 40 66 41 67 42 68 43 21 45
REMARK SMILES IDX 20 46 18 47 19 48 17 50 16 52 14 53 15 54 9 56 8 57 6 58
REMARK SMILES IDX 7 59 5 61 4 62 3 63 2 64 1 65 10 66 11 67 12 68 13 69 22 71
REMARK SMILES IDX 23 72 24 73 25 74 26 75 27 76 28 77
REMARK H PARENT 31 4 36 13 59 34 20 49 16 55 8 60 13 70 27 78 27 79 28 80
REMARK H PARENT 28 81
REMARK Flexibility Score:  259.900
ROOT
ATOM      1  O   UNL     1       0.355  -5.094   4.490  1.00  0.00    -0.273 OA
ATOM      2  N   UNL     1       1.248  -5.195   6.593  1.00  0.00    -0.343 N 
ATOM      3  C   UNL     1       1.295  -5.388   5.229  1.00  0.00     0.243 C 
ATOM      4  H   UNL     1       2.046  -5.435   7.168  1.00  0.00     0.164 HD
ENDROOT
BRANCH   2   5
ATOM      5  C   UNL     1       0.021  -4.739   7.237  1.00  0.00     0.171 C 
ATOM      6  C   UNL     1      -0.560  -3.802   9.918  1.00  0.00     0.214 C 
ATOM      7  N   UNL     1      -0.692  -5.207   9.613  1.00  0.00    -0.303 N 
ATOM      8  C   UNL     1      -0.829  -2.899   8.725  1.00  0.00     0.057 C 
ATOM      9  C   UNL     1      -0.382  -5.729   8.367  1.00  0.00     0.247 C 
ATOM     10  C   UNL     1       0.107  -3.255   7.591  1.00  0.00     0.040 C 
ATOM     11  O   UNL     1      -0.414  -6.945   8.138  1.00  0.00    -0.272 OA
BRANCH   6  12
ATOM     12  O   UNL     1       0.743  -3.589  10.412  1.00  0.00    -0.373 OA
ATOM     13  H   UNL     1       0.704  -2.800  10.993  1.00  0.00     0.213 HD
ENDBRANCH   6  12
BRANCH   7  14
ATOM     14  C   UNL     1      -1.035  -6.108  10.734  1.00  0.00     0.177 C 
BRANCH  14  15
ATOM     15  C   UNL     1      -2.482  -6.638  10.730  1.00  0.00     0.038 C 
BRANCH  15  16
ATOM     16  C   UNL     1      -3.589  -5.834  11.446  1.00  0.00    -0.015 C 
ATOM     17  C   UNL     1      -3.058  -5.055  12.653  1.00  0.00     0.007 C 
ATOM     18  C   UNL     1      -4.689  -6.786  11.934  1.00  0.00     0.007 C 
ENDBRANCH  15  16
ENDBRANCH  14  15
BRANCH  14  19
ATOM     19  C   UNL     1       0.228  -6.920  11.185  1.00  0.00     0.245 C 
ATOM     20  O   UNL     1       1.278  -6.277  11.348  1.00  0.00    -0.272 OA
BRANCH  19  21
ATOM     21  N   UNL     1       0.258  -8.299  11.298  1.00  0.00    -0.332 N 
ATOM     22  C   UNL     1      -0.617  -9.221  10.596  1.00  0.00     0.147 C 
BRANCH  21  23
ATOM     23  C   UNL     1       1.260  -8.900  12.221  1.00  0.00     0.178 C 
BRANCH  23  24
ATOM     24  C   UNL     1       0.871  -8.855  13.713  1.00  0.00     0.070 C 
BRANCH  24  25
ATOM     25  C   UNL     1      -0.601  -8.938  14.043  1.00  0.00    -0.045 A 
ATOM     26  C   UNL     1      -1.299 -10.145  13.909  1.00  0.00     0.004 A 
ATOM     27  C   UNL     1      -1.293  -7.801  14.487  1.00  0.00     0.004 A 
ATOM     28  C   UNL     1      -2.664 -10.210  14.200  1.00  0.00     0.000 A 
ATOM     29  C   UNL     1      -2.656  -7.868  14.778  1.00  0.00     0.000 A 
ATOM     30  C   UNL     1      -3.341  -9.072  14.632  1.00  0.00     0.000 A 
ENDBRANCH  24  25
ENDBRANCH  23  24
BRANCH  23  31
ATOM     31  C   UNL     1       1.793 -10.266  11.728  1.00  0.00     0.243 C 
ATOM     32  O   UNL     1       1.418 -11.349  12.169  1.00  0.00    -0.273 OA
ATOM     33  N   UNL     1       2.872 -10.160  10.867  1.00  0.00    -0.341 N 
ATOM     34  H   UNL     1       3.142  -9.230  10.539  1.00  0.00     0.164 HD
BRANCH  33  35
ATOM     35  C   UNL     1       3.613 -11.323  10.368  1.00  0.00     0.194 C 
BRANCH  35  36
ATOM     36  C   UNL     1       5.021 -11.499  11.004  1.00  0.00     0.017 C 
ATOM     37  C   UNL     1       5.033 -12.649  12.025  1.00  0.00     0.010 C 
ATOM     38  C   UNL     1       5.521 -10.241  11.723  1.00  0.00     0.010 C 
ENDBRANCH  35  36
BRANCH  35  39
ATOM     39  C   UNL     1       3.666 -11.376   8.816  1.00  0.00     0.329 C 
ATOM     40  O   UNL     1       2.873 -12.004   8.123  1.00  0.00    -0.250 OA
BRANCH  39  41
ATOM     41  O   UNL     1       4.645 -10.572   8.301  1.00  0.00    -0.458 OA
BRANCH  41  42
ATOM     42  C   UNL     1       4.337  -9.906   7.053  1.00  0.00     0.205 CG0
ATOM     43  C   UNL     1       5.648  -9.753   6.285  1.00  0.00     0.056 C 
ATOM     44  G   UNL     1       3.677  -8.549   7.369  1.00  0.00     0.000 G0
ENDBRANCH  41  42
ENDBRANCH  39  41
ENDBRANCH  35  39
ENDBRANCH  33  35
ENDBRANCH  23  31
ENDBRANCH  21  23
ENDBRANCH  19  21
ENDBRANCH  14  19
ENDBRANCH   7  14
ENDBRANCH   2   5
BRANCH   3  45
ATOM     45  C   UNL     1       2.607  -5.975   4.693  1.00  0.00     0.171 C 
BRANCH  45  46
ATOM     46  N   UNL     1       3.218  -6.668   5.820  1.00  0.00    -0.342 N 
ATOM     47  C   UNL     1       3.016  -8.004   6.060  1.00  0.00     0.247 C 
ATOM     48  O   UNL     1       2.366  -8.727   5.305  1.00  0.00    -0.273 OA
ATOM     49  H   UNL     1       3.810  -6.118   6.440  1.00  0.00     0.164 HD
BRANCH  47  50
ATOM     50  C   UNL     1       3.637  -8.532   7.361  1.00  0.00     0.212 CG0
ATOM     51  G   UNL     1       4.346  -9.861   7.034  1.00  0.00     0.000 G0
BRANCH  50  52
ATOM     52  N   UNL     1       4.551  -7.485   7.809  1.00  0.00    -0.339 N 
ATOM     53  C   UNL     1       4.700  -7.124   9.126  1.00  0.00     0.243 C 
ATOM     54  O   UNL     1       4.032  -7.622  10.028  1.00  0.00    -0.273 OA
ATOM     55  H   UNL     1       5.052  -6.958   7.097  1.00  0.00     0.164 HD
BRANCH  53  56
ATOM     56  C   UNL     1       5.658  -5.936   9.347  1.00  0.00     0.182 C 
BRANCH  56  57
ATOM     57  N   UNL     1       5.192  -4.744   8.632  1.00  0.00    -0.344 N 
ATOM     58  C   UNL     1       4.248  -3.894   9.154  1.00  0.00     0.220 C 
ATOM     59  O   UNL     1       3.678  -4.109  10.218  1.00  0.00    -0.275 OA
ATOM     60  H   UNL     1       5.709  -4.476   7.798  1.00  0.00     0.164 HD
BRANCH  58  61
ATOM     61  C   UNL     1       3.962  -2.696   8.268  1.00  0.00     0.100 C 
BRANCH  61  62
ATOM     62  C   UNL     1       4.986  -1.569   8.404  1.00  0.00     0.010 C 
BRANCH  62  63
ATOM     63  C   UNL     1       6.266  -1.782   7.587  1.00  0.00     0.000 C 
BRANCH  63  64
ATOM     64  C   UNL     1       6.478  -0.756   6.475  1.00  0.00    -0.003 C 
ATOM     65  C   UNL     1       5.215   0.053   6.218  1.00  0.00     0.004 C 
ENDBRANCH  63  64
ENDBRANCH  62  63
ENDBRANCH  61  62
ENDBRANCH  58  61
ENDBRANCH  56  57
BRANCH  56  66
ATOM     66  C   UNL     1       7.096  -6.301   8.985  1.00  0.00     0.157 C 
BRANCH  66  67
ATOM     67  C   UNL     1       7.548  -7.530   9.721  1.00  0.00     0.305 C 
ATOM     68  O   UNL     1       7.662  -7.659  10.930  1.00  0.00    -0.252 OA
BRANCH  67  69
ATOM     69  O   UNL     1       7.787  -8.563   8.892  1.00  0.00    -0.481 OA
ATOM     70  H   UNL     1       6.899  -8.903   8.652  1.00  0.00     0.296 HD
ENDBRANCH  67  69
ENDBRANCH  66  67
ENDBRANCH  56  66
ENDBRANCH  53  56
ENDBRANCH  50  52
ENDBRANCH  47  50
ENDBRANCH  45  46
BRANCH  45  71
ATOM     71  C   UNL     1       3.512  -4.859   4.158  1.00  0.00     0.037 C 
BRANCH  71  72
ATOM     72  C   UNL     1       4.335  -4.202   5.270  1.00  0.00     0.026 C 
BRANCH  72  73
ATOM     73  C   UNL     1       5.804  -4.069   4.875  1.00  0.00     0.146 C 
BRANCH  73  74
ATOM     74  N   UNL     1       6.574  -4.996   5.699  1.00  0.00    -0.254 NA
ATOM     75  C   UNL     1       6.854  -6.145   5.206  1.00  0.00     0.185 C 
ATOM     76  N   UNL     1       7.562  -7.019   5.939  1.00  0.00    -0.370 N 
ATOM     77  N   UNL     1       6.535  -6.648   4.001  1.00  0.00    -0.370 N 
ATOM     78  H   UNL     1       7.837  -6.722   6.865  1.00  0.00     0.159 HD
ATOM     79  H   UNL     1       7.694  -7.981   5.680  1.00  0.00     0.159 HD
ATOM     80  H   UNL     1       6.005  -6.100   3.339  1.00  0.00     0.159 HD
ATOM     81  H   UNL     1       6.910  -7.525   3.678  1.00  0.00     0.159 HD
ENDBRANCH  73  74
ENDBRANCH  72  73
ENDBRANCH  71  72
ENDBRANCH  45  71
ENDBRANCH   3  45
TORSDOF 20
ENDMDL
MODEL 5
REMARK VINA RESULT:    -4.008      7.559     12.744
REMARK INTER + INTRA:         -18.303
REMARK INTER:                 -10.997
REMARK INTRA:                  -7.307
REMARK UNBOUND:                -6.797
REMARK SMILES CCCCCC(=O)N[C@H](CC(=O)O)C(=O)N[C@H]1C(=O)N[C@H](CCCN=C(N)N)C(=O)N[C@@H]2CC[C@H](O)N(C2=O)[C@@H](CC(C)C)C(=O)N(C)[C@@H](Cc2ccccc2)C(=O)N[C@H](C(C)C)C(=O)O[C@@H]1C
REMARK SMILES IDX 30 1 31 2 29 3 32 5 35 6 37 7 34 8 38 9 33 10 39 11 36 12
REMARK SMILES IDX 40 14 41 15 42 16 43 17 44 18 45 19 46 20 47 21 48 22 49 23
REMARK SMILES IDX 50 24 51 25 52 26 56 27 53 28 55 29 54 30 57 31 58 32 59 33
REMARK SMILES IDX 60 35 61 36 62 37 63 38 64 39 65 40 66 41 67 42 68 43 21 45
REMARK SMILES IDX 20 46 18 47 19 48 17 50 16 52 14 53 15 54 9 56 8 57 6 58
REMARK SMILES IDX 7 59 5 61 4 62 3 63 2 64 1 65 10 66 11 67 12 68 13 69 22 71
REMARK SMILES IDX 23 72 24 73 25 74 26 75 27 76 28 77
REMARK H PARENT 31 4 36 13 59 34 20 49 16 55 8 60 13 70 27 78 27 79 28 80
REMARK H PARENT 28 81
REMARK Flexibility Score:  259.900
ROOT
ATOM      1  O   UNL     1       6.028   2.821   6.540  1.00  0.00    -0.273 OA
ATOM      2  N   UNL     1       4.421   2.753   8.166  1.00  0.00    -0.343 N 
ATOM      3  C   UNL     1       5.303   2.162   7.286  1.00  0.00     0.243 C 
ATOM      4  H   UNL     1       3.850   2.179   8.775  1.00  0.00     0.164 HD
ENDROOT
BRANCH   2   5
ATOM      5  C   UNL     1       4.225   4.198   8.162  1.00  0.00     0.171 C 
ATOM      6  C   UNL     1       5.585   6.362   6.794  1.00  0.00     0.214 C 
ATOM      7  N   UNL     1       6.034   5.958   8.106  1.00  0.00    -0.303 N 
ATOM      8  C   UNL     1       4.097   6.143   6.573  1.00  0.00     0.057 C 
ATOM      9  C   UNL     1       5.462   4.900   8.793  1.00  0.00     0.247 C 
ATOM     10  C   UNL     1       3.756   4.685   6.792  1.00  0.00     0.040 C 
ATOM     11  O   UNL     1       5.908   4.504   9.879  1.00  0.00    -0.272 OA
BRANCH   6  12
ATOM     12  O   UNL     1       6.335   5.644   5.843  1.00  0.00    -0.373 OA
ATOM     13  H   UNL     1       7.266   5.941   5.926  1.00  0.00     0.213 HD
ENDBRANCH   6  12
BRANCH   7  14
ATOM     14  C   UNL     1       7.239   6.629   8.639  1.00  0.00     0.177 C 
BRANCH  14  15
ATOM     15  C   UNL     1       8.410   6.758   7.646  1.00  0.00     0.038 C 
BRANCH  15  16
ATOM     16  C   UNL     1       9.818   6.279   8.065  1.00  0.00    -0.015 C 
ATOM     17  C   UNL     1      10.929   7.174   7.508  1.00  0.00     0.007 C 
ATOM     18  C   UNL     1      10.052   4.850   7.557  1.00  0.00     0.007 C 
ENDBRANCH  15  16
ENDBRANCH  14  15
BRANCH  14  19
ATOM     19  C   UNL     1       6.836   7.700   9.711  1.00  0.00     0.245 C 
ATOM     20  O   UNL     1       5.826   8.381   9.468  1.00  0.00    -0.272 OA
BRANCH  19  21
ATOM     21  N   UNL     1       7.594   7.994  10.830  1.00  0.00    -0.332 N 
ATOM     22  C   UNL     1       7.943   9.328  11.284  1.00  0.00     0.147 C 
BRANCH  21  23
ATOM     23  C   UNL     1       8.110   6.855  11.639  1.00  0.00     0.178 C 
BRANCH  23  24
ATOM     24  C   UNL     1       9.515   7.073  12.237  1.00  0.00     0.070 C 
BRANCH  24  25
ATOM     25  C   UNL     1      10.644   6.250  11.660  1.00  0.00    -0.045 A 
ATOM     26  C   UNL     1      10.478   4.882  11.409  1.00  0.00     0.004 A 
ATOM     27  C   UNL     1      11.880   6.848  11.372  1.00  0.00     0.004 A 
ATOM     28  C   UNL     1      11.532   4.125  10.892  1.00  0.00     0.000 A 
ATOM     29  C   UNL     1      12.931   6.090  10.854  1.00  0.00     0.000 A 
ATOM     30  C   UNL     1      12.757   4.728  10.617  1.00  0.00     0.000 A 
ENDBRANCH  24  25
ENDBRANCH  23  24
BRANCH  23  31
ATOM     31  C   UNL     1       7.062   6.293  12.628  1.00  0.00     0.243 C 
ATOM     32  O   UNL     1       6.411   6.986  13.407  1.00  0.00    -0.273 OA
ATOM     33  N   UNL     1       7.049   4.910  12.694  1.00  0.00    -0.341 N 
ATOM     34  H   UNL     1       7.617   4.387  12.023  1.00  0.00     0.164 HD
BRANCH  33  35
ATOM     35  C   UNL     1       6.222   4.163  13.646  1.00  0.00     0.194 C 
BRANCH  35  36
ATOM     36  C   UNL     1       6.996   3.647  14.892  1.00  0.00     0.017 C 
ATOM     37  C   UNL     1       7.110   4.738  15.971  1.00  0.00     0.010 C 
ATOM     38  C   UNL     1       8.418   3.174  14.566  1.00  0.00     0.010 C 
ENDBRANCH  35  36
BRANCH  35  39
ATOM     39  C   UNL     1       5.399   3.034  12.965  1.00  0.00     0.329 C 
ATOM     40  O   UNL     1       4.178   2.951  13.012  1.00  0.00    -0.250 OA
BRANCH  39  41
ATOM     41  O   UNL     1       6.185   2.187  12.233  1.00  0.00    -0.458 OA
BRANCH  41  42
ATOM     42  C   UNL     1       5.583   0.930  11.843  1.00  0.00     0.205 CG0
ATOM     43  C   UNL     1       5.292   0.150  13.124  1.00  0.00     0.056 C 
ATOM     44  G   UNL     1       6.558   0.187  10.909  1.00  0.00     0.000 G0
ENDBRANCH  41  42
ENDBRANCH  39  41
ENDBRANCH  35  39
ENDBRANCH  33  35
ENDBRANCH  23  31
ENDBRANCH  21  23
ENDBRANCH  19  21
ENDBRANCH  14  19
ENDBRANCH   7  14
ENDBRANCH   2   5
BRANCH   3  45
ATOM     45  C   UNL     1       5.334   0.629   7.317  1.00  0.00     0.171 C 
BRANCH  45  46
ATOM     46  N   UNL     1       5.480   0.265   8.720  1.00  0.00    -0.342 N 
ATOM     47  C   UNL     1       6.505   0.739   9.500  1.00  0.00     0.247 C 
ATOM     48  O   UNL     1       7.330   1.559   9.094  1.00  0.00    -0.273 OA
ATOM     49  H   UNL     1       4.786  -0.368   9.112  1.00  0.00     0.164 HD
BRANCH  47  50
ATOM     50  C   UNL     1       6.569   0.151  10.917  1.00  0.00     0.212 CG0
ATOM     51  G   UNL     1       5.569   0.931  11.792  1.00  0.00     0.000 G0
BRANCH  50  52
ATOM     52  N   UNL     1       6.227  -1.261  10.768  1.00  0.00    -0.339 N 
ATOM     53  C   UNL     1       7.104  -2.205  10.292  1.00  0.00     0.243 C 
ATOM     54  O   UNL     1       8.234  -1.923   9.902  1.00  0.00    -0.273 OA
ATOM     55  H   UNL     1       5.269  -1.539  10.969  1.00  0.00     0.164 HD
BRANCH  53  56
ATOM     56  C   UNL     1       6.491  -3.612  10.142  1.00  0.00     0.182 C 
BRANCH  56  57
ATOM     57  N   UNL     1       6.732  -4.152   8.800  1.00  0.00    -0.344 N 
ATOM     58  C   UNL     1       7.129  -5.449   8.589  1.00  0.00     0.220 C 
ATOM     59  O   UNL     1       7.379  -6.224   9.506  1.00  0.00    -0.275 OA
ATOM     60  H   UNL     1       6.440  -3.577   8.013  1.00  0.00     0.164 HD
BRANCH  58  61
ATOM     61  C   UNL     1       7.262  -5.806   7.120  1.00  0.00     0.100 C 
BRANCH  61  62
ATOM     62  C   UNL     1       6.959  -7.273   6.812  1.00  0.00     0.010 C 
BRANCH  62  63
ATOM     63  C   UNL     1       5.469  -7.632   6.874  1.00  0.00     0.000 C 
BRANCH  63  64
ATOM     64  C   UNL     1       5.029  -8.667   5.840  1.00  0.00    -0.003 C 
ATOM     65  C   UNL     1       5.175  -8.131   4.422  1.00  0.00     0.004 C 
ENDBRANCH  63  64
ENDBRANCH  62  63
ENDBRANCH  61  62
ENDBRANCH  58  61
ENDBRANCH  56  57
BRANCH  56  66
ATOM     66  C   UNL     1       5.007  -3.618  10.507  1.00  0.00     0.157 C 
BRANCH  66  67
ATOM     67  C   UNL     1       4.144  -3.608   9.278  1.00  0.00     0.305 C 
ATOM     68  O   UNL     1       3.590  -4.568   8.764  1.00  0.00    -0.252 OA
BRANCH  67  69
ATOM     69  O   UNL     1       3.977  -2.368   8.781  1.00  0.00    -0.481 OA
ATOM     70  H   UNL     1       3.196  -2.012   9.255  1.00  0.00     0.296 HD
ENDBRANCH  67  69
ENDBRANCH  66  67
ENDBRANCH  56  66
ENDBRANCH  53  56
ENDBRANCH  50  52
ENDBRANCH  47  50
ENDBRANCH  45  46
BRANCH  45  71
ATOM     71  C   UNL     1       6.499   0.101   6.471  1.00  0.00     0.037 C 
BRANCH  71  72
ATOM     72  C   UNL     1       6.570  -1.428   6.479  1.00  0.00     0.026 C 
BRANCH  72  73
ATOM     73  C   UNL     1       5.801  -2.030   5.305  1.00  0.00     0.146 C 
BRANCH  73  74
ATOM     74  N   UNL     1       4.742  -2.874   5.850  1.00  0.00    -0.254 NA
ATOM     75  C   UNL     1       4.548  -4.018   5.306  1.00  0.00     0.185 C 
ATOM     76  N   UNL     1       3.582  -4.818   5.786  1.00  0.00    -0.370 N 
ATOM     77  N   UNL     1       5.196  -4.583   4.272  1.00  0.00    -0.370 N 
ATOM     78  H   UNL     1       3.040  -4.465   6.562  1.00  0.00     0.159 HD
ATOM     79  H   UNL     1       3.278  -5.657   5.325  1.00  0.00     0.159 HD
ATOM     80  H   UNL     1       5.952  -4.098   3.813  1.00  0.00     0.159 HD
ATOM     81  H   UNL     1       5.032  -5.540   4.005  1.00  0.00     0.159 HD
ENDBRANCH  73  74
ENDBRANCH  72  73
ENDBRANCH  71  72
ENDBRANCH  45  71
ENDBRANCH   3  45
TORSDOF 20
ENDMDL
MODEL 6
REMARK VINA RESULT:    -3.859      2.546      9.922
REMARK INTER + INTRA:         -17.874
REMARK INTER:                 -11.784
REMARK INTRA:                  -6.090
REMARK UNBOUND:                -6.797
REMARK SMILES CCCCCC(=O)N[C@H](CC(=O)O)C(=O)N[C@H]1C(=O)N[C@H](CCCN=C(N)N)C(=O)N[C@@H]2CC[C@H](O)N(C2=O)[C@@H](CC(C)C)C(=O)N(C)[C@@H](Cc2ccccc2)C(=O)N[C@H](C(C)C)C(=O)O[C@@H]1C
REMARK SMILES IDX 30 1 31 2 29 3 32 5 35 6 37 7 34 8 38 9 33 10 39 11 36 12
REMARK SMILES IDX 40 14 41 15 42 16 43 17 44 18 45 19 46 20 47 21 48 22 49 23
REMARK SMILES IDX 50 24 51 25 52 26 56 27 53 28 55 29 54 30 57 31 58 32 59 33
REMARK SMILES IDX 60 35 61 36 62 37 63 38 64 39 65 40 66 41 67 42 68 43 21 45
REMARK SMILES IDX 20 46 18 47 19 48 17 50 16 52 14 53 15 54 9 56 8 57 6 58
REMARK SMILES IDX 7 59 5 61 4 62 3 63 2 64 1 65 10 66 11 67 12 68 13 69 22 71
REMARK SMILES IDX 23 72 24 73 25 74 26 75 27 76 28 77
REMARK H PARENT 31 4 36 13 59 34 20 49 16 55 8 60 13 70 27 78 27 79 28 80
REMARK H PARENT 28 81
REMARK Flexibility Score:  259.900
ROOT
ATOM      1  O   UNL     1       1.510  -5.364   4.350  1.00  0.00    -0.273 OA
ATOM      2  N   UNL     1       1.790  -5.848   6.568  1.00  0.00    -0.343 N 
ATOM      3  C   UNL     1       2.172  -5.892   5.245  1.00  0.00     0.243 C 
ATOM      4  H   UNL     1       2.366  -6.282   7.279  1.00  0.00     0.164 HD
ENDROOT
BRANCH   2   5
ATOM      5  C   UNL     1       0.507  -5.268   6.952  1.00  0.00     0.171 C 
ATOM      6  C   UNL     1      -0.346  -3.745   9.266  1.00  0.00     0.214 C 
ATOM      7  N   UNL     1      -0.466  -5.184   9.279  1.00  0.00    -0.303 N 
ATOM      8  C   UNL     1      -0.471  -3.144   7.875  1.00  0.00     0.057 C 
ATOM      9  C   UNL     1      -0.031  -5.975   8.229  1.00  0.00     0.247 C 
ATOM     10  C   UNL     1       0.577  -3.742   6.962  1.00  0.00     0.040 C 
ATOM     11  O   UNL     1      -0.057  -7.212   8.284  1.00  0.00    -0.272 OA
BRANCH   6  12
ATOM     12  O   UNL     1       0.898  -3.411   9.836  1.00  0.00    -0.373 OA
ATOM     13  H   UNL     1       1.315  -4.250  10.126  1.00  0.00     0.213 HD
ENDBRANCH   6  12
BRANCH   7  14
ATOM     14  C   UNL     1      -0.943  -5.805  10.533  1.00  0.00     0.177 C 
BRANCH  14  15
ATOM     15  C   UNL     1      -2.345  -6.441  10.459  1.00  0.00     0.038 C 
BRANCH  15  16
ATOM     16  C   UNL     1      -3.454  -5.952  11.416  1.00  0.00    -0.015 C 
ATOM     17  C   UNL     1      -2.983  -4.808  12.320  1.00  0.00     0.007 C 
ATOM     18  C   UNL     1      -3.917  -7.110  12.309  1.00  0.00     0.007 C 
ENDBRANCH  15  16
ENDBRANCH  14  15
BRANCH  14  19
ATOM     19  C   UNL     1       0.267  -6.371  11.354  1.00  0.00     0.245 C 
ATOM     20  O   UNL     1       1.404  -6.110  10.926  1.00  0.00    -0.272 OA
BRANCH  19  21
ATOM     21  N   UNL     1       0.134  -7.220  12.438  1.00  0.00    -0.332 N 
ATOM     22  C   UNL     1      -0.374  -6.844  13.746  1.00  0.00     0.147 C 
BRANCH  21  23
ATOM     23  C   UNL     1       0.553  -8.638  12.267  1.00  0.00     0.178 C 
BRANCH  23  24
ATOM     24  C   UNL     1       0.401  -9.513  13.528  1.00  0.00     0.070 C 
BRANCH  24  25
ATOM     25  C   UNL     1      -0.891 -10.283  13.680  1.00  0.00    -0.045 A 
ATOM     26  C   UNL     1      -2.050  -9.654  14.152  1.00  0.00     0.004 A 
ATOM     27  C   UNL     1      -0.944 -11.646  13.354  1.00  0.00     0.004 A 
ATOM     28  C   UNL     1      -3.235 -10.377  14.306  1.00  0.00     0.000 A 
ATOM     29  C   UNL     1      -2.130 -12.367  13.507  1.00  0.00     0.000 A 
ATOM     30  C   UNL     1      -3.273 -11.732  13.986  1.00  0.00     0.000 A 
ENDBRANCH  24  25
ENDBRANCH  23  24
BRANCH  23  31
ATOM     31  C   UNL     1       0.012  -9.275  10.964  1.00  0.00     0.243 C 
ATOM     32  O   UNL     1      -1.182  -9.403  10.707  1.00  0.00    -0.273 OA
ATOM     33  N   UNL     1       0.995  -9.861  10.185  1.00  0.00    -0.341 N 
ATOM     34  H   UNL     1       1.973  -9.724  10.454  1.00  0.00     0.164 HD
BRANCH  33  35
ATOM     35  C   UNL     1       0.702 -10.623   8.969  1.00  0.00     0.194 C 
BRANCH  35  36
ATOM     36  C   UNL     1       0.399 -12.127   9.220  1.00  0.00     0.017 C 
ATOM     37  C   UNL     1      -1.106 -12.367   9.431  1.00  0.00     0.010 C 
ATOM     38  C   UNL     1       1.130 -12.695  10.443  1.00  0.00     0.010 C 
ENDBRANCH  35  36
BRANCH  35  39
ATOM     39  C   UNL     1       1.778 -10.425   7.865  1.00  0.00     0.329 C 
ATOM     40  O   UNL     1       1.775 -11.013   6.790  1.00  0.00    -0.250 OA
BRANCH  39  41
ATOM     41  O   UNL     1       2.685  -9.454   8.191  1.00  0.00    -0.458 OA
BRANCH  41  42
ATOM     42  C   UNL     1       4.072  -9.865   8.246  1.00  0.00     0.205 CG0
ATOM     43  C   UNL     1       4.336 -10.383   9.659  1.00  0.00     0.056 C 
ATOM     44  G   UNL     1       4.957  -8.656   7.886  1.00  0.00     0.000 G0
ENDBRANCH  41  42
ENDBRANCH  39  41
ENDBRANCH  35  39
ENDBRANCH  33  35
ENDBRANCH  23  31
ENDBRANCH  21  23
ENDBRANCH  19  21
ENDBRANCH  14  19
ENDBRANCH   7  14
ENDBRANCH   2   5
BRANCH   3  45
ATOM     45  C   UNL     1       3.490  -6.626   4.966  1.00  0.00     0.171 C 
BRANCH  45  46
ATOM     46  N   UNL     1       3.967  -7.086   6.263  1.00  0.00    -0.342 N 
ATOM     47  C   UNL     1       4.655  -8.263   6.420  1.00  0.00     0.247 C 
ATOM     48  O   UNL     1       4.982  -8.977   5.472  1.00  0.00    -0.273 OA
ATOM     49  H   UNL     1       3.767  -6.496   7.069  1.00  0.00     0.164 HD
BRANCH  47  50
ATOM     50  C   UNL     1       4.967  -8.645   7.874  1.00  0.00     0.212 CG0
ATOM     51  G   UNL     1       4.066  -9.838   8.248  1.00  0.00     0.000 G0
BRANCH  50  52
ATOM     52  N   UNL     1       6.391  -8.968   7.895  1.00  0.00    -0.339 N 
ATOM     53  C   UNL     1       7.293  -8.357   8.731  1.00  0.00     0.243 C 
ATOM     54  O   UNL     1       6.978  -7.447   9.493  1.00  0.00    -0.273 OA
ATOM     55  H   UNL     1       6.734  -9.636   7.207  1.00  0.00     0.164 HD
BRANCH  53  56
ATOM     56  C   UNL     1       8.754  -8.801   8.511  1.00  0.00     0.182 C 
BRANCH  56  57
ATOM     57  N   UNL     1       9.473  -7.846   7.663  1.00  0.00    -0.344 N 
ATOM     58  C   UNL     1      10.333  -6.907   8.177  1.00  0.00     0.220 C 
ATOM     59  O   UNL     1      10.504  -6.753   9.381  1.00  0.00    -0.275 OA
ATOM     60  H   UNL     1       9.438  -8.005   6.659  1.00  0.00     0.164 HD
BRANCH  58  61
ATOM     61  C   UNL     1      11.011  -6.065   7.111  1.00  0.00     0.100 C 
BRANCH  61  62
ATOM     62  C   UNL     1      11.755  -4.850   7.667  1.00  0.00     0.010 C 
BRANCH  62  63
ATOM     63  C   UNL     1      10.996  -3.526   7.516  1.00  0.00     0.000 C 
BRANCH  63  64
ATOM     64  C   UNL     1       9.884  -3.320   8.544  1.00  0.00    -0.003 C 
ATOM     65  C   UNL     1      10.138  -2.087   9.398  1.00  0.00     0.004 C 
ENDBRANCH  63  64
ENDBRANCH  62  63
ENDBRANCH  61  62
ENDBRANCH  58  61
ENDBRANCH  56  57
BRANCH  56  66
ATOM     66  C   UNL     1       8.830 -10.227   7.968  1.00  0.00     0.157 C 
BRANCH  66  67
ATOM     67  C   UNL     1       9.850 -11.039   8.712  1.00  0.00     0.305 C 
ATOM     68  O   UNL     1       9.747 -11.486   9.844  1.00  0.00    -0.252 OA
BRANCH  67  69
ATOM     69  O   UNL     1      10.942 -11.295   7.967  1.00  0.00    -0.481 OA
ATOM     70  H   UNL     1      10.719 -10.962   7.072  1.00  0.00     0.296 HD
ENDBRANCH  67  69
ENDBRANCH  66  67
ENDBRANCH  56  66
ENDBRANCH  53  56
ENDBRANCH  50  52
ENDBRANCH  47  50
ENDBRANCH  45  46
BRANCH  45  71
ATOM     71  C   UNL     1       4.495  -5.683   4.296  1.00  0.00     0.037 C 
BRANCH  71  72
ATOM     72  C   UNL     1       5.446  -5.041   5.309  1.00  0.00     0.026 C 
BRANCH  72  73
ATOM     73  C   UNL     1       4.964  -3.654   5.729  1.00  0.00     0.146 C 
BRANCH  73  74
ATOM     74  N   UNL     1       4.257  -3.792   6.999  1.00  0.00    -0.254 NA
ATOM     75  C   UNL     1       4.110  -2.742   7.720  1.00  0.00     0.185 C 
ATOM     76  N   UNL     1       3.462  -2.838   8.892  1.00  0.00    -0.370 N 
ATOM     77  N   UNL     1       4.523  -1.486   7.478  1.00  0.00    -0.370 N 
ATOM     78  H   UNL     1       3.124  -3.752   9.155  1.00  0.00     0.159 HD
ATOM     79  H   UNL     1       3.435  -2.098   9.572  1.00  0.00     0.159 HD
ATOM     80  H   UNL     1       5.022  -1.264   6.630  1.00  0.00     0.159 HD
ATOM     81  H   UNL     1       4.248  -0.717   8.066  1.00  0.00     0.159 HD
ENDBRANCH  73  74
ENDBRANCH  72  73
ENDBRANCH  71  72
ENDBRANCH  45  71
ENDBRANCH   3  45
TORSDOF 20
ENDMDL
MODEL 7
REMARK VINA RESULT:    -3.764      2.249      9.296
REMARK INTER + INTRA:         -17.604
REMARK INTER:                 -10.468
REMARK INTRA:                  -7.136
REMARK UNBOUND:                -6.797
REMARK SMILES CCCCCC(=O)N[C@H](CC(=O)O)C(=O)N[C@H]1C(=O)N[C@H](CCCN=C(N)N)C(=O)N[C@@H]2CC[C@H](O)N(C2=O)[C@@H](CC(C)C)C(=O)N(C)[C@@H](Cc2ccccc2)C(=O)N[C@H](C(C)C)C(=O)O[C@@H]1C
REMARK SMILES IDX 30 1 31 2 29 3 32 5 35 6 37 7 34 8 38 9 33 10 39 11 36 12
REMARK SMILES IDX 40 14 41 15 42 16 43 17 44 18 45 19 46 20 47 21 48 22 49 23
REMARK SMILES IDX 50 24 51 25 52 26 56 27 53 28 55 29 54 30 57 31 58 32 59 33
REMARK SMILES IDX 60 35 61 36 62 37 63 38 64 39 65 40 66 41 67 42 68 43 21 45
REMARK SMILES IDX 20 46 18 47 19 48 17 50 16 52 14 53 15 54 9 56 8 57 6 58
REMARK SMILES IDX 7 59 5 61 4 62 3 63 2 64 1 65 10 66 11 67 12 68 13 69 22 71
REMARK SMILES IDX 23 72 24 73 25 74 26 75 27 76 28 77
REMARK H PARENT 31 4 36 13 59 34 20 49 16 55 8 60 13 70 27 78 27 79 28 80
REMARK H PARENT 28 81
REMARK Flexibility Score:  259.900
ROOT
ATOM      1  O   UNL     1       0.492  -4.808   4.919  1.00  0.00    -0.273 OA
ATOM      2  N   UNL     1       1.260  -5.476   6.967  1.00  0.00    -0.343 N 
ATOM      3  C   UNL     1       1.260  -5.499   5.589  1.00  0.00     0.243 C 
ATOM      4  H   UNL     1       1.916  -6.047   7.485  1.00  0.00     0.164 HD
ENDROOT
BRANCH   2   5
ATOM      5  C   UNL     1       0.255  -4.711   7.696  1.00  0.00     0.171 C 
ATOM      6  C   UNL     1      -0.185  -4.238  10.523  1.00  0.00     0.214 C 
ATOM      7  N   UNL     1      -0.831  -5.359   9.881  1.00  0.00    -0.303 N 
ATOM      8  C   UNL     1       0.054  -3.064   9.586  1.00  0.00     0.057 C 
ATOM      9  C   UNL     1      -0.625  -5.671   8.547  1.00  0.00     0.247 C 
ATOM     10  C   UNL     1       0.885  -3.512   8.404  1.00  0.00     0.040 C 
ATOM     11  O   UNL     1      -1.114  -6.683   8.027  1.00  0.00    -0.272 OA
BRANCH   6  12
ATOM     12  O   UNL     1       1.035  -4.695  11.060  1.00  0.00    -0.373 OA
ATOM     13  H   UNL     1       0.827  -5.468  11.628  1.00  0.00     0.213 HD
ENDBRANCH   6  12
BRANCH   7  14
ATOM     14  C   UNL     1      -1.620  -6.262  10.745  1.00  0.00     0.177 C 
BRANCH  14  15
ATOM     15  C   UNL     1      -3.143  -6.023  10.728  1.00  0.00     0.038 C 
BRANCH  15  16
ATOM     16  C   UNL     1      -3.887  -5.764  12.056  1.00  0.00    -0.015 C 
ATOM     17  C   UNL     1      -2.939  -5.721  13.259  1.00  0.00     0.007 C 
ATOM     18  C   UNL     1      -4.919  -6.873  12.298  1.00  0.00     0.007 C 
ENDBRANCH  15  16
ENDBRANCH  14  15
BRANCH  14  19
ATOM     19  C   UNL     1      -0.923  -7.663  10.847  1.00  0.00     0.245 C 
ATOM     20  O   UNL     1       0.307  -7.664  11.020  1.00  0.00    -0.272 OA
BRANCH  19  21
ATOM     21  N   UNL     1      -1.577  -8.866  10.646  1.00  0.00    -0.332 N 
ATOM     22  C   UNL     1      -2.462  -9.168   9.535  1.00  0.00     0.147 C 
BRANCH  21  23
ATOM     23  C   UNL     1      -1.372  -9.945  11.650  1.00  0.00     0.178 C 
BRANCH  23  24
ATOM     24  C   UNL     1      -2.460 -10.027  12.741  1.00  0.00     0.070 C 
BRANCH  24  25
ATOM     25  C   UNL     1      -2.155  -9.371  14.068  1.00  0.00    -0.045 A 
ATOM     26  C   UNL     1      -3.187  -8.898  14.888  1.00  0.00     0.004 A 
ATOM     27  C   UNL     1      -0.827  -9.222  14.494  1.00  0.00     0.004 A 
ATOM     28  C   UNL     1      -2.896  -8.277  16.105  1.00  0.00     0.000 A 
ATOM     29  C   UNL     1      -0.537  -8.603  15.711  1.00  0.00     0.000 A 
ATOM     30  C   UNL     1      -1.573  -8.128  16.514  1.00  0.00     0.000 A 
ENDBRANCH  24  25
ENDBRANCH  23  24
BRANCH  23  31
ATOM     31  C   UNL     1      -0.989 -11.301  11.010  1.00  0.00     0.243 C 
ATOM     32  O   UNL     1      -1.646 -12.331  11.136  1.00  0.00    -0.273 OA
ATOM     33  N   UNL     1       0.268 -11.302  10.430  1.00  0.00    -0.341 N 
ATOM     34  H   UNL     1       0.771 -10.414  10.359  1.00  0.00     0.164 HD
BRANCH  33  35
ATOM     35  C   UNL     1       0.887 -12.506   9.868  1.00  0.00     0.194 C 
BRANCH  35  36
ATOM     36  C   UNL     1       1.939 -13.173  10.800  1.00  0.00     0.017 C 
ATOM     37  C   UNL     1       2.765 -12.118  11.556  1.00  0.00     0.010 C 
ATOM     38  C   UNL     1       2.925 -14.076  10.049  1.00  0.00     0.010 C 
ENDBRANCH  35  36
BRANCH  35  39
ATOM     39  C   UNL     1       1.443 -12.279   8.435  1.00  0.00     0.329 C 
ATOM     40  O   UNL     1       0.922 -12.722   7.418  1.00  0.00    -0.250 OA
BRANCH  39  41
ATOM     41  O   UNL     1       2.535 -11.455   8.424  1.00  0.00    -0.458 OA
BRANCH  41  42
ATOM     42  C   UNL     1       2.718 -10.649   7.236  1.00  0.00     0.205 CG0
ATOM     43  C   UNL     1       4.111 -10.954   6.691  1.00  0.00     0.056 C 
ATOM     44  G   UNL     1       2.547  -9.165   7.618  1.00  0.00     0.000 G0
ENDBRANCH  41  42
ENDBRANCH  39  41
ENDBRANCH  35  39
ENDBRANCH  33  35
ENDBRANCH  23  31
ENDBRANCH  21  23
ENDBRANCH  19  21
ENDBRANCH  14  19
ENDBRANCH   7  14
ENDBRANCH   2   5
BRANCH   3  45
ATOM     45  C   UNL     1       2.299  -6.429   4.947  1.00  0.00     0.171 C 
BRANCH  45  46
ATOM     46  N   UNL     1       2.731  -7.328   6.009  1.00  0.00    -0.342 N 
ATOM     47  C   UNL     1       1.982  -8.405   6.412  1.00  0.00     0.247 C 
ATOM     48  O   UNL     1       0.931  -8.731   5.861  1.00  0.00    -0.273 OA
ATOM     49  H   UNL     1       3.624  -7.127   6.455  1.00  0.00     0.164 HD
BRANCH  47  50
ATOM     50  C   UNL     1       2.536  -9.164   7.626  1.00  0.00     0.212 CG0
ATOM     51  G   UNL     1       2.719 -10.638   7.211  1.00  0.00     0.000 G0
BRANCH  50  52
ATOM     52  N   UNL     1       3.793  -8.499   7.961  1.00  0.00    -0.339 N 
ATOM     53  C   UNL     1       4.199  -8.259   9.251  1.00  0.00     0.243 C 
ATOM     54  O   UNL     1       3.508  -8.540  10.226  1.00  0.00    -0.273 OA
ATOM     55  H   UNL     1       4.358  -8.142   7.194  1.00  0.00     0.164 HD
BRANCH  53  56
ATOM     56  C   UNL     1       5.518  -7.466   9.356  1.00  0.00     0.182 C 
BRANCH  56  57
ATOM     57  N   UNL     1       5.291  -6.143   9.946  1.00  0.00    -0.344 N 
ATOM     58  C   UNL     1       4.484  -5.202   9.355  1.00  0.00     0.220 C 
ATOM     59  O   UNL     1       3.957  -5.373   8.262  1.00  0.00    -0.275 OA
ATOM     60  H   UNL     1       5.625  -5.999  10.896  1.00  0.00     0.164 HD
BRANCH  58  61
ATOM     61  C   UNL     1       4.348  -3.929  10.171  1.00  0.00     0.100 C 
BRANCH  61  62
ATOM     62  C   UNL     1       5.506  -2.949   9.982  1.00  0.00     0.010 C 
BRANCH  62  63
ATOM     63  C   UNL     1       5.068  -1.506   9.704  1.00  0.00     0.000 C 
BRANCH  63  64
ATOM     64  C   UNL     1       5.596  -0.486  10.712  1.00  0.00    -0.003 C 
ATOM     65  C   UNL     1       4.668   0.715  10.824  1.00  0.00     0.004 C 
ENDBRANCH  63  64
ENDBRANCH  62  63
ENDBRANCH  61  62
ENDBRANCH  58  61
ENDBRANCH  56  57
BRANCH  56  66
ATOM     66  C   UNL     1       6.229  -7.381   8.006  1.00  0.00     0.157 C 
BRANCH  66  67
ATOM     67  C   UNL     1       7.686  -7.062   8.179  1.00  0.00     0.305 C 
ATOM     68  O   UNL     1       8.633  -7.757   7.842  1.00  0.00    -0.252 OA
BRANCH  67  69
ATOM     69  O   UNL     1       7.883  -5.848   8.726  1.00  0.00    -0.481 OA
ATOM     70  H   UNL     1       8.850  -5.795   8.878  1.00  0.00     0.296 HD
ENDBRANCH  67  69
ENDBRANCH  66  67
ENDBRANCH  56  66
ENDBRANCH  53  56
ENDBRANCH  50  52
ENDBRANCH  47  50
ENDBRANCH  45  46
BRANCH  45  71
ATOM     71  C   UNL     1       3.469  -5.614   4.385  1.00  0.00     0.037 C 
BRANCH  71  72
ATOM     72  C   UNL     1       4.801  -6.358   4.510  1.00  0.00     0.026 C 
BRANCH  72  73
ATOM     73  C   UNL     1       5.951  -5.401   4.816  1.00  0.00     0.146 C 
BRANCH  73  74
ATOM     74  N   UNL     1       5.392  -4.060   4.954  1.00  0.00    -0.254 NA
ATOM     75  C   UNL     1       5.794  -3.341   5.936  1.00  0.00     0.185 C 
ATOM     76  N   UNL     1       5.299  -2.102   6.089  1.00  0.00    -0.370 N 
ATOM     77  N   UNL     1       6.686  -3.644   6.895  1.00  0.00    -0.370 N 
ATOM     78  H   UNL     1       4.614  -1.797   5.412  1.00  0.00     0.159 HD
ATOM     79  H   UNL     1       5.455  -1.540   6.907  1.00  0.00     0.159 HD
ATOM     80  H   UNL     1       7.145  -4.542   6.905  1.00  0.00     0.159 HD
ATOM     81  H   UNL     1       7.011  -2.953   7.552  1.00  0.00     0.159 HD
ENDBRANCH  73  74
ENDBRANCH  72  73
ENDBRANCH  71  72
ENDBRANCH  45  71
ENDBRANCH   3  45
TORSDOF 20
ENDMDL
MODEL 8
REMARK VINA RESULT:    -3.588      2.880      9.476
REMARK INTER + INTRA:         -17.097
REMARK INTER:                 -10.043
REMARK INTRA:                  -7.054
REMARK UNBOUND:                -6.797
REMARK SMILES CCCCCC(=O)N[C@H](CC(=O)O)C(=O)N[C@H]1C(=O)N[C@H](CCCN=C(N)N)C(=O)N[C@@H]2CC[C@H](O)N(C2=O)[C@@H](CC(C)C)C(=O)N(C)[C@@H](Cc2ccccc2)C(=O)N[C@H](C(C)C)C(=O)O[C@@H]1C
REMARK SMILES IDX 30 1 31 2 29 3 32 5 35 6 37 7 34 8 38 9 33 10 39 11 36 12
REMARK SMILES IDX 40 14 41 15 42 16 43 17 44 18 45 19 46 20 47 21 48 22 49 23
REMARK SMILES IDX 50 24 51 25 52 26 56 27 53 28 55 29 54 30 57 31 58 32 59 33
REMARK SMILES IDX 60 35 61 36 62 37 63 38 64 39 65 40 66 41 67 42 68 43 21 45
REMARK SMILES IDX 20 46 18 47 19 48 17 50 16 52 14 53 15 54 9 56 8 57 6 58
REMARK SMILES IDX 7 59 5 61 4 62 3 63 2 64 1 65 10 66 11 67 12 68 13 69 22 71
REMARK SMILES IDX 23 72 24 73 25 74 26 75 27 76 28 77
REMARK H PARENT 31 4 36 13 59 34 20 49 16 55 8 60 13 70 27 78 27 79 28 80
REMARK H PARENT 28 81
REMARK Flexibility Score:  259.900
ROOT
ATOM      1  O   UNL     1       0.388  -5.122   4.458  1.00  0.00    -0.273 OA
ATOM      2  N   UNL     1       1.170  -5.205   6.606  1.00  0.00    -0.343 N 
ATOM      3  C   UNL     1       1.293  -5.398   5.247  1.00  0.00     0.243 C 
ATOM      4  H   UNL     1       1.940  -5.431   7.223  1.00  0.00     0.164 HD
ENDROOT
BRANCH   2   5
ATOM      5  C   UNL     1      -0.098  -4.771   7.183  1.00  0.00     0.171 C 
ATOM      6  C   UNL     1      -0.792  -3.597   9.741  1.00  0.00     0.214 C 
ATOM      7  N   UNL     1      -0.821  -5.033   9.587  1.00  0.00    -0.303 N 
ATOM      8  C   UNL     1      -1.100  -2.847   8.455  1.00  0.00     0.057 C 
ATOM      9  C   UNL     1      -0.453  -5.661   8.408  1.00  0.00     0.247 C 
ATOM     10  C   UNL     1      -0.121  -3.255   7.377  1.00  0.00     0.040 C 
ATOM     11  O   UNL     1      -0.397  -6.894   8.311  1.00  0.00    -0.272 OA
BRANCH   6  12
ATOM     12  O   UNL     1       0.483  -3.242  10.225  1.00  0.00    -0.373 OA
ATOM     13  H   UNL     1       0.380  -2.400  10.717  1.00  0.00     0.213 HD
ENDBRANCH   6  12
BRANCH   7  14
ATOM     14  C   UNL     1      -1.123  -5.831  10.794  1.00  0.00     0.177 C 
BRANCH  14  15
ATOM     15  C   UNL     1      -2.531  -6.457  10.832  1.00  0.00     0.038 C 
BRANCH  15  16
ATOM     16  C   UNL     1      -3.687  -5.691  11.512  1.00  0.00    -0.015 C 
ATOM     17  C   UNL     1      -3.197  -4.771  12.635  1.00  0.00     0.007 C 
ATOM     18  C   UNL     1      -4.689  -6.687  12.109  1.00  0.00     0.007 C 
ENDBRANCH  15  16
ENDBRANCH  14  15
BRANCH  14  19
ATOM     19  C   UNL     1       0.183  -6.502  11.343  1.00  0.00     0.245 C 
ATOM     20  O   UNL     1       1.157  -5.755  11.535  1.00  0.00    -0.272 OA
BRANCH  19  21
ATOM     21  N   UNL     1       0.337  -7.867  11.512  1.00  0.00    -0.332 N 
ATOM     22  C   UNL     1      -0.463  -8.891  10.865  1.00  0.00     0.147 C 
BRANCH  21  23
ATOM     23  C   UNL     1       1.401  -8.338  12.440  1.00  0.00     0.178 C 
BRANCH  23  24
ATOM     24  C   UNL     1       1.124  -8.063  13.932  1.00  0.00     0.070 C 
BRANCH  24  25
ATOM     25  C   UNL     1      -0.287  -8.289  14.423  1.00  0.00    -0.045 A 
ATOM     26  C   UNL     1      -0.737  -9.575  14.747  1.00  0.00     0.004 A 
ATOM     27  C   UNL     1      -1.171  -7.208  14.556  1.00  0.00     0.004 A 
ATOM     28  C   UNL     1      -2.048  -9.778  15.184  1.00  0.00     0.000 A 
ATOM     29  C   UNL     1      -2.481  -7.412  14.994  1.00  0.00     0.000 A 
ATOM     30  C   UNL     1      -2.919  -8.698  15.305  1.00  0.00     0.000 A 
ENDBRANCH  24  25
ENDBRANCH  23  24
BRANCH  23  31
ATOM     31  C   UNL     1       1.890  -9.771  12.121  1.00  0.00     0.243 C 
ATOM     32  O   UNL     1       1.446 -10.783  12.657  1.00  0.00    -0.273 OA
ATOM     33  N   UNL     1       3.009  -9.805  11.307  1.00  0.00    -0.341 N 
ATOM     34  H   UNL     1       3.336  -8.928  10.894  1.00  0.00     0.164 HD
BRANCH  33  35
ATOM     35  C   UNL     1       3.715 -11.045  10.970  1.00  0.00     0.194 C 
BRANCH  35  36
ATOM     36  C   UNL     1       4.986 -11.305  11.827  1.00  0.00     0.017 C 
ATOM     37  C   UNL     1       4.695 -12.285  12.976  1.00  0.00     0.010 C 
ATOM     38  C   UNL     1       5.567 -10.029  12.448  1.00  0.00     0.010 C 
ENDBRANCH  35  36
BRANCH  35  39
ATOM     39  C   UNL     1       4.004 -11.174   9.449  1.00  0.00     0.329 C 
ATOM     40  O   UNL     1       3.652 -12.125   8.761  1.00  0.00    -0.250 OA
BRANCH  39  41
ATOM     41  O   UNL     1       4.622 -10.064   8.941  1.00  0.00    -0.458 OA
BRANCH  41  42
ATOM     42  C   UNL     1       4.170  -9.618   7.640  1.00  0.00     0.205 CG0
ATOM     43  C   UNL     1       5.366  -9.696   6.693  1.00  0.00     0.056 C 
ATOM     44  G   UNL     1       3.618  -8.185   7.775  1.00  0.00     0.000 G0
ENDBRANCH  41  42
ENDBRANCH  39  41
ENDBRANCH  35  39
ENDBRANCH  33  35
ENDBRANCH  23  31
ENDBRANCH  21  23
ENDBRANCH  19  21
ENDBRANCH  14  19
ENDBRANCH   7  14
ENDBRANCH   2   5
BRANCH   3  45
ATOM     45  C   UNL     1       2.642  -5.962   4.783  1.00  0.00     0.171 C 
BRANCH  45  46
ATOM     46  N   UNL     1       3.263  -6.529   5.972  1.00  0.00    -0.342 N 
ATOM     47  C   UNL     1       2.942  -7.776   6.447  1.00  0.00     0.247 C 
ATOM     48  O   UNL     1       2.165  -8.533   5.864  1.00  0.00    -0.273 OA
ATOM     49  H   UNL     1       3.954  -5.958   6.454  1.00  0.00     0.164 HD
BRANCH  47  50
ATOM     50  C   UNL     1       3.603  -8.155   7.779  1.00  0.00     0.212 CG0
ATOM     51  G   UNL     1       4.154  -9.588   7.637  1.00  0.00     0.000 G0
BRANCH  50  52
ATOM     52  N   UNL     1       4.645  -7.155   7.995  1.00  0.00    -0.339 N 
ATOM     53  C   UNL     1       5.060  -6.753   9.241  1.00  0.00     0.243 C 
ATOM     54  O   UNL     1       4.546  -7.167  10.276  1.00  0.00    -0.273 OA
ATOM     55  H   UNL     1       5.034  -6.692   7.175  1.00  0.00     0.164 HD
BRANCH  53  56
ATOM     56  C   UNL     1       6.111  -5.624   9.219  1.00  0.00     0.182 C 
BRANCH  56  57
ATOM     57  N   UNL     1       7.193  -5.893  10.170  1.00  0.00    -0.344 N 
ATOM     58  C   UNL     1       8.497  -6.064   9.773  1.00  0.00     0.220 C 
ATOM     59  O   UNL     1       8.835  -6.078   8.594  1.00  0.00    -0.275 OA
ATOM     60  H   UNL     1       6.975  -5.789  11.158  1.00  0.00     0.164 HD
BRANCH  58  61
ATOM     61  C   UNL     1       9.456  -6.273  10.930  1.00  0.00     0.100 C 
BRANCH  61  62
ATOM     62  C   UNL     1       9.248  -5.296  12.087  1.00  0.00     0.010 C 
BRANCH  62  63
ATOM     63  C   UNL     1      10.237  -5.475  13.246  1.00  0.00     0.000 C 
BRANCH  63  64
ATOM     64  C   UNL     1      10.691  -4.167  13.890  1.00  0.00    -0.003 C 
ATOM     65  C   UNL     1      10.499  -2.987  12.947  1.00  0.00     0.004 C 
ENDBRANCH  63  64
ENDBRANCH  62  63
ENDBRANCH  61  62
ENDBRANCH  58  61
ENDBRANCH  56  57
BRANCH  56  66
ATOM     66  C   UNL     1       5.468  -4.257   9.448  1.00  0.00     0.157 C 
BRANCH  66  67
ATOM     67  C   UNL     1       3.976  -4.325   9.298  1.00  0.00     0.305 C 
ATOM     68  O   UNL     1       3.349  -4.457   8.258  1.00  0.00    -0.252 OA
BRANCH  67  69
ATOM     69  O   UNL     1       3.340  -4.275  10.484  1.00  0.00    -0.481 OA
ATOM     70  H   UNL     1       3.178  -3.321  10.641  1.00  0.00     0.296 HD
ENDBRANCH  67  69
ENDBRANCH  66  67
ENDBRANCH  56  66
ENDBRANCH  53  56
ENDBRANCH  50  52
ENDBRANCH  47  50
ENDBRANCH  45  46
BRANCH  45  71
ATOM     71  C   UNL     1       3.503  -4.850   4.171  1.00  0.00     0.037 C 
BRANCH  71  72
ATOM     72  C   UNL     1       4.175  -3.988   5.243  1.00  0.00     0.026 C 
BRANCH  72  73
ATOM     73  C   UNL     1       5.682  -3.888   5.017  1.00  0.00     0.146 C 
BRANCH  73  74
ATOM     74  N   UNL     1       6.328  -4.887   5.862  1.00  0.00    -0.254 NA
ATOM     75  C   UNL     1       6.800  -5.936   5.296  1.00  0.00     0.185 C 
ATOM     76  N   UNL     1       7.401  -6.873   6.047  1.00  0.00    -0.370 N 
ATOM     77  N   UNL     1       6.791  -6.270   3.994  1.00  0.00    -0.370 N 
ATOM     78  H   UNL     1       7.445  -6.703   7.042  1.00  0.00     0.159 HD
ATOM     79  H   UNL     1       7.663  -7.778   5.698  1.00  0.00     0.159 HD
ATOM     80  H   UNL     1       6.374  -5.657   3.309  1.00  0.00     0.159 HD
ATOM     81  H   UNL     1       7.296  -7.070   3.650  1.00  0.00     0.159 HD
ENDBRANCH  73  74
ENDBRANCH  72  73
ENDBRANCH  71  72
ENDBRANCH  45  71
ENDBRANCH   3  45
TORSDOF 20
ENDMDL
MODEL 9
REMARK VINA RESULT:    -3.489      4.141     11.210
REMARK INTER + INTRA:         -16.813
REMARK INTER:                  -9.552
REMARK INTRA:                  -7.262
REMARK UNBOUND:                -6.797
REMARK SMILES CCCCCC(=O)N[C@H](CC(=O)O)C(=O)N[C@H]1C(=O)N[C@H](CCCN=C(N)N)C(=O)N[C@@H]2CC[C@H](O)N(C2=O)[C@@H](CC(C)C)C(=O)N(C)[C@@H](Cc2ccccc2)C(=O)N[C@H](C(C)C)C(=O)O[C@@H]1C
REMARK SMILES IDX 30 1 31 2 29 3 32 5 35 6 37 7 34 8 38 9 33 10 39 11 36 12
REMARK SMILES IDX 40 14 41 15 42 16 43 17 44 18 45 19 46 20 47 21 48 22 49 23
REMARK SMILES IDX 50 24 51 25 52 26 56 27 53 28 55 29 54 30 57 31 58 32 59 33
REMARK SMILES IDX 60 35 61 36 62 37 63 38 64 39 65 40 66 41 67 42 68 43 21 45
REMARK SMILES IDX 20 46 18 47 19 48 17 50 16 52 14 53 15 54 9 56 8 57 6 58
REMARK SMILES IDX 7 59 5 61 4 62 3 63 2 64 1 65 10 66 11 67 12 68 13 69 22 71
REMARK SMILES IDX 23 72 24 73 25 74 26 75 27 76 28 77
REMARK H PARENT 31 4 36 13 59 34 20 49 16 55 8 60 13 70 27 78 27 79 28 80
REMARK H PARENT 28 81
REMARK Flexibility Score:  259.900
ROOT
ATOM      1  O   UNL     1       5.736  -7.103   5.922  1.00  0.00    -0.273 OA
ATOM      2  N   UNL     1       5.393  -5.588   7.601  1.00  0.00    -0.343 N 
ATOM      3  C   UNL     1       6.169  -6.479   6.891  1.00  0.00     0.243 C 
ATOM      4  H   UNL     1       5.788  -5.081   8.384  1.00  0.00     0.164 HD
ENDROOT
BRANCH   2   5
ATOM      5  C   UNL     1       3.973  -5.438   7.302  1.00  0.00     0.171 C 
ATOM      6  C   UNL     1       1.850  -3.918   8.562  1.00  0.00     0.214 C 
ATOM      7  N   UNL     1       2.094  -5.279   8.980  1.00  0.00    -0.303 N 
ATOM      8  C   UNL     1       2.202  -3.664   7.105  1.00  0.00     0.057 C 
ATOM      9  C   UNL     1       3.124  -6.044   8.455  1.00  0.00     0.247 C 
ATOM     10  C   UNL     1       3.655  -4.010   6.860  1.00  0.00     0.040 C 
ATOM     11  O   UNL     1       3.380  -7.178   8.880  1.00  0.00    -0.272 OA
BRANCH   6  12
ATOM     12  O   UNL     1       2.596  -3.069   9.404  1.00  0.00    -0.373 OA
ATOM     13  H   UNL     1       1.997  -2.782  10.125  1.00  0.00     0.213 HD
ENDBRANCH   6  12
BRANCH   7  14
ATOM     14  C   UNL     1       1.286  -5.789  10.108  1.00  0.00     0.177 C 
BRANCH  14  15
ATOM     15  C   UNL     1       0.093  -6.679   9.711  1.00  0.00     0.038 C 
BRANCH  15  16
ATOM     16  C   UNL     1      -1.319  -6.059   9.612  1.00  0.00    -0.015 C 
ATOM     17  C   UNL     1      -2.424  -7.119   9.616  1.00  0.00     0.007 C 
ATOM     18  C   UNL     1      -1.439  -5.245   8.318  1.00  0.00     0.007 C 
ENDBRANCH  15  16
ENDBRANCH  14  15
BRANCH  14  19
ATOM     19  C   UNL     1       2.189  -5.993  11.374  1.00  0.00     0.245 C 
ATOM     20  O   UNL     1       3.109  -5.176  11.542  1.00  0.00    -0.272 OA
BRANCH  19  21
ATOM     21  N   UNL     1       2.084  -7.076  12.228  1.00  0.00    -0.332 N 
ATOM     22  C   UNL     1       2.108  -8.471  11.828  1.00  0.00     0.147 C 
BRANCH  21  23
ATOM     23  C   UNL     1       1.922  -6.801  13.683  1.00  0.00     0.178 C 
BRANCH  23  24
ATOM     24  C   UNL     1       0.519  -7.109  14.246  1.00  0.00     0.070 C 
BRANCH  24  25
ATOM     25  C   UNL     1      -0.632  -6.292  13.708  1.00  0.00    -0.045 A 
ATOM     26  C   UNL     1      -1.919  -6.838  13.618  1.00  0.00     0.004 A 
ATOM     27  C   UNL     1      -0.426  -4.971  13.284  1.00  0.00     0.004 A 
ATOM     28  C   UNL     1      -2.975  -6.082  13.104  1.00  0.00     0.000 A 
ATOM     29  C   UNL     1      -1.482  -4.216  12.771  1.00  0.00     0.000 A 
ATOM     30  C   UNL     1      -2.755  -4.774  12.679  1.00  0.00     0.000 A 
ENDBRANCH  24  25
ENDBRANCH  23  24
BRANCH  23  31
ATOM     31  C   UNL     1       3.098  -7.338  14.534  1.00  0.00     0.243 C 
ATOM     32  O   UNL     1       2.958  -8.019  15.547  1.00  0.00    -0.273 OA
ATOM     33  N   UNL     1       4.330  -6.829  14.159  1.00  0.00    -0.341 N 
ATOM     34  H   UNL     1       4.382  -6.263  13.309  1.00  0.00     0.164 HD
BRANCH  33  35
ATOM     35  C   UNL     1       5.566  -7.106  14.896  1.00  0.00     0.194 C 
BRANCH  35  36
ATOM     36  C   UNL     1       5.970  -5.989  15.899  1.00  0.00     0.017 C 
ATOM     37  C   UNL     1       5.615  -6.380  17.344  1.00  0.00     0.010 C 
ATOM     38  C   UNL     1       5.296  -4.643  15.609  1.00  0.00     0.010 C 
ENDBRANCH  35  36
BRANCH  35  39
ATOM     39  C   UNL     1       6.743  -7.501  13.961  1.00  0.00     0.329 C 
ATOM     40  O   UNL     1       7.010  -8.653  13.642  1.00  0.00    -0.250 OA
BRANCH  39  41
ATOM     41  O   UNL     1       7.399  -6.409  13.462  1.00  0.00    -0.458 OA
BRANCH  41  42
ATOM     42  C   UNL     1       7.999  -6.565  12.154  1.00  0.00     0.205 CG0
ATOM     43  C   UNL     1       9.420  -6.011  12.237  1.00  0.00     0.056 C 
ATOM     44  G   UNL     1       7.132  -5.813  11.123  1.00  0.00     0.000 G0
ENDBRANCH  41  42
ENDBRANCH  39  41
ENDBRANCH  35  39
ENDBRANCH  33  35
ENDBRANCH  23  31
ENDBRANCH  21  23
ENDBRANCH  19  21
ENDBRANCH  14  19
ENDBRANCH   7  14
ENDBRANCH   2   5
BRANCH   3  45
ATOM     45  C   UNL     1       7.618  -6.621   7.378  1.00  0.00     0.171 C 
BRANCH  45  46
ATOM     46  N   UNL     1       7.649  -6.017   8.703  1.00  0.00    -0.342 N 
ATOM     47  C   UNL     1       7.127  -6.640   9.809  1.00  0.00     0.247 C 
ATOM     48  O   UNL     1       6.662  -7.780   9.776  1.00  0.00    -0.273 OA
ATOM     49  H   UNL     1       8.077  -5.097   8.785  1.00  0.00     0.164 HD
BRANCH  47  50
ATOM     50  C   UNL     1       7.138  -5.800  11.094  1.00  0.00     0.212 CG0
ATOM     51  G   UNL     1       7.989  -6.552  12.136  1.00  0.00     0.000 G0
BRANCH  50  52
ATOM     52  N   UNL     1       7.702  -4.509  10.711  1.00  0.00    -0.339 N 
ATOM     53  C   UNL     1       7.200  -3.306  11.145  1.00  0.00     0.243 C 
ATOM     54  O   UNL     1       6.199  -3.223  11.851  1.00  0.00    -0.273 OA
ATOM     55  H   UNL     1       8.466  -4.508  10.037  1.00  0.00     0.164 HD
BRANCH  53  56
ATOM     56  C   UNL     1       7.906  -2.076  10.539  1.00  0.00     0.182 C 
BRANCH  56  57
ATOM     57  N   UNL     1       7.045  -1.405   9.560  1.00  0.00    -0.344 N 
ATOM     58  C   UNL     1       6.613  -2.024   8.412  1.00  0.00     0.220 C 
ATOM     59  O   UNL     1       6.974  -3.151   8.091  1.00  0.00    -0.275 OA
ATOM     60  H   UNL     1       6.643  -0.513   9.836  1.00  0.00     0.164 HD
BRANCH  58  61
ATOM     61  C   UNL     1       5.686  -1.162   7.576  1.00  0.00     0.100 C 
BRANCH  61  62
ATOM     62  C   UNL     1       6.406  -0.066   6.789  1.00  0.00     0.010 C 
BRANCH  62  63
ATOM     63  C   UNL     1       5.540   1.165   6.493  1.00  0.00     0.000 C 
BRANCH  63  64
ATOM     64  C   UNL     1       6.198   2.496   6.855  1.00  0.00    -0.003 C 
ATOM     65  C   UNL     1       5.596   3.085   8.123  1.00  0.00     0.004 C 
ENDBRANCH  63  64
ENDBRANCH  62  63
ENDBRANCH  61  62
ENDBRANCH  58  61
ENDBRANCH  56  57
BRANCH  56  66
ATOM     66  C   UNL     1       9.268  -2.445   9.953  1.00  0.00     0.157 C 
BRANCH  66  67
ATOM     67  C   UNL     1      10.346  -2.372  10.995  1.00  0.00     0.305 C 
ATOM     68  O   UNL     1      11.183  -3.226  11.244  1.00  0.00    -0.252 OA
BRANCH  67  69
ATOM     69  O   UNL     1      10.350  -1.193  11.646  1.00  0.00    -0.481 OA
ATOM     70  H   UNL     1       9.586  -0.702  11.278  1.00  0.00     0.296 HD
ENDBRANCH  67  69
ENDBRANCH  66  67
ENDBRANCH  56  66
ENDBRANCH  53  56
ENDBRANCH  50  52
ENDBRANCH  47  50
ENDBRANCH  45  46
BRANCH  45  71
ATOM     71  C   UNL     1       8.577  -5.917   6.412  1.00  0.00     0.037 C 
BRANCH  71  72
ATOM     72  C   UNL     1       9.874  -5.486   7.102  1.00  0.00     0.026 C 
BRANCH  72  73
ATOM     73  C   UNL     1      10.873  -6.638   7.187  1.00  0.00     0.146 C 
BRANCH  73  74
ATOM     74  N   UNL     1      10.920  -7.087   8.574  1.00  0.00    -0.254 NA
ATOM     75  C   UNL     1      10.560  -8.291   8.827  1.00  0.00     0.185 C 
ATOM     76  N   UNL     1      10.594  -8.735  10.094  1.00  0.00    -0.370 N 
ATOM     77  N   UNL     1      10.129  -9.240   7.977  1.00  0.00    -0.370 N 
ATOM     78  H   UNL     1      10.900  -8.080  10.799  1.00  0.00     0.159 HD
ATOM     79  H   UNL     1      10.193  -9.609  10.385  1.00  0.00     0.159 HD
ATOM     80  H   UNL     1      10.056  -9.049   6.989  1.00  0.00     0.159 HD
ATOM     81  H   UNL     1       9.983 -10.190   8.276  1.00  0.00     0.159 HD
ENDBRANCH  73  74
ENDBRANCH  72  73
ENDBRANCH  71  72
ENDBRANCH  45  71
ENDBRANCH   3  45
TORSDOF 20
ENDMDL
MODEL 10
REMARK VINA RESULT:    -3.424      7.801     12.970
REMARK INTER + INTRA:         -16.626
REMARK INTER:                 -11.144
REMARK INTRA:                  -5.482
REMARK UNBOUND:                -6.797
REMARK SMILES CCCCCC(=O)N[C@H](CC(=O)O)C(=O)N[C@H]1C(=O)N[C@H](CCCN=C(N)N)C(=O)N[C@@H]2CC[C@H](O)N(C2=O)[C@@H](CC(C)C)C(=O)N(C)[C@@H](Cc2ccccc2)C(=O)N[C@H](C(C)C)C(=O)O[C@@H]1C
REMARK SMILES IDX 30 1 31 2 29 3 32 5 35 6 37 7 34 8 38 9 33 10 39 11 36 12
REMARK SMILES IDX 40 14 41 15 42 16 43 17 44 18 45 19 46 20 47 21 48 22 49 23
REMARK SMILES IDX 50 24 51 25 52 26 56 27 53 28 55 29 54 30 57 31 58 32 59 33
REMARK SMILES IDX 60 35 61 36 62 37 63 38 64 39 65 40 66 41 67 42 68 43 21 45
REMARK SMILES IDX 20 46 18 47 19 48 17 50 16 52 14 53 15 54 9 56 8 57 6 58
REMARK SMILES IDX 7 59 5 61 4 62 3 63 2 64 1 65 10 66 11 67 12 68 13 69 22 71
REMARK SMILES IDX 23 72 24 73 25 74 26 75 27 76 28 77
REMARK H PARENT 31 4 36 13 59 34 20 49 16 55 8 60 13 70 27 78 27 79 28 80
REMARK H PARENT 28 81
REMARK Flexibility Score:  259.900
ROOT
ATOM      1  O   UNL     1       5.266   0.576   8.221  1.00  0.00    -0.273 OA
ATOM      2  N   UNL     1       6.965   0.593   9.752  1.00  0.00    -0.343 N 
ATOM      3  C   UNL     1       6.165  -0.022   8.813  1.00  0.00     0.243 C 
ATOM      4  H   UNL     1       7.704   0.073  10.208  1.00  0.00     0.164 HD
ENDROOT
BRANCH   2   5
ATOM      5  C   UNL     1       6.696   1.964  10.173  1.00  0.00     0.171 C 
ATOM      6  C   UNL     1       4.506   3.788   9.645  1.00  0.00     0.214 C 
ATOM      7  N   UNL     1       5.656   3.788   8.772  1.00  0.00    -0.303 N 
ATOM      8  C   UNL     1       4.836   3.395  11.076  1.00  0.00     0.057 C 
ATOM      9  C   UNL     1       6.714   2.908   8.937  1.00  0.00     0.247 C 
ATOM     10  C   UNL     1       5.480   2.026  11.096  1.00  0.00     0.040 C 
ATOM     11  O   UNL     1       7.655   2.856   8.134  1.00  0.00    -0.272 OA
BRANCH   6  12
ATOM     12  O   UNL     1       3.552   2.905   9.100  1.00  0.00    -0.373 OA
ATOM     13  H   UNL     1       3.201   2.368   9.842  1.00  0.00     0.213 HD
ENDBRANCH   6  12
BRANCH   7  14
ATOM     14  C   UNL     1       5.600   4.674   7.590  1.00  0.00     0.177 C 
BRANCH  14  15
ATOM     15  C   UNL     1       4.484   4.349   6.578  1.00  0.00     0.038 C 
BRANCH  15  16
ATOM     16  C   UNL     1       4.854   3.758   5.200  1.00  0.00    -0.015 C 
ATOM     17  C   UNL     1       3.767   4.002   4.148  1.00  0.00     0.007 C 
ATOM     18  C   UNL     1       5.071   2.245   5.325  1.00  0.00     0.007 C 
ENDBRANCH  15  16
ENDBRANCH  14  15
BRANCH  14  19
ATOM     19  C   UNL     1       6.092   6.114   7.966  1.00  0.00     0.245 C 
ATOM     20  O   UNL     1       5.309   7.050   7.736  1.00  0.00    -0.272 OA
BRANCH  19  21
ATOM     21  N   UNL     1       7.367   6.398   8.424  1.00  0.00    -0.332 N 
ATOM     22  C   UNL     1       7.688   6.979   9.715  1.00  0.00     0.147 C 
BRANCH  21  23
ATOM     23  C   UNL     1       8.513   6.098   7.522  1.00  0.00     0.178 C 
BRANCH  23  24
ATOM     24  C   UNL     1       8.847   7.213   6.510  1.00  0.00     0.070 C 
BRANCH  24  25
ATOM     25  C   UNL     1       8.475   6.966   5.067  1.00  0.00    -0.045 A 
ATOM     26  C   UNL     1       8.653   7.963   4.099  1.00  0.00     0.004 A 
ATOM     27  C   UNL     1       7.939   5.729   4.676  1.00  0.00     0.004 A 
ATOM     28  C   UNL     1       8.291   7.732   2.770  1.00  0.00     0.000 A 
ATOM     29  C   UNL     1       7.579   5.500   3.347  1.00  0.00     0.000 A 
ATOM     30  C   UNL     1       7.753   6.503   2.396  1.00  0.00     0.000 A 
ENDBRANCH  24  25
ENDBRANCH  23  24
BRANCH  23  31
ATOM     31  C   UNL     1       9.734   5.513   8.272  1.00  0.00     0.243 C 
ATOM     32  O   UNL     1      10.512   6.183   8.945  1.00  0.00    -0.273 OA
ATOM     33  N   UNL     1       9.984   4.185   7.968  1.00  0.00    -0.341 N 
ATOM     34  H   UNL     1       9.302   3.681   7.397  1.00  0.00     0.164 HD
BRANCH  33  35
ATOM     35  C   UNL     1      11.155   3.459   8.468  1.00  0.00     0.194 C 
BRANCH  35  36
ATOM     36  C   UNL     1      12.297   3.300   7.425  1.00  0.00     0.017 C 
ATOM     37  C   UNL     1      13.614   3.905   7.940  1.00  0.00     0.010 C 
ATOM     38  C   UNL     1      11.982   3.964   6.079  1.00  0.00     0.010 C 
ENDBRANCH  35  36
BRANCH  35  39
ATOM     39  C   UNL     1      10.780   2.103   9.129  1.00  0.00     0.329 C 
ATOM     40  O   UNL     1      10.436   1.982  10.299  1.00  0.00    -0.250 OA
BRANCH  39  41
ATOM     41  O   UNL     1      10.791   1.068   8.235  1.00  0.00    -0.458 OA
BRANCH  41  42
ATOM     42  C   UNL     1      10.877  -0.263   8.796  1.00  0.00     0.205 CG0
ATOM     43  C   UNL     1      12.355  -0.558   9.043  1.00  0.00     0.056 C 
ATOM     44  G   UNL     1      10.234  -1.257   7.808  1.00  0.00     0.000 G0
ENDBRANCH  41  42
ENDBRANCH  39  41
ENDBRANCH  35  39
ENDBRANCH  33  35
ENDBRANCH  23  31
ENDBRANCH  21  23
ENDBRANCH  19  21
ENDBRANCH  14  19
ENDBRANCH   7  14
ENDBRANCH   2   5
BRANCH   3  45
ATOM     45  C   UNL     1       6.486  -1.497   8.540  1.00  0.00     0.171 C 
BRANCH  45  46
ATOM     46  N   UNL     1       7.939  -1.597   8.578  1.00  0.00    -0.342 N 
ATOM     47  C   UNL     1       8.745  -0.952   7.674  1.00  0.00     0.247 C 
ATOM     48  O   UNL     1       8.307  -0.187   6.814  1.00  0.00    -0.273 OA
ATOM     49  H   UNL     1       8.347  -2.176   9.310  1.00  0.00     0.164 HD
BRANCH  47  50
ATOM     50  C   UNL     1      10.242  -1.274   7.792  1.00  0.00     0.212 CG0
ATOM     51  G   UNL     1      10.857  -0.278   8.795  1.00  0.00     0.000 G0
BRANCH  50  52
ATOM     52  N   UNL     1      10.307  -2.662   8.243  1.00  0.00    -0.339 N 
ATOM     53  C   UNL     1      11.208  -3.575   7.750  1.00  0.00     0.243 C 
ATOM     54  O   UNL     1      11.997  -3.306   6.849  1.00  0.00    -0.273 OA
ATOM     55  H   UNL     1       9.605  -2.976   8.910  1.00  0.00     0.164 HD
BRANCH  53  56
ATOM     56  C   UNL     1      11.030  -4.999   8.315  1.00  0.00     0.182 C 
BRANCH  56  57
ATOM     57  N   UNL     1       9.649  -5.463   8.148  1.00  0.00    -0.344 N 
ATOM     58  C   UNL     1       9.273  -6.300   7.126  1.00  0.00     0.220 C 
ATOM     59  O   UNL     1      10.045  -6.657   6.243  1.00  0.00    -0.275 OA
ATOM     60  H   UNL     1       9.004  -5.273   8.910  1.00  0.00     0.164 HD
BRANCH  58  61
ATOM     61  C   UNL     1       7.809  -6.697   7.182  1.00  0.00     0.100 C 
BRANCH  61  62
ATOM     62  C   UNL     1       6.989  -5.889   8.187  1.00  0.00     0.010 C 
BRANCH  62  63
ATOM     63  C   UNL     1       5.497  -6.243   8.210  1.00  0.00     0.000 C 
BRANCH  63  64
ATOM     64  C   UNL     1       4.815  -5.999   9.555  1.00  0.00    -0.003 C 
ATOM     65  C   UNL     1       5.134  -4.613  10.096  1.00  0.00     0.004 C 
ENDBRANCH  63  64
ENDBRANCH  62  63
ENDBRANCH  61  62
ENDBRANCH  58  61
ENDBRANCH  56  57
BRANCH  56  66
ATOM     66  C   UNL     1      11.496  -5.088   9.767  1.00  0.00     0.157 C 
BRANCH  66  67
ATOM     67  C   UNL     1      11.306  -6.473  10.316  1.00  0.00     0.305 C 
ATOM     68  O   UNL     1      11.259  -7.513   9.678  1.00  0.00    -0.252 OA
BRANCH  67  69
ATOM     69  O   UNL     1      11.235  -6.485  11.660  1.00  0.00    -0.481 OA
ATOM     70  H   UNL     1      10.963  -7.399  11.888  1.00  0.00     0.296 HD
ENDBRANCH  67  69
ENDBRANCH  66  67
ENDBRANCH  56  66
ENDBRANCH  53  56
ENDBRANCH  50  52
ENDBRANCH  47  50
ENDBRANCH  45  46
BRANCH  45  71
ATOM     71  C   UNL     1       5.925  -1.923   7.179  1.00  0.00     0.037 C 
BRANCH  71  72
ATOM     72  C   UNL     1       4.442  -2.292   7.257  1.00  0.00     0.026 C 
BRANCH  72  73
ATOM     73  C   UNL     1       4.077  -3.369   6.238  1.00  0.00     0.146 C 
BRANCH  73  74
ATOM     74  N   UNL     1       5.288  -3.714   5.500  1.00  0.00    -0.254 NA
ATOM     75  C   UNL     1       5.315  -4.838   4.884  1.00  0.00     0.185 C 
ATOM     76  N   UNL     1       6.415  -5.182   4.195  1.00  0.00    -0.370 N 
ATOM     77  N   UNL     1       4.363  -5.784   4.811  1.00  0.00    -0.370 N 
ATOM     78  H   UNL     1       7.184  -4.528   4.204  1.00  0.00     0.159 HD
ATOM     79  H   UNL     1       6.563  -6.099   3.812  1.00  0.00     0.159 HD
ATOM     80  H   UNL     1       3.477  -5.659   5.279  1.00  0.00     0.159 HD
ATOM     81  H   UNL     1       4.453  -6.578   4.199  1.00  0.00     0.159 HD
ENDBRANCH  73  74
ENDBRANCH  72  73
ENDBRANCH  71  72
ENDBRANCH  45  71
ENDBRANCH   3  45
TORSDOF 20
ENDMDL
