MODEL 1
REMARK VINA RESULT:    -5.799      0.000      0.000
REMARK INTER + INTRA:         -26.379
REMARK INTER:                 -17.324
REMARK INTRA:                  -9.054
REMARK UNBOUND:                -9.054
REMARK SMILES C=C1C(=O)N[C@H](C)C(=O)N[C@@H](CC(C)C)C(=O)N[C@@H](C(=O)O)[C@H](C)C(=O)N[C@@H](CCCN=C(N)N)C(=O)N[C@@H](/C=C/C(C)=C/[C@H](C)[C@H](Cc2ccccc2)OC)[C@H](C)C(=O)N[C@@H](C(=O)O)CCC(=O)N1C
REMARK SMILES IDX 39 1 38 2 37 3 36 4 28 6 27 7 25 8 26 9 23 11 24 12 19 13
REMARK SMILES IDX 18 14 16 15 17 16 11 18 10 19 8 20 9 21 12 24 13 25 14 26
REMARK SMILES IDX 15 27 20 28 21 29 22 30 29 32 30 33 31 34 32 35 33 36 34 37
REMARK SMILES IDX 35 38 57 43 58 44 59 45 60 46 61 47 62 49 66 50 67 51 68 52
REMARK SMILES IDX 69 53 70 54 71 55 2 56 1 57 3 58 4 59 5 60 6 62 7 63 63 65
REMARK SMILES IDX 64 66 65 67 40 69 41 70 42 71 44 72 43 73 45 74 46 75 47 76
REMARK SMILES IDX 55 77 56 78 48 79 49 80 50 81 54 82 51 83 53 84 52 85
REMARK H PARENT 38 5 27 10 18 17 10 22 22 31 34 39 34 40 35 41 35 42 61 48
REMARK H PARENT 5 61 65 68
REMARK Flexibility Score:  369.900
ROOT
ATOM      1  C   UNL     1      -6.221   3.295  -2.929  1.00  0.00     0.117 C 
ENDROOT
BRANCH   1   2
ATOM      2  N   UNL     1      -7.641   3.645  -2.873  1.00  0.00    -0.347 N 
ATOM      3  O   UNL     1      -8.155   2.551  -0.921  1.00  0.00    -0.273 OA
ATOM      4  C   UNL     1      -8.476   3.319  -1.821  1.00  0.00     0.243 C 
ATOM      5  H   UNL     1      -8.044   4.199  -3.613  1.00  0.00     0.164 HD
BRANCH   4   6
ATOM      6  C   UNL     1      -9.912   3.882  -1.969  1.00  0.00     0.171 C 
BRANCH   6   7
ATOM      7  N   UNL     1      -9.974   5.269  -1.480  1.00  0.00    -0.344 N 
ATOM      8  C   UNL     1     -10.672   5.579  -0.332  1.00  0.00     0.226 C 
ATOM      9  O   UNL     1     -11.285   4.738   0.315  1.00  0.00    -0.275 OA
ATOM     10  H   UNL     1      -9.537   6.001  -2.024  1.00  0.00     0.164 HD
BRANCH   8  11
ATOM     11  C   UNL     1     -10.595   7.041   0.071  1.00  0.00     0.109 C 
ATOM     12  C   UNL     1      -9.750   7.820  -0.937  1.00  0.00     0.021 C 
BRANCH  11  13
ATOM     13  C   UNL     1     -12.016   7.596   0.292  1.00  0.00     0.204 C 
BRANCH  13  14
ATOM     14  N   UNL     1     -12.495   7.360   1.658  1.00  0.00    -0.340 N 
ATOM     15  C   UNL     1     -13.698   6.747   1.934  1.00  0.00     0.243 C 
ATOM     16  O   UNL     1     -14.429   6.300   1.052  1.00  0.00    -0.273 OA
ATOM     17  H   UNL     1     -12.014   7.838   2.425  1.00  0.00     0.164 HD
BRANCH  15  18
ATOM     18  C   UNL     1     -14.087   6.794   3.432  1.00  0.00     0.171 C 
BRANCH  18  19
ATOM     19  N   UNL     1     -14.803   5.553   3.718  1.00  0.00    -0.343 N 
ATOM     20  C   UNL     1     -16.101   5.554   4.194  1.00  0.00     0.242 CG0
ATOM     21  O   UNL     1     -16.664   6.594   4.525  1.00  0.00    -0.273 OA
ATOM     22  H   UNL     1     -14.338   4.665   3.570  1.00  0.00     0.164 HD
ATOM     23  G   UNL     1     -16.718   4.150   4.360  1.00  0.00     0.000 G0
ENDBRANCH  18  19
BRANCH  18  24
ATOM     24  C   UNL     1     -12.838   6.937   4.311  1.00  0.00     0.038 C 
BRANCH  24  25
ATOM     25  C   UNL     1     -12.844   8.166   5.245  1.00  0.00    -0.015 C 
ATOM     26  C   UNL     1     -12.912   7.779   6.722  1.00  0.00     0.007 C 
ATOM     27  C   UNL     1     -14.028   9.072   4.894  1.00  0.00     0.007 C 
ENDBRANCH  24  25
ENDBRANCH  18  24
ENDBRANCH  15  18
ENDBRANCH  13  14
BRANCH  13  28
ATOM     28  C   UNL     1     -12.125   9.101   0.027  1.00  0.00     0.327 C 
ATOM     29  O   UNL     1     -11.753   9.994   0.773  1.00  0.00    -0.250 OA
BRANCH  28  30
ATOM     30  O   UNL     1     -12.800   9.392  -1.103  1.00  0.00    -0.480 OA
ATOM     31  H   UNL     1     -13.725   9.139  -0.902  1.00  0.00     0.296 HD
ENDBRANCH  28  30
ENDBRANCH  13  28
ENDBRANCH  11  13
ENDBRANCH   8  11
ENDBRANCH   6   7
BRANCH   6  32
ATOM     32  C   UNL     1     -10.336   3.802  -3.440  1.00  0.00     0.037 C 
BRANCH  32  33
ATOM     33  C   UNL     1     -11.006   5.096  -3.921  1.00  0.00     0.026 C 
BRANCH  33  34
ATOM     34  C   UNL     1     -10.088   5.934  -4.812  1.00  0.00     0.146 C 
BRANCH  34  35
ATOM     35  N   UNL     1      -9.024   5.082  -5.323  1.00  0.00    -0.254 NA
ATOM     36  C   UNL     1      -8.675   5.202  -6.550  1.00  0.00     0.185 C 
ATOM     37  N   UNL     1      -7.691   4.425  -7.029  1.00  0.00    -0.370 N 
ATOM     38  N   UNL     1      -9.164   6.031  -7.489  1.00  0.00    -0.370 N 
ATOM     39  H   UNL     1      -7.264   3.780  -6.378  1.00  0.00     0.159 HD
ATOM     40  H   UNL     1      -7.246   4.577  -7.918  1.00  0.00     0.159 HD
ATOM     41  H   UNL     1      -8.902   5.934  -8.457  1.00  0.00     0.159 HD
ATOM     42  H   UNL     1      -9.920   6.662  -7.273  1.00  0.00     0.159 HD
ENDBRANCH  34  35
ENDBRANCH  33  34
ENDBRANCH  32  33
ENDBRANCH   6  32
ENDBRANCH   4   6
ENDBRANCH   1   2
BRANCH   1  43
ATOM     43  C   UNL     1      -5.390   4.525  -2.462  1.00  0.00     0.102 C 
ATOM     44  C   UNL     1      -4.662   4.300  -1.127  1.00  0.00     0.020 C 
BRANCH  43  45
ATOM     45  C   UNL     1      -6.230   5.805  -2.504  1.00  0.00     0.225 C 
ATOM     46  O   UNL     1      -7.000   6.131  -1.605  1.00  0.00    -0.275 OA
ATOM     47  N   UNL     1      -6.141   6.535  -3.667  1.00  0.00    -0.342 N 
ATOM     48  H   UNL     1      -5.400   6.339  -4.325  1.00  0.00     0.164 HD
BRANCH  47  49
ATOM     49  C   UNL     1      -6.862   7.800  -3.835  1.00  0.00     0.192 C 
BRANCH  49  50
ATOM     50  C   UNL     1      -7.027   8.105  -5.326  1.00  0.00     0.047 C 
BRANCH  50  51
ATOM     51  C   UNL     1      -5.876   7.536  -6.167  1.00  0.00     0.103 C 
BRANCH  51  52
ATOM     52  C   UNL     1      -6.002   7.914  -7.641  1.00  0.00     0.226 C 
ATOM     53  O   UNL     1      -6.594   7.161  -8.416  1.00  0.00    -0.275 OA
BRANCH  52  54
ATOM     54  N   UNL     1      -5.483   9.169  -8.013  1.00  0.00    -0.311 N 
ATOM     55  C   UNL     1      -6.189  10.410  -7.669  1.00  0.00     0.153 C 
BRANCH  54  56
ATOM     56  C   UNL     1      -4.273   9.282  -8.717  1.00  0.00     0.102 C 
ATOM     57  C   UNL     1      -3.063   9.415  -8.150  1.00  0.00     0.043 C 
BRANCH  56  58
ATOM     58  C   UNL     1      -4.246   9.213 -10.226  1.00  0.00     0.268 C 
ATOM     59  O   UNL     1      -3.228   9.373 -10.885  1.00  0.00    -0.268 OA
ATOM     60  N   UNL     1      -5.464   8.887 -10.774  1.00  0.00    -0.339 N 
ATOM     61  H   UNL     1      -6.262   8.781 -10.160  1.00  0.00     0.164 HD
BRANCH  60  62
ATOM     62  C   UNL     1      -5.647   8.707 -12.214  1.00  0.00     0.168 CG0
ATOM     63  C   UNL     1      -5.986   7.259 -12.544  1.00  0.00     0.041 C 
ATOM     64  G   UNL     1      -4.370   9.152 -12.957  1.00  0.00     0.000 G0
ENDBRANCH  60  62
ENDBRANCH  56  58
ENDBRANCH  54  56
ENDBRANCH  52  54
ENDBRANCH  51  52
ENDBRANCH  50  51
ENDBRANCH  49  50
BRANCH  49  65
ATOM     65  C   UNL     1      -6.125   8.966  -3.156  1.00  0.00     0.326 C 
ATOM     66  O   UNL     1      -5.187   9.588  -3.632  1.00  0.00    -0.250 OA
BRANCH  65  67
ATOM     67  O   UNL     1      -6.553   9.251  -1.906  1.00  0.00    -0.480 OA
ATOM     68  H   UNL     1      -6.736  10.215  -1.938  1.00  0.00     0.296 HD
ENDBRANCH  65  67
ENDBRANCH  49  65
ENDBRANCH  47  49
ENDBRANCH  43  45
ENDBRANCH   1  43
BRANCH   1  69
ATOM     69  C   UNL     1      -5.978   2.730  -4.317  1.00  0.00    -0.001 C 
ATOM     70  C   UNL     1      -4.866   2.127  -4.770  1.00  0.00     0.001 C 
BRANCH  70  71
ATOM     71  C   UNL     1      -4.651   1.566  -6.106  1.00  0.00    -0.055 C 
ATOM     72  C   UNL     1      -4.511   2.429  -7.134  1.00  0.00    -0.018 C 
ATOM     73  C   UNL     1      -4.593   0.066  -6.237  1.00  0.00     0.044 C 
BRANCH  72  74
ATOM     74  C   UNL     1      -4.277   2.140  -8.610  1.00  0.00     0.038 C 
ATOM     75  C   UNL     1      -2.790   1.799  -8.774  1.00  0.00     0.015 C 
BRANCH  74  76
ATOM     76  C   UNL     1      -4.762   3.362  -9.443  1.00  0.00     0.128 C 
BRANCH  76  77
ATOM     77  O   UNL     1      -6.189   3.305  -9.612  1.00  0.00    -0.381 OA
ATOM     78  C   UNL     1      -6.662   4.051 -10.725  1.00  0.00     0.195 C 
ENDBRANCH  76  77
BRANCH  76  79
ATOM     79  C   UNL     1      -4.276   4.729  -8.898  1.00  0.00     0.068 C 
BRANCH  79  80
ATOM     80  C   UNL     1      -3.193   5.450  -9.662  1.00  0.00    -0.045 A 
ATOM     81  C   UNL     1      -3.236   5.543 -11.060  1.00  0.00     0.004 A 
ATOM     82  C   UNL     1      -2.106   6.019  -8.982  1.00  0.00     0.004 A 
ATOM     83  C   UNL     1      -2.222   6.200 -11.761  1.00  0.00     0.000 A 
ATOM     84  C   UNL     1      -1.093   6.675  -9.684  1.00  0.00     0.000 A 
ATOM     85  C   UNL     1      -1.152   6.767 -11.072  1.00  0.00     0.000 A 
ENDBRANCH  79  80
ENDBRANCH  76  79
ENDBRANCH  74  76
ENDBRANCH  72  74
ENDBRANCH  70  71
ENDBRANCH   1  69
TORSDOF 17
ENDMDL
MODEL 2
REMARK VINA RESULT:    -5.600      2.965     12.582
REMARK INTER + INTRA:         -25.787
REMARK INTER:                 -19.786
REMARK INTRA:                  -6.001
REMARK UNBOUND:                -9.054
REMARK SMILES C=C1C(=O)N[C@H](C)C(=O)N[C@@H](CC(C)C)C(=O)N[C@@H](C(=O)O)[C@H](C)C(=O)N[C@@H](CCCN=C(N)N)C(=O)N[C@@H](/C=C/C(C)=C/[C@H](C)[C@H](Cc2ccccc2)OC)[C@H](C)C(=O)N[C@@H](C(=O)O)CCC(=O)N1C
REMARK SMILES IDX 39 1 38 2 37 3 36 4 28 6 27 7 25 8 26 9 23 11 24 12 19 13
REMARK SMILES IDX 18 14 16 15 17 16 11 18 10 19 8 20 9 21 12 24 13 25 14 26
REMARK SMILES IDX 15 27 20 28 21 29 22 30 29 32 30 33 31 34 32 35 33 36 34 37
REMARK SMILES IDX 35 38 57 43 58 44 59 45 60 46 61 47 62 49 66 50 67 51 68 52
REMARK SMILES IDX 69 53 70 54 71 55 2 56 1 57 3 58 4 59 5 60 6 62 7 63 63 65
REMARK SMILES IDX 64 66 65 67 40 69 41 70 42 71 44 72 43 73 45 74 46 75 47 76
REMARK SMILES IDX 55 77 56 78 48 79 49 80 50 81 54 82 51 83 53 84 52 85
REMARK H PARENT 38 5 27 10 18 17 10 22 22 31 34 39 34 40 35 41 35 42 61 48
REMARK H PARENT 5 61 65 68
REMARK Flexibility Score:  369.900
ROOT
ATOM      1  C   UNL     1      -7.736   4.374  -3.251  1.00  0.00     0.117 C 
ENDROOT
BRANCH   1   2
ATOM      2  N   UNL     1      -7.083   3.886  -4.467  1.00  0.00    -0.347 N 
ATOM      3  O   UNL     1      -5.068   3.309  -3.530  1.00  0.00    -0.273 OA
ATOM      4  C   UNL     1      -5.829   3.306  -4.492  1.00  0.00     0.243 C 
ATOM      5  H   UNL     1      -7.581   3.921  -5.343  1.00  0.00     0.164 HD
BRANCH   4   6
ATOM      6  C   UNL     1      -5.406   2.796  -5.893  1.00  0.00     0.171 C 
BRANCH   6   7
ATOM      7  N   UNL     1      -5.158   3.929  -6.799  1.00  0.00    -0.344 N 
ATOM      8  C   UNL     1      -6.119   4.330  -7.702  1.00  0.00     0.226 C 
ATOM      9  O   UNL     1      -7.199   3.762  -7.812  1.00  0.00    -0.275 OA
ATOM     10  H   UNL     1      -4.253   4.380  -6.784  1.00  0.00     0.164 HD
BRANCH   8  11
ATOM     11  C   UNL     1      -5.734   5.545  -8.527  1.00  0.00     0.109 C 
ATOM     12  C   UNL     1      -5.254   6.671  -7.611  1.00  0.00     0.021 C 
BRANCH  11  13
ATOM     13  C   UNL     1      -4.736   5.134  -9.627  1.00  0.00     0.204 C 
BRANCH  13  14
ATOM     14  N   UNL     1      -3.445   5.814  -9.484  1.00  0.00    -0.340 N 
ATOM     15  C   UNL     1      -2.696   6.234 -10.561  1.00  0.00     0.243 C 
ATOM     16  O   UNL     1      -3.088   6.122 -11.722  1.00  0.00    -0.273 OA
ATOM     17  H   UNL     1      -2.996   5.802  -8.564  1.00  0.00     0.164 HD
BRANCH  15  18
ATOM     18  C   UNL     1      -1.283   6.735 -10.175  1.00  0.00     0.171 C 
BRANCH  18  19
ATOM     19  N   UNL     1      -0.836   7.604 -11.261  1.00  0.00    -0.343 N 
ATOM     20  C   UNL     1       0.240   7.274 -12.063  1.00  0.00     0.242 CG0
ATOM     21  O   UNL     1       0.951   6.303 -11.818  1.00  0.00    -0.273 OA
ATOM     22  H   UNL     1      -1.321   8.478 -11.431  1.00  0.00     0.164 HD
ATOM     23  G   UNL     1       0.514   8.275 -13.205  1.00  0.00     0.000 G0
ENDBRANCH  18  19
BRANCH  18  24
ATOM     24  C   UNL     1      -1.320   7.482  -8.836  1.00  0.00     0.038 C 
BRANCH  24  25
ATOM     25  C   UNL     1      -1.662   8.983  -8.945  1.00  0.00    -0.015 C 
ATOM     26  C   UNL     1      -0.539   9.878  -8.421  1.00  0.00     0.007 C 
ATOM     27  C   UNL     1      -2.954   9.274  -8.177  1.00  0.00     0.007 C 
ENDBRANCH  24  25
ENDBRANCH  18  24
ENDBRANCH  15  18
ENDBRANCH  13  14
BRANCH  13  28
ATOM     28  C   UNL     1      -4.455   3.628  -9.656  1.00  0.00     0.327 C 
ATOM     29  O   UNL     1      -3.444   3.074  -9.254  1.00  0.00    -0.250 OA
BRANCH  28  30
ATOM     30  O   UNL     1      -5.411   2.924 -10.295  1.00  0.00    -0.480 OA
ATOM     31  H   UNL     1      -5.830   2.390  -9.588  1.00  0.00     0.296 HD
ENDBRANCH  28  30
ENDBRANCH  13  28
ENDBRANCH  11  13
ENDBRANCH   8  11
ENDBRANCH   6   7
BRANCH   6  32
ATOM     32  C   UNL     1      -4.154   1.923  -5.754  1.00  0.00     0.037 C 
BRANCH  32  33
ATOM     33  C   UNL     1      -4.493   0.490  -5.320  1.00  0.00     0.026 C 
BRANCH  33  34
ATOM     34  C   UNL     1      -4.288  -0.526  -6.444  1.00  0.00     0.146 C 
BRANCH  34  35
ATOM     35  N   UNL     1      -4.267   0.180  -7.718  1.00  0.00    -0.254 NA
ATOM     36  C   UNL     1      -3.915  -0.460  -8.770  1.00  0.00     0.185 C 
ATOM     37  N   UNL     1      -3.896   0.180  -9.949  1.00  0.00    -0.370 N 
ATOM     38  N   UNL     1      -3.539  -1.745  -8.890  1.00  0.00    -0.370 N 
ATOM     39  H   UNL     1      -4.178   1.152  -9.943  1.00  0.00     0.159 HD
ATOM     40  H   UNL     1      -3.802  -0.287 -10.834  1.00  0.00     0.159 HD
ATOM     41  H   UNL     1      -3.150  -2.096  -9.750  1.00  0.00     0.159 HD
ATOM     42  H   UNL     1      -3.491  -2.343  -8.080  1.00  0.00     0.159 HD
ENDBRANCH  34  35
ENDBRANCH  33  34
ENDBRANCH  32  33
ENDBRANCH   6  32
ENDBRANCH   4   6
ENDBRANCH   1   2
BRANCH   1  43
ATOM     43  C   UNL     1      -9.198   3.842  -3.227  1.00  0.00     0.102 C 
ATOM     44  C   UNL     1      -9.742   3.484  -4.620  1.00  0.00     0.020 C 
BRANCH  43  45
ATOM     45  C   UNL     1     -10.109   4.776  -2.425  1.00  0.00     0.225 C 
ATOM     46  O   UNL     1     -11.039   5.400  -2.927  1.00  0.00    -0.275 OA
ATOM     47  N   UNL     1      -9.763   4.951  -1.104  1.00  0.00    -0.342 N 
ATOM     48  H   UNL     1      -9.100   4.323  -0.674  1.00  0.00     0.164 HD
BRANCH  47  49
ATOM     49  C   UNL     1     -10.565   5.788  -0.207  1.00  0.00     0.192 C 
BRANCH  49  50
ATOM     50  C   UNL     1      -9.898   7.156  -0.045  1.00  0.00     0.047 C 
BRANCH  50  51
ATOM     51  C   UNL     1     -10.920   8.282   0.159  1.00  0.00     0.103 C 
BRANCH  51  52
ATOM     52  C   UNL     1     -11.242   8.502   1.636  1.00  0.00     0.226 C 
ATOM     53  O   UNL     1     -10.324   8.632   2.448  1.00  0.00    -0.275 OA
BRANCH  52  54
ATOM     54  N   UNL     1     -12.604   8.622   1.969  1.00  0.00    -0.311 N 
ATOM     55  C   UNL     1     -13.304   9.907   1.842  1.00  0.00     0.153 C 
BRANCH  54  56
ATOM     56  C   UNL     1     -13.345   7.520   2.429  1.00  0.00     0.102 C 
ATOM     57  C   UNL     1     -14.278   6.870   1.715  1.00  0.00     0.043 C 
BRANCH  56  58
ATOM     58  C   UNL     1     -13.099   6.939   3.801  1.00  0.00     0.268 C 
ATOM     59  O   UNL     1     -12.541   5.865   3.983  1.00  0.00    -0.268 OA
ATOM     60  N   UNL     1     -13.505   7.767   4.820  1.00  0.00    -0.339 N 
ATOM     61  H   UNL     1     -13.969   8.636   4.585  1.00  0.00     0.164 HD
BRANCH  60  62
ATOM     62  C   UNL     1     -13.304   7.427   6.228  1.00  0.00     0.168 CG0
ATOM     63  C   UNL     1     -12.542   8.529   6.953  1.00  0.00     0.041 C 
ATOM     64  G   UNL     1     -12.554   6.083   6.333  1.00  0.00     0.000 G0
ENDBRANCH  60  62
ENDBRANCH  56  58
ENDBRANCH  54  56
ENDBRANCH  52  54
ENDBRANCH  51  52
ENDBRANCH  50  51
ENDBRANCH  49  50
BRANCH  49  65
ATOM     65  C   UNL     1     -10.733   5.137   1.175  1.00  0.00     0.326 C 
ATOM     66  O   UNL     1      -9.915   5.176   2.083  1.00  0.00    -0.250 OA
BRANCH  65  67
ATOM     67  O   UNL     1     -11.873   4.428   1.330  1.00  0.00    -0.480 OA
ATOM     68  H   UNL     1     -11.872   4.193   2.283  1.00  0.00     0.296 HD
ENDBRANCH  65  67
ENDBRANCH  49  65
ENDBRANCH  47  49
ENDBRANCH  43  45
ENDBRANCH   1  43
BRANCH   1  69
ATOM     69  C   UNL     1      -7.500   5.873  -3.215  1.00  0.00    -0.001 C 
ATOM     70  C   UNL     1      -6.764   6.563  -2.326  1.00  0.00     0.001 C 
BRANCH  70  71
ATOM     71  C   UNL     1      -6.526   8.008  -2.314  1.00  0.00    -0.055 C 
ATOM     72  C   UNL     1      -5.306   8.440  -1.931  1.00  0.00    -0.018 C 
ATOM     73  C   UNL     1      -7.657   8.909  -2.738  1.00  0.00     0.044 C 
BRANCH  72  74
ATOM     74  C   UNL     1      -4.778   9.863  -1.826  1.00  0.00     0.038 C 
ATOM     75  C   UNL     1      -3.800  10.071  -2.989  1.00  0.00     0.015 C 
BRANCH  74  76
ATOM     76  C   UNL     1      -4.161  10.065  -0.411  1.00  0.00     0.128 C 
BRANCH  76  77
ATOM     77  O   UNL     1      -4.987  10.951   0.363  1.00  0.00    -0.381 OA
ATOM     78  C   UNL     1      -5.864  10.278   1.257  1.00  0.00     0.195 C 
ENDBRANCH  76  77
BRANCH  76  79
ATOM     79  C   UNL     1      -3.841   8.743   0.331  1.00  0.00     0.068 C 
BRANCH  79  80
ATOM     80  C   UNL     1      -2.455   8.163   0.177  1.00  0.00    -0.045 A 
ATOM     81  C   UNL     1      -1.418   8.914  -0.393  1.00  0.00     0.004 A 
ATOM     82  C   UNL     1      -2.191   6.846   0.580  1.00  0.00     0.004 A 
ATOM     83  C   UNL     1      -0.143   8.366  -0.545  1.00  0.00     0.000 A 
ATOM     84  C   UNL     1      -0.915   6.298   0.427  1.00  0.00     0.000 A 
ATOM     85  C   UNL     1       0.109   7.059  -0.133  1.00  0.00     0.000 A 
ENDBRANCH  79  80
ENDBRANCH  76  79
ENDBRANCH  74  76
ENDBRANCH  72  74
ENDBRANCH  70  71
ENDBRANCH   1  69
TORSDOF 17
ENDMDL
MODEL 3
REMARK VINA RESULT:    -5.529      1.795      3.192
REMARK INTER + INTRA:         -25.573
REMARK INTER:                 -17.851
REMARK INTRA:                  -7.722
REMARK UNBOUND:                -9.054
REMARK SMILES C=C1C(=O)N[C@H](C)C(=O)N[C@@H](CC(C)C)C(=O)N[C@@H](C(=O)O)[C@H](C)C(=O)N[C@@H](CCCN=C(N)N)C(=O)N[C@@H](/C=C/C(C)=C/[C@H](C)[C@H](Cc2ccccc2)OC)[C@H](C)C(=O)N[C@@H](C(=O)O)CCC(=O)N1C
REMARK SMILES IDX 39 1 38 2 37 3 36 4 28 6 27 7 25 8 26 9 23 11 24 12 19 13
REMARK SMILES IDX 18 14 16 15 17 16 11 18 10 19 8 20 9 21 12 24 13 25 14 26
REMARK SMILES IDX 15 27 20 28 21 29 22 30 29 32 30 33 31 34 32 35 33 36 34 37
REMARK SMILES IDX 35 38 57 43 58 44 59 45 60 46 61 47 62 49 66 50 67 51 68 52
REMARK SMILES IDX 69 53 70 54 71 55 2 56 1 57 3 58 4 59 5 60 6 62 7 63 63 65
REMARK SMILES IDX 64 66 65 67 40 69 41 70 42 71 44 72 43 73 45 74 46 75 47 76
REMARK SMILES IDX 55 77 56 78 48 79 49 80 50 81 54 82 51 83 53 84 52 85
REMARK H PARENT 38 5 27 10 18 17 10 22 22 31 34 39 34 40 35 41 35 42 61 48
REMARK H PARENT 5 61 65 68
REMARK Flexibility Score:  369.900
ROOT
ATOM      1  C   UNL     1      -6.298   3.637  -3.142  1.00  0.00     0.117 C 
ENDROOT
BRANCH   1   2
ATOM      2  N   UNL     1      -7.660   4.137  -2.955  1.00  0.00    -0.347 N 
ATOM      3  O   UNL     1      -8.259   2.769  -1.211  1.00  0.00    -0.273 OA
ATOM      4  C   UNL     1      -8.503   3.725  -1.940  1.00  0.00     0.243 C 
ATOM      5  H   UNL     1      -8.008   4.864  -3.562  1.00  0.00     0.164 HD
BRANCH   4   6
ATOM      6  C   UNL     1      -9.859   4.474  -1.914  1.00  0.00     0.171 C 
BRANCH   6   7
ATOM      7  N   UNL     1      -9.947   5.336  -0.725  1.00  0.00    -0.344 N 
ATOM      8  C   UNL     1     -10.814   5.030   0.303  1.00  0.00     0.226 C 
ATOM      9  O   UNL     1     -11.557   4.057   0.271  1.00  0.00    -0.275 OA
ATOM     10  H   UNL     1      -9.398   6.185  -0.692  1.00  0.00     0.164 HD
BRANCH   8  11
ATOM     11  C   UNL     1     -10.748   5.985   1.482  1.00  0.00     0.109 C 
ATOM     12  C   UNL     1      -9.533   6.903   1.348  1.00  0.00     0.021 C 
BRANCH  11  13
ATOM     13  C   UNL     1     -12.098   6.714   1.638  1.00  0.00     0.204 C 
BRANCH  13  14
ATOM     14  N   UNL     1     -12.499   6.837   3.042  1.00  0.00    -0.340 N 
ATOM     15  C   UNL     1     -13.492   6.066   3.607  1.00  0.00     0.243 C 
ATOM     16  O   UNL     1     -14.070   5.176   2.987  1.00  0.00    -0.273 OA
ATOM     17  H   UNL     1     -12.169   7.652   3.567  1.00  0.00     0.164 HD
BRANCH  15  18
ATOM     18  C   UNL     1     -13.885   6.514   5.037  1.00  0.00     0.171 C 
BRANCH  18  19
ATOM     19  N   UNL     1     -14.079   5.295   5.819  1.00  0.00    -0.343 N 
ATOM     20  C   UNL     1     -15.339   4.802   6.099  1.00  0.00     0.242 CG0
ATOM     21  O   UNL     1     -16.354   5.436   5.820  1.00  0.00    -0.273 OA
ATOM     22  H   UNL     1     -13.270   4.796   6.172  1.00  0.00     0.164 HD
ATOM     23  G   UNL     1     -15.343   3.464   6.868  1.00  0.00     0.000 G0
ENDBRANCH  18  19
BRANCH  18  24
ATOM     24  C   UNL     1     -12.793   7.403   5.645  1.00  0.00     0.038 C 
BRANCH  24  25
ATOM     25  C   UNL     1     -13.288   8.773   6.156  1.00  0.00    -0.015 C 
ATOM     26  C   UNL     1     -13.745   9.690   5.021  1.00  0.00     0.007 C 
ATOM     27  C   UNL     1     -12.176   9.457   6.955  1.00  0.00     0.007 C 
ENDBRANCH  24  25
ENDBRANCH  18  24
ENDBRANCH  15  18
ENDBRANCH  13  14
BRANCH  13  28
ATOM     28  C   UNL     1     -12.093   8.125   1.041  1.00  0.00     0.327 C 
ATOM     29  O   UNL     1     -12.119   8.407  -0.147  1.00  0.00    -0.250 OA
BRANCH  28  30
ATOM     30  O   UNL     1     -11.938   9.091   1.969  1.00  0.00    -0.480 OA
ATOM     31  H   UNL     1     -11.165   9.605   1.655  1.00  0.00     0.296 HD
ENDBRANCH  28  30
ENDBRANCH  13  28
ENDBRANCH  11  13
ENDBRANCH   8  11
ENDBRANCH   6   7
BRANCH   6  32
ATOM     32  C   UNL     1     -10.005   5.297  -3.199  1.00  0.00     0.037 C 
BRANCH  32  33
ATOM     33  C   UNL     1     -10.643   4.487  -4.336  1.00  0.00     0.026 C 
BRANCH  33  34
ATOM     34  C   UNL     1     -11.965   3.840  -3.923  1.00  0.00     0.146 C 
BRANCH  34  35
ATOM     35  N   UNL     1     -11.910   2.418  -4.235  1.00  0.00    -0.254 NA
ATOM     36  C   UNL     1     -11.824   1.580  -3.270  1.00  0.00     0.185 C 
ATOM     37  N   UNL     1     -11.777   0.268  -3.546  1.00  0.00    -0.370 N 
ATOM     38  N   UNL     1     -11.771   1.817  -1.947  1.00  0.00    -0.370 N 
ATOM     39  H   UNL     1     -11.823   0.007  -4.523  1.00  0.00     0.159 HD
ATOM     40  H   UNL     1     -11.885  -0.451  -2.851  1.00  0.00     0.159 HD
ATOM     41  H   UNL     1     -11.564   1.080  -1.294  1.00  0.00     0.159 HD
ATOM     42  H   UNL     1     -11.781   2.762  -1.595  1.00  0.00     0.159 HD
ENDBRANCH  34  35
ENDBRANCH  33  34
ENDBRANCH  32  33
ENDBRANCH   6  32
ENDBRANCH   4   6
ENDBRANCH   1   2
BRANCH   1  43
ATOM     43  C   UNL     1      -5.298   4.728  -2.662  1.00  0.00     0.102 C 
ATOM     44  C   UNL     1      -4.663   4.418  -1.296  1.00  0.00     0.020 C 
BRANCH  43  45
ATOM     45  C   UNL     1      -5.923   6.124  -2.754  1.00  0.00     0.225 C 
ATOM     46  O   UNL     1      -6.581   6.626  -1.847  1.00  0.00    -0.275 OA
ATOM     47  N   UNL     1      -5.780   6.758  -3.967  1.00  0.00    -0.342 N 
ATOM     48  H   UNL     1      -5.116   6.404  -4.641  1.00  0.00     0.164 HD
BRANCH  47  49
ATOM     49  C   UNL     1      -6.295   8.112  -4.189  1.00  0.00     0.192 C 
BRANCH  49  50
ATOM     50  C   UNL     1      -6.342   8.404  -5.691  1.00  0.00     0.047 C 
BRANCH  50  51
ATOM     51  C   UNL     1      -5.423   7.475  -6.495  1.00  0.00     0.103 C 
BRANCH  51  52
ATOM     52  C   UNL     1      -5.290   7.917  -7.951  1.00  0.00     0.226 C 
ATOM     53  O   UNL     1      -6.093   7.502  -8.789  1.00  0.00    -0.275 OA
BRANCH  52  54
ATOM     54  N   UNL     1      -4.278   8.853  -8.232  1.00  0.00    -0.311 N 
ATOM     55  C   UNL     1      -4.583  10.287  -8.337  1.00  0.00     0.153 C 
BRANCH  54  56
ATOM     56  C   UNL     1      -2.944   8.456  -8.415  1.00  0.00     0.102 C 
ATOM     57  C   UNL     1      -1.900   8.919  -7.708  1.00  0.00     0.043 C 
BRANCH  56  58
ATOM     58  C   UNL     1      -2.582   7.402  -9.436  1.00  0.00     0.268 C 
ATOM     59  O   UNL     1      -1.903   6.419  -9.171  1.00  0.00    -0.268 OA
ATOM     60  N   UNL     1      -3.147   7.627 -10.668  1.00  0.00    -0.339 N 
ATOM     61  H   UNL     1      -3.689   8.472 -10.809  1.00  0.00     0.164 HD
BRANCH  60  62
ATOM     62  C   UNL     1      -2.978   6.698 -11.784  1.00  0.00     0.168 CG0
ATOM     63  C   UNL     1      -3.164   7.407 -13.120  1.00  0.00     0.041 C 
ATOM     64  G   UNL     1      -3.977   5.531 -11.641  1.00  0.00     0.000 G0
ENDBRANCH  60  62
ENDBRANCH  56  58
ENDBRANCH  54  56
ENDBRANCH  52  54
ENDBRANCH  51  52
ENDBRANCH  50  51
ENDBRANCH  49  50
BRANCH  49  65
ATOM     65  C   UNL     1      -5.426   9.170  -3.492  1.00  0.00     0.326 C 
ATOM     66  O   UNL     1      -5.780   9.881  -2.562  1.00  0.00    -0.250 OA
BRANCH  65  67
ATOM     67  O   UNL     1      -4.194   9.328  -4.025  1.00  0.00    -0.480 OA
ATOM     68  H   UNL     1      -3.657   8.640  -3.575  1.00  0.00     0.296 HD
ENDBRANCH  65  67
ENDBRANCH  49  65
ENDBRANCH  47  49
ENDBRANCH  43  45
ENDBRANCH   1  43
BRANCH   1  69
ATOM     69  C   UNL     1      -6.218   3.151  -4.578  1.00  0.00    -0.001 C 
ATOM     70  C   UNL     1      -5.136   3.131  -5.375  1.00  0.00     0.001 C 
BRANCH  70  71
ATOM     71  C   UNL     1      -5.067   2.639  -6.753  1.00  0.00    -0.055 C 
ATOM     72  C   UNL     1      -5.375   3.503  -7.743  1.00  0.00    -0.018 C 
ATOM     73  C   UNL     1      -4.649   1.208  -6.967  1.00  0.00     0.044 C 
BRANCH  72  74
ATOM     74  C   UNL     1      -5.387   3.277  -9.248  1.00  0.00     0.038 C 
ATOM     75  C   UNL     1      -4.010   3.690  -9.780  1.00  0.00     0.015 C 
BRANCH  74  76
ATOM     76  C   UNL     1      -6.586   4.059  -9.862  1.00  0.00     0.128 C 
BRANCH  76  77
ATOM     77  O   UNL     1      -6.711   3.747 -11.260  1.00  0.00    -0.381 OA
ATOM     78  C   UNL     1      -6.925   4.887 -12.082  1.00  0.00     0.195 C 
ENDBRANCH  76  77
BRANCH  76  79
ATOM     79  C   UNL     1      -7.916   3.882  -9.087  1.00  0.00     0.068 C 
BRANCH  79  80
ATOM     80  C   UNL     1      -8.604   5.123  -8.570  1.00  0.00    -0.045 A 
ATOM     81  C   UNL     1      -8.522   5.483  -7.219  1.00  0.00     0.004 A 
ATOM     82  C   UNL     1      -9.363   5.923  -9.437  1.00  0.00     0.004 A 
ATOM     83  C   UNL     1      -9.173   6.625  -6.746  1.00  0.00     0.000 A 
ATOM     84  C   UNL     1     -10.014   7.064  -8.963  1.00  0.00     0.000 A 
ATOM     85  C   UNL     1      -9.917   7.415  -7.618  1.00  0.00     0.000 A 
ENDBRANCH  79  80
ENDBRANCH  76  79
ENDBRANCH  74  76
ENDBRANCH  72  74
ENDBRANCH  70  71
ENDBRANCH   1  69
TORSDOF 17
ENDMDL
MODEL 4
REMARK VINA RESULT:    -5.475      3.134     11.867
REMARK INTER + INTRA:         -25.411
REMARK INTER:                 -17.527
REMARK INTRA:                  -7.885
REMARK UNBOUND:                -9.054
REMARK SMILES C=C1C(=O)N[C@H](C)C(=O)N[C@@H](CC(C)C)C(=O)N[C@@H](C(=O)O)[C@H](C)C(=O)N[C@@H](CCCN=C(N)N)C(=O)N[C@@H](/C=C/C(C)=C/[C@H](C)[C@H](Cc2ccccc2)OC)[C@H](C)C(=O)N[C@@H](C(=O)O)CCC(=O)N1C
REMARK SMILES IDX 39 1 38 2 37 3 36 4 28 6 27 7 25 8 26 9 23 11 24 12 19 13
REMARK SMILES IDX 18 14 16 15 17 16 11 18 10 19 8 20 9 21 12 24 13 25 14 26
REMARK SMILES IDX 15 27 20 28 21 29 22 30 29 32 30 33 31 34 32 35 33 36 34 37
REMARK SMILES IDX 35 38 57 43 58 44 59 45 60 46 61 47 62 49 66 50 67 51 68 52
REMARK SMILES IDX 69 53 70 54 71 55 2 56 1 57 3 58 4 59 5 60 6 62 7 63 63 65
REMARK SMILES IDX 64 66 65 67 40 69 41 70 42 71 44 72 43 73 45 74 46 75 47 76
REMARK SMILES IDX 55 77 56 78 48 79 49 80 50 81 54 82 51 83 53 84 52 85
REMARK H PARENT 38 5 27 10 18 17 10 22 22 31 34 39 34 40 35 41 35 42 61 48
REMARK H PARENT 5 61 65 68
REMARK Flexibility Score:  369.900
ROOT
ATOM      1  C   UNL     1      -5.736   5.088  -1.963  1.00  0.00     0.117 C 
ENDROOT
BRANCH   1   2
ATOM      2  N   UNL     1      -6.707   5.481  -2.985  1.00  0.00    -0.347 N 
ATOM      3  O   UNL     1      -5.516   4.803  -4.826  1.00  0.00    -0.273 OA
ATOM      4  C   UNL     1      -6.558   5.223  -4.334  1.00  0.00     0.243 C 
ATOM      5  H   UNL     1      -7.568   5.926  -2.704  1.00  0.00     0.164 HD
BRANCH   4   6
ATOM      6  C   UNL     1      -7.770   5.666  -5.191  1.00  0.00     0.171 C 
BRANCH   6   7
ATOM      7  N   UNL     1      -7.791   4.937  -6.469  1.00  0.00    -0.344 N 
ATOM      8  C   UNL     1      -7.584   5.599  -7.660  1.00  0.00     0.226 C 
ATOM      9  O   UNL     1      -7.399   6.809  -7.719  1.00  0.00    -0.275 OA
ATOM     10  H   UNL     1      -8.007   3.948  -6.467  1.00  0.00     0.164 HD
BRANCH   8  11
ATOM     11  C   UNL     1      -7.580   4.700  -8.884  1.00  0.00     0.109 C 
ATOM     12  C   UNL     1      -8.960   4.071  -9.078  1.00  0.00     0.021 C 
BRANCH  11  13
ATOM     13  C   UNL     1      -7.046   5.480 -10.102  1.00  0.00     0.204 C 
BRANCH  13  14
ATOM     14  N   UNL     1      -5.652   5.897  -9.922  1.00  0.00    -0.340 N 
ATOM     15  C   UNL     1      -5.199   7.156 -10.250  1.00  0.00     0.243 C 
ATOM     16  O   UNL     1      -5.948   8.041 -10.662  1.00  0.00    -0.273 OA
ATOM     17  H   UNL     1      -4.955   5.172  -9.731  1.00  0.00     0.164 HD
BRANCH  15  18
ATOM     18  C   UNL     1      -3.660   7.300 -10.171  1.00  0.00     0.171 C 
BRANCH  18  19
ATOM     19  N   UNL     1      -3.155   7.153 -11.535  1.00  0.00    -0.343 N 
ATOM     20  C   UNL     1      -3.117   5.927 -12.170  1.00  0.00     0.242 CG0
ATOM     21  O   UNL     1      -3.379   4.885 -11.574  1.00  0.00    -0.273 OA
ATOM     22  H   UNL     1      -2.817   7.970 -12.031  1.00  0.00     0.164 HD
ATOM     23  G   UNL     1      -2.627   5.982 -13.632  1.00  0.00     0.000 G0
ENDBRANCH  18  19
BRANCH  18  24
ATOM     24  C   UNL     1      -3.273   8.658  -9.572  1.00  0.00     0.038 C 
BRANCH  24  25
ATOM     25  C   UNL     1      -1.912   8.676  -8.843  1.00  0.00    -0.015 C 
ATOM     26  C   UNL     1      -0.913   9.633  -9.494  1.00  0.00     0.007 C 
ATOM     27  C   UNL     1      -1.326   7.263  -8.811  1.00  0.00     0.007 C 
ENDBRANCH  24  25
ENDBRANCH  18  24
ENDBRANCH  15  18
ENDBRANCH  13  14
BRANCH  13  28
ATOM     28  C   UNL     1      -7.116   4.681 -11.407  1.00  0.00     0.327 C 
ATOM     29  O   UNL     1      -7.939   4.825 -12.299  1.00  0.00    -0.250 OA
BRANCH  28  30
ATOM     30  O   UNL     1      -6.222   3.673 -11.459  1.00  0.00    -0.480 OA
ATOM     31  H   UNL     1      -6.769   2.873 -11.604  1.00  0.00     0.296 HD
ENDBRANCH  28  30
ENDBRANCH  13  28
ENDBRANCH  11  13
ENDBRANCH   8  11
ENDBRANCH   6   7
BRANCH   6  32
ATOM     32  C   UNL     1      -9.061   5.423  -4.402  1.00  0.00     0.037 C 
BRANCH  32  33
ATOM     33  C   UNL     1      -9.799   4.162  -4.872  1.00  0.00     0.026 C 
BRANCH  33  34
ATOM     34  C   UNL     1     -11.044   3.866  -4.035  1.00  0.00     0.146 C 
BRANCH  34  35
ATOM     35  N   UNL     1     -11.465   2.495  -4.288  1.00  0.00    -0.254 NA
ATOM     36  C   UNL     1     -11.429   1.653  -3.323  1.00  0.00     0.185 C 
ATOM     37  N   UNL     1     -11.819   0.388  -3.543  1.00  0.00    -0.370 N 
ATOM     38  N   UNL     1     -11.041   1.844  -2.049  1.00  0.00    -0.370 N 
ATOM     39  H   UNL     1     -12.137   0.167  -4.478  1.00  0.00     0.159 HD
ATOM     40  H   UNL     1     -11.985  -0.279  -2.809  1.00  0.00     0.159 HD
ATOM     41  H   UNL     1     -10.925   1.068  -1.418  1.00  0.00     0.159 HD
ATOM     42  H   UNL     1     -10.707   2.745  -1.745  1.00  0.00     0.159 HD
ENDBRANCH  34  35
ENDBRANCH  33  34
ENDBRANCH  32  33
ENDBRANCH   6  32
ENDBRANCH   4   6
ENDBRANCH   1   2
BRANCH   1  43
ATOM     43  C   UNL     1      -6.341   3.923  -1.128  1.00  0.00     0.102 C 
ATOM     44  C   UNL     1      -5.684   2.561  -1.413  1.00  0.00     0.020 C 
BRANCH  43  45
ATOM     45  C   UNL     1      -7.869   3.908  -1.229  1.00  0.00     0.225 C 
ATOM     46  O   UNL     1      -8.486   3.143  -1.964  1.00  0.00    -0.275 OA
ATOM     47  N   UNL     1      -8.519   4.882  -0.505  1.00  0.00    -0.342 N 
ATOM     48  H   UNL     1      -8.017   5.397   0.203  1.00  0.00     0.164 HD
BRANCH  47  49
ATOM     49  C   UNL     1      -9.983   4.967  -0.478  1.00  0.00     0.192 C 
BRANCH  49  50
ATOM     50  C   UNL     1     -10.436   6.260  -1.161  1.00  0.00     0.047 C 
BRANCH  50  51
ATOM     51  C   UNL     1      -9.406   7.388  -1.013  1.00  0.00     0.103 C 
BRANCH  51  52
ATOM     52  C   UNL     1      -9.659   8.235   0.232  1.00  0.00     0.226 C 
ATOM     53  O   UNL     1      -8.779   8.338   1.090  1.00  0.00    -0.275 OA
BRANCH  52  54
ATOM     54  N   UNL     1     -10.885   8.923   0.284  1.00  0.00    -0.311 N 
ATOM     55  C   UNL     1     -11.074  10.189  -0.437  1.00  0.00     0.153 C 
BRANCH  54  56
ATOM     56  C   UNL     1     -11.974   8.424   1.018  1.00  0.00     0.102 C 
ATOM     57  C   UNL     1     -13.162   8.079   0.494  1.00  0.00     0.043 C 
BRANCH  56  58
ATOM     58  C   UNL     1     -11.862   8.189   2.506  1.00  0.00     0.268 C 
ATOM     59  O   UNL     1     -11.330   8.981   3.271  1.00  0.00    -0.268 OA
ATOM     60  N   UNL     1     -12.476   7.030   2.918  1.00  0.00    -0.339 N 
ATOM     61  H   UNL     1     -12.886   6.421   2.219  1.00  0.00     0.164 HD
BRANCH  60  62
ATOM     62  C   UNL     1     -12.542   6.640   4.326  1.00  0.00     0.168 CG0
ATOM     63  C   UNL     1     -13.587   5.553   4.544  1.00  0.00     0.041 C 
ATOM     64  G   UNL     1     -12.853   7.879   5.191  1.00  0.00     0.000 G0
ENDBRANCH  60  62
ENDBRANCH  56  58
ENDBRANCH  54  56
ENDBRANCH  52  54
ENDBRANCH  51  52
ENDBRANCH  50  51
ENDBRANCH  49  50
BRANCH  49  65
ATOM     65  C   UNL     1     -10.526   4.933   0.959  1.00  0.00     0.326 C 
ATOM     66  O   UNL     1      -9.880   5.176   1.968  1.00  0.00    -0.250 OA
BRANCH  65  67
ATOM     67  O   UNL     1     -11.815   4.544   1.066  1.00  0.00    -0.480 OA
ATOM     68  H   UNL     1     -11.772   3.756   1.649  1.00  0.00     0.296 HD
ENDBRANCH  65  67
ENDBRANCH  49  65
ENDBRANCH  47  49
ENDBRANCH  43  45
ENDBRANCH   1  43
BRANCH   1  69
ATOM     69  C   UNL     1      -5.329   6.366  -1.251  1.00  0.00    -0.001 C 
ATOM     70  C   UNL     1      -5.678   6.758  -0.013  1.00  0.00     0.001 C 
BRANCH  70  71
ATOM     71  C   UNL     1      -5.261   7.984   0.671  1.00  0.00    -0.055 C 
ATOM     72  C   UNL     1      -4.798   9.000  -0.087  1.00  0.00    -0.018 C 
ATOM     73  C   UNL     1      -5.386   8.027   2.172  1.00  0.00     0.044 C 
BRANCH  72  74
ATOM     74  C   UNL     1      -4.304  10.374   0.341  1.00  0.00     0.038 C 
ATOM     75  C   UNL     1      -5.014  11.406  -0.543  1.00  0.00     0.015 C 
BRANCH  74  76
ATOM     76  C   UNL     1      -2.750  10.397   0.253  1.00  0.00     0.128 C 
BRANCH  76  77
ATOM     77  O   UNL     1      -2.182  10.359   1.573  1.00  0.00    -0.381 OA
ATOM     78  C   UNL     1      -2.615  11.422   2.412  1.00  0.00     0.195 C 
ENDBRANCH  76  77
BRANCH  76  79
ATOM     79  C   UNL     1      -2.156   9.317  -0.686  1.00  0.00     0.068 C 
BRANCH  79  80
ATOM     80  C   UNL     1      -1.178   8.329  -0.098  1.00  0.00    -0.045 A 
ATOM     81  C   UNL     1       0.204   8.551  -0.170  1.00  0.00     0.004 A 
ATOM     82  C   UNL     1      -1.640   7.152   0.510  1.00  0.00     0.004 A 
ATOM     83  C   UNL     1       1.103   7.625   0.365  1.00  0.00     0.000 A 
ATOM     84  C   UNL     1      -0.740   6.226   1.043  1.00  0.00     0.000 A 
ATOM     85  C   UNL     1       0.630   6.464   0.972  1.00  0.00     0.000 A 
ENDBRANCH  79  80
ENDBRANCH  76  79
ENDBRANCH  74  76
ENDBRANCH  72  74
ENDBRANCH  70  71
ENDBRANCH   1  69
TORSDOF 17
ENDMDL
MODEL 5
REMARK VINA RESULT:    -5.366      2.076      3.405
REMARK INTER + INTRA:         -25.085
REMARK INTER:                 -17.859
REMARK INTRA:                  -7.227
REMARK UNBOUND:                -9.054
REMARK SMILES C=C1C(=O)N[C@H](C)C(=O)N[C@@H](CC(C)C)C(=O)N[C@@H](C(=O)O)[C@H](C)C(=O)N[C@@H](CCCN=C(N)N)C(=O)N[C@@H](/C=C/C(C)=C/[C@H](C)[C@H](Cc2ccccc2)OC)[C@H](C)C(=O)N[C@@H](C(=O)O)CCC(=O)N1C
REMARK SMILES IDX 39 1 38 2 37 3 36 4 28 6 27 7 25 8 26 9 23 11 24 12 19 13
REMARK SMILES IDX 18 14 16 15 17 16 11 18 10 19 8 20 9 21 12 24 13 25 14 26
REMARK SMILES IDX 15 27 20 28 21 29 22 30 29 32 30 33 31 34 32 35 33 36 34 37
REMARK SMILES IDX 35 38 57 43 58 44 59 45 60 46 61 47 62 49 66 50 67 51 68 52
REMARK SMILES IDX 69 53 70 54 71 55 2 56 1 57 3 58 4 59 5 60 6 62 7 63 63 65
REMARK SMILES IDX 64 66 65 67 40 69 41 70 42 71 44 72 43 73 45 74 46 75 47 76
REMARK SMILES IDX 55 77 56 78 48 79 49 80 50 81 54 82 51 83 53 84 52 85
REMARK H PARENT 38 5 27 10 18 17 10 22 22 31 34 39 34 40 35 41 35 42 61 48
REMARK H PARENT 5 61 65 68
REMARK Flexibility Score:  369.900
ROOT
ATOM      1  C   UNL     1      -5.973   6.076  -3.640  1.00  0.00     0.117 C 
ENDROOT
BRANCH   1   2
ATOM      2  N   UNL     1      -7.364   5.836  -3.254  1.00  0.00    -0.347 N 
ATOM      3  O   UNL     1      -6.962   4.371  -1.533  1.00  0.00    -0.273 OA
ATOM      4  C   UNL     1      -7.744   5.071  -2.168  1.00  0.00     0.243 C 
ATOM      5  H   UNL     1      -8.105   6.288  -3.768  1.00  0.00     0.164 HD
BRANCH   4   6
ATOM      6  C   UNL     1      -9.274   5.048  -1.927  1.00  0.00     0.171 C 
BRANCH   6   7
ATOM      7  N   UNL     1      -9.597   5.635  -0.616  1.00  0.00    -0.344 N 
ATOM      8  C   UNL     1     -10.604   5.105   0.162  1.00  0.00     0.226 C 
ATOM      9  O   UNL     1     -11.285   4.153  -0.199  1.00  0.00    -0.275 OA
ATOM     10  H   UNL     1      -9.101   6.464  -0.314  1.00  0.00     0.164 HD
BRANCH   8  11
ATOM     11  C   UNL     1     -10.778   5.786   1.508  1.00  0.00     0.109 C 
ATOM     12  C   UNL     1      -9.734   6.889   1.678  1.00  0.00     0.021 C 
BRANCH  11  13
ATOM     13  C   UNL     1     -12.240   6.246   1.674  1.00  0.00     0.204 C 
BRANCH  13  14
ATOM     14  N   UNL     1     -12.599   6.446   3.082  1.00  0.00    -0.340 N 
ATOM     15  C   UNL     1     -13.788   6.004   3.621  1.00  0.00     0.243 C 
ATOM     16  O   UNL     1     -14.607   5.357   2.972  1.00  0.00    -0.273 OA
ATOM     17  H   UNL     1     -12.038   7.102   3.632  1.00  0.00     0.164 HD
BRANCH  15  18
ATOM     18  C   UNL     1     -14.038   6.508   5.064  1.00  0.00     0.171 C 
BRANCH  18  19
ATOM     19  N   UNL     1     -14.192   5.321   5.901  1.00  0.00    -0.343 N 
ATOM     20  C   UNL     1     -15.435   4.799   6.205  1.00  0.00     0.242 CG0
ATOM     21  O   UNL     1     -16.471   5.383   5.896  1.00  0.00    -0.273 OA
ATOM     22  H   UNL     1     -13.367   4.867   6.278  1.00  0.00     0.164 HD
ATOM     23  G   UNL     1     -15.395   3.499   7.034  1.00  0.00     0.000 G0
ENDBRANCH  18  19
BRANCH  18  24
ATOM     24  C   UNL     1     -12.874   7.385   5.540  1.00  0.00     0.038 C 
BRANCH  24  25
ATOM     25  C   UNL     1     -13.290   8.763   6.096  1.00  0.00    -0.015 C 
ATOM     26  C   UNL     1     -13.654   9.755   4.991  1.00  0.00     0.007 C 
ATOM     27  C   UNL     1     -12.158   9.337   6.952  1.00  0.00     0.007 C 
ENDBRANCH  24  25
ENDBRANCH  18  24
ENDBRANCH  15  18
ENDBRANCH  13  14
BRANCH  13  28
ATOM     28  C   UNL     1     -12.549   7.553   0.938  1.00  0.00     0.327 C 
ATOM     29  O   UNL     1     -12.630   7.699  -0.272  1.00  0.00    -0.250 OA
BRANCH  28  30
ATOM     30  O   UNL     1     -12.620   8.620   1.760  1.00  0.00    -0.480 OA
ATOM     31  H   UNL     1     -12.516   8.240   2.657  1.00  0.00     0.296 HD
ENDBRANCH  28  30
ENDBRANCH  13  28
ENDBRANCH  11  13
ENDBRANCH   8  11
ENDBRANCH   6   7
BRANCH   6  32
ATOM     32  C   UNL     1      -9.973   5.814  -3.056  1.00  0.00     0.037 C 
BRANCH  32  33
ATOM     33  C   UNL     1     -10.998   4.944  -3.797  1.00  0.00     0.026 C 
BRANCH  33  34
ATOM     34  C   UNL     1     -10.519   3.504  -3.983  1.00  0.00     0.146 C 
BRANCH  34  35
ATOM     35  N   UNL     1     -11.669   2.613  -3.913  1.00  0.00    -0.254 NA
ATOM     36  C   UNL     1     -11.817   1.882  -2.871  1.00  0.00     0.185 C 
ATOM     37  N   UNL     1     -12.876   1.062  -2.794  1.00  0.00    -0.370 N 
ATOM     38  N   UNL     1     -11.038   1.801  -1.778  1.00  0.00    -0.370 N 
ATOM     39  H   UNL     1     -13.518   1.073  -3.577  1.00  0.00     0.159 HD
ATOM     40  H   UNL     1     -13.156   0.592  -1.950  1.00  0.00     0.159 HD
ATOM     41  H   UNL     1     -11.185   1.085  -1.086  1.00  0.00     0.159 HD
ATOM     42  H   UNL     1     -10.197   2.352  -1.706  1.00  0.00     0.159 HD
ENDBRANCH  34  35
ENDBRANCH  33  34
ENDBRANCH  32  33
ENDBRANCH   6  32
ENDBRANCH   4   6
ENDBRANCH   1   2
BRANCH   1  43
ATOM     43  C   UNL     1      -5.791   7.596  -3.919  1.00  0.00     0.102 C 
ATOM     44  C   UNL     1      -6.109   8.483  -2.704  1.00  0.00     0.020 C 
BRANCH  43  45
ATOM     45  C   UNL     1      -6.521   8.011  -5.200  1.00  0.00     0.225 C 
ATOM     46  O   UNL     1      -7.734   7.895  -5.349  1.00  0.00    -0.275 OA
ATOM     47  N   UNL     1      -5.714   8.443  -6.228  1.00  0.00    -0.342 N 
ATOM     48  H   UNL     1      -4.749   8.675  -6.042  1.00  0.00     0.164 HD
BRANCH  47  49
ATOM     49  C   UNL     1      -6.276   8.906  -7.500  1.00  0.00     0.192 C 
BRANCH  49  50
ATOM     50  C   UNL     1      -5.633   8.137  -8.657  1.00  0.00     0.047 C 
BRANCH  50  51
ATOM     51  C   UNL     1      -6.353   6.814  -8.948  1.00  0.00     0.103 C 
BRANCH  51  52
ATOM     52  C   UNL     1      -7.594   7.014  -9.816  1.00  0.00     0.226 C 
ATOM     53  O   UNL     1      -8.542   7.670  -9.381  1.00  0.00    -0.275 OA
BRANCH  52  54
ATOM     54  N   UNL     1      -7.540   6.486 -11.119  1.00  0.00    -0.311 N 
ATOM     55  C   UNL     1      -7.047   5.124 -11.363  1.00  0.00     0.153 C 
BRANCH  54  56
ATOM     56  C   UNL     1      -7.959   7.235 -12.231  1.00  0.00     0.102 C 
ATOM     57  C   UNL     1      -9.092   7.020 -12.920  1.00  0.00     0.043 C 
BRANCH  56  58
ATOM     58  C   UNL     1      -7.151   8.413 -12.721  1.00  0.00     0.268 C 
ATOM     59  O   UNL     1      -7.647   9.496 -13.000  1.00  0.00    -0.268 OA
ATOM     60  N   UNL     1      -5.799   8.164 -12.758  1.00  0.00    -0.339 N 
ATOM     61  H   UNL     1      -5.469   7.236 -12.521  1.00  0.00     0.164 HD
BRANCH  60  62
ATOM     62  C   UNL     1      -4.828   9.187 -13.142  1.00  0.00     0.168 CG0
ATOM     63  C   UNL     1      -4.346   9.968 -11.926  1.00  0.00     0.041 C 
ATOM     64  G   UNL     1      -5.460  10.134 -14.183  1.00  0.00     0.000 G0
ENDBRANCH  60  62
ENDBRANCH  56  58
ENDBRANCH  54  56
ENDBRANCH  52  54
ENDBRANCH  51  52
ENDBRANCH  50  51
ENDBRANCH  49  50
BRANCH  49  65
ATOM     65  C   UNL     1      -6.053  10.413  -7.704  1.00  0.00     0.326 C 
ATOM     66  O   UNL     1      -5.591  10.933  -8.709  1.00  0.00    -0.250 OA
BRANCH  65  67
ATOM     67  O   UNL     1      -6.357  11.177  -6.632  1.00  0.00    -0.480 OA
ATOM     68  H   UNL     1      -6.285  10.555  -5.876  1.00  0.00     0.296 HD
ENDBRANCH  65  67
ENDBRANCH  49  65
ENDBRANCH  47  49
ENDBRANCH  43  45
ENDBRANCH   1  43
BRANCH   1  69
ATOM     69  C   UNL     1      -5.664   5.085  -4.748  1.00  0.00    -0.001 C 
ATOM     70  C   UNL     1      -6.508   4.617  -5.684  1.00  0.00     0.001 C 
BRANCH  70  71
ATOM     71  C   UNL     1      -6.193   3.676  -6.761  1.00  0.00    -0.055 C 
ATOM     72  C   UNL     1      -5.157   2.832  -6.574  1.00  0.00    -0.018 C 
ATOM     73  C   UNL     1      -7.052   3.712  -7.998  1.00  0.00     0.044 C 
BRANCH  72  74
ATOM     74  C   UNL     1      -4.608   1.760  -7.504  1.00  0.00     0.038 C 
ATOM     75  C   UNL     1      -4.175   0.578  -6.628  1.00  0.00     0.015 C 
BRANCH  74  76
ATOM     76  C   UNL     1      -3.472   2.381  -8.370  1.00  0.00     0.128 C 
BRANCH  76  77
ATOM     77  O   UNL     1      -2.415   1.424  -8.553  1.00  0.00    -0.381 OA
ATOM     78  C   UNL     1      -2.415   0.813  -9.837  1.00  0.00     0.195 C 
ENDBRANCH  76  77
BRANCH  76  79
ATOM     79  C   UNL     1      -3.963   2.996  -9.705  1.00  0.00     0.068 C 
BRANCH  79  80
ATOM     80  C   UNL     1      -3.438   4.358 -10.091  1.00  0.00    -0.045 A 
ATOM     81  C   UNL     1      -2.878   5.214  -9.133  1.00  0.00     0.004 A 
ATOM     82  C   UNL     1      -3.530   4.801 -11.419  1.00  0.00     0.004 A 
ATOM     83  C   UNL     1      -2.408   6.478  -9.496  1.00  0.00     0.000 A 
ATOM     84  C   UNL     1      -3.060   6.065 -11.781  1.00  0.00     0.000 A 
ATOM     85  C   UNL     1      -2.498   6.902 -10.820  1.00  0.00     0.000 A 
ENDBRANCH  79  80
ENDBRANCH  76  79
ENDBRANCH  74  76
ENDBRANCH  72  74
ENDBRANCH  70  71
ENDBRANCH   1  69
TORSDOF 17
ENDMDL
MODEL 6
REMARK VINA RESULT:    -5.181     13.746     19.894
REMARK INTER + INTRA:         -24.533
REMARK INTER:                 -16.720
REMARK INTRA:                  -7.813
REMARK UNBOUND:                -9.054
REMARK SMILES C=C1C(=O)N[C@H](C)C(=O)N[C@@H](CC(C)C)C(=O)N[C@@H](C(=O)O)[C@H](C)C(=O)N[C@@H](CCCN=C(N)N)C(=O)N[C@@H](/C=C/C(C)=C/[C@H](C)[C@H](Cc2ccccc2)OC)[C@H](C)C(=O)N[C@@H](C(=O)O)CCC(=O)N1C
REMARK SMILES IDX 39 1 38 2 37 3 36 4 28 6 27 7 25 8 26 9 23 11 24 12 19 13
REMARK SMILES IDX 18 14 16 15 17 16 11 18 10 19 8 20 9 21 12 24 13 25 14 26
REMARK SMILES IDX 15 27 20 28 21 29 22 30 29 32 30 33 31 34 32 35 33 36 34 37
REMARK SMILES IDX 35 38 57 43 58 44 59 45 60 46 61 47 62 49 66 50 67 51 68 52
REMARK SMILES IDX 69 53 70 54 71 55 2 56 1 57 3 58 4 59 5 60 6 62 7 63 63 65
REMARK SMILES IDX 64 66 65 67 40 69 41 70 42 71 44 72 43 73 45 74 46 75 47 76
REMARK SMILES IDX 55 77 56 78 48 79 49 80 50 81 54 82 51 83 53 84 52 85
REMARK H PARENT 38 5 27 10 18 17 10 22 22 31 34 39 34 40 35 41 35 42 61 48
REMARK H PARENT 5 61 65 68
REMARK Flexibility Score:  369.900
ROOT
ATOM      1  C   UNL     1       0.577   7.893  10.203  1.00  0.00     0.117 C 
ENDROOT
BRANCH   1   2
ATOM      2  N   UNL     1       1.641   7.317   9.381  1.00  0.00    -0.347 N 
ATOM      3  O   UNL     1       2.115   9.183   8.131  1.00  0.00    -0.273 OA
ATOM      4  C   UNL     1       2.390   8.037   8.470  1.00  0.00     0.243 C 
ATOM      5  H   UNL     1       1.893   6.348   9.505  1.00  0.00     0.164 HD
BRANCH   4   6
ATOM      6  C   UNL     1       3.512   7.210   7.792  1.00  0.00     0.171 C 
BRANCH   6   7
ATOM      7  N   UNL     1       4.489   6.752   8.793  1.00  0.00    -0.344 N 
ATOM      8  C   UNL     1       5.604   7.509   9.083  1.00  0.00     0.226 C 
ATOM      9  O   UNL     1       5.847   8.569   8.520  1.00  0.00    -0.275 OA
ATOM     10  H   UNL     1       4.358   5.849   9.230  1.00  0.00     0.164 HD
BRANCH   8  11
ATOM     11  C   UNL     1       6.486   6.929  10.175  1.00  0.00     0.109 C 
ATOM     12  C   UNL     1       6.000   7.394  11.547  1.00  0.00     0.021 C 
BRANCH  11  13
ATOM     13  C   UNL     1       6.587   5.400  10.007  1.00  0.00     0.204 C 
BRANCH  13  14
ATOM     14  N   UNL     1       7.752   5.008   9.207  1.00  0.00    -0.340 N 
ATOM     15  C   UNL     1       7.648   4.524   7.921  1.00  0.00     0.243 C 
ATOM     16  O   UNL     1       6.572   4.444   7.330  1.00  0.00    -0.273 OA
ATOM     17  H   UNL     1       8.651   4.906   9.686  1.00  0.00     0.164 HD
BRANCH  15  18
ATOM     18  C   UNL     1       8.983   3.982   7.355  1.00  0.00     0.171 C 
BRANCH  18  19
ATOM     19  N   UNL     1       9.211   4.672   6.087  1.00  0.00    -0.343 N 
ATOM     20  C   UNL     1       9.830   4.051   5.019  1.00  0.00     0.242 CG0
ATOM     21  O   UNL     1      10.336   2.937   5.129  1.00  0.00    -0.273 OA
ATOM     22  H   UNL     1       8.914   5.636   5.985  1.00  0.00     0.164 HD
ATOM     23  G   UNL     1       9.911   4.912   3.742  1.00  0.00     0.000 G0
ENDBRANCH  18  19
BRANCH  18  24
ATOM     24  C   UNL     1      10.130   4.228   8.343  1.00  0.00     0.038 C 
BRANCH  24  25
ATOM     25  C   UNL     1      10.988   5.474   8.038  1.00  0.00    -0.015 C 
ATOM     26  C   UNL     1      12.398   5.114   7.571  1.00  0.00     0.007 C 
ATOM     27  C   UNL     1      11.067   6.361   9.283  1.00  0.00     0.007 C 
ENDBRANCH  24  25
ENDBRANCH  18  24
ENDBRANCH  15  18
ENDBRANCH  13  14
BRANCH  13  28
ATOM     28  C   UNL     1       6.678   4.651  11.340  1.00  0.00     0.327 C 
ATOM     29  O   UNL     1       5.771   4.051  11.896  1.00  0.00    -0.250 OA
BRANCH  28  30
ATOM     30  O   UNL     1       7.872   4.801  11.950  1.00  0.00    -0.480 OA
ATOM     31  H   UNL     1       7.879   5.738  12.237  1.00  0.00     0.296 HD
ENDBRANCH  28  30
ENDBRANCH  13  28
ENDBRANCH  11  13
ENDBRANCH   8  11
ENDBRANCH   6   7
BRANCH   6  32
ATOM     32  C   UNL     1       2.885   6.020   7.056  1.00  0.00     0.037 C 
BRANCH  32  33
ATOM     33  C   UNL     1       2.457   6.384   5.627  1.00  0.00     0.026 C 
BRANCH  33  34
ATOM     34  C   UNL     1       0.974   6.108   5.373  1.00  0.00     0.146 C 
BRANCH  34  35
ATOM     35  N   UNL     1       0.750   6.040   3.935  1.00  0.00    -0.254 NA
ATOM     36  C   UNL     1       0.586   4.891   3.393  1.00  0.00     0.185 C 
ATOM     37  N   UNL     1       0.373   4.817   2.070  1.00  0.00    -0.370 N 
ATOM     38  N   UNL     1       0.592   3.676   3.969  1.00  0.00    -0.370 N 
ATOM     39  H   UNL     1       0.344   5.693   1.565  1.00  0.00     0.159 HD
ATOM     40  H   UNL     1       0.066   3.982   1.602  1.00  0.00     0.159 HD
ATOM     41  H   UNL     1       0.591   2.836   3.414  1.00  0.00     0.159 HD
ATOM     42  H   UNL     1       0.757   3.579   4.959  1.00  0.00     0.159 HD
ENDBRANCH  34  35
ENDBRANCH  33  34
ENDBRANCH  32  33
ENDBRANCH   6  32
ENDBRANCH   4   6
ENDBRANCH   1   2
BRANCH   1  43
ATOM     43  C   UNL     1       0.755   7.391  11.665  1.00  0.00     0.102 C 
ATOM     44  C   UNL     1       1.947   8.035  12.393  1.00  0.00     0.020 C 
BRANCH  43  45
ATOM     45  C   UNL     1       0.743   5.860  11.727  1.00  0.00     0.225 C 
ATOM     46  O   UNL     1       1.618   5.162  11.223  1.00  0.00    -0.275 OA
ATOM     47  N   UNL     1      -0.371   5.299  12.308  1.00  0.00    -0.342 N 
ATOM     48  H   UNL     1      -1.000   5.879  12.846  1.00  0.00     0.164 HD
BRANCH  47  49
ATOM     49  C   UNL     1      -0.504   3.848  12.467  1.00  0.00     0.192 C 
BRANCH  49  50
ATOM     50  C   UNL     1      -1.982   3.480  12.617  1.00  0.00     0.047 C 
BRANCH  50  51
ATOM     51  C   UNL     1      -2.910   4.530  11.991  1.00  0.00     0.103 C 
BRANCH  51  52
ATOM     52  C   UNL     1      -3.910   5.087  13.002  1.00  0.00     0.226 C 
ATOM     53  O   UNL     1      -4.073   4.511  14.080  1.00  0.00    -0.275 OA
BRANCH  52  54
ATOM     54  N   UNL     1      -4.542   6.296  12.658  1.00  0.00    -0.311 N 
ATOM     55  C   UNL     1      -5.718   6.310  11.778  1.00  0.00     0.153 C 
BRANCH  54  56
ATOM     56  C   UNL     1      -4.078   7.529  13.145  1.00  0.00     0.102 C 
ATOM     57  C   UNL     1      -2.796   7.810  13.428  1.00  0.00     0.043 C 
BRANCH  56  58
ATOM     58  C   UNL     1      -5.026   8.688  13.348  1.00  0.00     0.268 C 
ATOM     59  O   UNL     1      -5.120   9.622  12.563  1.00  0.00    -0.268 OA
ATOM     60  N   UNL     1      -5.814   8.552  14.466  1.00  0.00    -0.339 N 
ATOM     61  H   UNL     1      -5.666   7.753  15.071  1.00  0.00     0.164 HD
BRANCH  60  62
ATOM     62  C   UNL     1      -6.843   9.529  14.817  1.00  0.00     0.168 CG0
ATOM     63  C   UNL     1      -6.458  10.303  16.072  1.00  0.00     0.041 C 
ATOM     64  G   UNL     1      -8.193   8.809  15.014  1.00  0.00     0.000 G0
ENDBRANCH  60  62
ENDBRANCH  56  58
ENDBRANCH  54  56
ENDBRANCH  52  54
ENDBRANCH  51  52
ENDBRANCH  50  51
ENDBRANCH  49  50
BRANCH  49  65
ATOM     65  C   UNL     1       0.274   3.339  13.691  1.00  0.00     0.326 C 
ATOM     66  O   UNL     1      -0.164   3.261  14.830  1.00  0.00    -0.250 OA
BRANCH  65  67
ATOM     67  O   UNL     1       1.563   3.016  13.446  1.00  0.00    -0.480 OA
ATOM     68  H   UNL     1       1.772   2.355  14.140  1.00  0.00     0.296 HD
ENDBRANCH  65  67
ENDBRANCH  49  65
ENDBRANCH  47  49
ENDBRANCH  43  45
ENDBRANCH   1  43
BRANCH   1  69
ATOM     69  C   UNL     1      -0.725   7.599   9.480  1.00  0.00    -0.001 C 
ATOM     70  C   UNL     1      -1.966   7.951   9.857  1.00  0.00     0.001 C 
BRANCH  70  71
ATOM     71  C   UNL     1      -3.214   7.679   9.139  1.00  0.00    -0.055 C 
ATOM     72  C   UNL     1      -3.268   6.569   8.374  1.00  0.00    -0.018 C 
ATOM     73  C   UNL     1      -4.349   8.654   9.312  1.00  0.00     0.044 C 
BRANCH  72  74
ATOM     74  C   UNL     1      -4.417   6.038   7.528  1.00  0.00     0.038 C 
ATOM     75  C   UNL     1      -5.165   5.004   8.379  1.00  0.00     0.015 C 
BRANCH  74  76
ATOM     76  C   UNL     1      -3.842   5.490   6.189  1.00  0.00     0.128 C 
BRANCH  76  77
ATOM     77  O   UNL     1      -4.247   6.334   5.099  1.00  0.00    -0.381 OA
ATOM     78  C   UNL     1      -3.174   7.049   4.501  1.00  0.00     0.195 C 
ENDBRANCH  76  77
BRANCH  76  79
ATOM     79  C   UNL     1      -2.313   5.238   6.217  1.00  0.00     0.068 C 
BRANCH  79  80
ATOM     80  C   UNL     1      -1.830   3.861   6.603  1.00  0.00    -0.045 A 
ATOM     81  C   UNL     1      -0.956   3.679   7.683  1.00  0.00     0.004 A 
ATOM     82  C   UNL     1      -2.231   2.738   5.863  1.00  0.00     0.004 A 
ATOM     83  C   UNL     1      -0.503   2.403   8.024  1.00  0.00     0.000 A 
ATOM     84  C   UNL     1      -1.776   1.462   6.205  1.00  0.00     0.000 A 
ATOM     85  C   UNL     1      -0.914   1.295   7.286  1.00  0.00     0.000 A 
ENDBRANCH  79  80
ENDBRANCH  76  79
ENDBRANCH  74  76
ENDBRANCH  72  74
ENDBRANCH  70  71
ENDBRANCH   1  69
TORSDOF 17
ENDMDL
MODEL 7
REMARK VINA RESULT:    -5.016      2.624     11.123
REMARK INTER + INTRA:         -24.042
REMARK INTER:                 -17.752
REMARK INTRA:                  -6.290
REMARK UNBOUND:                -9.054
REMARK SMILES C=C1C(=O)N[C@H](C)C(=O)N[C@@H](CC(C)C)C(=O)N[C@@H](C(=O)O)[C@H](C)C(=O)N[C@@H](CCCN=C(N)N)C(=O)N[C@@H](/C=C/C(C)=C/[C@H](C)[C@H](Cc2ccccc2)OC)[C@H](C)C(=O)N[C@@H](C(=O)O)CCC(=O)N1C
REMARK SMILES IDX 39 1 38 2 37 3 36 4 28 6 27 7 25 8 26 9 23 11 24 12 19 13
REMARK SMILES IDX 18 14 16 15 17 16 11 18 10 19 8 20 9 21 12 24 13 25 14 26
REMARK SMILES IDX 15 27 20 28 21 29 22 30 29 32 30 33 31 34 32 35 33 36 34 37
REMARK SMILES IDX 35 38 57 43 58 44 59 45 60 46 61 47 62 49 66 50 67 51 68 52
REMARK SMILES IDX 69 53 70 54 71 55 2 56 1 57 3 58 4 59 5 60 6 62 7 63 63 65
REMARK SMILES IDX 64 66 65 67 40 69 41 70 42 71 44 72 43 73 45 74 46 75 47 76
REMARK SMILES IDX 55 77 56 78 48 79 49 80 50 81 54 82 51 83 53 84 52 85
REMARK H PARENT 38 5 27 10 18 17 10 22 22 31 34 39 34 40 35 41 35 42 61 48
REMARK H PARENT 5 61 65 68
REMARK Flexibility Score:  369.900
ROOT
ATOM      1  C   UNL     1      -5.781   7.582  -2.996  1.00  0.00     0.117 C 
ENDROOT
BRANCH   1   2
ATOM      2  N   UNL     1      -6.917   7.073  -3.765  1.00  0.00    -0.347 N 
ATOM      3  O   UNL     1      -5.732   5.813  -5.275  1.00  0.00    -0.273 OA
ATOM      4  C   UNL     1      -6.806   6.153  -4.790  1.00  0.00     0.243 C 
ATOM      5  H   UNL     1      -7.851   7.361  -3.517  1.00  0.00     0.164 HD
BRANCH   4   6
ATOM      6  C   UNL     1      -8.169   5.714  -5.383  1.00  0.00     0.171 C 
BRANCH   6   7
ATOM      7  N   UNL     1      -7.966   4.895  -6.589  1.00  0.00    -0.344 N 
ATOM      8  C   UNL     1      -8.315   5.376  -7.832  1.00  0.00     0.226 C 
ATOM      9  O   UNL     1      -8.823   6.479  -7.995  1.00  0.00    -0.275 OA
ATOM     10  H   UNL     1      -7.611   3.953  -6.487  1.00  0.00     0.164 HD
BRANCH   8  11
ATOM     11  C   UNL     1      -7.993   4.435  -8.980  1.00  0.00     0.109 C 
ATOM     12  C   UNL     1      -8.923   4.708 -10.161  1.00  0.00     0.021 C 
BRANCH  11  13
ATOM     13  C   UNL     1      -6.488   4.509  -9.308  1.00  0.00     0.204 C 
BRANCH  13  14
ATOM     14  N   UNL     1      -5.743   3.382  -8.739  1.00  0.00    -0.340 N 
ATOM     15  C   UNL     1      -4.420   3.473  -8.363  1.00  0.00     0.243 C 
ATOM     16  O   UNL     1      -3.788   4.525  -8.423  1.00  0.00    -0.273 OA
ATOM     17  H   UNL     1      -6.159   2.449  -8.804  1.00  0.00     0.164 HD
BRANCH  15  18
ATOM     18  C   UNL     1      -3.789   2.110  -7.988  1.00  0.00     0.171 C 
BRANCH  18  19
ATOM     19  N   UNL     1      -2.788   1.816  -9.011  1.00  0.00    -0.343 N 
ATOM     20  C   UNL     1      -2.952   0.785  -9.917  1.00  0.00     0.242 CG0
ATOM     21  O   UNL     1      -3.881  -0.014  -9.821  1.00  0.00    -0.273 OA
ATOM     22  H   UNL     1      -1.945   2.377  -9.058  1.00  0.00     0.164 HD
ATOM     23  G   UNL     1      -1.830   0.678 -10.970  1.00  0.00     0.000 G0
ENDBRANCH  18  19
BRANCH  18  24
ATOM     24  C   UNL     1      -3.162   2.170  -6.589  1.00  0.00     0.038 C 
BRANCH  24  25
ATOM     25  C   UNL     1      -3.909   1.355  -5.512  1.00  0.00    -0.015 C 
ATOM     26  C   UNL     1      -4.428   0.019  -6.044  1.00  0.00     0.007 C 
ATOM     27  C   UNL     1      -5.077   2.179  -4.962  1.00  0.00     0.007 C 
ENDBRANCH  24  25
ENDBRANCH  18  24
ENDBRANCH  15  18
ENDBRANCH  13  14
BRANCH  13  28
ATOM     28  C   UNL     1      -6.199   4.531 -10.812  1.00  0.00     0.327 C 
ATOM     29  O   UNL     1      -6.103   5.526 -11.515  1.00  0.00    -0.250 OA
BRANCH  28  30
ATOM     30  O   UNL     1      -6.167   3.301 -11.363  1.00  0.00    -0.480 OA
ATOM     31  H   UNL     1      -6.836   3.339 -12.077  1.00  0.00     0.296 HD
ENDBRANCH  28  30
ENDBRANCH  13  28
ENDBRANCH  11  13
ENDBRANCH   8  11
ENDBRANCH   6   7
BRANCH   6  32
ATOM     32  C   UNL     1      -8.954   4.938  -4.320  1.00  0.00     0.037 C 
BRANCH  32  33
ATOM     33  C   UNL     1      -8.173   3.727  -3.792  1.00  0.00     0.026 C 
BRANCH  33  34
ATOM     34  C   UNL     1      -9.044   2.785  -2.961  1.00  0.00     0.146 C 
BRANCH  34  35
ATOM     35  N   UNL     1     -10.322   2.607  -3.638  1.00  0.00    -0.254 NA
ATOM     36  C   UNL     1     -11.357   2.335  -2.934  1.00  0.00     0.185 C 
ATOM     37  N   UNL     1     -12.540   2.174  -3.547  1.00  0.00    -0.370 N 
ATOM     38  N   UNL     1     -11.456   2.176  -1.602  1.00  0.00    -0.370 N 
ATOM     39  H   UNL     1     -12.550   2.288  -4.553  1.00  0.00     0.159 HD
ATOM     40  H   UNL     1     -13.418   2.133  -3.059  1.00  0.00     0.159 HD
ATOM     41  H   UNL     1     -12.300   1.825  -1.181  1.00  0.00     0.159 HD
ATOM     42  H   UNL     1     -10.640   2.253  -1.015  1.00  0.00     0.159 HD
ENDBRANCH  34  35
ENDBRANCH  33  34
ENDBRANCH  32  33
ENDBRANCH   6  32
ENDBRANCH   4   6
ENDBRANCH   1   2
BRANCH   1  43
ATOM     43  C   UNL     1      -6.140   7.518  -1.483  1.00  0.00     0.102 C 
ATOM     44  C   UNL     1      -5.489   6.334  -0.749  1.00  0.00     0.020 C 
BRANCH  43  45
ATOM     45  C   UNL     1      -7.653   7.625  -1.271  1.00  0.00     0.225 C 
ATOM     46  O   UNL     1      -8.349   8.474  -1.821  1.00  0.00    -0.275 OA
ATOM     47  N   UNL     1      -8.183   6.759  -0.343  1.00  0.00    -0.342 N 
ATOM     48  H   UNL     1      -7.634   5.976  -0.017  1.00  0.00     0.164 HD
BRANCH  47  49
ATOM     49  C   UNL     1      -9.622   6.723  -0.062  1.00  0.00     0.192 C 
BRANCH  49  50
ATOM     50  C   UNL     1      -9.852   6.741   1.451  1.00  0.00     0.047 C 
BRANCH  50  51
ATOM     51  C   UNL     1     -10.667   7.960   1.901  1.00  0.00     0.103 C 
BRANCH  51  52
ATOM     52  C   UNL     1     -12.171   7.727   1.767  1.00  0.00     0.226 C 
ATOM     53  O   UNL     1     -12.706   7.818   0.660  1.00  0.00    -0.275 OA
BRANCH  52  54
ATOM     54  N   UNL     1     -12.852   7.339   2.936  1.00  0.00    -0.311 N 
ATOM     55  C   UNL     1     -12.304   6.302   3.821  1.00  0.00     0.153 C 
BRANCH  54  56
ATOM     56  C   UNL     1     -14.072   7.929   3.302  1.00  0.00     0.102 C 
ATOM     57  C   UNL     1     -14.211   8.906   4.213  1.00  0.00     0.043 C 
BRANCH  56  58
ATOM     58  C   UNL     1     -15.363   7.519   2.634  1.00  0.00     0.268 C 
ATOM     59  O   UNL     1     -16.028   6.557   2.996  1.00  0.00    -0.268 OA
ATOM     60  N   UNL     1     -15.745   8.371   1.626  1.00  0.00    -0.339 N 
ATOM     61  H   UNL     1     -15.132   9.139   1.379  1.00  0.00     0.164 HD
BRANCH  60  62
ATOM     62  C   UNL     1     -16.995   8.195   0.888  1.00  0.00     0.168 CG0
ATOM     63  C   UNL     1     -16.761   7.434  -0.411  1.00  0.00     0.041 C 
ATOM     64  G   UNL     1     -17.629   9.573   0.608  1.00  0.00     0.000 G0
ENDBRANCH  60  62
ENDBRANCH  56  58
ENDBRANCH  54  56
ENDBRANCH  52  54
ENDBRANCH  51  52
ENDBRANCH  50  51
ENDBRANCH  49  50
BRANCH  49  65
ATOM     65  C   UNL     1     -10.285   5.474  -0.663  1.00  0.00     0.326 C 
ATOM     66  O   UNL     1     -11.002   5.457  -1.654  1.00  0.00    -0.250 OA
BRANCH  65  67
ATOM     67  O   UNL     1     -10.072   4.333   0.029  1.00  0.00    -0.480 OA
ATOM     68  H   UNL     1      -9.306   4.551   0.603  1.00  0.00     0.296 HD
ENDBRANCH  65  67
ENDBRANCH  49  65
ENDBRANCH  47  49
ENDBRANCH  43  45
ENDBRANCH   1  43
BRANCH   1  69
ATOM     69  C   UNL     1      -5.421   8.924  -3.608  1.00  0.00    -0.001 C 
ATOM     70  C   UNL     1      -4.436   9.183  -4.486  1.00  0.00     0.001 C 
BRANCH  70  71
ATOM     71  C   UNL     1      -4.111  10.478  -5.086  1.00  0.00    -0.055 C 
ATOM     72  C   UNL     1      -3.842  10.507  -6.409  1.00  0.00    -0.018 C 
ATOM     73  C   UNL     1      -4.109  11.688  -4.189  1.00  0.00     0.044 C 
BRANCH  72  74
ATOM     74  C   UNL     1      -3.481  11.693  -7.292  1.00  0.00     0.038 C 
ATOM     75  C   UNL     1      -4.795  12.278  -7.823  1.00  0.00     0.015 C 
BRANCH  74  76
ATOM     76  C   UNL     1      -2.489  11.213  -8.393  1.00  0.00     0.128 C 
BRANCH  76  77
ATOM     77  O   UNL     1      -1.666  12.311  -8.824  1.00  0.00    -0.381 OA
ATOM     78  C   UNL     1      -0.905  12.900  -7.778  1.00  0.00     0.195 C 
ENDBRANCH  76  77
BRANCH  76  79
ATOM     79  C   UNL     1      -1.662   9.965  -7.994  1.00  0.00     0.068 C 
BRANCH  79  80
ATOM     80  C   UNL     1      -1.388   8.929  -9.057  1.00  0.00    -0.045 A 
ATOM     81  C   UNL     1      -1.284   7.570  -8.731  1.00  0.00     0.004 A 
ATOM     82  C   UNL     1      -1.206   9.318 -10.393  1.00  0.00     0.004 A 
ATOM     83  C   UNL     1      -1.016   6.620  -9.718  1.00  0.00     0.000 A 
ATOM     84  C   UNL     1      -0.938   8.366 -11.379  1.00  0.00     0.000 A 
ATOM     85  C   UNL     1      -0.845   7.018 -11.042  1.00  0.00     0.000 A 
ENDBRANCH  79  80
ENDBRANCH  76  79
ENDBRANCH  74  76
ENDBRANCH  72  74
ENDBRANCH  70  71
ENDBRANCH   1  69
TORSDOF 17
ENDMDL
MODEL 8
REMARK VINA RESULT:    -4.993      2.640     11.232
REMARK INTER + INTRA:         -23.971
REMARK INTER:                 -17.713
REMARK INTRA:                  -6.258
REMARK UNBOUND:                -9.054
REMARK SMILES C=C1C(=O)N[C@H](C)C(=O)N[C@@H](CC(C)C)C(=O)N[C@@H](C(=O)O)[C@H](C)C(=O)N[C@@H](CCCN=C(N)N)C(=O)N[C@@H](/C=C/C(C)=C/[C@H](C)[C@H](Cc2ccccc2)OC)[C@H](C)C(=O)N[C@@H](C(=O)O)CCC(=O)N1C
REMARK SMILES IDX 39 1 38 2 37 3 36 4 28 6 27 7 25 8 26 9 23 11 24 12 19 13
REMARK SMILES IDX 18 14 16 15 17 16 11 18 10 19 8 20 9 21 12 24 13 25 14 26
REMARK SMILES IDX 15 27 20 28 21 29 22 30 29 32 30 33 31 34 32 35 33 36 34 37
REMARK SMILES IDX 35 38 57 43 58 44 59 45 60 46 61 47 62 49 66 50 67 51 68 52
REMARK SMILES IDX 69 53 70 54 71 55 2 56 1 57 3 58 4 59 5 60 6 62 7 63 63 65
REMARK SMILES IDX 64 66 65 67 40 69 41 70 42 71 44 72 43 73 45 74 46 75 47 76
REMARK SMILES IDX 55 77 56 78 48 79 49 80 50 81 54 82 51 83 53 84 52 85
REMARK H PARENT 38 5 27 10 18 17 10 22 22 31 34 39 34 40 35 41 35 42 61 48
REMARK H PARENT 5 61 65 68
REMARK Flexibility Score:  369.900
ROOT
ATOM      1  C   UNL     1      -5.837   7.643  -2.777  1.00  0.00     0.117 C 
ENDROOT
BRANCH   1   2
ATOM      2  N   UNL     1      -6.982   7.199  -3.573  1.00  0.00    -0.347 N 
ATOM      3  O   UNL     1      -5.897   5.605  -4.819  1.00  0.00    -0.273 OA
ATOM      4  C   UNL     1      -6.940   6.148  -4.469  1.00  0.00     0.243 C 
ATOM      5  H   UNL     1      -7.879   7.640  -3.438  1.00  0.00     0.164 HD
BRANCH   4   6
ATOM      6  C   UNL     1      -8.310   5.826  -5.117  1.00  0.00     0.171 C 
BRANCH   6   7
ATOM      7  N   UNL     1      -8.131   4.982  -6.309  1.00  0.00    -0.344 N 
ATOM      8  C   UNL     1      -8.147   5.536  -7.571  1.00  0.00     0.226 C 
ATOM      9  O   UNL     1      -8.330   6.732  -7.764  1.00  0.00    -0.275 OA
ATOM     10  H   UNL     1      -8.043   3.980  -6.192  1.00  0.00     0.164 HD
BRANCH   8  11
ATOM     11  C   UNL     1      -7.893   4.544  -8.692  1.00  0.00     0.109 C 
ATOM     12  C   UNL     1      -8.705   4.929  -9.929  1.00  0.00     0.021 C 
BRANCH  11  13
ATOM     13  C   UNL     1      -6.376   4.404  -8.931  1.00  0.00     0.204 C 
BRANCH  13  14
ATOM     14  N   UNL     1      -5.805   3.270  -8.199  1.00  0.00    -0.340 N 
ATOM     15  C   UNL     1      -4.499   3.245  -7.759  1.00  0.00     0.243 C 
ATOM     16  O   UNL     1      -3.737   4.200  -7.897  1.00  0.00    -0.273 OA
ATOM     17  H   UNL     1      -6.332   2.393  -8.184  1.00  0.00     0.164 HD
BRANCH  15  18
ATOM     18  C   UNL     1      -4.062   1.869  -7.198  1.00  0.00     0.171 C 
BRANCH  18  19
ATOM     19  N   UNL     1      -3.087   1.323  -8.141  1.00  0.00    -0.343 N 
ATOM     20  C   UNL     1      -3.473   0.732  -9.328  1.00  0.00     0.242 CG0
ATOM     21  O   UNL     1      -4.655   0.518  -9.586  1.00  0.00    -0.273 OA
ATOM     22  H   UNL     1      -2.099   1.373  -7.919  1.00  0.00     0.164 HD
ATOM     23  G   UNL     1      -2.302   0.288 -10.229  1.00  0.00     0.000 G0
ENDBRANCH  18  19
BRANCH  18  24
ATOM     24  C   UNL     1      -3.462   2.022  -5.795  1.00  0.00     0.038 C 
BRANCH  24  25
ATOM     25  C   UNL     1      -4.290   1.373  -4.666  1.00  0.00    -0.015 C 
ATOM     26  C   UNL     1      -4.666  -0.077  -4.975  1.00  0.00     0.007 C 
ATOM     27  C   UNL     1      -5.560   2.193  -4.422  1.00  0.00     0.007 C 
ENDBRANCH  24  25
ENDBRANCH  18  24
ENDBRANCH  15  18
ENDBRANCH  13  14
BRANCH  13  28
ATOM     28  C   UNL     1      -6.012   4.221 -10.408  1.00  0.00     0.327 C 
ATOM     29  O   UNL     1      -5.954   5.101 -11.253  1.00  0.00    -0.250 OA
BRANCH  28  30
ATOM     30  O   UNL     1      -5.859   2.928 -10.758  1.00  0.00    -0.480 OA
ATOM     31  H   UNL     1      -6.314   2.856 -11.622  1.00  0.00     0.296 HD
ENDBRANCH  28  30
ENDBRANCH  13  28
ENDBRANCH  11  13
ENDBRANCH   8  11
ENDBRANCH   6   7
BRANCH   6  32
ATOM     32  C   UNL     1      -9.204   5.130  -4.084  1.00  0.00     0.037 C 
BRANCH  32  33
ATOM     33  C   UNL     1      -8.388   4.357  -3.039  1.00  0.00     0.026 C 
BRANCH  33  34
ATOM     34  C   UNL     1      -8.972   2.975  -2.746  1.00  0.00     0.146 C 
BRANCH  34  35
ATOM     35  N   UNL     1     -10.212   2.820  -3.495  1.00  0.00    -0.254 NA
ATOM     36  C   UNL     1     -11.265   2.447  -2.869  1.00  0.00     0.185 C 
ATOM     37  N   UNL     1     -12.414   2.306  -3.548  1.00  0.00    -0.370 N 
ATOM     38  N   UNL     1     -11.414   2.157  -1.564  1.00  0.00    -0.370 N 
ATOM     39  H   UNL     1     -12.386   2.517  -4.537  1.00  0.00     0.159 HD
ATOM     40  H   UNL     1     -13.310   2.189  -3.107  1.00  0.00     0.159 HD
ATOM     41  H   UNL     1     -12.262   1.739  -1.217  1.00  0.00     0.159 HD
ATOM     42  H   UNL     1     -10.628   2.204  -0.935  1.00  0.00     0.159 HD
ENDBRANCH  34  35
ENDBRANCH  33  34
ENDBRANCH  32  33
ENDBRANCH   6  32
ENDBRANCH   4   6
ENDBRANCH   1   2
BRANCH   1  43
ATOM     43  C   UNL     1      -6.223   7.575  -1.272  1.00  0.00     0.102 C 
ATOM     44  C   UNL     1      -5.727   6.299  -0.570  1.00  0.00     0.020 C 
BRANCH  43  45
ATOM     45  C   UNL     1      -7.717   7.851  -1.074  1.00  0.00     0.225 C 
ATOM     46  O   UNL     1      -8.314   8.754  -1.653  1.00  0.00    -0.275 OA
ATOM     47  N   UNL     1      -8.342   7.076  -0.124  1.00  0.00    -0.342 N 
ATOM     48  H   UNL     1      -7.882   6.249   0.228  1.00  0.00     0.164 HD
BRANCH  47  49
ATOM     49  C   UNL     1      -9.777   7.206   0.147  1.00  0.00     0.192 C 
BRANCH  49  50
ATOM     50  C   UNL     1     -10.062   6.820   1.601  1.00  0.00     0.047 C 
BRANCH  50  51
ATOM     51  C   UNL     1     -10.694   7.972   2.395  1.00  0.00     0.103 C 
BRANCH  51  52
ATOM     52  C   UNL     1     -12.211   8.022   2.223  1.00  0.00     0.226 C 
ATOM     53  O   UNL     1     -12.727   8.973   1.632  1.00  0.00    -0.275 OA
BRANCH  52  54
ATOM     54  N   UNL     1     -12.933   6.912   2.699  1.00  0.00    -0.311 N 
ATOM     55  C   UNL     1     -13.436   5.885   1.776  1.00  0.00     0.153 C 
BRANCH  54  56
ATOM     56  C   UNL     1     -13.195   6.741   4.068  1.00  0.00     0.102 C 
ATOM     57  C   UNL     1     -13.285   5.554   4.691  1.00  0.00     0.043 C 
BRANCH  56  58
ATOM     58  C   UNL     1     -13.356   7.933   4.982  1.00  0.00     0.268 C 
ATOM     59  O   UNL     1     -14.304   8.704   4.916  1.00  0.00    -0.268 OA
ATOM     60  N   UNL     1     -12.366   8.023   5.931  1.00  0.00    -0.339 N 
ATOM     61  H   UNL     1     -11.609   7.350   5.911  1.00  0.00     0.164 HD
BRANCH  60  62
ATOM     62  C   UNL     1     -12.362   9.066   6.956  1.00  0.00     0.168 CG0
ATOM     63  C   UNL     1     -11.496  10.246   6.532  1.00  0.00     0.041 C 
ATOM     64  G   UNL     1     -11.866   8.477   8.292  1.00  0.00     0.000 G0
ENDBRANCH  60  62
ENDBRANCH  56  58
ENDBRANCH  54  56
ENDBRANCH  52  54
ENDBRANCH  51  52
ENDBRANCH  50  51
ENDBRANCH  49  50
BRANCH  49  65
ATOM     65  C   UNL     1     -10.612   6.318  -0.788  1.00  0.00     0.326 C 
ATOM     66  O   UNL     1     -11.234   6.705  -1.767  1.00  0.00    -0.250 OA
BRANCH  65  67
ATOM     67  O   UNL     1     -10.678   5.019  -0.424  1.00  0.00    -0.480 OA
ATOM     68  H   UNL     1     -11.579   4.930  -0.045  1.00  0.00     0.296 HD
ENDBRANCH  65  67
ENDBRANCH  49  65
ENDBRANCH  47  49
ENDBRANCH  43  45
ENDBRANCH   1  43
BRANCH   1  69
ATOM     69  C   UNL     1      -5.405   8.975  -3.364  1.00  0.00    -0.001 C 
ATOM     70  C   UNL     1      -4.429   9.194  -4.263  1.00  0.00     0.001 C 
BRANCH  70  71
ATOM     71  C   UNL     1      -4.036  10.482  -4.838  1.00  0.00    -0.055 C 
ATOM     72  C   UNL     1      -3.895  10.554  -6.178  1.00  0.00    -0.018 C 
ATOM     73  C   UNL     1      -3.823  11.637  -3.894  1.00  0.00     0.044 C 
BRANCH  72  74
ATOM     74  C   UNL     1      -3.504  11.744  -7.043  1.00  0.00     0.038 C 
ATOM     75  C   UNL     1      -4.774  12.571  -7.275  1.00  0.00     0.015 C 
BRANCH  74  76
ATOM     76  C   UNL     1      -2.821  11.218  -8.340  1.00  0.00     0.128 C 
BRANCH  76  77
ATOM     77  O   UNL     1      -2.575  12.310  -9.242  1.00  0.00    -0.381 OA
ATOM     78  C   UNL     1      -3.213  12.162 -10.504  1.00  0.00     0.195 C 
ENDBRANCH  76  77
BRANCH  76  79
ATOM     79  C   UNL     1      -1.558  10.358  -8.082  1.00  0.00     0.068 C 
BRANCH  79  80
ATOM     80  C   UNL     1      -1.352   9.130  -8.936  1.00  0.00    -0.045 A 
ATOM     81  C   UNL     1      -1.088   9.241 -10.307  1.00  0.00     0.004 A 
ATOM     82  C   UNL     1      -1.452   7.850  -8.370  1.00  0.00     0.004 A 
ATOM     83  C   UNL     1      -0.913   8.101 -11.093  1.00  0.00     0.000 A 
ATOM     84  C   UNL     1      -1.277   6.710  -9.158  1.00  0.00     0.000 A 
ATOM     85  C   UNL     1      -1.006   6.835 -10.518  1.00  0.00     0.000 A 
ENDBRANCH  79  80
ENDBRANCH  76  79
ENDBRANCH  74  76
ENDBRANCH  72  74
ENDBRANCH  70  71
ENDBRANCH   1  69
TORSDOF 17
ENDMDL
MODEL 9
REMARK VINA RESULT:    -4.793      2.275      4.573
REMARK INTER + INTRA:         -23.374
REMARK INTER:                 -17.171
REMARK INTRA:                  -6.204
REMARK UNBOUND:                -9.054
REMARK SMILES C=C1C(=O)N[C@H](C)C(=O)N[C@@H](CC(C)C)C(=O)N[C@@H](C(=O)O)[C@H](C)C(=O)N[C@@H](CCCN=C(N)N)C(=O)N[C@@H](/C=C/C(C)=C/[C@H](C)[C@H](Cc2ccccc2)OC)[C@H](C)C(=O)N[C@@H](C(=O)O)CCC(=O)N1C
REMARK SMILES IDX 39 1 38 2 37 3 36 4 28 6 27 7 25 8 26 9 23 11 24 12 19 13
REMARK SMILES IDX 18 14 16 15 17 16 11 18 10 19 8 20 9 21 12 24 13 25 14 26
REMARK SMILES IDX 15 27 20 28 21 29 22 30 29 32 30 33 31 34 32 35 33 36 34 37
REMARK SMILES IDX 35 38 57 43 58 44 59 45 60 46 61 47 62 49 66 50 67 51 68 52
REMARK SMILES IDX 69 53 70 54 71 55 2 56 1 57 3 58 4 59 5 60 6 62 7 63 63 65
REMARK SMILES IDX 64 66 65 67 40 69 41 70 42 71 44 72 43 73 45 74 46 75 47 76
REMARK SMILES IDX 55 77 56 78 48 79 49 80 50 81 54 82 51 83 53 84 52 85
REMARK H PARENT 38 5 27 10 18 17 10 22 22 31 34 39 34 40 35 41 35 42 61 48
REMARK H PARENT 5 61 65 68
REMARK Flexibility Score:  369.900
ROOT
ATOM      1  C   UNL     1      -6.165   6.822  -4.263  1.00  0.00     0.117 C 
ENDROOT
BRANCH   1   2
ATOM      2  N   UNL     1      -7.539   6.593  -3.814  1.00  0.00    -0.347 N 
ATOM      3  O   UNL     1      -7.098   4.930  -2.294  1.00  0.00    -0.273 OA
ATOM      4  C   UNL     1      -7.885   5.726  -2.796  1.00  0.00     0.243 C 
ATOM      5  H   UNL     1      -8.289   7.127  -4.226  1.00  0.00     0.164 HD
BRANCH   4   6
ATOM      6  C   UNL     1      -9.398   5.734  -2.458  1.00  0.00     0.171 C 
BRANCH   6   7
ATOM      7  N   UNL     1      -9.747   6.942  -1.693  1.00  0.00    -0.344 N 
ATOM      8  C   UNL     1     -10.569   6.861  -0.590  1.00  0.00     0.226 C 
ATOM      9  O   UNL     1     -11.060   5.806  -0.208  1.00  0.00    -0.275 OA
ATOM     10  H   UNL     1      -9.416   7.841  -2.018  1.00  0.00     0.164 HD
BRANCH   8  11
ATOM     11  C   UNL     1     -10.791   8.184   0.123  1.00  0.00     0.109 C 
ATOM     12  C   UNL     1     -12.247   8.626  -0.029  1.00  0.00     0.021 C 
BRANCH  11  13
ATOM     13  C   UNL     1     -10.293   8.083   1.578  1.00  0.00     0.204 C 
BRANCH  13  14
ATOM     14  N   UNL     1     -11.231   7.348   2.432  1.00  0.00    -0.340 N 
ATOM     15  C   UNL     1     -12.050   7.969   3.351  1.00  0.00     0.243 C 
ATOM     16  O   UNL     1     -12.095   9.191   3.476  1.00  0.00    -0.273 OA
ATOM     17  H   UNL     1     -11.135   6.331   2.487  1.00  0.00     0.164 HD
BRANCH  15  18
ATOM     18  C   UNL     1     -12.798   6.981   4.280  1.00  0.00     0.171 C 
BRANCH  18  19
ATOM     19  N   UNL     1     -13.674   7.786   5.128  1.00  0.00    -0.343 N 
ATOM     20  C   UNL     1     -13.289   8.201   6.388  1.00  0.00     0.242 CG0
ATOM     21  O   UNL     1     -12.249   7.802   6.907  1.00  0.00    -0.273 OA
ATOM     22  H   UNL     1     -14.594   8.045   4.789  1.00  0.00     0.164 HD
ATOM     23  G   UNL     1     -14.314   9.107   7.101  1.00  0.00     0.000 G0
ENDBRANCH  18  19
BRANCH  18  24
ATOM     24  C   UNL     1     -13.594   5.961   3.456  1.00  0.00     0.038 C 
BRANCH  24  25
ATOM     25  C   UNL     1     -15.039   6.388   3.125  1.00  0.00    -0.015 C 
ATOM     26  C   UNL     1     -16.081   5.551   3.869  1.00  0.00     0.007 C 
ATOM     27  C   UNL     1     -15.275   6.281   1.616  1.00  0.00     0.007 C 
ENDBRANCH  24  25
ENDBRANCH  18  24
ENDBRANCH  15  18
ENDBRANCH  13  14
BRANCH  13  28
ATOM     28  C   UNL     1      -8.930   7.394   1.703  1.00  0.00     0.327 C 
ATOM     29  O   UNL     1      -7.845   7.883   1.429  1.00  0.00    -0.250 OA
BRANCH  28  30
ATOM     30  O   UNL     1      -9.025   6.095   2.051  1.00  0.00    -0.480 OA
ATOM     31  H   UNL     1      -9.987   5.942   2.154  1.00  0.00     0.296 HD
ENDBRANCH  28  30
ENDBRANCH  13  28
ENDBRANCH  11  13
ENDBRANCH   8  11
ENDBRANCH   6   7
BRANCH   6  32
ATOM     32  C   UNL     1     -10.205   5.657  -3.759  1.00  0.00     0.037 C 
BRANCH  32  33
ATOM     33  C   UNL     1     -10.062   4.293  -4.449  1.00  0.00     0.026 C 
BRANCH  33  34
ATOM     34  C   UNL     1     -11.317   3.431  -4.305  1.00  0.00     0.146 C 
BRANCH  34  35
ATOM     35  N   UNL     1     -11.458   3.036  -2.910  1.00  0.00    -0.254 NA
ATOM     36  C   UNL     1     -11.668   1.802  -2.639  1.00  0.00     0.185 C 
ATOM     37  N   UNL     1     -11.795   1.426  -1.357  1.00  0.00    -0.370 N 
ATOM     38  N   UNL     1     -11.789   0.761  -3.482  1.00  0.00    -0.370 N 
ATOM     39  H   UNL     1     -11.705   2.154  -0.659  1.00  0.00     0.159 HD
ATOM     40  H   UNL     1     -11.786   0.467  -1.055  1.00  0.00     0.159 HD
ATOM     41  H   UNL     1     -12.093  -0.142  -3.155  1.00  0.00     0.159 HD
ATOM     42  H   UNL     1     -11.732   0.899  -4.479  1.00  0.00     0.159 HD
ENDBRANCH  34  35
ENDBRANCH  33  34
ENDBRANCH  32  33
ENDBRANCH   6  32
ENDBRANCH   4   6
ENDBRANCH   1   2
BRANCH   1  43
ATOM     43  C   UNL     1      -5.938   8.355  -4.402  1.00  0.00     0.102 C 
ATOM     44  C   UNL     1      -6.340   9.149  -3.148  1.00  0.00     0.020 C 
BRANCH  43  45
ATOM     45  C   UNL     1      -6.556   8.887  -5.699  1.00  0.00     0.225 C 
ATOM     46  O   UNL     1      -7.760   8.840  -5.937  1.00  0.00    -0.275 OA
ATOM     47  N   UNL     1      -5.660   9.344  -6.638  1.00  0.00    -0.342 N 
ATOM     48  H   UNL     1      -4.701   9.516  -6.372  1.00  0.00     0.164 HD
BRANCH  47  49
ATOM     49  C   UNL     1      -6.109   9.914  -7.912  1.00  0.00     0.192 C 
BRANCH  49  50
ATOM     50  C   UNL     1      -5.298   9.310  -9.061  1.00  0.00     0.047 C 
BRANCH  50  51
ATOM     51  C   UNL     1      -5.497   7.793  -9.180  1.00  0.00     0.103 C 
BRANCH  51  52
ATOM     52  C   UNL     1      -6.277   7.414 -10.437  1.00  0.00     0.226 C 
ATOM     53  O   UNL     1      -7.413   6.946 -10.333  1.00  0.00    -0.275 OA
BRANCH  52  54
ATOM     54  N   UNL     1      -5.659   7.702 -11.668  1.00  0.00    -0.311 N 
ATOM     55  C   UNL     1      -6.244   8.677 -12.598  1.00  0.00     0.153 C 
BRANCH  54  56
ATOM     56  C   UNL     1      -4.461   7.076 -12.051  1.00  0.00     0.102 C 
ATOM     57  C   UNL     1      -4.381   5.972 -12.812  1.00  0.00     0.043 C 
BRANCH  56  58
ATOM     58  C   UNL     1      -3.123   7.652 -11.652  1.00  0.00     0.268 C 
ATOM     59  O   UNL     1      -2.869   8.848 -11.699  1.00  0.00    -0.268 OA
ATOM     60  N   UNL     1      -2.249   6.707 -11.172  1.00  0.00    -0.339 N 
ATOM     61  H   UNL     1      -2.533   5.734 -11.176  1.00  0.00     0.164 HD
BRANCH  60  62
ATOM     62  C   UNL     1      -0.920   7.057 -10.672  1.00  0.00     0.168 CG0
ATOM     63  C   UNL     1       0.109   7.037 -11.795  1.00  0.00     0.041 C 
ATOM     64  G   UNL     1      -0.518   6.083  -9.546  1.00  0.00     0.000 G0
ENDBRANCH  60  62
ENDBRANCH  56  58
ENDBRANCH  54  56
ENDBRANCH  52  54
ENDBRANCH  51  52
ENDBRANCH  50  51
ENDBRANCH  49  50
BRANCH  49  65
ATOM     65  C   UNL     1      -5.960  11.443  -7.932  1.00  0.00     0.326 C 
ATOM     66  O   UNL     1      -5.883  12.137  -8.936  1.00  0.00    -0.250 OA
BRANCH  65  67
ATOM     67  O   UNL     1      -5.853  12.016  -6.712  1.00  0.00    -0.480 OA
ATOM     68  H   UNL     1      -5.591  12.940  -6.912  1.00  0.00     0.296 HD
ENDBRANCH  65  67
ENDBRANCH  49  65
ENDBRANCH  47  49
ENDBRANCH  43  45
ENDBRANCH   1  43
BRANCH   1  69
ATOM     69  C   UNL     1      -5.964   5.937  -5.480  1.00  0.00    -0.001 C 
ATOM     70  C   UNL     1      -6.905   5.490  -6.329  1.00  0.00     0.001 C 
BRANCH  70  71
ATOM     71  C   UNL     1      -6.696   4.654  -7.513  1.00  0.00    -0.055 C 
ATOM     72  C   UNL     1      -5.424   4.375  -7.868  1.00  0.00    -0.018 C 
ATOM     73  C   UNL     1      -7.915   4.157  -8.246  1.00  0.00     0.044 C 
BRANCH  72  74
ATOM     74  C   UNL     1      -4.910   3.541  -9.033  1.00  0.00     0.038 C 
ATOM     75  C   UNL     1      -5.841   3.803 -10.223  1.00  0.00     0.015 C 
BRANCH  74  76
ATOM     76  C   UNL     1      -4.826   2.052  -8.585  1.00  0.00     0.128 C 
BRANCH  76  77
ATOM     77  O   UNL     1      -4.664   1.203  -9.733  1.00  0.00    -0.381 OA
ATOM     78  C   UNL     1      -3.895   0.036  -9.476  1.00  0.00     0.195 C 
ENDBRANCH  76  77
BRANCH  76  79
ATOM     79  C   UNL     1      -3.766   1.784  -7.486  1.00  0.00     0.068 C 
BRANCH  79  80
ATOM     80  C   UNL     1      -4.255   1.505  -6.086  1.00  0.00    -0.045 A 
ATOM     81  C   UNL     1      -4.658   2.547  -5.241  1.00  0.00     0.004 A 
ATOM     82  C   UNL     1      -4.285   0.190  -5.596  1.00  0.00     0.004 A 
ATOM     83  C   UNL     1      -5.096   2.282  -3.941  1.00  0.00     0.000 A 
ATOM     84  C   UNL     1      -4.722  -0.074  -4.296  1.00  0.00     0.000 A 
ATOM     85  C   UNL     1      -5.129   0.971  -3.470  1.00  0.00     0.000 A 
ENDBRANCH  79  80
ENDBRANCH  76  79
ENDBRANCH  74  76
ENDBRANCH  72  74
ENDBRANCH  70  71
ENDBRANCH   1  69
TORSDOF 17
ENDMDL
MODEL 10
REMARK VINA RESULT:    -4.768     12.559     16.106
REMARK INTER + INTRA:         -23.300
REMARK INTER:                 -16.006
REMARK INTRA:                  -7.293
REMARK UNBOUND:                -9.054
REMARK SMILES C=C1C(=O)N[C@H](C)C(=O)N[C@@H](CC(C)C)C(=O)N[C@@H](C(=O)O)[C@H](C)C(=O)N[C@@H](CCCN=C(N)N)C(=O)N[C@@H](/C=C/C(C)=C/[C@H](C)[C@H](Cc2ccccc2)OC)[C@H](C)C(=O)N[C@@H](C(=O)O)CCC(=O)N1C
REMARK SMILES IDX 39 1 38 2 37 3 36 4 28 6 27 7 25 8 26 9 23 11 24 12 19 13
REMARK SMILES IDX 18 14 16 15 17 16 11 18 10 19 8 20 9 21 12 24 13 25 14 26
REMARK SMILES IDX 15 27 20 28 21 29 22 30 29 32 30 33 31 34 32 35 33 36 34 37
REMARK SMILES IDX 35 38 57 43 58 44 59 45 60 46 61 47 62 49 66 50 67 51 68 52
REMARK SMILES IDX 69 53 70 54 71 55 2 56 1 57 3 58 4 59 5 60 6 62 7 63 63 65
REMARK SMILES IDX 64 66 65 67 40 69 41 70 42 71 44 72 43 73 45 74 46 75 47 76
REMARK SMILES IDX 55 77 56 78 48 79 49 80 50 81 54 82 51 83 53 84 52 85
REMARK H PARENT 38 5 27 10 18 17 10 22 22 31 34 39 34 40 35 41 35 42 61 48
REMARK H PARENT 5 61 65 68
REMARK Flexibility Score:  369.900
ROOT
ATOM      1  C   UNL     1      -0.306   5.911   6.648  1.00  0.00     0.117 C 
ENDROOT
BRANCH   1   2
ATOM      2  N   UNL     1      -0.554   6.308   8.035  1.00  0.00    -0.347 N 
ATOM      3  O   UNL     1      -2.161   4.743   8.526  1.00  0.00    -0.273 OA
ATOM      4  C   UNL     1      -1.398   5.631   8.894  1.00  0.00     0.243 C 
ATOM      5  H   UNL     1      -0.050   7.091   8.423  1.00  0.00     0.164 HD
BRANCH   4   6
ATOM      6  C   UNL     1      -1.415   6.206  10.333  1.00  0.00     0.171 C 
BRANCH   6   7
ATOM      7  N   UNL     1      -2.574   5.690  11.079  1.00  0.00    -0.344 N 
ATOM      8  C   UNL     1      -3.267   6.503  11.950  1.00  0.00     0.226 C 
ATOM      9  O   UNL     1      -2.948   7.667  12.163  1.00  0.00    -0.275 OA
ATOM     10  H   UNL     1      -2.826   4.715  10.981  1.00  0.00     0.164 HD
BRANCH   8  11
ATOM     11  C   UNL     1      -4.468   5.841  12.602  1.00  0.00     0.109 C 
ATOM     12  C   UNL     1      -4.631   6.341  14.037  1.00  0.00     0.021 C 
BRANCH  11  13
ATOM     13  C   UNL     1      -5.711   6.021  11.707  1.00  0.00     0.204 C 
BRANCH  13  14
ATOM     14  N   UNL     1      -5.487   7.003  10.642  1.00  0.00    -0.340 N 
ATOM     15  C   UNL     1      -5.791   8.340  10.781  1.00  0.00     0.243 C 
ATOM     16  O   UNL     1      -6.216   8.815  11.832  1.00  0.00    -0.273 OA
ATOM     17  H   UNL     1      -5.282   6.653   9.702  1.00  0.00     0.164 HD
BRANCH  15  18
ATOM     18  C   UNL     1      -5.665   9.143   9.463  1.00  0.00     0.171 C 
BRANCH  18  19
ATOM     19  N   UNL     1      -6.670  10.202   9.521  1.00  0.00    -0.343 N 
ATOM     20  C   UNL     1      -7.446  10.533   8.426  1.00  0.00     0.242 CG0
ATOM     21  O   UNL     1      -7.237  10.044   7.319  1.00  0.00    -0.273 OA
ATOM     22  H   UNL     1      -6.801  10.717  10.385  1.00  0.00     0.164 HD
ATOM     23  G   UNL     1      -8.504  11.620   8.701  1.00  0.00     0.000 G0
ENDBRANCH  18  19
BRANCH  18  24
ATOM     24  C   UNL     1      -4.251   9.716   9.310  1.00  0.00     0.038 C 
BRANCH  24  25
ATOM     25  C   UNL     1      -3.307   8.875   8.426  1.00  0.00    -0.015 C 
ATOM     26  C   UNL     1      -2.269   9.731   7.699  1.00  0.00     0.007 C 
ATOM     27  C   UNL     1      -4.127   8.083   7.405  1.00  0.00     0.007 C 
ENDBRANCH  24  25
ENDBRANCH  18  24
ENDBRANCH  15  18
ENDBRANCH  13  14
BRANCH  13  28
ATOM     28  C   UNL     1      -6.166   4.720  11.037  1.00  0.00     0.327 C 
ATOM     29  O   UNL     1      -6.539   4.595   9.881  1.00  0.00    -0.250 OA
BRANCH  28  30
ATOM     30  O   UNL     1      -6.237   3.681  11.894  1.00  0.00    -0.480 OA
ATOM     31  H   UNL     1      -5.475   3.116  11.651  1.00  0.00     0.296 HD
ENDBRANCH  28  30
ENDBRANCH  13  28
ENDBRANCH  11  13
ENDBRANCH   8  11
ENDBRANCH   6   7
BRANCH   6  32
ATOM     32  C   UNL     1      -0.104   5.840  11.037  1.00  0.00     0.037 C 
BRANCH  32  33
ATOM     33  C   UNL     1      -0.163   4.451  11.686  1.00  0.00     0.026 C 
BRANCH  33  34
ATOM     34  C   UNL     1       0.813   4.309  12.855  1.00  0.00     0.146 C 
BRANCH  34  35
ATOM     35  N   UNL     1       0.209   3.459  13.871  1.00  0.00    -0.254 NA
ATOM     36  C   UNL     1       0.510   2.214  13.891  1.00  0.00     0.185 C 
ATOM     37  N   UNL     1      -0.038   1.424  14.827  1.00  0.00    -0.370 N 
ATOM     38  N   UNL     1       1.335   1.532  13.077  1.00  0.00    -0.370 N 
ATOM     39  H   UNL     1      -0.665   1.867  15.486  1.00  0.00     0.159 HD
ATOM     40  H   UNL     1       0.276   0.487  15.017  1.00  0.00     0.159 HD
ATOM     41  H   UNL     1       1.383   0.527  13.107  1.00  0.00     0.159 HD
ATOM     42  H   UNL     1       1.805   1.998  12.316  1.00  0.00     0.159 HD
ENDBRANCH  34  35
ENDBRANCH  33  34
ENDBRANCH  32  33
ENDBRANCH   6  32
ENDBRANCH   4   6
ENDBRANCH   1   2
BRANCH   1  43
ATOM     43  C   UNL     1       1.229   5.764   6.441  1.00  0.00     0.102 C 
ATOM     44  C   UNL     1       1.747   4.339   6.699  1.00  0.00     0.020 C 
BRANCH  43  45
ATOM     45  C   UNL     1       1.993   6.850   7.204  1.00  0.00     0.225 C 
ATOM     46  O   UNL     1       1.931   8.042   6.916  1.00  0.00    -0.275 OA
ATOM     47  N   UNL     1       2.841   6.397   8.189  1.00  0.00    -0.342 N 
ATOM     48  H   UNL     1       2.768   5.443   8.512  1.00  0.00     0.164 HD
BRANCH  47  49
ATOM     49  C   UNL     1       3.610   7.325   9.024  1.00  0.00     0.192 C 
BRANCH  49  50
ATOM     50  C   UNL     1       4.983   7.568   8.394  1.00  0.00     0.047 C 
BRANCH  50  51
ATOM     51  C   UNL     1       5.895   6.337   8.493  1.00  0.00     0.103 C 
BRANCH  51  52
ATOM     52  C   UNL     1       7.262   6.682   9.082  1.00  0.00     0.226 C 
ATOM     53  O   UNL     1       7.592   7.863   9.206  1.00  0.00    -0.275 OA
BRANCH  52  54
ATOM     54  N   UNL     1       8.044   5.600   9.526  1.00  0.00    -0.311 N 
ATOM     55  C   UNL     1       8.568   5.559  10.898  1.00  0.00     0.153 C 
BRANCH  54  56
ATOM     56  C   UNL     1       8.348   4.521   8.681  1.00  0.00     0.102 C 
ATOM     57  C   UNL     1       7.710   3.339   8.683  1.00  0.00     0.043 C 
BRANCH  56  58
ATOM     58  C   UNL     1       9.433   4.637   7.635  1.00  0.00     0.268 C 
ATOM     59  O   UNL     1       9.961   5.698   7.334  1.00  0.00    -0.268 OA
ATOM     60  N   UNL     1       9.807   3.423   7.108  1.00  0.00    -0.339 N 
ATOM     61  H   UNL     1       9.312   2.590   7.403  1.00  0.00     0.164 HD
BRANCH  60  62
ATOM     62  C   UNL     1      10.883   3.300   6.126  1.00  0.00     0.168 CG0
ATOM     63  C   UNL     1      10.339   3.384   4.705  1.00  0.00     0.041 C 
ATOM     64  G   UNL     1      11.633   1.970   6.346  1.00  0.00     0.000 G0
ENDBRANCH  60  62
ENDBRANCH  56  58
ENDBRANCH  54  56
ENDBRANCH  52  54
ENDBRANCH  51  52
ENDBRANCH  50  51
ENDBRANCH  49  50
BRANCH  49  65
ATOM     65  C   UNL     1       3.793   6.784  10.451  1.00  0.00     0.326 C 
ATOM     66  O   UNL     1       4.391   7.350  11.354  1.00  0.00    -0.250 OA
BRANCH  65  67
ATOM     67  O   UNL     1       3.279   5.551  10.657  1.00  0.00    -0.480 OA
ATOM     68  H   UNL     1       2.916   5.302   9.779  1.00  0.00     0.296 HD
ENDBRANCH  65  67
ENDBRANCH  49  65
ENDBRANCH  47  49
ENDBRANCH  43  45
ENDBRANCH   1  43
BRANCH   1  69
ATOM     69  C   UNL     1      -1.072   6.896   5.783  1.00  0.00    -0.001 C 
ATOM     70  C   UNL     1      -0.630   7.535   4.686  1.00  0.00     0.001 C 
BRANCH  70  71
ATOM     71  C   UNL     1      -1.385   8.467   3.846  1.00  0.00    -0.055 C 
ATOM     72  C   UNL     1      -2.732   8.380   3.866  1.00  0.00    -0.018 C 
ATOM     73  C   UNL     1      -0.607   9.462   3.026  1.00  0.00     0.044 C 
BRANCH  72  74
ATOM     74  C   UNL     1      -3.762   9.207   3.111  1.00  0.00     0.038 C 
ATOM     75  C   UNL     1      -4.624   9.922   4.158  1.00  0.00     0.015 C 
BRANCH  74  76
ATOM     76  C   UNL     1      -4.549   8.269   2.148  1.00  0.00     0.128 C 
BRANCH  76  77
ATOM     77  O   UNL     1      -5.963   8.466   2.317  1.00  0.00    -0.381 OA
ATOM     78  C   UNL     1      -6.755   7.427   1.758  1.00  0.00     0.195 C 
ENDBRANCH  76  77
BRANCH  76  79
ATOM     79  C   UNL     1      -4.102   8.369   0.668  1.00  0.00     0.068 C 
BRANCH  79  80
ATOM     80  C   UNL     1      -2.686   7.971   0.328  1.00  0.00    -0.045 A 
ATOM     81  C   UNL     1      -1.818   8.866  -0.311  1.00  0.00     0.004 A 
ATOM     82  C   UNL     1      -2.224   6.679   0.625  1.00  0.00     0.004 A 
ATOM     83  C   UNL     1      -0.514   8.485  -0.635  1.00  0.00     0.000 A 
ATOM     84  C   UNL     1      -0.920   6.299   0.300  1.00  0.00     0.000 A 
ATOM     85  C   UNL     1      -0.065   7.202  -0.328  1.00  0.00     0.000 A 
ENDBRANCH  79  80
ENDBRANCH  76  79
ENDBRANCH  74  76
ENDBRANCH  72  74
ENDBRANCH  70  71
ENDBRANCH   1  69
TORSDOF 17
ENDMDL
