MODEL 1
REMARK VINA RESULT:    -4.831      0.000      0.000
REMARK INTER + INTRA:          -9.785
REMARK INTER:                  -8.220
REMARK INTRA:                  -1.566
REMARK UNBOUND:                -1.566
REMARK SMILES CC[C@H](C)[C@@H]1NC(=O)[C@H]2CSC(=N2)[C@@H]([C@@H](C)CC)NC(=O)c2csc(n2)CNC(=O)[C@H]2N=C1O[C@@H]2C
REMARK SMILES IDX 27 1 25 2 22 3 26 4 23 5 24 6 20 7 19 8 21 9 14 11 12 12
REMARK SMILES IDX 11 13 10 14 13 15 9 16 15 18 16 19 17 20 18 21 28 22 29 23
REMARK SMILES IDX 30 24 31 26 32 27 35 28 33 29 34 30 36 31 5 32 6 33 7 34
REMARK SMILES IDX 8 35 3 38 4 39 2 40 1 41
REMARK H PARENT 19 10 28 25 6 36
REMARK Flexibility Score:   91.900
ROOT
ATOM      1  C   UNL     1       9.231   3.879   5.357  1.00  0.00     0.183 C 
ENDROOT
BRANCH   1   2
ATOM      2  C   UNL     1      10.449   4.533   5.944  1.00  0.00     0.113 A 
ATOM      3  C   UNL     1      11.722   6.090   6.904  1.00  0.00     0.139 A 
ATOM      4  N   UNL     1      10.425   5.692   6.576  1.00  0.00    -0.234 NA
ATOM      5  C   UNL     1      12.704   5.182   6.558  1.00  0.00     0.101 A 
ATOM      6  S   UNL     1      12.002   3.818   5.789  1.00  0.00    -0.125 S 
BRANCH   3   7
ATOM      7  C   UNL     1      11.953   7.397   7.524  1.00  0.00     0.271 C 
ATOM      8  N   UNL     1      11.599   7.397   8.850  1.00  0.00    -0.341 N 
ATOM      9  O   UNL     1      12.377   8.372   6.917  1.00  0.00    -0.267 OA
ATOM     10  H   UNL     1      11.284   6.502   9.222  1.00  0.00     0.164 HD
BRANCH   8  11
ATOM     11  C   UNL     1      11.539   8.589   9.680  1.00  0.00     0.140 C 
BRANCH  11  12
ATOM     12  C   UNL     1      10.189   8.591  10.402  1.00  0.00     0.091 C 
ATOM     13  S   UNL     1      10.050   7.959  12.026  1.00  0.00    -0.106 SA
ATOM     14  C   UNL     1       8.392   8.661  12.171  1.00  0.00     0.113 C 
ATOM     15  N   UNL     1       9.099   8.985   9.821  1.00  0.00    -0.267 NA
ATOM     16  C   UNL     1       7.927   8.774  10.728  1.00  0.00     0.205 CG0
ATOM     17  G   UNL     1       7.131   7.526  10.313  1.00  0.00     0.000 G0
ENDBRANCH  11  12
BRANCH  11  18
ATOM     18  C   UNL     1      12.794   8.806  10.564  1.00  0.00     0.015 C 
ATOM     19  C   UNL     1      13.718   7.584  10.490  1.00  0.00     0.010 C 
BRANCH  18  20
ATOM     20  C   UNL     1      13.563  10.113  10.282  1.00  0.00     0.002 C 
ATOM     21  C   UNL     1      13.340  11.177  11.351  1.00  0.00     0.004 C 
ENDBRANCH  18  20
ENDBRANCH  11  18
ENDBRANCH   8  11
ENDBRANCH   3   7
ENDBRANCH   1   2
BRANCH   1  22
ATOM     22  N   UNL     1       8.131   4.806   5.501  1.00  0.00    -0.348 N 
ATOM     23  C   UNL     1       6.817   4.498   5.275  1.00  0.00     0.249 C 
ATOM     24  O   UNL     1       6.429   3.366   5.005  1.00  0.00    -0.272 OA
ATOM     25  H   UNL     1       8.343   5.783   5.703  1.00  0.00     0.163 HD
BRANCH  23  26
ATOM     26  C   UNL     1       5.883   5.703   5.456  1.00  0.00     0.238 C 
ATOM     27  N   UNL     1       5.113   5.542   6.721  1.00  0.00    -0.236 NA
ATOM     28  C   UNL     1       6.654   7.002   5.613  1.00  0.00     0.206 C 
ATOM     29  C   UNL     1       5.601   6.472   7.487  1.00  0.00     0.208 C 
ATOM     30  O   UNL     1       6.570   7.290   7.007  1.00  0.00    -0.474 OA
ATOM     31  C   UNL     1       6.024   8.153   4.839  1.00  0.00     0.056 C 
BRANCH  29  32
ATOM     32  C   UNL     1       5.230   6.730   8.945  1.00  0.00     0.171 C 
BRANCH  32  33
ATOM     33  N   UNL     1       6.057   7.783   9.512  1.00  0.00    -0.342 N 
ATOM     34  C   UNL     1       7.140   7.522  10.318  1.00  0.00     0.246 CG0
ATOM     35  O   UNL     1       7.477   6.386  10.640  1.00  0.00    -0.273 OA
ATOM     36  H   UNL     1       5.837   8.762   9.361  1.00  0.00     0.164 HD
ATOM     37  G   UNL     1       7.916   8.772  10.766  1.00  0.00     0.000 G0
ENDBRANCH  32  33
BRANCH  32  38
ATOM     38  C   UNL     1       3.714   7.029   9.075  1.00  0.00     0.017 C 
ATOM     39  C   UNL     1       2.974   5.788   9.590  1.00  0.00     0.010 C 
BRANCH  38  40
ATOM     40  C   UNL     1       3.417   8.271   9.946  1.00  0.00     0.002 C 
ATOM     41  C   UNL     1       2.529   7.975  11.148  1.00  0.00     0.004 C 
ENDBRANCH  38  40
ENDBRANCH  32  38
ENDBRANCH  29  32
ENDBRANCH  23  26
ENDBRANCH   1  22
TORSDOF 4
ENDMDL
MODEL 2
REMARK VINA RESULT:    -4.346     21.750     25.773
REMARK INTER + INTRA:          -8.960
REMARK INTER:                  -7.367
REMARK INTRA:                  -1.592
REMARK UNBOUND:                -1.566
REMARK SMILES CC[C@H](C)[C@@H]1NC(=O)[C@H]2CSC(=N2)[C@@H]([C@@H](C)CC)NC(=O)c2csc(n2)CNC(=O)[C@H]2N=C1O[C@@H]2C
REMARK SMILES IDX 27 1 25 2 22 3 26 4 23 5 24 6 20 7 19 8 21 9 14 11 12 12
REMARK SMILES IDX 11 13 10 14 13 15 9 16 15 18 16 19 17 20 18 21 28 22 29 23
REMARK SMILES IDX 30 24 31 26 32 27 35 28 33 29 34 30 36 31 5 32 6 33 7 34
REMARK SMILES IDX 8 35 3 38 4 39 2 40 1 41
REMARK H PARENT 19 10 28 25 6 36
REMARK Flexibility Score:   91.900
ROOT
ATOM      1  C   UNL     1     -15.688  -8.481  10.995  1.00  0.00     0.183 C 
ENDROOT
BRANCH   1   2
ATOM      2  C   UNL     1     -15.168  -7.277  11.726  1.00  0.00     0.113 A 
ATOM      3  C   UNL     1     -13.946  -5.462  12.151  1.00  0.00     0.139 A 
ATOM      4  N   UNL     1     -14.337  -6.400  11.194  1.00  0.00    -0.234 NA
ATOM      5  C   UNL     1     -14.544  -5.622  13.386  1.00  0.00     0.101 A 
ATOM      6  S   UNL     1     -15.595  -6.979  13.362  1.00  0.00    -0.125 S 
BRANCH   3   7
ATOM      7  C   UNL     1     -12.946  -4.446  11.817  1.00  0.00     0.271 C 
ATOM      8  N   UNL     1     -12.302  -4.738  10.639  1.00  0.00    -0.341 N 
ATOM      9  O   UNL     1     -12.698  -3.477  12.523  1.00  0.00    -0.267 OA
ATOM     10  H   UNL     1     -12.634  -5.568  10.150  1.00  0.00     0.164 HD
BRANCH   8  11
ATOM     11  C   UNL     1     -11.139  -4.021  10.145  1.00  0.00     0.140 C 
BRANCH  11  12
ATOM     12  C   UNL     1      -9.926  -4.948  10.271  1.00  0.00     0.091 C 
ATOM     13  S   UNL     1      -8.496  -4.675   9.305  1.00  0.00    -0.106 SA
ATOM     14  C   UNL     1      -7.579  -5.868  10.302  1.00  0.00     0.113 C 
ATOM     15  N   UNL     1      -9.941  -5.997  11.031  1.00  0.00    -0.267 NA
ATOM     16  C   UNL     1      -8.666  -6.766  10.871  1.00  0.00     0.205 CG0
ATOM     17  G   UNL     1      -8.877  -7.998   9.977  1.00  0.00     0.000 G0
ENDBRANCH  11  12
BRANCH  11  18
ATOM     18  C   UNL     1     -11.352  -3.350   8.764  1.00  0.00     0.015 C 
ATOM     19  C   UNL     1     -11.900  -4.367   7.754  1.00  0.00     0.010 C 
BRANCH  18  20
ATOM     20  C   UNL     1     -12.209  -2.068   8.795  1.00  0.00     0.002 C 
ATOM     21  C   UNL     1     -11.472  -0.873   9.390  1.00  0.00     0.004 C 
ENDBRANCH  18  20
ENDBRANCH  11  18
ENDBRANCH   8  11
ENDBRANCH   3   7
ENDBRANCH   1   2
BRANCH   1  22
ATOM     22  N   UNL     1     -14.673  -9.507  11.073  1.00  0.00    -0.348 N 
ATOM     23  C   UNL     1     -14.475 -10.481  10.133  1.00  0.00     0.249 C 
ATOM     24  O   UNL     1     -15.093 -10.530   9.075  1.00  0.00    -0.272 OA
ATOM     25  H   UNL     1     -14.116  -9.573  11.924  1.00  0.00     0.163 HD
BRANCH  23  26
ATOM     26  C   UNL     1     -13.359 -11.464  10.519  1.00  0.00     0.238 C 
ATOM     27  N   UNL     1     -12.196 -11.268   9.610  1.00  0.00    -0.236 NA
ATOM     28  C   UNL     1     -12.830 -11.202  11.919  1.00  0.00     0.206 C 
ATOM     29  C   UNL     1     -11.292 -10.753  10.389  1.00  0.00     0.208 C 
ATOM     30  O   UNL     1     -11.577 -10.555  11.700  1.00  0.00    -0.474 OA
ATOM     31  C   UNL     1     -12.585 -12.485  12.701  1.00  0.00     0.056 C 
BRANCH  29  32
ATOM     32  C   UNL     1      -9.904 -10.276   9.973  1.00  0.00     0.171 C 
BRANCH  32  33
ATOM     33  N   UNL     1      -9.562  -9.028  10.637  1.00  0.00    -0.342 N 
ATOM     34  C   UNL     1      -8.871  -8.020  10.009  1.00  0.00     0.246 CG0
ATOM     35  O   UNL     1      -8.467  -8.104   8.852  1.00  0.00    -0.273 OA
ATOM     36  H   UNL     1      -9.794  -8.873  11.612  1.00  0.00     0.164 HD
ATOM     37  G   UNL     1      -8.663  -6.761  10.866  1.00  0.00     0.000 G0
ENDBRANCH  32  33
BRANCH  32  38
ATOM     38  C   UNL     1      -8.851 -11.389  10.220  1.00  0.00     0.017 C 
ATOM     39  C   UNL     1      -8.744 -11.689  11.720  1.00  0.00     0.010 C 
BRANCH  38  40
ATOM     40  C   UNL     1      -9.126 -12.671   9.402  1.00  0.00     0.002 C 
ATOM     41  C   UNL     1      -7.871 -13.475   9.087  1.00  0.00     0.004 C 
ENDBRANCH  38  40
ENDBRANCH  32  38
ENDBRANCH  29  32
ENDBRANCH  23  26
ENDBRANCH   1  22
TORSDOF 4
ENDMDL
MODEL 3
REMARK VINA RESULT:    -4.206      4.093      6.659
REMARK INTER + INTRA:          -8.723
REMARK INTER:                  -6.927
REMARK INTRA:                  -1.796
REMARK UNBOUND:                -1.566
REMARK SMILES CC[C@H](C)[C@@H]1NC(=O)[C@H]2CSC(=N2)[C@@H]([C@@H](C)CC)NC(=O)c2csc(n2)CNC(=O)[C@H]2N=C1O[C@@H]2C
REMARK SMILES IDX 27 1 25 2 22 3 26 4 23 5 24 6 20 7 19 8 21 9 14 11 12 12
REMARK SMILES IDX 11 13 10 14 13 15 9 16 15 18 16 19 17 20 18 21 28 22 29 23
REMARK SMILES IDX 30 24 31 26 32 27 35 28 33 29 34 30 36 31 5 32 6 33 7 34
REMARK SMILES IDX 8 35 3 38 4 39 2 40 1 41
REMARK H PARENT 19 10 28 25 6 36
REMARK Flexibility Score:   91.900
ROOT
ATOM      1  C   UNL     1       7.178   3.908   2.074  1.00  0.00     0.183 C 
ENDROOT
BRANCH   1   2
ATOM      2  C   UNL     1       7.538   2.876   3.104  1.00  0.00     0.113 A 
ATOM      3  C   UNL     1       7.724   1.896   5.097  1.00  0.00     0.139 A 
ATOM      4  N   UNL     1       7.136   2.927   4.361  1.00  0.00    -0.234 NA
ATOM      5  C   UNL     1       8.520   1.045   4.355  1.00  0.00     0.101 A 
ATOM      6  S   UNL     1       8.559   1.551   2.715  1.00  0.00    -0.125 S 
BRANCH   3   7
ATOM      7  C   UNL     1       7.504   1.809   6.542  1.00  0.00     0.271 C 
ATOM      8  N   UNL     1       6.179   1.604   6.841  1.00  0.00    -0.341 N 
ATOM      9  O   UNL     1       8.392   1.940   7.374  1.00  0.00    -0.267 OA
ATOM     10  H   UNL     1       5.559   1.491   6.040  1.00  0.00     0.164 HD
BRANCH   8  11
ATOM     11  C   UNL     1       5.626   1.661   8.184  1.00  0.00     0.140 C 
BRANCH  11  12
ATOM     12  C   UNL     1       4.538   2.738   8.198  1.00  0.00     0.091 C 
ATOM     13  S   UNL     1       3.467   2.936   6.830  1.00  0.00    -0.106 SA
ATOM     14  C   UNL     1       2.407   4.028   7.802  1.00  0.00     0.113 C 
ATOM     15  N   UNL     1       4.417   3.579   9.177  1.00  0.00    -0.267 NA
ATOM     16  C   UNL     1       3.344   4.576   8.867  1.00  0.00     0.205 CG0
ATOM     17  G   UNL     1       3.952   5.915   8.420  1.00  0.00     0.000 G0
ENDBRANCH  11  12
BRANCH  11  18
ATOM     18  C   UNL     1       5.235   0.277   8.764  1.00  0.00     0.015 C 
ATOM     19  C   UNL     1       4.785  -0.666   7.640  1.00  0.00     0.010 C 
BRANCH  18  20
ATOM     20  C   UNL     1       6.313  -0.378   9.652  1.00  0.00     0.002 C 
ATOM     21  C   UNL     1       7.238  -1.309   8.876  1.00  0.00     0.004 C 
ENDBRANCH  18  20
ENDBRANCH  11  18
ENDBRANCH   8  11
ENDBRANCH   3   7
ENDBRANCH   1   2
BRANCH   1  22
ATOM     22  N   UNL     1       6.413   4.937   2.741  1.00  0.00    -0.348 N 
ATOM     23  C   UNL     1       6.955   5.999   3.412  1.00  0.00     0.249 C 
ATOM     24  O   UNL     1       8.158   6.232   3.443  1.00  0.00    -0.272 OA
ATOM     25  H   UNL     1       5.401   4.830   2.795  1.00  0.00     0.163 HD
BRANCH  23  26
ATOM     26  C   UNL     1       5.892   6.895   4.066  1.00  0.00     0.238 C 
ATOM     27  N   UNL     1       5.538   6.341   5.402  1.00  0.00    -0.236 NA
ATOM     28  C   UNL     1       6.415   8.296   4.332  1.00  0.00     0.206 C 
ATOM     29  C   UNL     1       6.028   7.218   6.227  1.00  0.00     0.208 C 
ATOM     30  O   UNL     1       6.657   8.314   5.738  1.00  0.00    -0.474 OA
ATOM     31  C   UNL     1       5.392   9.375   4.001  1.00  0.00     0.056 C 
BRANCH  29  32
ATOM     32  C   UNL     1       6.023   7.127   7.751  1.00  0.00     0.171 C 
BRANCH  32  33
ATOM     33  N   UNL     1       5.296   5.950   8.199  1.00  0.00    -0.342 N 
ATOM     34  C   UNL     1       3.943   5.961   8.439  1.00  0.00     0.246 CG0
ATOM     35  O   UNL     1       3.249   6.967   8.320  1.00  0.00    -0.273 OA
ATOM     36  H   UNL     1       5.778   5.077   8.387  1.00  0.00     0.164 HD
ATOM     37  G   UNL     1       3.358   4.599   8.848  1.00  0.00     0.000 G0
ENDBRANCH  32  33
BRANCH  32  38
ATOM     38  C   UNL     1       7.472   7.178   8.302  1.00  0.00     0.017 C 
ATOM     39  C   UNL     1       7.465   7.662   9.758  1.00  0.00     0.010 C 
BRANCH  38  40
ATOM     40  C   UNL     1       8.220   5.833   8.153  1.00  0.00     0.002 C 
ATOM     41  C   UNL     1       9.000   5.428   9.398  1.00  0.00     0.004 C 
ENDBRANCH  38  40
ENDBRANCH  32  38
ENDBRANCH  29  32
ENDBRANCH  23  26
ENDBRANCH   1  22
TORSDOF 4
ENDMDL
MODEL 4
REMARK VINA RESULT:    -4.166     19.099     22.626
REMARK INTER + INTRA:          -8.655
REMARK INTER:                  -6.885
REMARK INTRA:                  -1.769
REMARK UNBOUND:                -1.566
REMARK SMILES CC[C@H](C)[C@@H]1NC(=O)[C@H]2CSC(=N2)[C@@H]([C@@H](C)CC)NC(=O)c2csc(n2)CNC(=O)[C@H]2N=C1O[C@@H]2C
REMARK SMILES IDX 27 1 25 2 22 3 26 4 23 5 24 6 20 7 19 8 21 9 14 11 12 12
REMARK SMILES IDX 11 13 10 14 13 15 9 16 15 18 16 19 17 20 18 21 28 22 29 23
REMARK SMILES IDX 30 24 31 26 32 27 35 28 33 29 34 30 36 31 5 32 6 33 7 34
REMARK SMILES IDX 8 35 3 38 4 39 2 40 1 41
REMARK H PARENT 19 10 28 25 6 36
REMARK Flexibility Score:   91.900
ROOT
ATOM      1  C   UNL     1      -8.574  -1.481   3.619  1.00  0.00     0.183 C 
ENDROOT
BRANCH   1   2
ATOM      2  C   UNL     1      -7.637  -1.340   2.454  1.00  0.00     0.113 A 
ATOM      3  C   UNL     1      -6.038  -1.854   0.989  1.00  0.00     0.139 A 
ATOM      4  N   UNL     1      -6.880  -2.322   2.001  1.00  0.00    -0.234 NA
ATOM      5  C   UNL     1      -6.224  -0.526   0.659  1.00  0.00     0.101 A 
ATOM      6  S   UNL     1      -7.451   0.161   1.642  1.00  0.00    -0.125 S 
BRANCH   3   7
ATOM      7  C   UNL     1      -5.035  -2.745   0.401  1.00  0.00     0.271 C 
ATOM      8  N   UNL     1      -5.402  -3.162  -0.854  1.00  0.00    -0.341 N 
ATOM      9  O   UNL     1      -4.014  -3.095   0.980  1.00  0.00    -0.267 OA
ATOM     10  H   UNL     1      -6.270  -2.766  -1.214  1.00  0.00     0.164 HD
BRANCH   8  11
ATOM     11  C   UNL     1      -4.706  -4.191  -1.610  1.00  0.00     0.140 C 
BRANCH  11  12
ATOM     12  C   UNL     1      -5.730  -5.262  -1.997  1.00  0.00     0.091 C 
ATOM     13  S   UNL     1      -5.954  -5.712  -3.671  1.00  0.00    -0.106 SA
ATOM     14  C   UNL     1      -6.941  -7.138  -3.170  1.00  0.00     0.113 C 
ATOM     15  N   UNL     1      -6.510  -5.815  -1.122  1.00  0.00    -0.267 NA
ATOM     16  C   UNL     1      -7.472  -6.738  -1.802  1.00  0.00     0.205 CG0
ATOM     17  G   UNL     1      -8.860  -6.090  -1.925  1.00  0.00     0.000 G0
ENDBRANCH  11  12
BRANCH  11  18
ATOM     18  C   UNL     1      -3.818  -3.640  -2.755  1.00  0.00     0.015 C 
ATOM     19  C   UNL     1      -4.293  -2.242  -3.175  1.00  0.00     0.010 C 
BRANCH  18  20
ATOM     20  C   UNL     1      -2.304  -3.657  -2.462  1.00  0.00     0.002 C 
ATOM     21  C   UNL     1      -1.894  -4.779  -1.514  1.00  0.00     0.004 C 
ENDBRANCH  18  20
ENDBRANCH  11  18
ENDBRANCH   8  11
ENDBRANCH   3   7
ENDBRANCH   1   2
BRANCH   1  22
ATOM     22  N   UNL     1      -9.565  -2.471   3.260  1.00  0.00    -0.348 N 
ATOM     23  C   UNL     1     -10.683  -2.220   2.512  1.00  0.00     0.249 C 
ATOM     24  O   UNL     1     -10.915  -1.133   1.995  1.00  0.00    -0.272 OA
ATOM     25  H   UNL     1      -9.480  -3.407   3.656  1.00  0.00     0.163 HD
BRANCH  23  26
ATOM     26  C   UNL     1     -11.577  -3.458   2.343  1.00  0.00     0.238 C 
ATOM     27  N   UNL     1     -11.789  -3.716   0.892  1.00  0.00    -0.236 NA
ATOM     28  C   UNL     1     -10.918  -4.714   2.887  1.00  0.00     0.206 C 
ATOM     29  C   UNL     1     -11.127  -4.815   0.685  1.00  0.00     0.208 C 
ATOM     30  O   UNL     1     -10.488  -5.413   1.720  1.00  0.00    -0.474 OA
ATOM     31  C   UNL     1     -11.891  -5.599   3.654  1.00  0.00     0.056 C 
BRANCH  29  32
ATOM     32  C   UNL     1     -10.933  -5.515  -0.657  1.00  0.00     0.171 C 
BRANCH  32  33
ATOM     33  N   UNL     1      -9.604  -6.100  -0.751  1.00  0.00    -0.342 N 
ATOM     34  C   UNL     1      -8.870  -6.088  -1.913  1.00  0.00     0.246 CG0
ATOM     35  O   UNL     1      -9.287  -5.609  -2.964  1.00  0.00    -0.273 OA
ATOM     36  H   UNL     1      -9.184  -6.575   0.040  1.00  0.00     0.164 HD
ATOM     37  G   UNL     1      -7.467  -6.705  -1.786  1.00  0.00     0.000 G0
ENDBRANCH  32  33
BRANCH  32  38
ATOM     38  C   UNL     1     -12.059  -6.556  -0.894  1.00  0.00     0.017 C 
ATOM     39  C   UNL     1     -12.617  -6.415  -2.315  1.00  0.00     0.010 C 
BRANCH  38  40
ATOM     40  C   UNL     1     -11.610  -8.006  -0.600  1.00  0.00     0.002 C 
ATOM     41  C   UNL     1     -11.568  -8.342   0.885  1.00  0.00     0.004 C 
ENDBRANCH  38  40
ENDBRANCH  32  38
ENDBRANCH  29  32
ENDBRANCH  23  26
ENDBRANCH   1  22
TORSDOF 4
ENDMDL
MODEL 5
REMARK VINA RESULT:    -4.053      4.425      6.194
REMARK INTER + INTRA:          -8.462
REMARK INTER:                  -6.773
REMARK INTRA:                  -1.689
REMARK UNBOUND:                -1.566
REMARK SMILES CC[C@H](C)[C@@H]1NC(=O)[C@H]2CSC(=N2)[C@@H]([C@@H](C)CC)NC(=O)c2csc(n2)CNC(=O)[C@H]2N=C1O[C@@H]2C
REMARK SMILES IDX 27 1 25 2 22 3 26 4 23 5 24 6 20 7 19 8 21 9 14 11 12 12
REMARK SMILES IDX 11 13 10 14 13 15 9 16 15 18 16 19 17 20 18 21 28 22 29 23
REMARK SMILES IDX 30 24 31 26 32 27 35 28 33 29 34 30 36 31 5 32 6 33 7 34
REMARK SMILES IDX 8 35 3 38 4 39 2 40 1 41
REMARK H PARENT 19 10 28 25 6 36
REMARK Flexibility Score:   91.900
ROOT
ATOM      1  C   UNL     1       9.091   4.415   6.141  1.00  0.00     0.183 C 
ENDROOT
BRANCH   1   2
ATOM      2  C   UNL     1       9.813   3.594   7.170  1.00  0.00     0.113 A 
ATOM      3  C   UNL     1      10.127   2.241   8.914  1.00  0.00     0.139 A 
ATOM      4  N   UNL     1       9.207   2.772   8.007  1.00  0.00    -0.234 NA
ATOM      5  C   UNL     1      11.433   2.636   8.700  1.00  0.00     0.101 A 
ATOM      6  S   UNL     1      11.515   3.707   7.362  1.00  0.00    -0.125 S 
BRANCH   3   7
ATOM      7  C   UNL     1       9.667   1.377  10.003  1.00  0.00     0.271 C 
ATOM      8  N   UNL     1       8.375   0.956   9.804  1.00  0.00    -0.341 N 
ATOM      9  O   UNL     1      10.346   1.098  10.983  1.00  0.00    -0.267 OA
ATOM     10  H   UNL     1       7.945   1.251   8.928  1.00  0.00     0.164 HD
BRANCH   8  11
ATOM     11  C   UNL     1       7.585   0.246  10.797  1.00  0.00     0.140 C 
BRANCH  11  12
ATOM     12  C   UNL     1       6.413   1.146  11.197  1.00  0.00     0.091 C 
ATOM     13  S   UNL     1       4.791   0.500  11.295  1.00  0.00    -0.106 SA
ATOM     14  C   UNL     1       4.229   2.004  12.119  1.00  0.00     0.113 C 
ATOM     15  N   UNL     1       6.562   2.417  11.402  1.00  0.00    -0.267 NA
ATOM     16  C   UNL     1       5.234   3.053  11.670  1.00  0.00     0.205 CG0
ATOM     17  G   UNL     1       4.722   3.799  10.426  1.00  0.00     0.000 G0
ENDBRANCH  11  12
BRANCH  11  18
ATOM     18  C   UNL     1       7.231  -1.210  10.396  1.00  0.00     0.015 C 
ATOM     19  C   UNL     1       6.985  -1.304   8.885  1.00  0.00     0.010 C 
BRANCH  18  20
ATOM     20  C   UNL     1       8.244  -2.273  10.869  1.00  0.00     0.002 C 
ATOM     21  C   UNL     1       8.725  -2.042  12.297  1.00  0.00     0.004 C 
ENDBRANCH  18  20
ENDBRANCH  11  18
ENDBRANCH   8  11
ENDBRANCH   3   7
ENDBRANCH   1   2
BRANCH   1  22
ATOM     22  N   UNL     1       8.372   5.454   6.844  1.00  0.00    -0.348 N 
ATOM     23  C   UNL     1       7.889   6.596   6.265  1.00  0.00     0.249 C 
ATOM     24  O   UNL     1       7.945   6.814   5.060  1.00  0.00    -0.272 OA
ATOM     25  H   UNL     1       8.287   5.384   7.857  1.00  0.00     0.163 HD
BRANCH  23  26
ATOM     26  C   UNL     1       7.218   7.538   7.275  1.00  0.00     0.238 C 
ATOM     27  N   UNL     1       5.790   7.149   7.437  1.00  0.00    -0.236 NA
ATOM     28  C   UNL     1       7.832   7.417   8.660  1.00  0.00     0.206 C 
ATOM     29  C   UNL     1       5.746   6.674   8.646  1.00  0.00     0.208 C 
ATOM     30  O   UNL     1       6.873   6.662   9.399  1.00  0.00    -0.474 OA
ATOM     31  C   UNL     1       8.014   8.768   9.338  1.00  0.00     0.056 C 
BRANCH  29  32
ATOM     32  C   UNL     1       4.531   6.053   9.330  1.00  0.00     0.171 C 
BRANCH  32  33
ATOM     33  N   UNL     1       4.938   5.186  10.425  1.00  0.00    -0.342 N 
ATOM     34  C   UNL     1       4.685   3.835  10.434  1.00  0.00     0.246 CG0
ATOM     35  O   UNL     1       4.075   3.261   9.535  1.00  0.00    -0.273 OA
ATOM     36  H   UNL     1       5.397   5.561  11.248  1.00  0.00     0.164 HD
ATOM     37  G   UNL     1       5.250   3.089  11.654  1.00  0.00     0.000 G0
ENDBRANCH  32  33
BRANCH  32  38
ATOM     38  C   UNL     1       3.539   7.157   9.783  1.00  0.00     0.017 C 
ATOM     39  C   UNL     1       2.535   7.455   8.663  1.00  0.00     0.010 C 
BRANCH  38  40
ATOM     40  C   UNL     1       2.826   6.817  11.112  1.00  0.00     0.002 C 
ATOM     41  C   UNL     1       2.119   8.008  11.745  1.00  0.00     0.004 C 
ENDBRANCH  38  40
ENDBRANCH  32  38
ENDBRANCH  29  32
ENDBRANCH  23  26
ENDBRANCH   1  22
TORSDOF 4
ENDMDL
MODEL 6
REMARK VINA RESULT:    -4.003     19.130     23.304
REMARK INTER + INTRA:          -8.376
REMARK INTER:                  -6.696
REMARK INTRA:                  -1.680
REMARK UNBOUND:                -1.566
REMARK SMILES CC[C@H](C)[C@@H]1NC(=O)[C@H]2CSC(=N2)[C@@H]([C@@H](C)CC)NC(=O)c2csc(n2)CNC(=O)[C@H]2N=C1O[C@@H]2C
REMARK SMILES IDX 27 1 25 2 22 3 26 4 23 5 24 6 20 7 19 8 21 9 14 11 12 12
REMARK SMILES IDX 11 13 10 14 13 15 9 16 15 18 16 19 17 20 18 21 28 22 29 23
REMARK SMILES IDX 30 24 31 26 32 27 35 28 33 29 34 30 36 31 5 32 6 33 7 34
REMARK SMILES IDX 8 35 3 38 4 39 2 40 1 41
REMARK H PARENT 19 10 28 25 6 36
REMARK Flexibility Score:   91.900
ROOT
ATOM      1  C   UNL     1      -5.128  -3.369   2.755  1.00  0.00     0.183 C 
ENDROOT
BRANCH   1   2
ATOM      2  C   UNL     1      -6.416  -2.607   2.891  1.00  0.00     0.113 A 
ATOM      3  C   UNL     1      -8.608  -2.211   2.942  1.00  0.00     0.139 A 
ATOM      4  N   UNL     1      -7.604  -3.181   2.928  1.00  0.00    -0.234 NA
ATOM      5  C   UNL     1      -8.145  -0.910   2.975  1.00  0.00     0.101 A 
ATOM      6  S   UNL     1      -6.429  -0.892   2.962  1.00  0.00    -0.125 S 
BRANCH   3   7
ATOM      7  C   UNL     1     -10.015  -2.611   2.883  1.00  0.00     0.271 C 
ATOM      8  N   UNL     1     -10.149  -3.971   2.748  1.00  0.00    -0.341 N 
ATOM      9  O   UNL     1     -10.950  -1.820   2.916  1.00  0.00    -0.267 OA
ATOM     10  H   UNL     1      -9.280  -4.503   2.759  1.00  0.00     0.164 HD
BRANCH   8  11
ATOM     11  C   UNL     1     -11.408  -4.646   2.477  1.00  0.00     0.140 C 
BRANCH  11  12
ATOM     12  C   UNL     1     -11.299  -5.310   1.102  1.00  0.00     0.091 C 
ATOM     13  S   UNL     1     -12.064  -6.852   0.798  1.00  0.00    -0.106 SA
ATOM     14  C   UNL     1     -11.766  -6.665  -0.973  1.00  0.00     0.113 C 
ATOM     15  N   UNL     1     -10.584  -4.801   0.148  1.00  0.00    -0.267 NA
ATOM     16  C   UNL     1     -10.578  -5.718  -1.035  1.00  0.00     0.205 CG0
ATOM     17  G   UNL     1      -9.259  -6.505  -1.112  1.00  0.00     0.000 G0
ENDBRANCH  11  12
BRANCH  11  18
ATOM     18  C   UNL     1     -11.905  -5.544   3.639  1.00  0.00     0.015 C 
ATOM     19  C   UNL     1     -10.770  -6.445   4.142  1.00  0.00     0.010 C 
BRANCH  18  20
ATOM     20  C   UNL     1     -12.576  -4.782   4.800  1.00  0.00     0.002 C 
ATOM     21  C   UNL     1     -13.766  -5.530   5.393  1.00  0.00     0.004 C 
ENDBRANCH  18  20
ENDBRANCH  11  18
ENDBRANCH   8  11
ENDBRANCH   3   7
ENDBRANCH   1   2
BRANCH   1  22
ATOM     22  N   UNL     1      -4.968  -3.702   1.358  1.00  0.00    -0.348 N 
ATOM     23  C   UNL     1      -4.246  -4.766   0.888  1.00  0.00     0.249 C 
ATOM     24  O   UNL     1      -3.727  -5.602   1.620  1.00  0.00    -0.272 OA
ATOM     25  H   UNL     1      -5.342  -3.060   0.660  1.00  0.00     0.163 HD
BRANCH  23  26
ATOM     26  C   UNL     1      -4.211  -4.831  -0.646  1.00  0.00     0.238 C 
ATOM     27  N   UNL     1      -4.842  -6.102  -1.099  1.00  0.00    -0.236 NA
ATOM     28  C   UNL     1      -5.031  -3.721  -1.281  1.00  0.00     0.206 C 
ATOM     29  C   UNL     1      -5.942  -5.703  -1.664  1.00  0.00     0.208 C 
ATOM     30  O   UNL     1      -6.219  -4.377  -1.723  1.00  0.00    -0.474 OA
ATOM     31  C   UNL     1      -4.340  -3.101  -2.488  1.00  0.00     0.056 C 
BRANCH  29  32
ATOM     32  C   UNL     1      -7.033  -6.595  -2.251  1.00  0.00     0.171 C 
BRANCH  32  33
ATOM     33  N   UNL     1      -8.349  -6.012  -2.043  1.00  0.00    -0.342 N 
ATOM     34  C   UNL     1      -9.245  -6.512  -1.129  1.00  0.00     0.246 CG0
ATOM     35  O   UNL     1      -9.015  -7.501  -0.438  1.00  0.00    -0.273 OA
ATOM     36  H   UNL     1      -8.669  -5.227  -2.601  1.00  0.00     0.164 HD
ATOM     37  G   UNL     1     -10.556  -5.717  -1.020  1.00  0.00     0.000 G0
ENDBRANCH  32  33
BRANCH  32  38
ATOM     38  C   UNL     1      -6.744  -6.892  -3.746  1.00  0.00     0.017 C 
ATOM     39  C   UNL     1      -5.943  -8.194  -3.879  1.00  0.00     0.010 C 
BRANCH  38  40
ATOM     40  C   UNL     1      -8.023  -6.920  -4.614  1.00  0.00     0.002 C 
ATOM     41  C   UNL     1      -8.407  -8.315  -5.089  1.00  0.00     0.004 C 
ENDBRANCH  38  40
ENDBRANCH  32  38
ENDBRANCH  29  32
ENDBRANCH  23  26
ENDBRANCH   1  22
TORSDOF 4
ENDMDL
MODEL 7
REMARK VINA RESULT:    -3.742      3.192      6.312
REMARK INTER + INTRA:          -7.933
REMARK INTER:                  -6.001
REMARK INTRA:                  -1.931
REMARK UNBOUND:                -1.566
REMARK SMILES CC[C@H](C)[C@@H]1NC(=O)[C@H]2CSC(=N2)[C@@H]([C@@H](C)CC)NC(=O)c2csc(n2)CNC(=O)[C@H]2N=C1O[C@@H]2C
REMARK SMILES IDX 27 1 25 2 22 3 26 4 23 5 24 6 20 7 19 8 21 9 14 11 12 12
REMARK SMILES IDX 11 13 10 14 13 15 9 16 15 18 16 19 17 20 18 21 28 22 29 23
REMARK SMILES IDX 30 24 31 26 32 27 35 28 33 29 34 30 36 31 5 32 6 33 7 34
REMARK SMILES IDX 8 35 3 38 4 39 2 40 1 41
REMARK H PARENT 19 10 28 25 6 36
REMARK Flexibility Score:   91.900
ROOT
ATOM      1  C   UNL     1       5.492   7.037   4.990  1.00  0.00     0.183 C 
ENDROOT
BRANCH   1   2
ATOM      2  C   UNL     1       5.212   6.836   6.451  1.00  0.00     0.113 A 
ATOM      3  C   UNL     1       5.573   6.732   8.648  1.00  0.00     0.139 A 
ATOM      4  N   UNL     1       6.071   7.138   7.408  1.00  0.00    -0.234 NA
ATOM      5  C   UNL     1       4.308   6.179   8.604  1.00  0.00     0.101 A 
ATOM      6  S   UNL     1       3.737   6.139   6.985  1.00  0.00    -0.125 S 
BRANCH   3   7
ATOM      7  C   UNL     1       6.397   6.874   9.851  1.00  0.00     0.271 C 
ATOM      8  N   UNL     1       7.709   6.553   9.605  1.00  0.00    -0.341 N 
ATOM      9  O   UNL     1       5.954   7.205  10.943  1.00  0.00    -0.267 OA
ATOM     10  H   UNL     1       7.932   6.318   8.639  1.00  0.00     0.164 HD
BRANCH   8  11
ATOM     11  C   UNL     1       8.724   6.418  10.638  1.00  0.00     0.140 C 
BRANCH  11  12
ATOM     12  C   UNL     1       9.585   5.200  10.293  1.00  0.00     0.091 C 
ATOM     13  S   UNL     1      11.308   5.218  10.589  1.00  0.00    -0.106 SA
ATOM     14  C   UNL     1      11.392   3.441  10.284  1.00  0.00     0.113 C 
ATOM     15  N   UNL     1       9.092   4.153   9.711  1.00  0.00    -0.267 NA
ATOM     16  C   UNL     1      10.182   3.174   9.403  1.00  0.00     0.205 CG0
ATOM     17  G   UNL     1      10.567   3.232   7.916  1.00  0.00     0.000 G0
ENDBRANCH  11  12
BRANCH  11  18
ATOM     18  C   UNL     1       9.484   7.733  10.950  1.00  0.00     0.015 C 
ATOM     19  C   UNL     1       9.510   8.642   9.714  1.00  0.00     0.010 C 
BRANCH  18  20
ATOM     20  C   UNL     1       8.978   8.490  12.195  1.00  0.00     0.002 C 
ATOM     21  C   UNL     1       9.892   8.323  13.404  1.00  0.00     0.004 C 
ENDBRANCH  18  20
ENDBRANCH  11  18
ENDBRANCH   8  11
ENDBRANCH   3   7
ENDBRANCH   1   2
BRANCH   1  22
ATOM     22  N   UNL     1       6.091   5.819   4.492  1.00  0.00    -0.348 N 
ATOM     23  C   UNL     1       7.437   5.587   4.417  1.00  0.00     0.249 C 
ATOM     24  O   UNL     1       8.279   6.366   4.850  1.00  0.00    -0.272 OA
ATOM     25  H   UNL     1       5.481   5.110   4.086  1.00  0.00     0.163 HD
BRANCH  23  26
ATOM     26  C   UNL     1       7.772   4.224   3.792  1.00  0.00     0.238 C 
ATOM     27  N   UNL     1       9.166   3.846   4.157  1.00  0.00    -0.236 NA
ATOM     28  C   UNL     1       6.892   3.114   4.343  1.00  0.00     0.206 C 
ATOM     29  C   UNL     1       9.000   2.844   4.968  1.00  0.00     0.208 C 
ATOM     30  O   UNL     1       7.745   2.412   5.246  1.00  0.00    -0.474 OA
ATOM     31  C   UNL     1       6.426   2.147   3.262  1.00  0.00     0.056 C 
BRANCH  29  32
ATOM     32  C   UNL     1      10.099   2.095   5.716  1.00  0.00     0.171 C 
BRANCH  32  33
ATOM     33  N   UNL     1       9.924   2.218   7.155  1.00  0.00    -0.342 N 
ATOM     34  C   UNL     1      10.549   3.192   7.897  1.00  0.00     0.246 CG0
ATOM     35  O   UNL     1      11.321   4.013   7.409  1.00  0.00    -0.273 OA
ATOM     36  H   UNL     1       9.355   1.557   7.673  1.00  0.00     0.164 HD
ATOM     37  G   UNL     1      10.185   3.187   9.390  1.00  0.00     0.000 G0
ENDBRANCH  32  33
BRANCH  32  38
ATOM     38  C   UNL     1      10.163   0.616   5.250  1.00  0.00     0.017 C 
ATOM     39  C   UNL     1      11.540   0.314   4.645  1.00  0.00     0.010 C 
BRANCH  38  40
ATOM     40  C   UNL     1       9.801  -0.386   6.370  1.00  0.00     0.002 C 
ATOM     41  C   UNL     1       8.388  -0.942   6.257  1.00  0.00     0.004 C 
ENDBRANCH  38  40
ENDBRANCH  32  38
ENDBRANCH  29  32
ENDBRANCH  23  26
ENDBRANCH   1  22
TORSDOF 4
ENDMDL
MODEL 8
REMARK VINA RESULT:    -3.579     20.925     24.800
REMARK INTER + INTRA:          -7.656
REMARK INTER:                  -5.767
REMARK INTRA:                  -1.889
REMARK UNBOUND:                -1.566
REMARK SMILES CC[C@H](C)[C@@H]1NC(=O)[C@H]2CSC(=N2)[C@@H]([C@@H](C)CC)NC(=O)c2csc(n2)CNC(=O)[C@H]2N=C1O[C@@H]2C
REMARK SMILES IDX 27 1 25 2 22 3 26 4 23 5 24 6 20 7 19 8 21 9 14 11 12 12
REMARK SMILES IDX 11 13 10 14 13 15 9 16 15 18 16 19 17 20 18 21 28 22 29 23
REMARK SMILES IDX 30 24 31 26 32 27 35 28 33 29 34 30 36 31 5 32 6 33 7 34
REMARK SMILES IDX 8 35 3 38 4 39 2 40 1 41
REMARK H PARENT 19 10 28 25 6 36
REMARK Flexibility Score:   91.900
ROOT
ATOM      1  C   UNL     1      -2.095  -0.520  -6.229  1.00  0.00     0.183 C 
ENDROOT
BRANCH   1   2
ATOM      2  C   UNL     1      -1.140  -0.833  -7.345  1.00  0.00     0.113 A 
ATOM      3  C   UNL     1      -0.296  -0.911  -9.406  1.00  0.00     0.139 A 
ATOM      4  N   UNL     1      -1.264  -0.353  -8.569  1.00  0.00    -0.234 NA
ATOM      5  C   UNL     1       0.584  -1.767  -8.772  1.00  0.00     0.101 A 
ATOM      6  S   UNL     1       0.184  -1.899  -7.108  1.00  0.00    -0.125 S 
BRANCH   3   7
ATOM      7  C   UNL     1      -0.298  -0.603 -10.838  1.00  0.00     0.271 C 
ATOM      8  N   UNL     1      -1.574  -0.423 -11.314  1.00  0.00    -0.341 N 
ATOM      9  O   UNL     1       0.715  -0.549 -11.524  1.00  0.00    -0.267 OA
ATOM     10  H   UNL     1      -2.316  -0.476 -10.617  1.00  0.00     0.164 HD
BRANCH   8  11
ATOM     11  C   UNL     1      -1.909  -0.291 -12.723  1.00  0.00     0.140 C 
BRANCH  11  12
ATOM     12  C   UNL     1      -2.890  -1.411 -13.080  1.00  0.00     0.091 C 
ATOM     13  S   UNL     1      -4.059  -1.193 -14.361  1.00  0.00    -0.106 SA
ATOM     14  C   UNL     1      -4.449  -2.955 -14.323  1.00  0.00     0.113 C 
ATOM     15  N   UNL     1      -2.941  -2.519 -12.408  1.00  0.00    -0.267 NA
ATOM     16  C   UNL     1      -4.060  -3.374 -12.914  1.00  0.00     0.205 CG0
ATOM     17  G   UNL     1      -5.273  -3.304 -11.971  1.00  0.00     0.000 G0
ENDBRANCH  11  12
BRANCH  11  18
ATOM     18  C   UNL     1      -2.320   1.145 -13.140  1.00  0.00     0.015 C 
ATOM     19  C   UNL     1      -2.647   1.989 -11.901  1.00  0.00     0.010 C 
BRANCH  18  20
ATOM     20  C   UNL     1      -1.313   1.862 -14.062  1.00  0.00     0.002 C 
ATOM     21  C   UNL     1      -0.316   0.908 -14.710  1.00  0.00     0.004 C 
ENDBRANCH  18  20
ENDBRANCH  11  18
ENDBRANCH   8  11
ENDBRANCH   3   7
ENDBRANCH   1   2
BRANCH   1  22
ATOM     22  N   UNL     1      -3.162  -1.494  -6.287  1.00  0.00    -0.348 N 
ATOM     23  C   UNL     1      -4.341  -1.319  -6.961  1.00  0.00     0.249 C 
ATOM     24  O   UNL     1      -4.577  -0.341  -7.660  1.00  0.00    -0.272 OA
ATOM     25  H   UNL     1      -3.080  -2.338  -5.722  1.00  0.00     0.163 HD
BRANCH  23  26
ATOM     26  C   UNL     1      -5.303  -2.505  -6.793  1.00  0.00     0.238 C 
ATOM     27  N   UNL     1      -6.190  -2.590  -7.987  1.00  0.00    -0.236 NA
ATOM     28  C   UNL     1      -4.567  -3.832  -6.738  1.00  0.00     0.206 C 
ATOM     29  C   UNL     1      -5.790  -3.676  -8.578  1.00  0.00     0.208 C 
ATOM     30  O   UNL     1      -4.789  -4.406  -8.025  1.00  0.00    -0.474 OA
ATOM     31  C   UNL     1      -5.134  -4.772  -5.682  1.00  0.00     0.056 C 
BRANCH  29  32
ATOM     32  C   UNL     1      -6.302  -4.224  -9.907  1.00  0.00     0.171 C 
BRANCH  32  33
ATOM     33  N   UNL     1      -5.262  -4.180 -10.923  1.00  0.00    -0.342 N 
ATOM     34  C   UNL     1      -5.301  -3.309 -11.986  1.00  0.00     0.246 CG0
ATOM     35  O   UNL     1      -6.226  -2.523 -12.174  1.00  0.00    -0.273 OA
ATOM     36  H   UNL     1      -4.479  -4.825 -10.900  1.00  0.00     0.164 HD
ATOM     37  G   UNL     1      -4.077  -3.381 -12.913  1.00  0.00     0.000 G0
ENDBRANCH  32  33
BRANCH  32  38
ATOM     38  C   UNL     1      -6.887  -5.649  -9.717  1.00  0.00     0.017 C 
ATOM     39  C   UNL     1      -7.652  -5.731  -8.390  1.00  0.00     0.010 C 
BRANCH  38  40
ATOM     40  C   UNL     1      -7.762  -6.105 -10.907  1.00  0.00     0.002 C 
ATOM     41  C   UNL     1      -8.854  -5.110 -11.277  1.00  0.00     0.004 C 
ENDBRANCH  38  40
ENDBRANCH  32  38
ENDBRANCH  29  32
ENDBRANCH  23  26
ENDBRANCH   1  22
TORSDOF 4
ENDMDL
MODEL 9
REMARK VINA RESULT:    -3.459      3.342      5.860
REMARK INTER + INTRA:          -7.450
REMARK INTER:                  -5.630
REMARK INTRA:                  -1.820
REMARK UNBOUND:                -1.566
REMARK SMILES CC[C@H](C)[C@@H]1NC(=O)[C@H]2CSC(=N2)[C@@H]([C@@H](C)CC)NC(=O)c2csc(n2)CNC(=O)[C@H]2N=C1O[C@@H]2C
REMARK SMILES IDX 27 1 25 2 22 3 26 4 23 5 24 6 20 7 19 8 21 9 14 11 12 12
REMARK SMILES IDX 11 13 10 14 13 15 9 16 15 18 16 19 17 20 18 21 28 22 29 23
REMARK SMILES IDX 30 24 31 26 32 27 35 28 33 29 34 30 36 31 5 32 6 33 7 34
REMARK SMILES IDX 8 35 3 38 4 39 2 40 1 41
REMARK H PARENT 19 10 28 25 6 36
REMARK Flexibility Score:   91.900
ROOT
ATOM      1  C   UNL     1       8.527   0.862   8.583  1.00  0.00     0.183 C 
ENDROOT
BRANCH   1   2
ATOM      2  C   UNL     1       8.984   1.973   9.485  1.00  0.00     0.113 A 
ATOM      3  C   UNL     1       9.401   4.043  10.197  1.00  0.00     0.139 A 
ATOM      4  N   UNL     1       8.757   3.251   9.244  1.00  0.00    -0.234 NA
ATOM      5  C   UNL     1      10.059   3.332  11.181  1.00  0.00     0.101 A 
ATOM      6  S   UNL     1       9.896   1.647  10.902  1.00  0.00    -0.125 S 
BRANCH   3   7
ATOM      7  C   UNL     1       9.373   5.502  10.076  1.00  0.00     0.271 C 
ATOM      8  N   UNL     1       8.191   5.943   9.535  1.00  0.00    -0.341 N 
ATOM      9  O   UNL     1      10.308   6.229  10.390  1.00  0.00    -0.267 OA
ATOM     10  H   UNL     1       7.496   5.221   9.347  1.00  0.00     0.164 HD
BRANCH   8  11
ATOM     11  C   UNL     1       7.942   7.315   9.123  1.00  0.00     0.140 C 
BRANCH  11  12
ATOM     12  C   UNL     1       7.186   7.275   7.791  1.00  0.00     0.091 C 
ATOM     13  S   UNL     1       5.717   6.342   7.632  1.00  0.00    -0.106 SA
ATOM     14  C   UNL     1       5.376   7.125   6.042  1.00  0.00     0.113 C 
ATOM     15  N   UNL     1       7.638   7.861   6.728  1.00  0.00    -0.267 NA
ATOM     16  C   UNL     1       6.751   7.563   5.560  1.00  0.00     0.205 CG0
ATOM     17  G   UNL     1       7.377   6.489   4.655  1.00  0.00     0.000 G0
ENDBRANCH  11  12
BRANCH  11  18
ATOM     18  C   UNL     1       7.332   8.207  10.235  1.00  0.00     0.015 C 
ATOM     19  C   UNL     1       6.352   7.397  11.093  1.00  0.00     0.010 C 
BRANCH  18  20
ATOM     20  C   UNL     1       8.367   8.946  11.107  1.00  0.00     0.002 C 
ATOM     21  C   UNL     1       8.564   8.300  12.474  1.00  0.00     0.004 C 
ENDBRANCH  18  20
ENDBRANCH  11  18
ENDBRANCH   8  11
ENDBRANCH   3   7
ENDBRANCH   1   2
BRANCH   1  22
ATOM     22  N   UNL     1       7.951   1.471   7.405  1.00  0.00    -0.348 N 
ATOM     23  C   UNL     1       7.623   0.797   6.260  1.00  0.00     0.249 C 
ATOM     24  O   UNL     1       7.708  -0.421   6.150  1.00  0.00    -0.272 OA
ATOM     25  H   UNL     1       7.857   2.486   7.381  1.00  0.00     0.163 HD
BRANCH  23  26
ATOM     26  C   UNL     1       7.083   1.721   5.159  1.00  0.00     0.238 C 
ATOM     27  N   UNL     1       7.451   3.129   5.475  1.00  0.00    -0.236 NA
ATOM     28  C   UNL     1       7.716   1.428   3.810  1.00  0.00     0.206 C 
ATOM     29  C   UNL     1       8.327   3.420   4.560  1.00  0.00     0.208 C 
ATOM     30  O   UNL     1       8.650   2.491   3.627  1.00  0.00    -0.474 OA
ATOM     31  C   UNL     1       6.707   1.467   2.670  1.00  0.00     0.056 C 
BRANCH  29  32
ATOM     32  C   UNL     1       9.107   4.726   4.438  1.00  0.00     0.171 C 
BRANCH  32  33
ATOM     33  N   UNL     1       8.435   5.801   5.152  1.00  0.00    -0.342 N 
ATOM     34  C   UNL     1       7.367   6.486   4.625  1.00  0.00     0.246 CG0
ATOM     35  O   UNL     1       6.914   6.263   3.505  1.00  0.00    -0.273 OA
ATOM     36  H   UNL     1       8.761   6.111   6.061  1.00  0.00     0.164 HD
ATOM     37  G   UNL     1       6.763   7.544   5.563  1.00  0.00     0.000 G0
ENDBRANCH  32  33
BRANCH  32  38
ATOM     38  C   UNL     1      10.573   4.528   4.904  1.00  0.00     0.017 C 
ATOM     39  C   UNL     1      11.448   5.681   4.396  1.00  0.00     0.010 C 
BRANCH  38  40
ATOM     40  C   UNL     1      10.700   4.350   6.435  1.00  0.00     0.002 C 
ATOM     41  C   UNL     1      11.556   5.418   7.104  1.00  0.00     0.004 C 
ENDBRANCH  38  40
ENDBRANCH  32  38
ENDBRANCH  29  32
ENDBRANCH  23  26
ENDBRANCH   1  22
TORSDOF 4
ENDMDL
MODEL 10
REMARK VINA RESULT:    -3.444     27.791     32.161
REMARK INTER + INTRA:          -7.425
REMARK INTER:                  -6.031
REMARK INTRA:                  -1.394
REMARK UNBOUND:                -1.566
REMARK SMILES CC[C@H](C)[C@@H]1NC(=O)[C@H]2CSC(=N2)[C@@H]([C@@H](C)CC)NC(=O)c2csc(n2)CNC(=O)[C@H]2N=C1O[C@@H]2C
REMARK SMILES IDX 27 1 25 2 22 3 26 4 23 5 24 6 20 7 19 8 21 9 14 11 12 12
REMARK SMILES IDX 11 13 10 14 13 15 9 16 15 18 16 19 17 20 18 21 28 22 29 23
REMARK SMILES IDX 30 24 31 26 32 27 35 28 33 29 34 30 36 31 5 32 6 33 7 34
REMARK SMILES IDX 8 35 3 38 4 39 2 40 1 41
REMARK H PARENT 19 10 28 25 6 36
REMARK Flexibility Score:   91.900
ROOT
ATOM      1  C   UNL     1     -11.992  -3.672 -11.353  1.00  0.00     0.183 C 
ENDROOT
BRANCH   1   2
ATOM      2  C   UNL     1     -12.843  -4.707 -12.033  1.00  0.00     0.113 A 
ATOM      3  C   UNL     1     -13.408  -6.631 -13.004  1.00  0.00     0.139 A 
ATOM      4  N   UNL     1     -12.447  -5.946 -12.257  1.00  0.00    -0.234 NA
ATOM      5  C   UNL     1     -14.547  -5.900 -13.279  1.00  0.00     0.101 A 
ATOM      6  S   UNL     1     -14.410  -4.322 -12.618  1.00  0.00    -0.125 S 
BRANCH   3   7
ATOM      7  C   UNL     1     -13.145  -7.997 -13.461  1.00  0.00     0.271 C 
ATOM      8  N   UNL     1     -13.265  -8.905 -12.438  1.00  0.00    -0.341 N 
ATOM      9  O   UNL     1     -12.823  -8.281 -14.608  1.00  0.00    -0.267 OA
ATOM     10  H   UNL     1     -13.563  -8.522 -11.541  1.00  0.00     0.164 HD
BRANCH   8  11
ATOM     11  C   UNL     1     -12.885 -10.305 -12.538  1.00  0.00     0.140 C 
BRANCH  11  12
ATOM     12  C   UNL     1     -11.827 -10.582 -11.466  1.00  0.00     0.091 C 
ATOM     13  S   UNL     1     -12.291 -11.213  -9.903  1.00  0.00    -0.106 SA
ATOM     14  C   UNL     1     -10.561 -11.549  -9.511  1.00  0.00     0.113 C 
ATOM     15  N   UNL     1     -10.576 -10.294 -11.645  1.00  0.00    -0.267 NA
ATOM     16  C   UNL     1      -9.801 -10.573 -10.395  1.00  0.00     0.205 CG0
ATOM     17  G   UNL     1      -9.498  -9.272  -9.635  1.00  0.00     0.000 G0
ENDBRANCH  11  12
BRANCH  11  18
ATOM     18  C   UNL     1     -14.087 -11.282 -12.588  1.00  0.00     0.015 C 
ATOM     19  C   UNL     1     -15.403 -10.524 -12.373  1.00  0.00     0.010 C 
BRANCH  18  20
ATOM     20  C   UNL     1     -14.147 -12.166 -13.851  1.00  0.00     0.002 C 
ATOM     21  C   UNL     1     -13.865 -13.636 -13.563  1.00  0.00     0.004 C 
ENDBRANCH  18  20
ENDBRANCH  11  18
ENDBRANCH   8  11
ENDBRANCH   3   7
ENDBRANCH   1   2
BRANCH   1  22
ATOM     22  N   UNL     1     -10.622  -4.132 -11.413  1.00  0.00    -0.348 N 
ATOM     23  C   UNL     1      -9.595  -3.444 -12.000  1.00  0.00     0.249 C 
ATOM     24  O   UNL     1      -9.719  -2.317 -12.465  1.00  0.00    -0.272 OA
ATOM     25  H   UNL     1     -10.410  -5.069 -11.073  1.00  0.00     0.163 HD
BRANCH  23  26
ATOM     26  C   UNL     1      -8.264  -4.211 -11.956  1.00  0.00     0.238 C 
ATOM     27  N   UNL     1      -8.074  -4.787 -10.595  1.00  0.00    -0.236 NA
ATOM     28  C   UNL     1      -8.260  -5.398 -12.904  1.00  0.00     0.206 C 
ATOM     29  C   UNL     1      -8.200  -6.065 -10.793  1.00  0.00     0.208 C 
ATOM     30  O   UNL     1      -8.428  -6.526 -12.047  1.00  0.00    -0.474 OA
ATOM     31  C   UNL     1      -6.940  -5.545 -13.649  1.00  0.00     0.056 C 
BRANCH  29  32
ATOM     32  C   UNL     1      -8.170  -7.153  -9.723  1.00  0.00     0.171 C 
BRANCH  32  33
ATOM     33  N   UNL     1      -8.585  -8.434 -10.273  1.00  0.00    -0.342 N 
ATOM     34  C   UNL     1      -9.456  -9.274  -9.621  1.00  0.00     0.246 CG0
ATOM     35  O   UNL     1      -9.930  -9.021  -8.516  1.00  0.00    -0.273 OA
ATOM     36  H   UNL     1      -8.211  -8.773 -11.153  1.00  0.00     0.164 HD
ATOM     37  G   UNL     1      -9.812 -10.551 -10.399  1.00  0.00     0.000 G0
ENDBRANCH  32  33
BRANCH  32  38
ATOM     38  C   UNL     1      -6.772  -7.218  -9.054  1.00  0.00     0.017 C 
ATOM     39  C   UNL     1      -5.694  -7.487 -10.111  1.00  0.00     0.010 C 
BRANCH  38  40
ATOM     40  C   UNL     1      -6.446  -5.961  -8.215  1.00  0.00     0.002 C 
ATOM     41  C   UNL     1      -5.016  -5.467  -8.388  1.00  0.00     0.004 C 
ENDBRANCH  38  40
ENDBRANCH  32  38
ENDBRANCH  29  32
ENDBRANCH  23  26
ENDBRANCH   1  22
TORSDOF 4
ENDMDL
