MODEL 1
REMARK VINA RESULT:    -6.853      0.000      0.000
REMARK INTER + INTRA:         -26.390
REMARK INTER:                 -20.474
REMARK INTRA:                  -5.916
REMARK UNBOUND:                -5.916
REMARK SMILES C=C1C(=O)N[C@H](C)C(=O)N[C@@H](CC(C)C)C(=O)N[C@@H](C(=O)O)[C@H](C)C(=O)N[C@@H](CCCN=C(N)N)C(=O)N[C@@H](/C=C/C(C)=C/[C@H](C)[C@H](Cc2ccccc2)OC)[C@H](C)C(=O)N[C@@H](C(=O)O)CCC(=O)N1C
REMARK SMILES IDX 39 1 38 2 37 3 36 4 28 6 27 7 25 8 26 9 23 11 24 12 19 13
REMARK SMILES IDX 18 14 16 15 17 16 11 18 10 19 8 20 9 21 12 24 13 25 14 26
REMARK SMILES IDX 15 27 20 28 21 29 22 30 29 32 30 33 31 34 32 35 33 36 34 37
REMARK SMILES IDX 35 38 57 43 58 44 59 45 60 46 61 47 62 49 66 50 67 51 68 52
REMARK SMILES IDX 69 53 70 54 71 55 2 56 1 57 3 58 4 59 5 60 6 62 7 63 63 65
REMARK SMILES IDX 64 66 65 67 40 69 41 70 42 71 44 72 43 73 45 74 46 75 47 76
REMARK SMILES IDX 55 77 56 78 48 79 49 80 50 81 54 82 51 83 53 84 52 85
REMARK H PARENT 38 5 27 10 18 17 10 22 22 31 34 39 34 40 35 41 35 42 61 48
REMARK H PARENT 5 61 65 68
REMARK Flexibility Score:  369.900
ROOT
ATOM      1  C   UNL     1       5.681   4.425   6.109  1.00  0.00     0.117 C 
ENDROOT
BRANCH   1   2
ATOM      2  N   UNL     1       5.356   3.083   6.593  1.00  0.00    -0.347 N 
ATOM      3  O   UNL     1       7.464   2.185   6.467  1.00  0.00    -0.273 OA
ATOM      4  C   UNL     1       6.293   2.094   6.821  1.00  0.00     0.243 C 
ATOM      5  H   UNL     1       4.400   2.861   6.829  1.00  0.00     0.164 HD
BRANCH   4   6
ATOM      6  C   UNL     1       5.696   0.794   7.416  1.00  0.00     0.171 C 
BRANCH   6   7
ATOM      7  N   UNL     1       5.773  -0.302   6.437  1.00  0.00    -0.344 N 
ATOM      8  C   UNL     1       5.001  -1.434   6.587  1.00  0.00     0.226 C 
ATOM      9  O   UNL     1       4.242  -1.595   7.536  1.00  0.00    -0.275 OA
ATOM     10  H   UNL     1       6.438  -0.235   5.676  1.00  0.00     0.164 HD
BRANCH   8  11
ATOM     11  C   UNL     1       5.153  -2.448   5.467  1.00  0.00     0.109 C 
ATOM     12  C   UNL     1       6.553  -2.356   4.860  1.00  0.00     0.021 C 
BRANCH  11  13
ATOM     13  C   UNL     1       4.757  -3.849   5.974  1.00  0.00     0.204 C 
BRANCH  13  14
ATOM     14  N   UNL     1       3.304  -4.040   5.990  1.00  0.00    -0.340 N 
ATOM     15  C   UNL     1       2.648  -4.714   6.998  1.00  0.00     0.243 C 
ATOM     16  O   UNL     1       3.232  -5.151   7.988  1.00  0.00    -0.273 OA
ATOM     17  H   UNL     1       2.783  -3.837   5.132  1.00  0.00     0.164 HD
BRANCH  15  18
ATOM     18  C   UNL     1       1.151  -4.971   6.698  1.00  0.00     0.171 C 
BRANCH  18  19
ATOM     19  N   UNL     1       1.087  -6.203   5.915  1.00  0.00    -0.343 N 
ATOM     20  C   UNL     1       1.169  -6.196   4.536  1.00  0.00     0.242 CG0
ATOM     21  O   UNL     1       1.166  -5.147   3.897  1.00  0.00    -0.273 OA
ATOM     22  H   UNL     1       0.972  -7.090   6.393  1.00  0.00     0.164 HD
ATOM     23  G   UNL     1       1.162  -7.597   3.891  1.00  0.00     0.000 G0
ENDBRANCH  18  19
BRANCH  18  24
ATOM     24  C   UNL     1       0.351  -5.090   8.001  1.00  0.00     0.038 C 
BRANCH  24  25
ATOM     25  C   UNL     1      -0.653  -3.944   8.247  1.00  0.00    -0.015 C 
ATOM     26  C   UNL     1      -1.104  -3.272   6.950  1.00  0.00     0.007 C 
ATOM     27  C   UNL     1      -0.027  -2.902   9.177  1.00  0.00     0.007 C 
ENDBRANCH  24  25
ENDBRANCH  18  24
ENDBRANCH  15  18
ENDBRANCH  13  14
BRANCH  13  28
ATOM     28  C   UNL     1       5.355  -4.985   5.139  1.00  0.00     0.327 C 
ATOM     29  O   UNL     1       6.310  -5.683   5.445  1.00  0.00    -0.250 OA
BRANCH  28  30
ATOM     30  O   UNL     1       4.793  -5.095   3.918  1.00  0.00    -0.480 OA
ATOM     31  H   UNL     1       4.911  -6.039   3.683  1.00  0.00     0.296 HD
ENDBRANCH  28  30
ENDBRANCH  13  28
ENDBRANCH  11  13
ENDBRANCH   8  11
ENDBRANCH   6   7
BRANCH   6  32
ATOM     32  C   UNL     1       6.452   0.435   8.700  1.00  0.00     0.037 C 
BRANCH  32  33
ATOM     33  C   UNL     1       6.585   1.634   9.649  1.00  0.00     0.026 C 
BRANCH  33  34
ATOM     34  C   UNL     1       5.286   1.936  10.397  1.00  0.00     0.146 C 
BRANCH  34  35
ATOM     35  N   UNL     1       4.587   3.013   9.709  1.00  0.00    -0.254 NA
ATOM     36  C   UNL     1       3.320   3.120   9.862  1.00  0.00     0.185 C 
ATOM     37  N   UNL     1       2.667   4.112   9.238  1.00  0.00    -0.370 N 
ATOM     38  N   UNL     1       2.490   2.353  10.592  1.00  0.00    -0.370 N 
ATOM     39  H   UNL     1       3.227   4.741   8.676  1.00  0.00     0.159 HD
ATOM     40  H   UNL     1       1.716   4.367   9.442  1.00  0.00     0.159 HD
ATOM     41  H   UNL     1       1.490   2.455  10.521  1.00  0.00     0.159 HD
ATOM     42  H   UNL     1       2.841   1.559  11.103  1.00  0.00     0.159 HD
ENDBRANCH  34  35
ENDBRANCH  33  34
ENDBRANCH  32  33
ENDBRANCH   6  32
ENDBRANCH   4   6
ENDBRANCH   1   2
BRANCH   1  43
ATOM     43  C   UNL     1       5.271   5.458   7.199  1.00  0.00     0.102 C 
ATOM     44  C   UNL     1       4.047   6.304   6.810  1.00  0.00     0.020 C 
BRANCH  43  45
ATOM     45  C   UNL     1       6.478   6.283   7.655  1.00  0.00     0.225 C 
ATOM     46  O   UNL     1       6.431   7.081   8.587  1.00  0.00    -0.275 OA
ATOM     47  N   UNL     1       7.613   6.146   6.890  1.00  0.00    -0.342 N 
ATOM     48  H   UNL     1       7.684   5.383   6.231  1.00  0.00     0.164 HD
BRANCH  47  49
ATOM     49  C   UNL     1       8.855   6.847   7.229  1.00  0.00     0.192 C 
BRANCH  49  50
ATOM     50  C   UNL     1       9.593   7.238   5.946  1.00  0.00     0.047 C 
BRANCH  50  51
ATOM     51  C   UNL     1       8.867   6.747   4.686  1.00  0.00     0.103 C 
BRANCH  51  52
ATOM     52  C   UNL     1       8.728   7.849   3.638  1.00  0.00     0.226 C 
ATOM     53  O   UNL     1       7.996   8.815   3.863  1.00  0.00    -0.275 OA
BRANCH  52  54
ATOM     54  N   UNL     1       9.524   7.722   2.484  1.00  0.00    -0.311 N 
ATOM     55  C   UNL     1       8.954   7.231   1.223  1.00  0.00     0.153 C 
BRANCH  54  56
ATOM     56  C   UNL     1      10.886   8.064   2.494  1.00  0.00     0.102 C 
ATOM     57  C   UNL     1      11.857   7.370   1.877  1.00  0.00     0.043 C 
BRANCH  56  58
ATOM     58  C   UNL     1      11.367   9.315   3.191  1.00  0.00     0.268 C 
ATOM     59  O   UNL     1      12.141   9.297   4.139  1.00  0.00    -0.268 OA
ATOM     60  N   UNL     1      10.900  10.470   2.611  1.00  0.00    -0.339 N 
ATOM     61  H   UNL     1      10.253  10.398   1.835  1.00  0.00     0.164 HD
BRANCH  60  62
ATOM     62  C   UNL     1      11.292  11.795   3.089  1.00  0.00     0.168 CG0
ATOM     63  C   UNL     1      10.200  12.822   2.812  1.00  0.00     0.041 C 
ATOM     64  G   UNL     1      12.618  12.214   2.422  1.00  0.00     0.000 G0
ENDBRANCH  60  62
ENDBRANCH  56  58
ENDBRANCH  54  56
ENDBRANCH  52  54
ENDBRANCH  51  52
ENDBRANCH  50  51
ENDBRANCH  49  50
BRANCH  49  65
ATOM     65  C   UNL     1       9.776   5.980   8.101  1.00  0.00     0.326 C 
ATOM     66  O   UNL     1       9.424   5.318   9.067  1.00  0.00    -0.250 OA
BRANCH  65  67
ATOM     67  O   UNL     1      11.084   6.030   7.764  1.00  0.00    -0.480 OA
ATOM     68  H   UNL     1      11.162   5.370   7.042  1.00  0.00     0.296 HD
ENDBRANCH  65  67
ENDBRANCH  49  65
ENDBRANCH  47  49
ENDBRANCH  43  45
ENDBRANCH   1  43
BRANCH   1  69
ATOM     69  C   UNL     1       5.068   4.537   4.725  1.00  0.00    -0.001 C 
ATOM     70  C   UNL     1       5.705   4.486   3.542  1.00  0.00     0.001 C 
BRANCH  70  71
ATOM     71  C   UNL     1       5.100   4.574   2.212  1.00  0.00    -0.055 C 
ATOM     72  C   UNL     1       5.815   5.171   1.235  1.00  0.00    -0.018 C 
ATOM     73  C   UNL     1       3.726   3.984   2.026  1.00  0.00     0.044 C 
BRANCH  72  74
ATOM     74  C   UNL     1       5.447   5.400  -0.224  1.00  0.00     0.038 C 
ATOM     75  C   UNL     1       6.440   4.596  -1.072  1.00  0.00     0.015 C 
BRANCH  74  76
ATOM     76  C   UNL     1       5.439   6.931  -0.504  1.00  0.00     0.128 C 
BRANCH  76  77
ATOM     77  O   UNL     1       6.377   7.244  -1.548  1.00  0.00    -0.381 OA
ATOM     78  C   UNL     1       5.808   7.977  -2.625  1.00  0.00     0.195 C 
ENDBRANCH  76  77
BRANCH  76  79
ATOM     79  C   UNL     1       4.029   7.515  -0.770  1.00  0.00     0.068 C 
BRANCH  79  80
ATOM     80  C   UNL     1       2.911   6.550  -1.082  1.00  0.00    -0.045 A 
ATOM     81  C   UNL     1       2.578   6.236  -2.406  1.00  0.00     0.004 A 
ATOM     82  C   UNL     1       2.166   5.970  -0.044  1.00  0.00     0.004 A 
ATOM     83  C   UNL     1       1.533   5.352  -2.687  1.00  0.00     0.000 A 
ATOM     84  C   UNL     1       1.121   5.088  -0.326  1.00  0.00     0.000 A 
ATOM     85  C   UNL     1       0.806   4.778  -1.647  1.00  0.00     0.000 A 
ENDBRANCH  79  80
ENDBRANCH  76  79
ENDBRANCH  74  76
ENDBRANCH  72  74
ENDBRANCH  70  71
ENDBRANCH   1  69
TORSDOF 17
ENDMDL
MODEL 2
REMARK VINA RESULT:    -6.789      4.482     12.275
REMARK INTER + INTRA:         -26.200
REMARK INTER:                 -20.637
REMARK INTRA:                  -5.563
REMARK UNBOUND:                -5.916
REMARK SMILES C=C1C(=O)N[C@H](C)C(=O)N[C@@H](CC(C)C)C(=O)N[C@@H](C(=O)O)[C@H](C)C(=O)N[C@@H](CCCN=C(N)N)C(=O)N[C@@H](/C=C/C(C)=C/[C@H](C)[C@H](Cc2ccccc2)OC)[C@H](C)C(=O)N[C@@H](C(=O)O)CCC(=O)N1C
REMARK SMILES IDX 39 1 38 2 37 3 36 4 28 6 27 7 25 8 26 9 23 11 24 12 19 13
REMARK SMILES IDX 18 14 16 15 17 16 11 18 10 19 8 20 9 21 12 24 13 25 14 26
REMARK SMILES IDX 15 27 20 28 21 29 22 30 29 32 30 33 31 34 32 35 33 36 34 37
REMARK SMILES IDX 35 38 57 43 58 44 59 45 60 46 61 47 62 49 66 50 67 51 68 52
REMARK SMILES IDX 69 53 70 54 71 55 2 56 1 57 3 58 4 59 5 60 6 62 7 63 63 65
REMARK SMILES IDX 64 66 65 67 40 69 41 70 42 71 44 72 43 73 45 74 46 75 47 76
REMARK SMILES IDX 55 77 56 78 48 79 49 80 50 81 54 82 51 83 53 84 52 85
REMARK H PARENT 38 5 27 10 18 17 10 22 22 31 34 39 34 40 35 41 35 42 61 48
REMARK H PARENT 5 61 65 68
REMARK Flexibility Score:  369.900
ROOT
ATOM      1  C   UNL     1       4.887   2.286   7.269  1.00  0.00     0.117 C 
ENDROOT
BRANCH   1   2
ATOM      2  N   UNL     1       5.393   2.883   6.033  1.00  0.00    -0.347 N 
ATOM      3  O   UNL     1       3.450   3.904   5.360  1.00  0.00    -0.273 OA
ATOM      4  C   UNL     1       4.655   3.723   5.221  1.00  0.00     0.243 C 
ATOM      5  H   UNL     1       6.352   2.725   5.763  1.00  0.00     0.164 HD
BRANCH   4   6
ATOM      6  C   UNL     1       5.453   4.288   4.019  1.00  0.00     0.171 C 
BRANCH   6   7
ATOM      7  N   UNL     1       4.551   4.579   2.893  1.00  0.00    -0.344 N 
ATOM      8  C   UNL     1       5.002   4.503   1.593  1.00  0.00     0.226 C 
ATOM      9  O   UNL     1       6.160   4.218   1.312  1.00  0.00    -0.275 OA
ATOM     10  H   UNL     1       3.606   4.883   3.088  1.00  0.00     0.164 HD
BRANCH   8  11
ATOM     11  C   UNL     1       3.939   4.777   0.545  1.00  0.00     0.109 C 
ATOM     12  C   UNL     1       2.550   4.741   1.182  1.00  0.00     0.021 C 
BRANCH  11  13
ATOM     13  C   UNL     1       4.272   6.081  -0.208  1.00  0.00     0.204 C 
BRANCH  13  14
ATOM     14  N   UNL     1       5.041   5.830  -1.431  1.00  0.00    -0.340 N 
ATOM     15  C   UNL     1       6.238   6.456  -1.704  1.00  0.00     0.243 C 
ATOM     16  O   UNL     1       6.777   7.226  -0.910  1.00  0.00    -0.273 OA
ATOM     17  H   UNL     1       4.581   5.324  -2.192  1.00  0.00     0.164 HD
BRANCH  15  18
ATOM     18  C   UNL     1       6.760   6.195  -3.138  1.00  0.00     0.171 C 
BRANCH  18  19
ATOM     19  N   UNL     1       6.283   7.302  -3.965  1.00  0.00    -0.343 N 
ATOM     20  C   UNL     1       4.964   7.398  -4.365  1.00  0.00     0.242 CG0
ATOM     21  O   UNL     1       4.162   6.491  -4.156  1.00  0.00    -0.273 OA
ATOM     22  H   UNL     1       6.936   8.019  -4.261  1.00  0.00     0.164 HD
ATOM     23  G   UNL     1       4.632   8.674  -5.165  1.00  0.00     0.000 G0
ENDBRANCH  18  19
BRANCH  18  24
ATOM     24  C   UNL     1       8.291   6.104  -3.149  1.00  0.00     0.038 C 
BRANCH  24  25
ATOM     25  C   UNL     1       8.907   5.780  -4.526  1.00  0.00    -0.015 C 
ATOM     26  C   UNL     1       9.325   7.036  -5.291  1.00  0.00     0.007 C 
ATOM     27  C   UNL     1       7.907   4.976  -5.362  1.00  0.00     0.007 C 
ENDBRANCH  24  25
ENDBRANCH  18  24
ENDBRANCH  15  18
ENDBRANCH  13  14
BRANCH  13  28
ATOM     28  C   UNL     1       3.030   6.881  -0.609  1.00  0.00     0.327 C 
ATOM     29  O   UNL     1       2.499   7.767   0.043  1.00  0.00    -0.250 OA
BRANCH  28  30
ATOM     30  O   UNL     1       2.461   6.439  -1.749  1.00  0.00    -0.480 OA
ATOM     31  H   UNL     1       2.941   6.915  -2.459  1.00  0.00     0.296 HD
ENDBRANCH  28  30
ENDBRANCH  13  28
ENDBRANCH  11  13
ENDBRANCH   8  11
ENDBRANCH   6   7
BRANCH   6  32
ATOM     32  C   UNL     1       6.202   5.551   4.460  1.00  0.00     0.037 C 
BRANCH  32  33
ATOM     33  C   UNL     1       7.630   5.242   4.931  1.00  0.00     0.026 C 
BRANCH  33  34
ATOM     34  C   UNL     1       8.672   6.145   4.270  1.00  0.00     0.146 C 
BRANCH  34  35
ATOM     35  N   UNL     1       9.176   5.483   3.074  1.00  0.00    -0.254 NA
ATOM     36  C   UNL     1       8.755   5.876   1.930  1.00  0.00     0.185 C 
ATOM     37  N   UNL     1       9.217   5.277   0.822  1.00  0.00    -0.370 N 
ATOM     38  N   UNL     1       7.874   6.851   1.644  1.00  0.00    -0.370 N 
ATOM     39  H   UNL     1       9.894   4.537   0.955  1.00  0.00     0.159 HD
ATOM     40  H   UNL     1       9.072   5.636  -0.106  1.00  0.00     0.159 HD
ATOM     41  H   UNL     1       7.517   6.973   0.710  1.00  0.00     0.159 HD
ATOM     42  H   UNL     1       7.433   7.377   2.382  1.00  0.00     0.159 HD
ENDBRANCH  34  35
ENDBRANCH  33  34
ENDBRANCH  32  33
ENDBRANCH   6  32
ENDBRANCH   4   6
ENDBRANCH   1   2
BRANCH   1  43
ATOM     43  C   UNL     1       5.110   3.295   8.433  1.00  0.00     0.102 C 
ATOM     44  C   UNL     1       6.592   3.501   8.789  1.00  0.00     0.020 C 
BRANCH  43  45
ATOM     45  C   UNL     1       4.225   2.952   9.635  1.00  0.00     0.225 C 
ATOM     46  O   UNL     1       3.047   3.290   9.719  1.00  0.00    -0.275 OA
ATOM     47  N   UNL     1       4.859   2.313  10.675  1.00  0.00    -0.342 N 
ATOM     48  H   UNL     1       5.775   1.911  10.531  1.00  0.00     0.164 HD
BRANCH  47  49
ATOM     49  C   UNL     1       4.130   1.892  11.875  1.00  0.00     0.192 C 
BRANCH  49  50
ATOM     50  C   UNL     1       4.133   3.026  12.904  1.00  0.00     0.047 C 
BRANCH  50  51
ATOM     51  C   UNL     1       2.722   3.362  13.404  1.00  0.00     0.103 C 
BRANCH  51  52
ATOM     52  C   UNL     1       2.604   3.228  14.921  1.00  0.00     0.226 C 
ATOM     53  O   UNL     1       3.285   2.389  15.514  1.00  0.00    -0.275 OA
BRANCH  52  54
ATOM     54  N   UNL     1       1.757   4.148  15.567  1.00  0.00    -0.311 N 
ATOM     55  C   UNL     1       0.560   3.696  16.289  1.00  0.00     0.153 C 
BRANCH  54  56
ATOM     56  C   UNL     1       2.027   5.526  15.553  1.00  0.00     0.102 C 
ATOM     57  C   UNL     1       1.160   6.474  15.161  1.00  0.00     0.043 C 
BRANCH  56  58
ATOM     58  C   UNL     1       3.352   6.063  16.040  1.00  0.00     0.268 C 
ATOM     59  O   UNL     1       4.039   5.491  16.876  1.00  0.00    -0.268 OA
ATOM     60  N   UNL     1       3.734   7.219  15.403  1.00  0.00    -0.339 N 
ATOM     61  H   UNL     1       3.103   7.636  14.729  1.00  0.00     0.164 HD
BRANCH  60  62
ATOM     62  C   UNL     1       5.013   7.873  15.677  1.00  0.00     0.168 CG0
ATOM     63  C   UNL     1       6.092   7.392  14.715  1.00  0.00     0.041 C 
ATOM     64  G   UNL     1       5.427   7.606  17.139  1.00  0.00     0.000 G0
ENDBRANCH  60  62
ENDBRANCH  56  58
ENDBRANCH  54  56
ENDBRANCH  52  54
ENDBRANCH  51  52
ENDBRANCH  50  51
ENDBRANCH  49  50
BRANCH  49  65
ATOM     65  C   UNL     1       4.750   0.634  12.503  1.00  0.00     0.326 C 
ATOM     66  O   UNL     1       5.041  -0.390  11.902  1.00  0.00    -0.250 OA
BRANCH  65  67
ATOM     67  O   UNL     1       4.915   0.695  13.843  1.00  0.00    -0.480 OA
ATOM     68  H   UNL     1       4.379  -0.056  14.177  1.00  0.00     0.296 HD
ENDBRANCH  65  67
ENDBRANCH  49  65
ENDBRANCH  47  49
ENDBRANCH  43  45
ENDBRANCH   1  43
BRANCH   1  69
ATOM     69  C   UNL     1       5.515   0.908   7.362  1.00  0.00    -0.001 C 
ATOM     70  C   UNL     1       5.674   0.013   6.371  1.00  0.00     0.001 C 
BRANCH  70  71
ATOM     71  C   UNL     1       6.301  -1.306   6.468  1.00  0.00    -0.055 C 
ATOM     72  C   UNL     1       5.597  -2.370   6.028  1.00  0.00    -0.018 C 
ATOM     73  C   UNL     1       7.691  -1.382   7.045  1.00  0.00     0.044 C 
BRANCH  72  74
ATOM     74  C   UNL     1       5.989  -3.840   6.002  1.00  0.00     0.038 C 
ATOM     75  C   UNL     1       5.692  -4.363   4.591  1.00  0.00     0.015 C 
BRANCH  74  76
ATOM     76  C   UNL     1       5.234  -4.581   7.145  1.00  0.00     0.128 C 
BRANCH  76  77
ATOM     77  O   UNL     1       6.176  -5.118   8.088  1.00  0.00    -0.381 OA
ATOM     78  C   UNL     1       7.495  -5.238   7.573  1.00  0.00     0.195 C 
ENDBRANCH  76  77
BRANCH  76  79
ATOM     79  C   UNL     1       4.126  -3.733   7.820  1.00  0.00     0.068 C 
BRANCH  79  80
ATOM     80  C   UNL     1       2.699  -3.958   7.384  1.00  0.00    -0.045 A 
ATOM     81  C   UNL     1       1.638  -3.291   8.011  1.00  0.00     0.004 A 
ATOM     82  C   UNL     1       2.409  -4.867   6.355  1.00  0.00     0.004 A 
ATOM     83  C   UNL     1       0.319  -3.516   7.611  1.00  0.00     0.000 A 
ATOM     84  C   UNL     1       1.089  -5.091   5.956  1.00  0.00     0.000 A 
ATOM     85  C   UNL     1       0.045  -4.415   6.583  1.00  0.00     0.000 A 
ENDBRANCH  79  80
ENDBRANCH  76  79
ENDBRANCH  74  76
ENDBRANCH  72  74
ENDBRANCH  70  71
ENDBRANCH   1  69
TORSDOF 17
ENDMDL
MODEL 3
REMARK VINA RESULT:    -6.786      4.682      8.666
REMARK INTER + INTRA:         -26.190
REMARK INTER:                 -18.457
REMARK INTRA:                  -7.733
REMARK UNBOUND:                -5.916
REMARK SMILES C=C1C(=O)N[C@H](C)C(=O)N[C@@H](CC(C)C)C(=O)N[C@@H](C(=O)O)[C@H](C)C(=O)N[C@@H](CCCN=C(N)N)C(=O)N[C@@H](/C=C/C(C)=C/[C@H](C)[C@H](Cc2ccccc2)OC)[C@H](C)C(=O)N[C@@H](C(=O)O)CCC(=O)N1C
REMARK SMILES IDX 39 1 38 2 37 3 36 4 28 6 27 7 25 8 26 9 23 11 24 12 19 13
REMARK SMILES IDX 18 14 16 15 17 16 11 18 10 19 8 20 9 21 12 24 13 25 14 26
REMARK SMILES IDX 15 27 20 28 21 29 22 30 29 32 30 33 31 34 32 35 33 36 34 37
REMARK SMILES IDX 35 38 57 43 58 44 59 45 60 46 61 47 62 49 66 50 67 51 68 52
REMARK SMILES IDX 69 53 70 54 71 55 2 56 1 57 3 58 4 59 5 60 6 62 7 63 63 65
REMARK SMILES IDX 64 66 65 67 40 69 41 70 42 71 44 72 43 73 45 74 46 75 47 76
REMARK SMILES IDX 55 77 56 78 48 79 49 80 50 81 54 82 51 83 53 84 52 85
REMARK H PARENT 38 5 27 10 18 17 10 22 22 31 34 39 34 40 35 41 35 42 61 48
REMARK H PARENT 5 61 65 68
REMARK Flexibility Score:  369.900
ROOT
ATOM      1  C   UNL     1       7.371   6.520   7.396  1.00  0.00     0.117 C 
ENDROOT
BRANCH   1   2
ATOM      2  N   UNL     1       7.650   5.154   7.839  1.00  0.00    -0.347 N 
ATOM      3  O   UNL     1       7.921   5.599  10.074  1.00  0.00    -0.273 OA
ATOM      4  C   UNL     1       7.813   4.788   9.161  1.00  0.00     0.243 C 
ATOM      5  H   UNL     1       7.680   4.410   7.158  1.00  0.00     0.164 HD
BRANCH   4   6
ATOM      6  C   UNL     1       8.011   3.264   9.366  1.00  0.00     0.171 C 
BRANCH   6   7
ATOM      7  N   UNL     1       6.710   2.584   9.459  1.00  0.00    -0.344 N 
ATOM      8  C   UNL     1       6.168   2.268  10.686  1.00  0.00     0.226 C 
ATOM      9  O   UNL     1       6.740   2.511  11.742  1.00  0.00    -0.275 OA
ATOM     10  H   UNL     1       6.239   2.306   8.606  1.00  0.00     0.164 HD
BRANCH   8  11
ATOM     11  C   UNL     1       4.797   1.618  10.616  1.00  0.00     0.109 C 
ATOM     12  C   UNL     1       4.744   0.401  11.540  1.00  0.00     0.021 C 
BRANCH  11  13
ATOM     13  C   UNL     1       3.705   2.676  10.873  1.00  0.00     0.204 C 
BRANCH  13  14
ATOM     14  N   UNL     1       3.966   3.454  12.088  1.00  0.00    -0.340 N 
ATOM     15  C   UNL     1       3.024   3.634  13.078  1.00  0.00     0.243 C 
ATOM     16  O   UNL     1       1.916   3.102  13.039  1.00  0.00    -0.273 OA
ATOM     17  H   UNL     1       4.804   4.041  12.112  1.00  0.00     0.164 HD
BRANCH  15  18
ATOM     18  C   UNL     1       3.451   4.657  14.159  1.00  0.00     0.171 C 
BRANCH  18  19
ATOM     19  N   UNL     1       2.239   5.024  14.889  1.00  0.00    -0.343 N 
ATOM     20  C   UNL     1       1.971   6.331  15.246  1.00  0.00     0.242 CG0
ATOM     21  O   UNL     1       2.798   7.225  15.085  1.00  0.00    -0.273 OA
ATOM     22  H   UNL     1       1.577   4.301  15.149  1.00  0.00     0.164 HD
ATOM     23  G   UNL     1       0.609   6.535  15.942  1.00  0.00     0.000 G0
ENDBRANCH  18  19
BRANCH  18  24
ATOM     24  C   UNL     1       4.508   4.052  15.091  1.00  0.00     0.038 C 
BRANCH  24  25
ATOM     25  C   UNL     1       4.127   2.684  15.694  1.00  0.00    -0.015 C 
ATOM     26  C   UNL     1       4.140   2.694  17.223  1.00  0.00     0.007 C 
ATOM     27  C   UNL     1       5.087   1.609  15.178  1.00  0.00     0.007 C 
ENDBRANCH  24  25
ENDBRANCH  18  24
ENDBRANCH  15  18
ENDBRANCH  13  14
BRANCH  13  28
ATOM     28  C   UNL     1       3.548   3.673   9.721  1.00  0.00     0.327 C 
ATOM     29  O   UNL     1       3.145   4.823   9.810  1.00  0.00    -0.250 OA
BRANCH  28  30
ATOM     30  O   UNL     1       3.792   3.127   8.512  1.00  0.00    -0.480 OA
ATOM     31  H   UNL     1       2.924   3.151   8.057  1.00  0.00     0.296 HD
ENDBRANCH  28  30
ENDBRANCH  13  28
ENDBRANCH  11  13
ENDBRANCH   8  11
ENDBRANCH   6   7
BRANCH   6  32
ATOM     32  C   UNL     1       8.840   2.704   8.204  1.00  0.00     0.037 C 
BRANCH  32  33
ATOM     33  C   UNL     1       9.008   1.181   8.294  1.00  0.00     0.026 C 
BRANCH  33  34
ATOM     34  C   UNL     1       8.253   0.443   7.188  1.00  0.00     0.146 C 
BRANCH  34  35
ATOM     35  N   UNL     1       7.058   1.203   6.847  1.00  0.00    -0.254 NA
ATOM     36  C   UNL     1       6.024   0.570   6.435  1.00  0.00     0.185 C 
ATOM     37  N   UNL     1       4.916   1.260   6.123  1.00  0.00    -0.370 N 
ATOM     38  N   UNL     1       5.859  -0.753   6.254  1.00  0.00    -0.370 N 
ATOM     39  H   UNL     1       4.957   2.264   6.242  1.00  0.00     0.159 HD
ATOM     40  H   UNL     1       4.021   0.831   5.962  1.00  0.00     0.159 HD
ATOM     41  H   UNL     1       5.043  -1.118   5.792  1.00  0.00     0.159 HD
ATOM     42  H   UNL     1       6.617  -1.393   6.435  1.00  0.00     0.159 HD
ENDBRANCH  34  35
ENDBRANCH  33  34
ENDBRANCH  32  33
ENDBRANCH   6  32
ENDBRANCH   4   6
ENDBRANCH   1   2
BRANCH   1  43
ATOM     43  C   UNL     1       5.973   6.544   6.714  1.00  0.00     0.102 C 
ATOM     44  C   UNL     1       4.823   6.856   7.688  1.00  0.00     0.020 C 
BRANCH  43  45
ATOM     45  C   UNL     1       5.750   5.285   5.871  1.00  0.00     0.225 C 
ATOM     46  O   UNL     1       5.480   4.191   6.359  1.00  0.00    -0.275 OA
ATOM     47  N   UNL     1       5.964   5.431   4.520  1.00  0.00    -0.342 N 
ATOM     48  H   UNL     1       6.034   6.357   4.122  1.00  0.00     0.164 HD
BRANCH  47  49
ATOM     49  C   UNL     1       5.754   4.321   3.586  1.00  0.00     0.192 C 
BRANCH  49  50
ATOM     50  C   UNL     1       6.400   4.653   2.239  1.00  0.00     0.047 C 
BRANCH  50  51
ATOM     51  C   UNL     1       7.072   6.032   2.239  1.00  0.00     0.103 C 
BRANCH  51  52
ATOM     52  C   UNL     1       7.268   6.575   0.825  1.00  0.00     0.226 C 
ATOM     53  O   UNL     1       8.280   7.226   0.557  1.00  0.00    -0.275 OA
BRANCH  52  54
ATOM     54  N   UNL     1       6.289   6.224  -0.122  1.00  0.00    -0.311 N 
ATOM     55  C   UNL     1       4.875   6.559   0.091  1.00  0.00     0.153 C 
BRANCH  54  56
ATOM     56  C   UNL     1       6.626   5.547  -1.306  1.00  0.00     0.102 C 
ATOM     57  C   UNL     1       6.791   4.218  -1.411  1.00  0.00     0.043 C 
BRANCH  56  58
ATOM     58  C   UNL     1       6.789   6.296  -2.608  1.00  0.00     0.268 C 
ATOM     59  O   UNL     1       6.557   7.491  -2.726  1.00  0.00    -0.268 OA
ATOM     60  N   UNL     1       7.287   5.513  -3.623  1.00  0.00    -0.339 N 
ATOM     61  H   UNL     1       7.443   4.528  -3.446  1.00  0.00     0.164 HD
BRANCH  60  62
ATOM     62  C   UNL     1       7.580   6.053  -4.950  1.00  0.00     0.168 CG0
ATOM     63  C   UNL     1       9.008   6.580  -5.023  1.00  0.00     0.041 C 
ATOM     64  G   UNL     1       6.569   7.167  -5.290  1.00  0.00     0.000 G0
ENDBRANCH  60  62
ENDBRANCH  56  58
ENDBRANCH  54  56
ENDBRANCH  52  54
ENDBRANCH  51  52
ENDBRANCH  50  51
ENDBRANCH  49  50
BRANCH  49  65
ATOM     65  C   UNL     1       4.259   4.031   3.377  1.00  0.00     0.326 C 
ATOM     66  O   UNL     1       3.530   4.601   2.579  1.00  0.00    -0.250 OA
BRANCH  65  67
ATOM     67  O   UNL     1       3.744   3.099   4.208  1.00  0.00    -0.480 OA
ATOM     68  H   UNL     1       4.477   2.917   4.835  1.00  0.00     0.296 HD
ENDBRANCH  65  67
ENDBRANCH  49  65
ENDBRANCH  47  49
ENDBRANCH  43  45
ENDBRANCH   1  43
BRANCH   1  69
ATOM     69  C   UNL     1       8.584   6.963   6.597  1.00  0.00    -0.001 C 
ATOM     70  C   UNL     1       9.296   6.232   5.721  1.00  0.00     0.001 C 
BRANCH  70  71
ATOM     71  C   UNL     1      10.452   6.677   4.940  1.00  0.00    -0.055 C 
ATOM     72  C   UNL     1      10.755   7.992   4.961  1.00  0.00    -0.018 C 
ATOM     73  C   UNL     1      11.226   5.635   4.176  1.00  0.00     0.044 C 
BRANCH  72  74
ATOM     74  C   UNL     1      11.885   8.731   4.258  1.00  0.00     0.038 C 
ATOM     75  C   UNL     1      12.641   9.526   5.330  1.00  0.00     0.015 C 
BRANCH  74  76
ATOM     76  C   UNL     1      11.282   9.593   3.110  1.00  0.00     0.128 C 
BRANCH  76  77
ATOM     77  O   UNL     1      10.596   8.749   2.171  1.00  0.00    -0.381 OA
ATOM     78  C   UNL     1      11.467   7.983   1.349  1.00  0.00     0.195 C 
ENDBRANCH  76  77
BRANCH  76  79
ATOM     79  C   UNL     1      10.410  10.775   3.602  1.00  0.00     0.068 C 
BRANCH  79  80
ATOM     80  C   UNL     1      10.737  12.157   3.090  1.00  0.00    -0.045 A 
ATOM     81  C   UNL     1      11.214  13.153   3.952  1.00  0.00     0.004 A 
ATOM     82  C   UNL     1      10.541  12.475   1.737  1.00  0.00     0.004 A 
ATOM     83  C   UNL     1      11.502  14.432   3.473  1.00  0.00     0.000 A 
ATOM     84  C   UNL     1      10.828  13.755   1.259  1.00  0.00     0.000 A 
ATOM     85  C   UNL     1      11.309  14.733   2.126  1.00  0.00     0.000 A 
ENDBRANCH  79  80
ENDBRANCH  76  79
ENDBRANCH  74  76
ENDBRANCH  72  74
ENDBRANCH  70  71
ENDBRANCH   1  69
TORSDOF 17
ENDMDL
MODEL 4
REMARK VINA RESULT:    -6.736      4.954      8.793
REMARK INTER + INTRA:         -26.042
REMARK INTER:                 -19.977
REMARK INTRA:                  -6.065
REMARK UNBOUND:                -5.916
REMARK SMILES C=C1C(=O)N[C@H](C)C(=O)N[C@@H](CC(C)C)C(=O)N[C@@H](C(=O)O)[C@H](C)C(=O)N[C@@H](CCCN=C(N)N)C(=O)N[C@@H](/C=C/C(C)=C/[C@H](C)[C@H](Cc2ccccc2)OC)[C@H](C)C(=O)N[C@@H](C(=O)O)CCC(=O)N1C
REMARK SMILES IDX 39 1 38 2 37 3 36 4 28 6 27 7 25 8 26 9 23 11 24 12 19 13
REMARK SMILES IDX 18 14 16 15 17 16 11 18 10 19 8 20 9 21 12 24 13 25 14 26
REMARK SMILES IDX 15 27 20 28 21 29 22 30 29 32 30 33 31 34 32 35 33 36 34 37
REMARK SMILES IDX 35 38 57 43 58 44 59 45 60 46 61 47 62 49 66 50 67 51 68 52
REMARK SMILES IDX 69 53 70 54 71 55 2 56 1 57 3 58 4 59 5 60 6 62 7 63 63 65
REMARK SMILES IDX 64 66 65 67 40 69 41 70 42 71 44 72 43 73 45 74 46 75 47 76
REMARK SMILES IDX 55 77 56 78 48 79 49 80 50 81 54 82 51 83 53 84 52 85
REMARK H PARENT 38 5 27 10 18 17 10 22 22 31 34 39 34 40 35 41 35 42 61 48
REMARK H PARENT 5 61 65 68
REMARK Flexibility Score:  369.900
ROOT
ATOM      1  C   UNL     1       6.352   6.180   7.445  1.00  0.00     0.117 C 
ENDROOT
BRANCH   1   2
ATOM      2  N   UNL     1       6.293   4.932   8.207  1.00  0.00    -0.347 N 
ATOM      3  O   UNL     1       6.043   5.853  10.295  1.00  0.00    -0.273 OA
ATOM      4  C   UNL     1       6.050   4.867   9.565  1.00  0.00     0.243 C 
ATOM      5  H   UNL     1       6.384   4.052   7.723  1.00  0.00     0.164 HD
BRANCH   4   6
ATOM      6  C   UNL     1       5.952   3.420  10.112  1.00  0.00     0.171 C 
BRANCH   6   7
ATOM      7  N   UNL     1       5.749   3.433  11.569  1.00  0.00    -0.344 N 
ATOM      8  C   UNL     1       6.731   2.974  12.420  1.00  0.00     0.226 C 
ATOM      9  O   UNL     1       7.794   2.518  12.017  1.00  0.00    -0.275 OA
ATOM     10  H   UNL     1       4.857   3.740  11.938  1.00  0.00     0.164 HD
BRANCH   8  11
ATOM     11  C   UNL     1       6.392   3.104  13.895  1.00  0.00     0.109 C 
ATOM     12  C   UNL     1       7.629   3.536  14.683  1.00  0.00     0.021 C 
BRANCH  11  13
ATOM     13  C   UNL     1       5.162   4.018  14.068  1.00  0.00     0.204 C 
BRANCH  13  14
ATOM     14  N   UNL     1       4.313   3.593  15.186  1.00  0.00    -0.340 N 
ATOM     15  C   UNL     1       3.088   2.987  15.008  1.00  0.00     0.243 C 
ATOM     16  O   UNL     1       2.647   2.704  13.896  1.00  0.00    -0.273 OA
ATOM     17  H   UNL     1       4.548   3.933  16.123  1.00  0.00     0.164 HD
BRANCH  15  18
ATOM     18  C   UNL     1       2.284   2.820  16.321  1.00  0.00     0.171 C 
BRANCH  18  19
ATOM     19  N   UNL     1       3.108   2.010  17.216  1.00  0.00    -0.343 N 
ATOM     20  C   UNL     1       2.625   0.858  17.807  1.00  0.00     0.242 CG0
ATOM     21  O   UNL     1       1.443   0.534  17.714  1.00  0.00    -0.273 OA
ATOM     22  H   UNL     1       4.058   2.300  17.416  1.00  0.00     0.164 HD
ATOM     23  G   UNL     1       3.663   0.095  18.655  1.00  0.00     0.000 G0
ENDBRANCH  18  19
BRANCH  18  24
ATOM     24  C   UNL     1       1.963   4.187  16.937  1.00  0.00     0.038 C 
BRANCH  24  25
ATOM     25  C   UNL     1       0.786   4.933  16.272  1.00  0.00    -0.015 C 
ATOM     26  C   UNL     1       1.241   6.162  15.485  1.00  0.00     0.007 C 
ATOM     27  C   UNL     1      -0.228   5.351  17.341  1.00  0.00     0.007 C 
ENDBRANCH  24  25
ENDBRANCH  18  24
ENDBRANCH  15  18
ENDBRANCH  13  14
BRANCH  13  28
ATOM     28  C   UNL     1       5.529   5.485  14.309  1.00  0.00     0.327 C 
ATOM     29  O   UNL     1       5.316   6.126  15.327  1.00  0.00    -0.250 OA
BRANCH  28  30
ATOM     30  O   UNL     1       6.032   6.090  13.214  1.00  0.00    -0.480 OA
ATOM     31  H   UNL     1       6.287   6.983  13.527  1.00  0.00     0.296 HD
ENDBRANCH  28  30
ENDBRANCH  13  28
ENDBRANCH  11  13
ENDBRANCH   8  11
ENDBRANCH   6   7
BRANCH   6  32
ATOM     32  C   UNL     1       4.803   2.692   9.406  1.00  0.00     0.037 C 
BRANCH  32  33
ATOM     33  C   UNL     1       5.290   1.464   8.624  1.00  0.00     0.026 C 
BRANCH  33  34
ATOM     34  C   UNL     1       6.767   1.159   8.873  1.00  0.00     0.146 C 
BRANCH  34  35
ATOM     35  N   UNL     1       7.562   1.813   7.843  1.00  0.00    -0.254 NA
ATOM     36  C   UNL     1       8.729   2.245   8.150  1.00  0.00     0.185 C 
ATOM     37  N   UNL     1       9.472   2.846   7.207  1.00  0.00    -0.370 N 
ATOM     38  N   UNL     1       9.366   2.190   9.332  1.00  0.00    -0.370 N 
ATOM     39  H   UNL     1       9.064   2.917   6.284  1.00  0.00     0.159 HD
ATOM     40  H   UNL     1      10.450   3.052   7.318  1.00  0.00     0.159 HD
ATOM     41  H   UNL     1      10.227   2.690   9.484  1.00  0.00     0.159 HD
ATOM     42  H   UNL     1       8.920   1.779  10.137  1.00  0.00     0.159 HD
ENDBRANCH  34  35
ENDBRANCH  33  34
ENDBRANCH  32  33
ENDBRANCH   6  32
ENDBRANCH   4   6
ENDBRANCH   1   2
BRANCH   1  43
ATOM     43  C   UNL     1       5.125   6.235   6.489  1.00  0.00     0.102 C 
ATOM     44  C   UNL     1       3.795   6.493   7.217  1.00  0.00     0.020 C 
BRANCH  43  45
ATOM     45  C   UNL     1       5.099   5.020   5.557  1.00  0.00     0.225 C 
ATOM     46  O   UNL     1       5.004   3.865   5.963  1.00  0.00    -0.275 OA
ATOM     47  N   UNL     1       5.284   5.294   4.221  1.00  0.00    -0.342 N 
ATOM     48  H   UNL     1       5.208   6.246   3.891  1.00  0.00     0.164 HD
BRANCH  47  49
ATOM     49  C   UNL     1       5.246   4.234   3.210  1.00  0.00     0.192 C 
BRANCH  49  50
ATOM     50  C   UNL     1       5.982   4.699   1.950  1.00  0.00     0.047 C 
BRANCH  50  51
ATOM     51  C   UNL     1       5.049   5.405   0.958  1.00  0.00     0.103 C 
BRANCH  51  52
ATOM     52  C   UNL     1       5.785   6.453   0.125  1.00  0.00     0.226 C 
ATOM     53  O   UNL     1       6.573   7.225   0.674  1.00  0.00    -0.275 OA
BRANCH  52  54
ATOM     54  N   UNL     1       5.564   6.417  -1.265  1.00  0.00    -0.311 N 
ATOM     55  C   UNL     1       4.204   6.474  -1.816  1.00  0.00     0.153 C 
BRANCH  54  56
ATOM     56  C   UNL     1       6.632   6.330  -2.174  1.00  0.00     0.102 C 
ATOM     57  C   UNL     1       7.540   5.341  -2.200  1.00  0.00     0.043 C 
BRANCH  56  58
ATOM     58  C   UNL     1       6.811   7.366  -3.259  1.00  0.00     0.268 C 
ATOM     59  O   UNL     1       6.098   8.354  -3.366  1.00  0.00    -0.268 OA
ATOM     60  N   UNL     1       7.895   7.119  -4.067  1.00  0.00    -0.339 N 
ATOM     61  H   UNL     1       8.430   6.272  -3.919  1.00  0.00     0.164 HD
BRANCH  60  62
ATOM     62  C   UNL     1       8.288   8.029  -5.142  1.00  0.00     0.168 CG0
ATOM     63  C   UNL     1       8.935   7.268  -6.293  1.00  0.00     0.041 C 
ATOM     64  G   UNL     1       9.250   9.100  -4.587  1.00  0.00     0.000 G0
ENDBRANCH  60  62
ENDBRANCH  56  58
ENDBRANCH  54  56
ENDBRANCH  52  54
ENDBRANCH  51  52
ENDBRANCH  50  51
ENDBRANCH  49  50
BRANCH  49  65
ATOM     65  C   UNL     1       3.804   3.850   2.844  1.00  0.00     0.326 C 
ATOM     66  O   UNL     1       3.210   4.201   1.835  1.00  0.00    -0.250 OA
BRANCH  65  67
ATOM     67  O   UNL     1       3.164   3.108   3.774  1.00  0.00    -0.480 OA
ATOM     68  H   UNL     1       3.828   2.429   4.025  1.00  0.00     0.296 HD
ENDBRANCH  65  67
ENDBRANCH  49  65
ENDBRANCH  47  49
ENDBRANCH  43  45
ENDBRANCH   1  43
BRANCH   1  69
ATOM     69  C   UNL     1       7.748   6.248   6.851  1.00  0.00    -0.001 C 
ATOM     70  C   UNL     1       8.115   6.823   5.692  1.00  0.00     0.001 C 
BRANCH  70  71
ATOM     71  C   UNL     1       9.469   6.901   5.140  1.00  0.00    -0.055 C 
ATOM     72  C   UNL     1       9.986   8.128   4.916  1.00  0.00    -0.018 C 
ATOM     73  C   UNL     1      10.193   5.608   4.869  1.00  0.00     0.044 C 
BRANCH  72  74
ATOM     74  C   UNL     1      11.349   8.512   4.359  1.00  0.00     0.038 C 
ATOM     75  C   UNL     1      12.062   9.337   5.437  1.00  0.00     0.015 C 
BRANCH  74  76
ATOM     76  C   UNL     1      11.147   9.247   3.001  1.00  0.00     0.128 C 
BRANCH  76  77
ATOM     77  O   UNL     1      11.657  10.589   3.089  1.00  0.00    -0.381 OA
ATOM     78  C   UNL     1      10.651  11.589   3.002  1.00  0.00     0.195 C 
ENDBRANCH  76  77
BRANCH  76  79
ATOM     79  C   UNL     1      11.700   8.474   1.778  1.00  0.00     0.068 C 
BRANCH  79  80
ATOM     80  C   UNL     1      11.268   7.039   1.594  1.00  0.00    -0.045 A 
ATOM     81  C   UNL     1      12.190   5.989   1.695  1.00  0.00     0.004 A 
ATOM     82  C   UNL     1       9.933   6.737   1.289  1.00  0.00     0.004 A 
ATOM     83  C   UNL     1      11.786   4.666   1.510  1.00  0.00     0.000 A 
ATOM     84  C   UNL     1       9.529   5.413   1.103  1.00  0.00     0.000 A 
ATOM     85  C   UNL     1      10.455   4.378   1.215  1.00  0.00     0.000 A 
ENDBRANCH  79  80
ENDBRANCH  76  79
ENDBRANCH  74  76
ENDBRANCH  72  74
ENDBRANCH  70  71
ENDBRANCH   1  69
TORSDOF 17
ENDMDL
MODEL 5
REMARK VINA RESULT:    -6.648      4.281      8.147
REMARK INTER + INTRA:         -25.777
REMARK INTER:                 -17.876
REMARK INTRA:                  -7.901
REMARK UNBOUND:                -5.916
REMARK SMILES C=C1C(=O)N[C@H](C)C(=O)N[C@@H](CC(C)C)C(=O)N[C@@H](C(=O)O)[C@H](C)C(=O)N[C@@H](CCCN=C(N)N)C(=O)N[C@@H](/C=C/C(C)=C/[C@H](C)[C@H](Cc2ccccc2)OC)[C@H](C)C(=O)N[C@@H](C(=O)O)CCC(=O)N1C
REMARK SMILES IDX 39 1 38 2 37 3 36 4 28 6 27 7 25 8 26 9 23 11 24 12 19 13
REMARK SMILES IDX 18 14 16 15 17 16 11 18 10 19 8 20 9 21 12 24 13 25 14 26
REMARK SMILES IDX 15 27 20 28 21 29 22 30 29 32 30 33 31 34 32 35 33 36 34 37
REMARK SMILES IDX 35 38 57 43 58 44 59 45 60 46 61 47 62 49 66 50 67 51 68 52
REMARK SMILES IDX 69 53 70 54 71 55 2 56 1 57 3 58 4 59 5 60 6 62 7 63 63 65
REMARK SMILES IDX 64 66 65 67 40 69 41 70 42 71 44 72 43 73 45 74 46 75 47 76
REMARK SMILES IDX 55 77 56 78 48 79 49 80 50 81 54 82 51 83 53 84 52 85
REMARK H PARENT 38 5 27 10 18 17 10 22 22 31 34 39 34 40 35 41 35 42 61 48
REMARK H PARENT 5 61 65 68
REMARK Flexibility Score:  369.900
ROOT
ATOM      1  C   UNL     1       6.551   6.858   7.612  1.00  0.00     0.117 C 
ENDROOT
BRANCH   1   2
ATOM      2  N   UNL     1       6.657   5.620   8.385  1.00  0.00    -0.347 N 
ATOM      3  O   UNL     1       6.602   6.554  10.481  1.00  0.00    -0.273 OA
ATOM      4  C   UNL     1       6.582   5.560   9.763  1.00  0.00     0.243 C 
ATOM      5  H   UNL     1       6.742   4.740   7.899  1.00  0.00     0.164 HD
BRANCH   4   6
ATOM      6  C   UNL     1       6.636   4.118  10.328  1.00  0.00     0.171 C 
BRANCH   6   7
ATOM      7  N   UNL     1       5.276   3.595  10.536  1.00  0.00    -0.344 N 
ATOM      8  C   UNL     1       4.579   3.890  11.687  1.00  0.00     0.226 C 
ATOM      9  O   UNL     1       5.052   4.569  12.590  1.00  0.00    -0.275 OA
ATOM     10  H   UNL     1       4.877   2.975   9.842  1.00  0.00     0.164 HD
BRANCH   8  11
ATOM     11  C   UNL     1       3.170   3.323  11.728  1.00  0.00     0.109 C 
ATOM     12  C   UNL     1       2.802   2.731  10.368  1.00  0.00     0.021 C 
BRANCH  11  13
ATOM     13  C   UNL     1       3.034   2.351  12.917  1.00  0.00     0.204 C 
BRANCH  13  14
ATOM     14  N   UNL     1       4.337   1.890  13.405  1.00  0.00    -0.340 N 
ATOM     15  C   UNL     1       4.984   0.789  12.887  1.00  0.00     0.243 C 
ATOM     16  O   UNL     1       4.541   0.151  11.934  1.00  0.00    -0.273 OA
ATOM     17  H   UNL     1       4.685   2.279  14.286  1.00  0.00     0.164 HD
BRANCH  15  18
ATOM     18  C   UNL     1       6.238   0.372  13.694  1.00  0.00     0.171 C 
BRANCH  18  19
ATOM     19  N   UNL     1       6.235  -1.089  13.746  1.00  0.00    -0.343 N 
ATOM     20  C   UNL     1       6.575  -1.778  14.895  1.00  0.00     0.242 CG0
ATOM     21  O   UNL     1       7.024  -1.200  15.882  1.00  0.00    -0.273 OA
ATOM     22  H   UNL     1       5.982  -1.616  12.918  1.00  0.00     0.164 HD
ATOM     23  G   UNL     1       6.437  -3.310  14.783  1.00  0.00     0.000 G0
ENDBRANCH  18  19
BRANCH  18  24
ATOM     24  C   UNL     1       7.513   0.907  13.030  1.00  0.00     0.038 C 
BRANCH  24  25
ATOM     25  C   UNL     1       8.369   1.826  13.927  1.00  0.00    -0.015 C 
ATOM     26  C   UNL     1       8.212   3.304  13.569  1.00  0.00     0.007 C 
ATOM     27  C   UNL     1       9.842   1.424  13.818  1.00  0.00     0.007 C 
ENDBRANCH  24  25
ENDBRANCH  18  24
ENDBRANCH  15  18
ENDBRANCH  13  14
BRANCH  13  28
ATOM     28  C   UNL     1       2.290   2.957  14.111  1.00  0.00     0.327 C 
ATOM     29  O   UNL     1       2.261   2.510  15.247  1.00  0.00    -0.250 OA
BRANCH  28  30
ATOM     30  O   UNL     1       1.534   4.022  13.777  1.00  0.00    -0.480 OA
ATOM     31  H   UNL     1       0.612   3.699  13.858  1.00  0.00     0.296 HD
ENDBRANCH  28  30
ENDBRANCH  13  28
ENDBRANCH  11  13
ENDBRANCH   8  11
ENDBRANCH   6   7
BRANCH   6  32
ATOM     32  C   UNL     1       7.422   3.227   9.359  1.00  0.00     0.037 C 
BRANCH  32  33
ATOM     33  C   UNL     1       6.605   2.013   8.896  1.00  0.00     0.026 C 
BRANCH  33  34
ATOM     34  C   UNL     1       6.980   1.559   7.485  1.00  0.00     0.146 C 
BRANCH  34  35
ATOM     35  N   UNL     1       5.807   1.671   6.628  1.00  0.00    -0.254 NA
ATOM     36  C   UNL     1       5.308   0.602   6.128  1.00  0.00     0.185 C 
ATOM     37  N   UNL     1       4.224   0.693   5.341  1.00  0.00    -0.370 N 
ATOM     38  N   UNL     1       5.718  -0.670   6.273  1.00  0.00    -0.370 N 
ATOM     39  H   UNL     1       3.848   1.621   5.192  1.00  0.00     0.159 HD
ATOM     40  H   UNL     1       3.676  -0.100   5.056  1.00  0.00     0.159 HD
ATOM     41  H   UNL     1       5.325  -1.411   5.715  1.00  0.00     0.159 HD
ATOM     42  H   UNL     1       6.532  -0.887   6.826  1.00  0.00     0.159 HD
ENDBRANCH  34  35
ENDBRANCH  33  34
ENDBRANCH  32  33
ENDBRANCH   6  32
ENDBRANCH   4   6
ENDBRANCH   1   2
BRANCH   1  43
ATOM     43  C   UNL     1       5.176   6.871   6.884  1.00  0.00     0.102 C 
ATOM     44  C   UNL     1       4.020   7.366   7.770  1.00  0.00     0.020 C 
BRANCH  43  45
ATOM     45  C   UNL     1       4.903   5.529   6.199  1.00  0.00     0.225 C 
ATOM     46  O   UNL     1       4.373   4.579   6.770  1.00  0.00    -0.275 OA
ATOM     47  N   UNL     1       5.377   5.413   4.913  1.00  0.00    -0.342 N 
ATOM     48  H   UNL     1       5.669   6.240   4.411  1.00  0.00     0.164 HD
BRANCH  47  49
ATOM     49  C   UNL     1       5.158   4.198   4.122  1.00  0.00     0.192 C 
BRANCH  49  50
ATOM     50  C   UNL     1       5.961   4.280   2.821  1.00  0.00     0.047 C 
BRANCH  50  51
ATOM     51  C   UNL     1       7.064   5.345   2.884  1.00  0.00     0.103 C 
BRANCH  51  52
ATOM     52  C   UNL     1       7.212   6.095   1.562  1.00  0.00     0.226 C 
ATOM     53  O   UNL     1       7.658   7.244   1.559  1.00  0.00    -0.275 OA
BRANCH  52  54
ATOM     54  N   UNL     1       6.892   5.378   0.394  1.00  0.00    -0.311 N 
ATOM     55  C   UNL     1       7.545   4.097   0.090  1.00  0.00     0.153 C 
BRANCH  54  56
ATOM     56  C   UNL     1       5.936   5.854  -0.519  1.00  0.00     0.102 C 
ATOM     57  C   UNL     1       4.607   5.729  -0.373  1.00  0.00     0.043 C 
BRANCH  56  58
ATOM     58  C   UNL     1       6.356   6.610  -1.757  1.00  0.00     0.268 C 
ATOM     59  O   UNL     1       6.416   7.831  -1.808  1.00  0.00    -0.268 OA
ATOM     60  N   UNL     1       6.724   5.786  -2.794  1.00  0.00    -0.339 N 
ATOM     61  H   UNL     1       6.635   4.784  -2.675  1.00  0.00     0.164 HD
BRANCH  60  62
ATOM     62  C   UNL     1       7.223   6.310  -4.065  1.00  0.00     0.168 CG0
ATOM     63  C   UNL     1       8.232   5.355  -4.691  1.00  0.00     0.041 C 
ATOM     64  G   UNL     1       7.853   7.700  -3.840  1.00  0.00     0.000 G0
ENDBRANCH  60  62
ENDBRANCH  56  58
ENDBRANCH  54  56
ENDBRANCH  52  54
ENDBRANCH  51  52
ENDBRANCH  50  51
ENDBRANCH  49  50
BRANCH  49  65
ATOM     65  C   UNL     1       3.670   3.999   3.790  1.00  0.00     0.326 C 
ATOM     66  O   UNL     1       3.048   4.601   2.927  1.00  0.00    -0.250 OA
BRANCH  65  67
ATOM     67  O   UNL     1       3.030   3.113   4.584  1.00  0.00    -0.480 OA
ATOM     68  H   UNL     1       2.098   3.162   4.280  1.00  0.00     0.296 HD
ENDBRANCH  65  67
ENDBRANCH  49  65
ENDBRANCH  47  49
ENDBRANCH  43  45
ENDBRANCH   1  43
BRANCH   1  69
ATOM     69  C   UNL     1       7.820   6.951   6.783  1.00  0.00    -0.001 C 
ATOM     70  C   UNL     1       8.581   5.936   6.339  1.00  0.00     0.001 C 
BRANCH  70  71
ATOM     71  C   UNL     1       9.792   6.037   5.522  1.00  0.00    -0.055 C 
ATOM     72  C   UNL     1      10.174   7.266   5.115  1.00  0.00    -0.018 C 
ATOM     73  C   UNL     1      10.531   4.764   5.200  1.00  0.00     0.044 C 
BRANCH  72  74
ATOM     74  C   UNL     1      11.374   7.671   4.271  1.00  0.00     0.038 C 
ATOM     75  C   UNL     1      12.367   8.375   5.204  1.00  0.00     0.015 C 
BRANCH  74  76
ATOM     76  C   UNL     1      10.876   8.536   3.076  1.00  0.00     0.128 C 
BRANCH  76  77
ATOM     77  O   UNL     1      11.263   9.907   3.267  1.00  0.00    -0.381 OA
ATOM     78  C   UNL     1      10.165  10.788   3.466  1.00  0.00     0.195 C 
ENDBRANCH  76  77
BRANCH  76  79
ATOM     79  C   UNL     1      11.286   7.985   1.687  1.00  0.00     0.068 C 
BRANCH  79  80
ATOM     80  C   UNL     1      11.694   6.535   1.593  1.00  0.00    -0.045 A 
ATOM     81  C   UNL     1      10.733   5.520   1.500  1.00  0.00     0.004 A 
ATOM     82  C   UNL     1      13.051   6.178   1.627  1.00  0.00     0.004 A 
ATOM     83  C   UNL     1      11.118   4.179   1.428  1.00  0.00     0.000 A 
ATOM     84  C   UNL     1      13.434   4.837   1.556  1.00  0.00     0.000 A 
ATOM     85  C   UNL     1      12.469   3.839   1.455  1.00  0.00     0.000 A 
ENDBRANCH  79  80
ENDBRANCH  76  79
ENDBRANCH  74  76
ENDBRANCH  72  74
ENDBRANCH  70  71
ENDBRANCH   1  69
TORSDOF 17
ENDMDL
MODEL 6
REMARK VINA RESULT:    -6.598      4.330      8.603
REMARK INTER + INTRA:         -25.628
REMARK INTER:                 -20.779
REMARK INTRA:                  -4.850
REMARK UNBOUND:                -5.916
REMARK SMILES C=C1C(=O)N[C@H](C)C(=O)N[C@@H](CC(C)C)C(=O)N[C@@H](C(=O)O)[C@H](C)C(=O)N[C@@H](CCCN=C(N)N)C(=O)N[C@@H](/C=C/C(C)=C/[C@H](C)[C@H](Cc2ccccc2)OC)[C@H](C)C(=O)N[C@@H](C(=O)O)CCC(=O)N1C
REMARK SMILES IDX 39 1 38 2 37 3 36 4 28 6 27 7 25 8 26 9 23 11 24 12 19 13
REMARK SMILES IDX 18 14 16 15 17 16 11 18 10 19 8 20 9 21 12 24 13 25 14 26
REMARK SMILES IDX 15 27 20 28 21 29 22 30 29 32 30 33 31 34 32 35 33 36 34 37
REMARK SMILES IDX 35 38 57 43 58 44 59 45 60 46 61 47 62 49 66 50 67 51 68 52
REMARK SMILES IDX 69 53 70 54 71 55 2 56 1 57 3 58 4 59 5 60 6 62 7 63 63 65
REMARK SMILES IDX 64 66 65 67 40 69 41 70 42 71 44 72 43 73 45 74 46 75 47 76
REMARK SMILES IDX 55 77 56 78 48 79 49 80 50 81 54 82 51 83 53 84 52 85
REMARK H PARENT 38 5 27 10 18 17 10 22 22 31 34 39 34 40 35 41 35 42 61 48
REMARK H PARENT 5 61 65 68
REMARK Flexibility Score:  369.900
ROOT
ATOM      1  C   UNL     1       6.011   4.967   6.713  1.00  0.00     0.117 C 
ENDROOT
BRANCH   1   2
ATOM      2  N   UNL     1       6.019   3.571   7.151  1.00  0.00    -0.347 N 
ATOM      3  O   UNL     1       7.164   3.867   9.119  1.00  0.00    -0.273 OA
ATOM      4  C   UNL     1       6.517   3.145   8.367  1.00  0.00     0.243 C 
ATOM      5  H   UNL     1       5.596   2.866   6.566  1.00  0.00     0.164 HD
BRANCH   4   6
ATOM      6  C   UNL     1       6.326   1.628   8.622  1.00  0.00     0.171 C 
BRANCH   6   7
ATOM      7  N   UNL     1       5.724   1.400   9.945  1.00  0.00    -0.344 N 
ATOM      8  C   UNL     1       4.510   1.967  10.272  1.00  0.00     0.226 C 
ATOM      9  O   UNL     1       3.893   2.693   9.502  1.00  0.00    -0.275 OA
ATOM     10  H   UNL     1       6.236   0.861  10.632  1.00  0.00     0.164 HD
BRANCH   8  11
ATOM     11  C   UNL     1       3.997   1.593  11.651  1.00  0.00     0.109 C 
ATOM     12  C   UNL     1       4.931   0.573  12.302  1.00  0.00     0.021 C 
BRANCH  11  13
ATOM     13  C   UNL     1       3.753   2.870  12.480  1.00  0.00     0.204 C 
BRANCH  13  14
ATOM     14  N   UNL     1       3.264   2.568  13.828  1.00  0.00    -0.340 N 
ATOM     15  C   UNL     1       2.153   3.174  14.375  1.00  0.00     0.243 C 
ATOM     16  O   UNL     1       1.458   3.969  13.745  1.00  0.00    -0.273 OA
ATOM     17  H   UNL     1       3.875   2.037  14.454  1.00  0.00     0.164 HD
BRANCH  15  18
ATOM     18  C   UNL     1       1.950   2.855  15.876  1.00  0.00     0.171 C 
BRANCH  18  19
ATOM     19  N   UNL     1       3.021   1.937  16.258  1.00  0.00    -0.343 N 
ATOM     20  C   UNL     1       2.886   1.059  17.316  1.00  0.00     0.242 CG0
ATOM     21  O   UNL     1       1.914   1.101  18.067  1.00  0.00    -0.273 OA
ATOM     22  H   UNL     1       3.891   1.945  15.738  1.00  0.00     0.164 HD
ATOM     23  G   UNL     1       4.089   0.115  17.518  1.00  0.00     0.000 G0
ENDBRANCH  18  19
BRANCH  18  24
ATOM     24  C   UNL     1       1.987   4.140  16.713  1.00  0.00     0.038 C 
BRANCH  24  25
ATOM     25  C   UNL     1       0.601   4.674  17.135  1.00  0.00    -0.015 C 
ATOM     26  C   UNL     1      -0.543   3.792  16.635  1.00  0.00     0.007 C 
ATOM     27  C   UNL     1       0.418   6.101  16.610  1.00  0.00     0.007 C 
ENDBRANCH  24  25
ENDBRANCH  18  24
ENDBRANCH  15  18
ENDBRANCH  13  14
BRANCH  13  28
ATOM     28  C   UNL     1       5.007   3.737  12.636  1.00  0.00     0.327 C 
ATOM     29  O   UNL     1       5.656   3.891  13.660  1.00  0.00    -0.250 OA
BRANCH  28  30
ATOM     30  O   UNL     1       5.299   4.449  11.529  1.00  0.00    -0.480 OA
ATOM     31  H   UNL     1       4.942   3.908  10.794  1.00  0.00     0.296 HD
ENDBRANCH  28  30
ENDBRANCH  13  28
ENDBRANCH  11  13
ENDBRANCH   8  11
ENDBRANCH   6   7
BRANCH   6  32
ATOM     32  C   UNL     1       5.449   1.037   7.512  1.00  0.00     0.037 C 
BRANCH  32  33
ATOM     33  C   UNL     1       6.132  -0.137   6.798  1.00  0.00     0.026 C 
BRANCH  33  34
ATOM     34  C   UNL     1       5.247  -0.758   5.716  1.00  0.00     0.146 C 
BRANCH  34  35
ATOM     35  N   UNL     1       4.723  -2.025   6.207  1.00  0.00    -0.254 NA
ATOM     36  C   UNL     1       5.093  -3.108   5.632  1.00  0.00     0.185 C 
ATOM     37  N   UNL     1       4.620  -4.281   6.080  1.00  0.00    -0.370 N 
ATOM     38  N   UNL     1       5.929  -3.268   4.591  1.00  0.00    -0.370 N 
ATOM     39  H   UNL     1       3.990  -4.244   6.871  1.00  0.00     0.159 HD
ATOM     40  H   UNL     1       4.991  -5.173   5.802  1.00  0.00     0.159 HD
ATOM     41  H   UNL     1       6.033  -4.162   4.140  1.00  0.00     0.159 HD
ATOM     42  H   UNL     1       6.349  -2.468   4.143  1.00  0.00     0.159 HD
ENDBRANCH  34  35
ENDBRANCH  33  34
ENDBRANCH  32  33
ENDBRANCH   6  32
ENDBRANCH   4   6
ENDBRANCH   1   2
BRANCH   1  43
ATOM     43  C   UNL     1       4.726   5.214   5.870  1.00  0.00     0.102 C 
ATOM     44  C   UNL     1       3.425   5.013   6.665  1.00  0.00     0.020 C 
BRANCH  43  45
ATOM     45  C   UNL     1       4.775   4.435   4.552  1.00  0.00     0.225 C 
ATOM     46  O   UNL     1       4.589   3.224   4.481  1.00  0.00    -0.275 OA
ATOM     47  N   UNL     1       5.138   5.167   3.445  1.00  0.00    -0.342 N 
ATOM     48  H   UNL     1       5.138   6.177   3.490  1.00  0.00     0.164 HD
BRANCH  47  49
ATOM     49  C   UNL     1       5.192   4.563   2.110  1.00  0.00     0.192 C 
BRANCH  49  50
ATOM     50  C   UNL     1       6.166   5.348   1.229  1.00  0.00     0.047 C 
BRANCH  50  51
ATOM     51  C   UNL     1       6.120   4.894  -0.237  1.00  0.00     0.103 C 
BRANCH  51  52
ATOM     52  C   UNL     1       6.741   5.926  -1.176  1.00  0.00     0.226 C 
ATOM     53  O   UNL     1       7.968   6.017  -1.258  1.00  0.00    -0.275 OA
BRANCH  52  54
ATOM     54  N   UNL     1       5.848   6.675  -1.964  1.00  0.00    -0.311 N 
ATOM     55  C   UNL     1       4.731   7.407  -1.353  1.00  0.00     0.153 C 
BRANCH  54  56
ATOM     56  C   UNL     1       5.992   6.755  -3.360  1.00  0.00     0.102 C 
ATOM     57  C   UNL     1       5.056   7.219  -4.203  1.00  0.00     0.043 C 
BRANCH  56  58
ATOM     58  C   UNL     1       7.283   6.348  -4.030  1.00  0.00     0.268 C 
ATOM     59  O   UNL     1       7.510   5.206  -4.408  1.00  0.00    -0.268 OA
ATOM     60  N   UNL     1       8.143   7.401  -4.229  1.00  0.00    -0.339 N 
ATOM     61  H   UNL     1       7.885   8.315  -3.877  1.00  0.00     0.164 HD
BRANCH  60  62
ATOM     62  C   UNL     1       9.424   7.241  -4.917  1.00  0.00     0.168 CG0
ATOM     63  C   UNL     1       9.422   7.974  -6.253  1.00  0.00     0.041 C 
ATOM     64  G   UNL     1       9.718   5.740  -5.119  1.00  0.00     0.000 G0
ENDBRANCH  60  62
ENDBRANCH  56  58
ENDBRANCH  54  56
ENDBRANCH  52  54
ENDBRANCH  51  52
ENDBRANCH  50  51
ENDBRANCH  49  50
BRANCH  49  65
ATOM     65  C   UNL     1       3.808   4.538   1.443  1.00  0.00     0.326 C 
ATOM     66  O   UNL     1       3.359   5.404   0.706  1.00  0.00    -0.250 OA
BRANCH  65  67
ATOM     67  O   UNL     1       3.041   3.476   1.774  1.00  0.00    -0.480 OA
ATOM     68  H   UNL     1       3.544   3.044   2.497  1.00  0.00     0.296 HD
ENDBRANCH  65  67
ENDBRANCH  49  65
ENDBRANCH  47  49
ENDBRANCH  43  45
ENDBRANCH   1  43
BRANCH   1  69
ATOM     69  C   UNL     1       7.365   5.220   6.076  1.00  0.00    -0.001 C 
ATOM     70  C   UNL     1       7.924   6.409   5.790  1.00  0.00     0.001 C 
BRANCH  70  71
ATOM     71  C   UNL     1       9.242   6.641   5.195  1.00  0.00    -0.055 C 
ATOM     72  C   UNL     1       9.572   7.910   4.875  1.00  0.00    -0.018 C 
ATOM     73  C   UNL     1      10.140   5.448   4.990  1.00  0.00     0.044 C 
BRANCH  72  74
ATOM     74  C   UNL     1      10.855   8.445   4.255  1.00  0.00     0.038 C 
ATOM     75  C   UNL     1      11.682   9.062   5.389  1.00  0.00     0.015 C 
BRANCH  74  76
ATOM     76  C   UNL     1      10.484   9.429   3.107  1.00  0.00     0.128 C 
BRANCH  76  77
ATOM     77  O   UNL     1      11.272  10.627   3.213  1.00  0.00    -0.381 OA
ATOM     78  C   UNL     1      10.623  11.784   2.703  1.00  0.00     0.195 C 
ENDBRANCH  76  77
BRANCH  76  79
ATOM     79  C   UNL     1      10.542   8.797   1.693  1.00  0.00     0.068 C 
BRANCH  79  80
ATOM     80  C   UNL     1      10.791   7.311   1.592  1.00  0.00    -0.045 A 
ATOM     81  C   UNL     1       9.729   6.409   1.448  1.00  0.00     0.004 A 
ATOM     82  C   UNL     1      12.098   6.807   1.670  1.00  0.00     0.004 A 
ATOM     83  C   UNL     1       9.967   5.035   1.370  1.00  0.00     0.000 A 
ATOM     84  C   UNL     1      12.335   5.433   1.593  1.00  0.00     0.000 A 
ATOM     85  C   UNL     1      11.270   4.548   1.441  1.00  0.00     0.000 A 
ENDBRANCH  79  80
ENDBRANCH  76  79
ENDBRANCH  74  76
ENDBRANCH  72  74
ENDBRANCH  70  71
ENDBRANCH   1  69
TORSDOF 17
ENDMDL
MODEL 7
REMARK VINA RESULT:    -6.562      4.205     11.309
REMARK INTER + INTRA:         -25.520
REMARK INTER:                 -19.760
REMARK INTRA:                  -5.760
REMARK UNBOUND:                -5.916
REMARK SMILES C=C1C(=O)N[C@H](C)C(=O)N[C@@H](CC(C)C)C(=O)N[C@@H](C(=O)O)[C@H](C)C(=O)N[C@@H](CCCN=C(N)N)C(=O)N[C@@H](/C=C/C(C)=C/[C@H](C)[C@H](Cc2ccccc2)OC)[C@H](C)C(=O)N[C@@H](C(=O)O)CCC(=O)N1C
REMARK SMILES IDX 39 1 38 2 37 3 36 4 28 6 27 7 25 8 26 9 23 11 24 12 19 13
REMARK SMILES IDX 18 14 16 15 17 16 11 18 10 19 8 20 9 21 12 24 13 25 14 26
REMARK SMILES IDX 15 27 20 28 21 29 22 30 29 32 30 33 31 34 32 35 33 36 34 37
REMARK SMILES IDX 35 38 57 43 58 44 59 45 60 46 61 47 62 49 66 50 67 51 68 52
REMARK SMILES IDX 69 53 70 54 71 55 2 56 1 57 3 58 4 59 5 60 6 62 7 63 63 65
REMARK SMILES IDX 64 66 65 67 40 69 41 70 42 71 44 72 43 73 45 74 46 75 47 76
REMARK SMILES IDX 55 77 56 78 48 79 49 80 50 81 54 82 51 83 53 84 52 85
REMARK H PARENT 38 5 27 10 18 17 10 22 22 31 34 39 34 40 35 41 35 42 61 48
REMARK H PARENT 5 61 65 68
REMARK Flexibility Score:  369.900
ROOT
ATOM      1  C   UNL     1       5.963   2.488   6.812  1.00  0.00     0.117 C 
ENDROOT
BRANCH   1   2
ATOM      2  N   UNL     1       5.994   3.268   8.049  1.00  0.00    -0.347 N 
ATOM      3  O   UNL     1       3.776   3.856   8.104  1.00  0.00    -0.273 OA
ATOM      4  C   UNL     1       4.875   3.816   8.646  1.00  0.00     0.243 C 
ATOM      5  H   UNL     1       6.869   3.385   8.538  1.00  0.00     0.164 HD
BRANCH   4   6
ATOM      6  C   UNL     1       5.170   4.521   9.995  1.00  0.00     0.171 C 
BRANCH   6   7
ATOM      7  N   UNL     1       5.073   3.563  11.108  1.00  0.00    -0.344 N 
ATOM      8  C   UNL     1       3.919   3.470  11.855  1.00  0.00     0.226 C 
ATOM      9  O   UNL     1       2.941   4.179  11.652  1.00  0.00    -0.275 OA
ATOM     10  H   UNL     1       5.884   3.007  11.349  1.00  0.00     0.164 HD
BRANCH   8  11
ATOM     11  C   UNL     1       3.955   2.398  12.931  1.00  0.00     0.109 C 
ATOM     12  C   UNL     1       4.756   1.191  12.444  1.00  0.00     0.021 C 
BRANCH  11  13
ATOM     13  C   UNL     1       4.447   3.009  14.258  1.00  0.00     0.204 C 
BRANCH  13  14
ATOM     14  N   UNL     1       3.747   4.255  14.585  1.00  0.00    -0.340 N 
ATOM     15  C   UNL     1       4.159   5.104  15.590  1.00  0.00     0.243 C 
ATOM     16  O   UNL     1       5.182   4.906  16.243  1.00  0.00    -0.273 OA
ATOM     17  H   UNL     1       2.815   4.401  14.188  1.00  0.00     0.164 HD
BRANCH  15  18
ATOM     18  C   UNL     1       3.153   6.242  15.890  1.00  0.00     0.171 C 
BRANCH  18  19
ATOM     19  N   UNL     1       3.572   7.393  15.092  1.00  0.00    -0.343 N 
ATOM     20  C   UNL     1       4.511   8.296  15.552  1.00  0.00     0.242 CG0
ATOM     21  O   UNL     1       4.938   8.249  16.703  1.00  0.00    -0.273 OA
ATOM     22  H   UNL     1       3.161   7.540  14.177  1.00  0.00     0.164 HD
ATOM     23  G   UNL     1       4.884   9.398  14.539  1.00  0.00     0.000 G0
ENDBRANCH  18  19
BRANCH  18  24
ATOM     24  C   UNL     1       1.724   5.807  15.542  1.00  0.00     0.038 C 
BRANCH  24  25
ATOM     25  C   UNL     1       1.044   4.918  16.604  1.00  0.00    -0.015 C 
ATOM     26  C   UNL     1       0.417   3.661  16.001  1.00  0.00     0.007 C 
ATOM     27  C   UNL     1      -0.027   5.726  17.342  1.00  0.00     0.007 C 
ENDBRANCH  24  25
ENDBRANCH  18  24
ENDBRANCH  15  18
ENDBRANCH  13  14
BRANCH  13  28
ATOM     28  C   UNL     1       4.280   2.067  15.455  1.00  0.00     0.327 C 
ATOM     29  O   UNL     1       5.180   1.527  16.080  1.00  0.00    -0.250 OA
BRANCH  28  30
ATOM     30  O   UNL     1       2.992   1.769  15.717  1.00  0.00    -0.480 OA
ATOM     31  H   UNL     1       2.709   2.458  16.352  1.00  0.00     0.296 HD
ENDBRANCH  28  30
ENDBRANCH  13  28
ENDBRANCH  11  13
ENDBRANCH   8  11
ENDBRANCH   6   7
BRANCH   6  32
ATOM     32  C   UNL     1       6.565   5.153   9.937  1.00  0.00     0.037 C 
BRANCH  32  33
ATOM     33  C   UNL     1       6.508   6.654   9.619  1.00  0.00     0.026 C 
BRANCH  33  34
ATOM     34  C   UNL     1       5.964   6.935   8.218  1.00  0.00     0.146 C 
BRANCH  34  35
ATOM     35  N   UNL     1       4.680   7.611   8.340  1.00  0.00    -0.254 NA
ATOM     36  C   UNL     1       3.758   7.336   7.494  1.00  0.00     0.185 C 
ATOM     37  N   UNL     1       2.569   7.949   7.600  1.00  0.00    -0.370 N 
ATOM     38  N   UNL     1       3.792   6.481   6.457  1.00  0.00    -0.370 N 
ATOM     39  H   UNL     1       2.461   8.602   8.366  1.00  0.00     0.159 HD
ATOM     40  H   UNL     1       1.749   7.664   7.092  1.00  0.00     0.159 HD
ATOM     41  H   UNL     1       3.048   6.455   5.779  1.00  0.00     0.159 HD
ATOM     42  H   UNL     1       4.630   5.961   6.247  1.00  0.00     0.159 HD
ENDBRANCH  34  35
ENDBRANCH  33  34
ENDBRANCH  32  33
ENDBRANCH   6  32
ENDBRANCH   4   6
ENDBRANCH   1   2
BRANCH   1  43
ATOM     43  C   UNL     1       6.359   1.020   7.142  1.00  0.00     0.102 C 
ATOM     44  C   UNL     1       7.833   0.700   6.842  1.00  0.00     0.020 C 
BRANCH  43  45
ATOM     45  C   UNL     1       5.369   0.030   6.519  1.00  0.00     0.225 C 
ATOM     46  O   UNL     1       4.540   0.353   5.674  1.00  0.00    -0.275 OA
ATOM     47  N   UNL     1       5.401  -1.245   7.038  1.00  0.00    -0.342 N 
ATOM     48  H   UNL     1       6.179  -1.531   7.615  1.00  0.00     0.164 HD
BRANCH  47  49
ATOM     49  C   UNL     1       4.536  -2.306   6.515  1.00  0.00     0.192 C 
BRANCH  49  50
ATOM     50  C   UNL     1       4.333  -3.380   7.587  1.00  0.00     0.047 C 
BRANCH  50  51
ATOM     51  C   UNL     1       5.605  -4.203   7.834  1.00  0.00     0.103 C 
BRANCH  51  52
ATOM     52  C   UNL     1       5.345  -5.704   7.733  1.00  0.00     0.226 C 
ATOM     53  O   UNL     1       4.553  -6.240   8.511  1.00  0.00    -0.275 OA
BRANCH  52  54
ATOM     54  N   UNL     1       5.988  -6.383   6.681  1.00  0.00    -0.311 N 
ATOM     55  C   UNL     1       7.255  -5.888   6.126  1.00  0.00     0.153 C 
BRANCH  54  56
ATOM     56  C   UNL     1       5.449  -7.556   6.128  1.00  0.00     0.102 C 
ATOM     57  C   UNL     1       5.839  -8.803   6.442  1.00  0.00     0.043 C 
BRANCH  56  58
ATOM     58  C   UNL     1       4.315  -7.494   5.132  1.00  0.00     0.268 C 
ATOM     59  O   UNL     1       4.155  -6.560   4.358  1.00  0.00    -0.268 OA
ATOM     60  N   UNL     1       3.525  -8.618   5.142  1.00  0.00    -0.339 N 
ATOM     61  H   UNL     1       3.718  -9.343   5.823  1.00  0.00     0.164 HD
BRANCH  60  62
ATOM     62  C   UNL     1       2.408  -8.794   4.215  1.00  0.00     0.168 CG0
ATOM     63  C   UNL     1       1.083  -8.451   4.885  1.00  0.00     0.041 C 
ATOM     64  G   UNL     1       2.395 -10.244   3.689  1.00  0.00     0.000 G0
ENDBRANCH  60  62
ENDBRANCH  56  58
ENDBRANCH  54  56
ENDBRANCH  52  54
ENDBRANCH  51  52
ENDBRANCH  50  51
ENDBRANCH  49  50
BRANCH  49  65
ATOM     65  C   UNL     1       5.131  -2.952   5.254  1.00  0.00     0.326 C 
ATOM     66  O   UNL     1       6.225  -2.695   4.773  1.00  0.00    -0.250 OA
BRANCH  65  67
ATOM     67  O   UNL     1       4.314  -3.830   4.630  1.00  0.00    -0.480 OA
ATOM     68  H   UNL     1       4.172  -4.530   5.303  1.00  0.00     0.296 HD
ENDBRANCH  65  67
ENDBRANCH  49  65
ENDBRANCH  47  49
ENDBRANCH  43  45
ENDBRANCH   1  43
BRANCH   1  69
ATOM     69  C   UNL     1       6.792   3.261   5.802  1.00  0.00    -0.001 C 
ATOM     70  C   UNL     1       7.426   4.431   5.990  1.00  0.00     0.001 C 
BRANCH  70  71
ATOM     71  C   UNL     1       8.241   5.158   5.014  1.00  0.00    -0.055 C 
ATOM     72  C   UNL     1       7.597   5.832   4.037  1.00  0.00    -0.018 C 
ATOM     73  C   UNL     1       9.738   5.108   5.173  1.00  0.00     0.044 C 
BRANCH  72  74
ATOM     74  C   UNL     1       8.174   6.666   2.902  1.00  0.00     0.038 C 
ATOM     75  C   UNL     1       8.290   8.107   3.414  1.00  0.00     0.015 C 
BRANCH  74  76
ATOM     76  C   UNL     1       7.274   6.490   1.644  1.00  0.00     0.128 C 
BRANCH  76  77
ATOM     77  O   UNL     1       8.013   6.836   0.460  1.00  0.00    -0.381 OA
ATOM     78  C   UNL     1       8.293   5.726  -0.383  1.00  0.00     0.195 C 
ENDBRANCH  76  77
BRANCH  76  79
ATOM     79  C   UNL     1       6.597   5.100   1.544  1.00  0.00     0.068 C 
BRANCH  79  80
ATOM     80  C   UNL     1       5.112   5.054   1.277  1.00  0.00    -0.045 A 
ATOM     81  C   UNL     1       4.260   4.273   2.068  1.00  0.00     0.004 A 
ATOM     82  C   UNL     1       4.563   5.777   0.207  1.00  0.00     0.004 A 
ATOM     83  C   UNL     1       2.889   4.225   1.806  1.00  0.00     0.000 A 
ATOM     84  C   UNL     1       3.192   5.728  -0.055  1.00  0.00     0.000 A 
ATOM     85  C   UNL     1       2.356   4.954   0.745  1.00  0.00     0.000 A 
ENDBRANCH  79  80
ENDBRANCH  76  79
ENDBRANCH  74  76
ENDBRANCH  72  74
ENDBRANCH  70  71
ENDBRANCH   1  69
TORSDOF 17
ENDMDL
MODEL 8
REMARK VINA RESULT:    -6.524      2.447     11.986
REMARK INTER + INTRA:         -25.408
REMARK INTER:                 -18.607
REMARK INTRA:                  -6.801
REMARK UNBOUND:                -5.916
REMARK SMILES C=C1C(=O)N[C@H](C)C(=O)N[C@@H](CC(C)C)C(=O)N[C@@H](C(=O)O)[C@H](C)C(=O)N[C@@H](CCCN=C(N)N)C(=O)N[C@@H](/C=C/C(C)=C/[C@H](C)[C@H](Cc2ccccc2)OC)[C@H](C)C(=O)N[C@@H](C(=O)O)CCC(=O)N1C
REMARK SMILES IDX 39 1 38 2 37 3 36 4 28 6 27 7 25 8 26 9 23 11 24 12 19 13
REMARK SMILES IDX 18 14 16 15 17 16 11 18 10 19 8 20 9 21 12 24 13 25 14 26
REMARK SMILES IDX 15 27 20 28 21 29 22 30 29 32 30 33 31 34 32 35 33 36 34 37
REMARK SMILES IDX 35 38 57 43 58 44 59 45 60 46 61 47 62 49 66 50 67 51 68 52
REMARK SMILES IDX 69 53 70 54 71 55 2 56 1 57 3 58 4 59 5 60 6 62 7 63 63 65
REMARK SMILES IDX 64 66 65 67 40 69 41 70 42 71 44 72 43 73 45 74 46 75 47 76
REMARK SMILES IDX 55 77 56 78 48 79 49 80 50 81 54 82 51 83 53 84 52 85
REMARK H PARENT 38 5 27 10 18 17 10 22 22 31 34 39 34 40 35 41 35 42 61 48
REMARK H PARENT 5 61 65 68
REMARK Flexibility Score:  369.900
ROOT
ATOM      1  C   UNL     1       4.626   5.063   6.595  1.00  0.00     0.117 C 
ENDROOT
BRANCH   1   2
ATOM      2  N   UNL     1       6.055   5.376   6.621  1.00  0.00    -0.347 N 
ATOM      3  O   UNL     1       5.925   7.332   7.816  1.00  0.00    -0.273 OA
ATOM      4  C   UNL     1       6.601   6.442   7.311  1.00  0.00     0.243 C 
ATOM      5  H   UNL     1       6.704   4.761   6.155  1.00  0.00     0.164 HD
BRANCH   4   6
ATOM      6  C   UNL     1       8.148   6.498   7.247  1.00  0.00     0.171 C 
BRANCH   6   7
ATOM      7  N   UNL     1       8.588   7.181   6.020  1.00  0.00    -0.344 N 
ATOM      8  C   UNL     1       8.920   6.458   4.894  1.00  0.00     0.226 C 
ATOM      9  O   UNL     1       8.890   5.234   4.863  1.00  0.00    -0.275 OA
ATOM     10  H   UNL     1       8.690   8.188   6.028  1.00  0.00     0.164 HD
BRANCH   8  11
ATOM     11  C   UNL     1       9.301   7.309   3.695  1.00  0.00     0.109 C 
ATOM     12  C   UNL     1       8.212   8.344   3.417  1.00  0.00     0.021 C 
BRANCH  11  13
ATOM     13  C   UNL     1      10.714   7.892   3.897  1.00  0.00     0.204 C 
BRANCH  13  14
ATOM     14  N   UNL     1      10.676   9.283   4.360  1.00  0.00    -0.340 N 
ATOM     15  C   UNL     1      11.375  10.297   3.743  1.00  0.00     0.243 C 
ATOM     16  O   UNL     1      12.035  10.117   2.721  1.00  0.00    -0.273 OA
ATOM     17  H   UNL     1      10.274   9.471   5.283  1.00  0.00     0.164 HD
BRANCH  15  18
ATOM     18  C   UNL     1      11.350  11.632   4.526  1.00  0.00     0.171 C 
BRANCH  18  19
ATOM     19  N   UNL     1      12.474  11.592   5.459  1.00  0.00    -0.343 N 
ATOM     20  C   UNL     1      12.369  10.999   6.702  1.00  0.00     0.242 CG0
ATOM     21  O   UNL     1      11.291  10.597   7.134  1.00  0.00    -0.273 OA
ATOM     22  H   UNL     1      13.357  12.014   5.193  1.00  0.00     0.164 HD
ATOM     23  G   UNL     1      13.681  10.983   7.514  1.00  0.00     0.000 G0
ENDBRANCH  18  19
BRANCH  18  24
ATOM     24  C   UNL     1      11.457  12.824   3.568  1.00  0.00     0.038 C 
BRANCH  24  25
ATOM     25  C   UNL     1      10.204  13.069   2.700  1.00  0.00    -0.015 C 
ATOM     26  C   UNL     1      10.541  13.227   1.217  1.00  0.00     0.007 C 
ATOM     27  C   UNL     1       9.469  14.316   3.198  1.00  0.00     0.007 C 
ENDBRANCH  24  25
ENDBRANCH  18  24
ENDBRANCH  15  18
ENDBRANCH  13  14
BRANCH  13  28
ATOM     28  C   UNL     1      11.555   7.102   4.904  1.00  0.00     0.327 C 
ATOM     29  O   UNL     1      12.095   6.024   4.706  1.00  0.00    -0.250 OA
BRANCH  28  30
ATOM     30  O   UNL     1      11.568   7.656   6.133  1.00  0.00    -0.480 OA
ATOM     31  H   UNL     1      12.519   7.780   6.332  1.00  0.00     0.296 HD
ENDBRANCH  28  30
ENDBRANCH  13  28
ENDBRANCH  11  13
ENDBRANCH   8  11
ENDBRANCH   6   7
BRANCH   6  32
ATOM     32  C   UNL     1       8.678   7.217   8.493  1.00  0.00     0.037 C 
BRANCH  32  33
ATOM     33  C   UNL     1       8.919   6.250   9.661  1.00  0.00     0.026 C 
BRANCH  33  34
ATOM     34  C   UNL     1       9.573   4.943   9.213  1.00  0.00     0.146 C 
BRANCH  34  35
ATOM     35  N   UNL     1      10.980   5.193   8.933  1.00  0.00    -0.254 NA
ATOM     36  C   UNL     1      11.476   4.758   7.835  1.00  0.00     0.185 C 
ATOM     37  N   UNL     1      12.770   4.987   7.566  1.00  0.00    -0.370 N 
ATOM     38  N   UNL     1      10.873   4.068   6.851  1.00  0.00    -0.370 N 
ATOM     39  H   UNL     1      13.292   5.512   8.256  1.00  0.00     0.159 HD
ATOM     40  H   UNL     1      13.186   4.835   6.663  1.00  0.00     0.159 HD
ATOM     41  H   UNL     1      11.404   3.660   6.100  1.00  0.00     0.159 HD
ATOM     42  H   UNL     1       9.901   3.810   6.927  1.00  0.00     0.159 HD
ENDBRANCH  34  35
ENDBRANCH  33  34
ENDBRANCH  32  33
ENDBRANCH   6  32
ENDBRANCH   4   6
ENDBRANCH   1   2
BRANCH   1  43
ATOM     43  C   UNL     1       4.341   3.958   7.652  1.00  0.00     0.102 C 
ATOM     44  C   UNL     1       4.161   4.507   9.078  1.00  0.00     0.020 C 
BRANCH  43  45
ATOM     45  C   UNL     1       5.362   2.821   7.549  1.00  0.00     0.225 C 
ATOM     46  O   UNL     1       6.529   2.932   7.916  1.00  0.00    -0.275 OA
ATOM     47  N   UNL     1       4.916   1.679   6.925  1.00  0.00    -0.342 N 
ATOM     48  H   UNL     1       3.926   1.548   6.769  1.00  0.00     0.164 HD
BRANCH  47  49
ATOM     49  C   UNL     1       5.773   0.497   6.786  1.00  0.00     0.192 C 
BRANCH  49  50
ATOM     50  C   UNL     1       5.068  -0.550   5.920  1.00  0.00     0.047 C 
BRANCH  50  51
ATOM     51  C   UNL     1       5.926  -1.805   5.711  1.00  0.00     0.103 C 
BRANCH  51  52
ATOM     52  C   UNL     1       5.291  -3.045   6.339  1.00  0.00     0.226 C 
ATOM     53  O   UNL     1       4.146  -2.982   6.789  1.00  0.00    -0.275 OA
BRANCH  52  54
ATOM     54  N   UNL     1       6.050  -4.229   6.292  1.00  0.00    -0.311 N 
ATOM     55  C   UNL     1       7.173  -4.444   7.214  1.00  0.00     0.153 C 
BRANCH  54  56
ATOM     56  C   UNL     1       5.760  -5.249   5.371  1.00  0.00     0.102 C 
ATOM     57  C   UNL     1       6.415  -5.451   4.216  1.00  0.00     0.043 C 
BRANCH  56  58
ATOM     58  C   UNL     1       4.672  -6.260   5.650  1.00  0.00     0.268 C 
ATOM     59  O   UNL     1       4.076  -6.324   6.717  1.00  0.00    -0.268 OA
ATOM     60  N   UNL     1       4.379  -7.051   4.566  1.00  0.00    -0.339 N 
ATOM     61  H   UNL     1       4.926  -6.942   3.721  1.00  0.00     0.164 HD
BRANCH  60  62
ATOM     62  C   UNL     1       3.315  -8.054   4.598  1.00  0.00     0.168 CG0
ATOM     63  C   UNL     1       3.848  -9.429   4.218  1.00  0.00     0.041 C 
ATOM     64  G   UNL     1       2.175  -7.629   3.650  1.00  0.00     0.000 G0
ENDBRANCH  60  62
ENDBRANCH  56  58
ENDBRANCH  54  56
ENDBRANCH  52  54
ENDBRANCH  51  52
ENDBRANCH  50  51
ENDBRANCH  49  50
BRANCH  49  65
ATOM     65  C   UNL     1       6.114  -0.118   8.152  1.00  0.00     0.326 C 
ATOM     66  O   UNL     1       5.312  -0.619   8.927  1.00  0.00    -0.250 OA
BRANCH  65  67
ATOM     67  O   UNL     1       7.415  -0.023   8.504  1.00  0.00    -0.480 OA
ATOM     68  H   UNL     1       7.426  -0.331   9.436  1.00  0.00     0.296 HD
ENDBRANCH  65  67
ENDBRANCH  49  65
ENDBRANCH  47  49
ENDBRANCH  43  45
ENDBRANCH   1  43
BRANCH   1  69
ATOM     69  C   UNL     1       4.277   4.796   5.142  1.00  0.00    -0.001 C 
ATOM     70  C   UNL     1       5.089   4.898   4.075  1.00  0.00     0.001 C 
BRANCH  70  71
ATOM     71  C   UNL     1       4.747   4.616   2.679  1.00  0.00    -0.055 C 
ATOM     72  C   UNL     1       5.595   5.053   1.725  1.00  0.00    -0.018 C 
ATOM     73  C   UNL     1       3.477   3.851   2.408  1.00  0.00     0.044 C 
BRANCH  72  74
ATOM     74  C   UNL     1       5.501   4.906   0.213  1.00  0.00     0.038 C 
ATOM     75  C   UNL     1       6.750   4.142  -0.246  1.00  0.00     0.015 C 
BRANCH  74  76
ATOM     76  C   UNL     1       5.331   6.319  -0.419  1.00  0.00     0.128 C 
BRANCH  76  77
ATOM     77  O   UNL     1       5.803   6.310  -1.777  1.00  0.00    -0.381 OA
ATOM     78  C   UNL     1       6.008   7.608  -2.319  1.00  0.00     0.195 C 
ENDBRANCH  76  77
BRANCH  76  79
ATOM     79  C   UNL     1       3.901   6.901  -0.285  1.00  0.00     0.068 C 
BRANCH  79  80
ATOM     80  C   UNL     1       2.758   6.107  -0.870  1.00  0.00    -0.045 A 
ATOM     81  C   UNL     1       1.916   5.343  -0.051  1.00  0.00     0.004 A 
ATOM     82  C   UNL     1       2.537   6.101  -2.256  1.00  0.00     0.004 A 
ATOM     83  C   UNL     1       0.869   4.601  -0.602  1.00  0.00     0.000 A 
ATOM     84  C   UNL     1       1.491   5.358  -2.805  1.00  0.00     0.000 A 
ATOM     85  C   UNL     1       0.656   4.610  -1.979  1.00  0.00     0.000 A 
ENDBRANCH  79  80
ENDBRANCH  76  79
ENDBRANCH  74  76
ENDBRANCH  72  74
ENDBRANCH  70  71
ENDBRANCH   1  69
TORSDOF 17
ENDMDL
MODEL 9
REMARK VINA RESULT:    -6.514      2.722      5.019
REMARK INTER + INTRA:         -25.378
REMARK INTER:                 -18.255
REMARK INTRA:                  -7.123
REMARK UNBOUND:                -5.916
REMARK SMILES C=C1C(=O)N[C@H](C)C(=O)N[C@@H](CC(C)C)C(=O)N[C@@H](C(=O)O)[C@H](C)C(=O)N[C@@H](CCCN=C(N)N)C(=O)N[C@@H](/C=C/C(C)=C/[C@H](C)[C@H](Cc2ccccc2)OC)[C@H](C)C(=O)N[C@@H](C(=O)O)CCC(=O)N1C
REMARK SMILES IDX 39 1 38 2 37 3 36 4 28 6 27 7 25 8 26 9 23 11 24 12 19 13
REMARK SMILES IDX 18 14 16 15 17 16 11 18 10 19 8 20 9 21 12 24 13 25 14 26
REMARK SMILES IDX 15 27 20 28 21 29 22 30 29 32 30 33 31 34 32 35 33 36 34 37
REMARK SMILES IDX 35 38 57 43 58 44 59 45 60 46 61 47 62 49 66 50 67 51 68 52
REMARK SMILES IDX 69 53 70 54 71 55 2 56 1 57 3 58 4 59 5 60 6 62 7 63 63 65
REMARK SMILES IDX 64 66 65 67 40 69 41 70 42 71 44 72 43 73 45 74 46 75 47 76
REMARK SMILES IDX 55 77 56 78 48 79 49 80 50 81 54 82 51 83 53 84 52 85
REMARK H PARENT 38 5 27 10 18 17 10 22 22 31 34 39 34 40 35 41 35 42 61 48
REMARK H PARENT 5 61 65 68
REMARK Flexibility Score:  369.900
ROOT
ATOM      1  C   UNL     1       5.955   4.672   2.353  1.00  0.00     0.117 C 
ENDROOT
BRANCH   1   2
ATOM      2  N   UNL     1       5.798   5.022   3.765  1.00  0.00    -0.347 N 
ATOM      3  O   UNL     1       4.931   3.024   4.490  1.00  0.00    -0.273 OA
ATOM      4  C   UNL     1       5.383   4.136   4.741  1.00  0.00     0.243 C 
ATOM      5  H   UNL     1       6.050   5.948   4.076  1.00  0.00     0.164 HD
BRANCH   4   6
ATOM      6  C   UNL     1       5.385   4.737   6.170  1.00  0.00     0.171 C 
BRANCH   6   7
ATOM      7  N   UNL     1       6.415   4.089   6.998  1.00  0.00    -0.344 N 
ATOM      8  C   UNL     1       6.070   3.126   7.921  1.00  0.00     0.226 C 
ATOM      9  O   UNL     1       4.911   2.780   8.114  1.00  0.00    -0.275 OA
ATOM     10  H   UNL     1       7.376   4.396   6.915  1.00  0.00     0.164 HD
BRANCH   8  11
ATOM     11  C   UNL     1       7.250   2.515   8.657  1.00  0.00     0.109 C 
ATOM     12  C   UNL     1       8.122   3.617   9.259  1.00  0.00     0.021 C 
BRANCH  11  13
ATOM     13  C   UNL     1       6.747   1.463   9.666  1.00  0.00     0.204 C 
BRANCH  13  14
ATOM     14  N   UNL     1       6.368   0.207   9.011  1.00  0.00    -0.340 N 
ATOM     15  C   UNL     1       5.512  -0.708   9.585  1.00  0.00     0.243 C 
ATOM     16  O   UNL     1       4.957  -0.506  10.664  1.00  0.00    -0.273 OA
ATOM     17  H   UNL     1       6.906  -0.089   8.192  1.00  0.00     0.164 HD
BRANCH  15  18
ATOM     18  C   UNL     1       5.424  -2.044   8.808  1.00  0.00     0.171 C 
BRANCH  18  19
ATOM     19  N   UNL     1       4.002  -2.338   8.641  1.00  0.00    -0.343 N 
ATOM     20  C   UNL     1       3.432  -3.491   9.147  1.00  0.00     0.242 CG0
ATOM     21  O   UNL     1       4.116  -4.383   9.642  1.00  0.00    -0.273 OA
ATOM     22  H   UNL     1       3.414  -1.684   8.136  1.00  0.00     0.164 HD
ATOM     23  G   UNL     1       1.906  -3.589   8.941  1.00  0.00     0.000 G0
ENDBRANCH  18  19
BRANCH  18  24
ATOM     24  C   UNL     1       6.137  -1.932   7.455  1.00  0.00     0.038 C 
BRANCH  24  25
ATOM     25  C   UNL     1       5.195  -1.836   6.236  1.00  0.00    -0.015 C 
ATOM     26  C   UNL     1       5.668  -2.694   5.063  1.00  0.00     0.007 C 
ATOM     27  C   UNL     1       5.076  -0.376   5.792  1.00  0.00     0.007 C 
ENDBRANCH  24  25
ENDBRANCH  18  24
ENDBRANCH  15  18
ENDBRANCH  13  14
BRANCH  13  28
ATOM     28  C   UNL     1       7.779   1.119  10.744  1.00  0.00     0.327 C 
ATOM     29  O   UNL     1       8.895   0.658  10.556  1.00  0.00    -0.250 OA
BRANCH  28  30
ATOM     30  O   UNL     1       7.302   1.263  11.998  1.00  0.00    -0.480 OA
ATOM     31  H   UNL     1       6.928   0.384  12.216  1.00  0.00     0.296 HD
ENDBRANCH  28  30
ENDBRANCH  13  28
ENDBRANCH  11  13
ENDBRANCH   8  11
ENDBRANCH   6   7
BRANCH   6  32
ATOM     32  C   UNL     1       5.625   6.248   6.080  1.00  0.00     0.037 C 
BRANCH  32  33
ATOM     33  C   UNL     1       6.151   6.830   7.400  1.00  0.00     0.026 C 
BRANCH  33  34
ATOM     34  C   UNL     1       5.076   6.885   8.485  1.00  0.00     0.146 C 
BRANCH  34  35
ATOM     35  N   UNL     1       4.291   8.098   8.307  1.00  0.00    -0.254 NA
ATOM     36  C   UNL     1       3.035   7.989   8.078  1.00  0.00     0.185 C 
ATOM     37  N   UNL     1       2.301   9.101   7.917  1.00  0.00    -0.370 N 
ATOM     38  N   UNL     1       2.290   6.875   7.966  1.00  0.00    -0.370 N 
ATOM     39  H   UNL     1       2.789   9.983   7.997  1.00  0.00     0.159 HD
ATOM     40  H   UNL     1       1.295   9.107   7.908  1.00  0.00     0.159 HD
ATOM     41  H   UNL     1       1.337   6.916   7.645  1.00  0.00     0.159 HD
ATOM     42  H   UNL     1       2.715   5.964   8.049  1.00  0.00     0.159 HD
ENDBRANCH  34  35
ENDBRANCH  33  34
ENDBRANCH  32  33
ENDBRANCH   6  32
ENDBRANCH   4   6
ENDBRANCH   1   2
BRANCH   1  43
ATOM     43  C   UNL     1       7.303   5.259   1.844  1.00  0.00     0.102 C 
ATOM     44  C   UNL     1       8.192   4.224   1.134  1.00  0.00     0.020 C 
BRANCH  43  45
ATOM     45  C   UNL     1       8.018   6.036   2.953  1.00  0.00     0.225 C 
ATOM     46  O   UNL     1       7.661   7.148   3.331  1.00  0.00    -0.275 OA
ATOM     47  N   UNL     1       9.160   5.448   3.446  1.00  0.00    -0.342 N 
ATOM     48  H   UNL     1       9.354   4.478   3.238  1.00  0.00     0.164 HD
BRANCH  47  49
ATOM     49  C   UNL     1       9.929   6.060   4.535  1.00  0.00     0.192 C 
BRANCH  49  50
ATOM     50  C   UNL     1      11.424   5.832   4.300  1.00  0.00     0.047 C 
BRANCH  50  51
ATOM     51  C   UNL     1      11.900   6.420   2.964  1.00  0.00     0.103 C 
BRANCH  51  52
ATOM     52  C   UNL     1      12.151   7.923   3.056  1.00  0.00     0.226 C 
ATOM     53  O   UNL     1      13.283   8.338   3.313  1.00  0.00    -0.275 OA
BRANCH  52  54
ATOM     54  N   UNL     1      11.060   8.761   2.758  1.00  0.00    -0.311 N 
ATOM     55  C   UNL     1      10.207   8.505   1.590  1.00  0.00     0.153 C 
BRANCH  54  56
ATOM     56  C   UNL     1      10.742   9.865   3.567  1.00  0.00     0.102 C 
ATOM     57  C   UNL     1      10.185   9.789   4.786  1.00  0.00     0.043 C 
BRANCH  56  58
ATOM     58  C   UNL     1      11.062  11.271   3.118  1.00  0.00     0.268 C 
ATOM     59  O   UNL     1      10.916  11.656   1.966  1.00  0.00    -0.268 OA
ATOM     60  N   UNL     1      11.468  12.088   4.147  1.00  0.00    -0.339 N 
ATOM     61  H   UNL     1      11.573  11.689   5.072  1.00  0.00     0.164 HD
BRANCH  60  62
ATOM     62  C   UNL     1      11.767  13.505   3.945  1.00  0.00     0.168 CG0
ATOM     63  C   UNL     1      10.540  14.367   4.214  1.00  0.00     0.041 C 
ATOM     64  G   UNL     1      12.285  13.724   2.509  1.00  0.00     0.000 G0
ENDBRANCH  60  62
ENDBRANCH  56  58
ENDBRANCH  54  56
ENDBRANCH  52  54
ENDBRANCH  51  52
ENDBRANCH  50  51
ENDBRANCH  49  50
BRANCH  49  65
ATOM     65  C   UNL     1       9.534   5.480   5.902  1.00  0.00     0.326 C 
ATOM     66  O   UNL     1       9.688   6.035   6.980  1.00  0.00    -0.250 OA
BRANCH  65  67
ATOM     67  O   UNL     1       9.030   4.227   5.859  1.00  0.00    -0.480 OA
ATOM     68  H   UNL     1       8.123   4.354   5.507  1.00  0.00     0.296 HD
ENDBRANCH  65  67
ENDBRANCH  49  65
ENDBRANCH  47  49
ENDBRANCH  43  45
ENDBRANCH   1  43
BRANCH   1  69
ATOM     69  C   UNL     1       4.667   5.089   1.667  1.00  0.00    -0.001 C 
ATOM     70  C   UNL     1       3.560   4.348   1.487  1.00  0.00     0.001 C 
BRANCH  70  71
ATOM     71  C   UNL     1       2.315   4.769   0.842  1.00  0.00    -0.055 C 
ATOM     72  C   UNL     1       2.212   4.602  -0.493  1.00  0.00    -0.018 C 
ATOM     73  C   UNL     1       1.234   5.351   1.715  1.00  0.00     0.044 C 
BRANCH  72  74
ATOM     74  C   UNL     1       1.052   4.939  -1.420  1.00  0.00     0.038 C 
ATOM     75  C   UNL     1       0.259   3.646  -1.642  1.00  0.00     0.015 C 
BRANCH  74  76
ATOM     76  C   UNL     1       1.619   5.588  -2.716  1.00  0.00     0.128 C 
BRANCH  76  77
ATOM     77  O   UNL     1       0.557   5.809  -3.660  1.00  0.00    -0.381 OA
ATOM     78  C   UNL     1      -0.333   6.850  -3.284  1.00  0.00     0.195 C 
ENDBRANCH  76  77
BRANCH  76  79
ATOM     79  C   UNL     1       2.471   6.858  -2.464  1.00  0.00     0.068 C 
BRANCH  79  80
ATOM     80  C   UNL     1       3.963   6.761  -2.668  1.00  0.00    -0.045 A 
ATOM     81  C   UNL     1       4.534   6.958  -3.932  1.00  0.00     0.004 A 
ATOM     82  C   UNL     1       4.805   6.441  -1.591  1.00  0.00     0.004 A 
ATOM     83  C   UNL     1       5.914   6.852  -4.115  1.00  0.00     0.000 A 
ATOM     84  C   UNL     1       6.185   6.335  -1.776  1.00  0.00     0.000 A 
ATOM     85  C   UNL     1       6.739   6.542  -3.036  1.00  0.00     0.000 A 
ENDBRANCH  79  80
ENDBRANCH  76  79
ENDBRANCH  74  76
ENDBRANCH  72  74
ENDBRANCH  70  71
ENDBRANCH   1  69
TORSDOF 17
ENDMDL
MODEL 10
REMARK VINA RESULT:    -6.470      3.418     13.938
REMARK INTER + INTRA:         -25.247
REMARK INTER:                 -18.218
REMARK INTRA:                  -7.029
REMARK UNBOUND:                -5.916
REMARK SMILES C=C1C(=O)N[C@H](C)C(=O)N[C@@H](CC(C)C)C(=O)N[C@@H](C(=O)O)[C@H](C)C(=O)N[C@@H](CCCN=C(N)N)C(=O)N[C@@H](/C=C/C(C)=C/[C@H](C)[C@H](Cc2ccccc2)OC)[C@H](C)C(=O)N[C@@H](C(=O)O)CCC(=O)N1C
REMARK SMILES IDX 39 1 38 2 37 3 36 4 28 6 27 7 25 8 26 9 23 11 24 12 19 13
REMARK SMILES IDX 18 14 16 15 17 16 11 18 10 19 8 20 9 21 12 24 13 25 14 26
REMARK SMILES IDX 15 27 20 28 21 29 22 30 29 32 30 33 31 34 32 35 33 36 34 37
REMARK SMILES IDX 35 38 57 43 58 44 59 45 60 46 61 47 62 49 66 50 67 51 68 52
REMARK SMILES IDX 69 53 70 54 71 55 2 56 1 57 3 58 4 59 5 60 6 62 7 63 63 65
REMARK SMILES IDX 64 66 65 67 40 69 41 70 42 71 44 72 43 73 45 74 46 75 47 76
REMARK SMILES IDX 55 77 56 78 48 79 49 80 50 81 54 82 51 83 53 84 52 85
REMARK H PARENT 38 5 27 10 18 17 10 22 22 31 34 39 34 40 35 41 35 42 61 48
REMARK H PARENT 5 61 65 68
REMARK Flexibility Score:  369.900
ROOT
ATOM      1  C   UNL     1       4.192  -2.924   8.072  1.00  0.00     0.117 C 
ENDROOT
BRANCH   1   2
ATOM      2  N   UNL     1       4.972  -1.723   8.375  1.00  0.00    -0.347 N 
ATOM      3  O   UNL     1       4.861  -0.745   6.302  1.00  0.00    -0.273 OA
ATOM      4  C   UNL     1       5.167  -0.682   7.488  1.00  0.00     0.243 C 
ATOM      5  H   UNL     1       5.358  -1.605   9.300  1.00  0.00     0.164 HD
BRANCH   4   6
ATOM      6  C   UNL     1       5.957   0.509   8.087  1.00  0.00     0.171 C 
BRANCH   6   7
ATOM      7  N   UNL     1       5.248   1.774   7.837  1.00  0.00    -0.344 N 
ATOM      8  C   UNL     1       5.762   2.706   6.962  1.00  0.00     0.226 C 
ATOM      9  O   UNL     1       6.826   2.545   6.376  1.00  0.00    -0.275 OA
ATOM     10  H   UNL     1       4.400   1.972   8.354  1.00  0.00     0.164 HD
BRANCH   8  11
ATOM     11  C   UNL     1       4.888   3.933   6.771  1.00  0.00     0.109 C 
ATOM     12  C   UNL     1       4.005   4.148   8.001  1.00  0.00     0.021 C 
BRANCH  11  13
ATOM     13  C   UNL     1       5.762   5.141   6.382  1.00  0.00     0.204 C 
BRANCH  13  14
ATOM     14  N   UNL     1       5.945   5.246   4.931  1.00  0.00    -0.340 N 
ATOM     15  C   UNL     1       7.183   5.377   4.340  1.00  0.00     0.243 C 
ATOM     16  O   UNL     1       8.229   5.355   4.986  1.00  0.00    -0.273 OA
ATOM     17  H   UNL     1       5.118   5.423   4.354  1.00  0.00     0.164 HD
BRANCH  15  18
ATOM     18  C   UNL     1       7.116   5.679   2.823  1.00  0.00     0.171 C 
BRANCH  18  19
ATOM     19  N   UNL     1       8.495   5.713   2.341  1.00  0.00    -0.343 N 
ATOM     20  C   UNL     1       8.890   6.558   1.321  1.00  0.00     0.242 CG0
ATOM     21  O   UNL     1       8.076   7.220   0.683  1.00  0.00    -0.273 OA
ATOM     22  H   UNL     1       9.184   5.099   2.760  1.00  0.00     0.164 HD
ATOM     23  G   UNL     1      10.399   6.510   1.004  1.00  0.00     0.000 G0
ENDBRANCH  18  19
BRANCH  18  24
ATOM     24  C   UNL     1       6.293   4.610   2.094  1.00  0.00     0.038 C 
BRANCH  24  25
ATOM     25  C   UNL     1       5.029   5.141   1.386  1.00  0.00    -0.015 C 
ATOM     26  C   UNL     1       3.816   4.234   1.594  1.00  0.00     0.007 C 
ATOM     27  C   UNL     1       5.305   5.295  -0.112  1.00  0.00     0.007 C 
ENDBRANCH  24  25
ENDBRANCH  18  24
ENDBRANCH  15  18
ENDBRANCH  13  14
BRANCH  13  28
ATOM     28  C   UNL     1       5.194   6.479   6.865  1.00  0.00     0.327 C 
ATOM     29  O   UNL     1       4.168   7.013   6.470  1.00  0.00    -0.250 OA
BRANCH  28  30
ATOM     30  O   UNL     1       6.008   7.119   7.728  1.00  0.00    -0.480 OA
ATOM     31  H   UNL     1       6.828   6.582   7.729  1.00  0.00     0.296 HD
ENDBRANCH  28  30
ENDBRANCH  13  28
ENDBRANCH  11  13
ENDBRANCH   8  11
ENDBRANCH   6   7
BRANCH   6  32
ATOM     32  C   UNL     1       6.151   0.278   9.590  1.00  0.00     0.037 C 
BRANCH  32  33
ATOM     33  C   UNL     1       5.650   1.463  10.428  1.00  0.00     0.026 C 
BRANCH  33  34
ATOM     34  C   UNL     1       4.451   1.096  11.302  1.00  0.00     0.146 C 
BRANCH  34  35
ATOM     35  N   UNL     1       3.884   2.317  11.859  1.00  0.00    -0.254 NA
ATOM     36  C   UNL     1       2.830   2.807  11.319  1.00  0.00     0.185 C 
ATOM     37  N   UNL     1       2.297   3.928  11.827  1.00  0.00    -0.370 N 
ATOM     38  N   UNL     1       2.131   2.350  10.265  1.00  0.00    -0.370 N 
ATOM     39  H   UNL     1       2.762   4.329  12.632  1.00  0.00     0.159 HD
ATOM     40  H   UNL     1       1.387   4.274  11.577  1.00  0.00     0.159 HD
ATOM     41  H   UNL     1       1.398   2.901   9.848  1.00  0.00     0.159 HD
ATOM     42  H   UNL     1       2.427   1.522   9.773  1.00  0.00     0.159 HD
ENDBRANCH  34  35
ENDBRANCH  33  34
ENDBRANCH  32  33
ENDBRANCH   6  32
ENDBRANCH   4   6
ENDBRANCH   1   2
BRANCH   1  43
ATOM     43  C   UNL     1       3.246  -3.216   9.272  1.00  0.00     0.102 C 
ATOM     44  C   UNL     1       3.985  -3.697  10.531  1.00  0.00     0.020 C 
BRANCH  43  45
ATOM     45  C   UNL     1       2.085  -4.121   8.849  1.00  0.00     0.225 C 
ATOM     46  O   UNL     1       1.651  -5.028   9.553  1.00  0.00    -0.275 OA
ATOM     47  N   UNL     1       1.609  -3.917   7.574  1.00  0.00    -0.342 N 
ATOM     48  H   UNL     1       1.868  -3.080   7.071  1.00  0.00     0.164 HD
BRANCH  47  49
ATOM     49  C   UNL     1       0.477  -4.686   7.046  1.00  0.00     0.192 C 
BRANCH  49  50
ATOM     50  C   UNL     1       0.580  -4.772   5.522  1.00  0.00     0.047 C 
BRANCH  50  51
ATOM     51  C   UNL     1       1.909  -5.385   5.061  1.00  0.00     0.103 C 
BRANCH  51  52
ATOM     52  C   UNL     1       1.798  -6.891   4.832  1.00  0.00     0.226 C 
ATOM     53  O   UNL     1       0.977  -7.325   4.022  1.00  0.00    -0.275 OA
BRANCH  52  54
ATOM     54  N   UNL     1       2.717  -7.700   5.526  1.00  0.00    -0.311 N 
ATOM     55  C   UNL     1       2.909  -7.555   6.975  1.00  0.00     0.153 C 
BRANCH  54  56
ATOM     56  C   UNL     1       3.478  -8.677   4.863  1.00  0.00     0.102 C 
ATOM     57  C   UNL     1       4.570  -8.429   4.122  1.00  0.00     0.043 C 
BRANCH  56  58
ATOM     58  C   UNL     1       3.130 -10.142   4.980  1.00  0.00     0.268 C 
ATOM     59  O   UNL     1       1.979 -10.555   5.032  1.00  0.00    -0.268 OA
ATOM     60  N   UNL     1       4.232 -10.963   4.957  1.00  0.00    -0.339 N 
ATOM     61  H   UNL     1       5.153 -10.542   4.923  1.00  0.00     0.164 HD
BRANCH  60  62
ATOM     62  C   UNL     1       4.119 -12.421   4.996  1.00  0.00     0.168 CG0
ATOM     63  C   UNL     1       5.458 -13.081   4.689  1.00  0.00     0.041 C 
ATOM     64  G   UNL     1       3.040 -12.882   3.995  1.00  0.00     0.000 G0
ENDBRANCH  60  62
ENDBRANCH  56  58
ENDBRANCH  54  56
ENDBRANCH  52  54
ENDBRANCH  51  52
ENDBRANCH  50  51
ENDBRANCH  49  50
BRANCH  49  65
ATOM     65  C   UNL     1      -0.868  -4.050   7.431  1.00  0.00     0.326 C 
ATOM     66  O   UNL     1      -1.463  -4.227   8.484  1.00  0.00    -0.250 OA
BRANCH  65  67
ATOM     67  O   UNL     1      -1.424  -3.282   6.468  1.00  0.00    -0.480 OA
ATOM     68  H   UNL     1      -2.243  -2.942   6.888  1.00  0.00     0.296 HD
ENDBRANCH  65  67
ENDBRANCH  49  65
ENDBRANCH  47  49
ENDBRANCH  43  45
ENDBRANCH   1  43
BRANCH   1  69
ATOM     69  C   UNL     1       5.193  -3.984   7.652  1.00  0.00    -0.001 C 
ATOM     70  C   UNL     1       5.220  -4.671   6.496  1.00  0.00     0.001 C 
BRANCH  70  71
ATOM     71  C   UNL     1       6.204  -5.677   6.093  1.00  0.00    -0.055 C 
ATOM     72  C   UNL     1       6.514  -6.644   6.983  1.00  0.00    -0.018 C 
ATOM     73  C   UNL     1       6.795  -5.568   4.712  1.00  0.00     0.044 C 
BRANCH  72  74
ATOM     74  C   UNL     1       7.486  -7.807   6.842  1.00  0.00     0.038 C 
ATOM     75  C   UNL     1       6.725  -9.081   7.229  1.00  0.00     0.015 C 
BRANCH  74  76
ATOM     76  C   UNL     1       8.748  -7.512   7.705  1.00  0.00     0.128 C 
BRANCH  76  77
ATOM     77  O   UNL     1       9.123  -8.687   8.443  1.00  0.00    -0.381 OA
ATOM     78  C   UNL     1      10.504  -9.008   8.343  1.00  0.00     0.195 C 
ENDBRANCH  76  77
BRANCH  76  79
ATOM     79  C   UNL     1       9.928  -6.903   6.907  1.00  0.00     0.068 C 
BRANCH  79  80
ATOM     80  C   UNL     1      10.335  -5.483   7.220  1.00  0.00    -0.045 A 
ATOM     81  C   UNL     1       9.403  -4.554   7.700  1.00  0.00     0.004 A 
ATOM     82  C   UNL     1      11.657  -5.063   7.005  1.00  0.00     0.004 A 
ATOM     83  C   UNL     1       9.785  -3.239   7.974  1.00  0.00     0.000 A 
ATOM     84  C   UNL     1      12.037  -3.747   7.279  1.00  0.00     0.000 A 
ATOM     85  C   UNL     1      11.102  -2.836   7.764  1.00  0.00     0.000 A 
ENDBRANCH  79  80
ENDBRANCH  76  79
ENDBRANCH  74  76
ENDBRANCH  72  74
ENDBRANCH  70  71
ENDBRANCH   1  69
TORSDOF 17
ENDMDL
MODEL 11
REMARK VINA RESULT:    -6.450      4.495     12.561
REMARK INTER + INTRA:         -25.187
REMARK INTER:                 -21.021
REMARK INTRA:                  -4.166
REMARK UNBOUND:                -5.916
REMARK SMILES C=C1C(=O)N[C@H](C)C(=O)N[C@@H](CC(C)C)C(=O)N[C@@H](C(=O)O)[C@H](C)C(=O)N[C@@H](CCCN=C(N)N)C(=O)N[C@@H](/C=C/C(C)=C/[C@H](C)[C@H](Cc2ccccc2)OC)[C@H](C)C(=O)N[C@@H](C(=O)O)CCC(=O)N1C
REMARK SMILES IDX 39 1 38 2 37 3 36 4 28 6 27 7 25 8 26 9 23 11 24 12 19 13
REMARK SMILES IDX 18 14 16 15 17 16 11 18 10 19 8 20 9 21 12 24 13 25 14 26
REMARK SMILES IDX 15 27 20 28 21 29 22 30 29 32 30 33 31 34 32 35 33 36 34 37
REMARK SMILES IDX 35 38 57 43 58 44 59 45 60 46 61 47 62 49 66 50 67 51 68 52
REMARK SMILES IDX 69 53 70 54 71 55 2 56 1 57 3 58 4 59 5 60 6 62 7 63 63 65
REMARK SMILES IDX 64 66 65 67 40 69 41 70 42 71 44 72 43 73 45 74 46 75 47 76
REMARK SMILES IDX 55 77 56 78 48 79 49 80 50 81 54 82 51 83 53 84 52 85
REMARK H PARENT 38 5 27 10 18 17 10 22 22 31 34 39 34 40 35 41 35 42 61 48
REMARK H PARENT 5 61 65 68
REMARK Flexibility Score:  369.900
ROOT
ATOM      1  C   UNL     1       5.745   2.030   6.726  1.00  0.00     0.117 C 
ENDROOT
BRANCH   1   2
ATOM      2  N   UNL     1       6.043   2.774   5.502  1.00  0.00    -0.347 N 
ATOM      3  O   UNL     1       3.887   3.323   4.936  1.00  0.00    -0.273 OA
ATOM      4  C   UNL     1       5.094   3.441   4.752  1.00  0.00     0.243 C 
ATOM      5  H   UNL     1       7.001   2.860   5.196  1.00  0.00     0.164 HD
BRANCH   4   6
ATOM      6  C   UNL     1       5.685   4.223   3.551  1.00  0.00     0.171 C 
BRANCH   6   7
ATOM      7  N   UNL     1       4.616   4.625   2.623  1.00  0.00    -0.344 N 
ATOM      8  C   UNL     1       4.775   4.478   1.262  1.00  0.00     0.226 C 
ATOM      9  O   UNL     1       5.802   4.034   0.761  1.00  0.00    -0.275 OA
ATOM     10  H   UNL     1       3.780   5.058   2.995  1.00  0.00     0.164 HD
BRANCH   8  11
ATOM     11  C   UNL     1       3.564   4.887   0.443  1.00  0.00     0.109 C 
ATOM     12  C   UNL     1       2.315   4.906   1.324  1.00  0.00     0.021 C 
BRANCH  11  13
ATOM     13  C   UNL     1       3.856   6.208  -0.296  1.00  0.00     0.204 C 
BRANCH  13  14
ATOM     14  N   UNL     1       4.474   5.981  -1.607  1.00  0.00    -0.340 N 
ATOM     15  C   UNL     1       5.533   6.729  -2.073  1.00  0.00     0.243 C 
ATOM     16  O   UNL     1       6.076   7.601  -1.396  1.00  0.00    -0.273 OA
ATOM     17  H   UNL     1       3.980   5.382  -2.274  1.00  0.00     0.164 HD
BRANCH  15  18
ATOM     18  C   UNL     1       5.881   6.451  -3.557  1.00  0.00     0.171 C 
BRANCH  18  19
ATOM     19  N   UNL     1       5.054   7.353  -4.356  1.00  0.00    -0.343 N 
ATOM     20  C   UNL     1       3.702   7.134  -4.538  1.00  0.00     0.242 CG0
ATOM     21  O   UNL     1       3.160   6.103  -4.148  1.00  0.00    -0.273 OA
ATOM     22  H   UNL     1       5.481   8.160  -4.796  1.00  0.00     0.164 HD
ATOM     23  G   UNL     1       2.982   8.234  -5.344  1.00  0.00     0.000 G0
ENDBRANCH  18  19
BRANCH  18  24
ATOM     24  C   UNL     1       7.375   6.681  -3.815  1.00  0.00     0.038 C 
BRANCH  24  25
ATOM     25  C   UNL     1       7.711   7.211  -5.225  1.00  0.00    -0.015 C 
ATOM     26  C   UNL     1       7.916   6.086  -6.240  1.00  0.00     0.007 C 
ATOM     27  C   UNL     1       8.968   8.082  -5.161  1.00  0.00     0.007 C 
ENDBRANCH  24  25
ENDBRANCH  18  24
ENDBRANCH  15  18
ENDBRANCH  13  14
BRANCH  13  28
ATOM     28  C   UNL     1       2.604   7.060  -0.526  1.00  0.00     0.327 C 
ATOM     29  O   UNL     1       2.293   8.067   0.091  1.00  0.00    -0.250 OA
BRANCH  28  30
ATOM     30  O   UNL     1       1.763   6.530  -1.436  1.00  0.00    -0.480 OA
ATOM     31  H   UNL     1       1.396   5.737  -0.992  1.00  0.00     0.296 HD
ENDBRANCH  28  30
ENDBRANCH  13  28
ENDBRANCH  11  13
ENDBRANCH   8  11
ENDBRANCH   6   7
BRANCH   6  32
ATOM     32  C   UNL     1       6.446   5.447   4.073  1.00  0.00     0.037 C 
BRANCH  32  33
ATOM     33  C   UNL     1       7.500   5.943   3.074  1.00  0.00     0.026 C 
BRANCH  33  34
ATOM     34  C   UNL     1       8.258   7.170   3.584  1.00  0.00     0.146 C 
BRANCH  34  35
ATOM     35  N   UNL     1       8.725   7.942   2.441  1.00  0.00    -0.254 NA
ATOM     36  C   UNL     1       9.986   8.084   2.269  1.00  0.00     0.185 C 
ATOM     37  N   UNL     1      10.427   8.790   1.216  1.00  0.00    -0.370 N 
ATOM     38  N   UNL     1      10.999   7.610   3.015  1.00  0.00    -0.370 N 
ATOM     39  H   UNL     1       9.723   9.172   0.598  1.00  0.00     0.159 HD
ATOM     40  H   UNL     1      11.387   8.800   0.916  1.00  0.00     0.159 HD
ATOM     41  H   UNL     1      11.948   7.906   2.854  1.00  0.00     0.159 HD
ATOM     42  H   UNL     1      10.815   7.073   3.849  1.00  0.00     0.159 HD
ENDBRANCH  34  35
ENDBRANCH  33  34
ENDBRANCH  32  33
ENDBRANCH   6  32
ENDBRANCH   4   6
ENDBRANCH   1   2
BRANCH   1  43
ATOM     43  C   UNL     1       6.514   2.690   7.907  1.00  0.00     0.102 C 
ATOM     44  C   UNL     1       7.833   1.980   8.252  1.00  0.00     0.020 C 
BRANCH  43  45
ATOM     45  C   UNL     1       5.591   2.907   9.110  1.00  0.00     0.225 C 
ATOM     46  O   UNL     1       4.674   3.723   9.114  1.00  0.00    -0.275 OA
ATOM     47  N   UNL     1       5.913   2.190  10.240  1.00  0.00    -0.342 N 
ATOM     48  H   UNL     1       6.565   1.421  10.175  1.00  0.00     0.164 HD
BRANCH  47  49
ATOM     49  C   UNL     1       5.098   2.270  11.456  1.00  0.00     0.192 C 
BRANCH  49  50
ATOM     50  C   UNL     1       3.634   2.513  11.079  1.00  0.00     0.047 C 
BRANCH  50  51
ATOM     51  C   UNL     1       2.712   2.530  12.306  1.00  0.00     0.103 C 
BRANCH  51  52
ATOM     52  C   UNL     1       2.336   3.952  12.721  1.00  0.00     0.226 C 
ATOM     53  O   UNL     1       2.291   4.843  11.871  1.00  0.00    -0.275 OA
BRANCH  52  54
ATOM     54  N   UNL     1       1.984   4.138  14.070  1.00  0.00    -0.311 N 
ATOM     55  C   UNL     1       1.256   3.101  14.812  1.00  0.00     0.153 C 
BRANCH  54  56
ATOM     56  C   UNL     1       2.319   5.317  14.758  1.00  0.00     0.102 C 
ATOM     57  C   UNL     1       1.436   6.235  15.184  1.00  0.00     0.043 C 
BRANCH  56  58
ATOM     58  C   UNL     1       3.753   5.622  15.120  1.00  0.00     0.268 C 
ATOM     59  O   UNL     1       4.545   6.137  14.343  1.00  0.00    -0.268 OA
ATOM     60  N   UNL     1       4.056   5.323  16.427  1.00  0.00    -0.339 N 
ATOM     61  H   UNL     1       3.346   4.888  17.004  1.00  0.00     0.164 HD
BRANCH  60  62
ATOM     62  C   UNL     1       5.371   5.597  17.005  1.00  0.00     0.168 CG0
ATOM     63  C   UNL     1       5.613   4.744  18.244  1.00  0.00     0.041 C 
ATOM     64  G   UNL     1       5.484   7.098  17.344  1.00  0.00     0.000 G0
ENDBRANCH  60  62
ENDBRANCH  56  58
ENDBRANCH  54  56
ENDBRANCH  52  54
ENDBRANCH  51  52
ENDBRANCH  50  51
ENDBRANCH  49  50
BRANCH  49  65
ATOM     65  C   UNL     1       5.577   3.395  12.386  1.00  0.00     0.326 C 
ATOM     66  O   UNL     1       6.014   3.244  13.518  1.00  0.00    -0.250 OA
BRANCH  65  67
ATOM     67  O   UNL     1       5.431   4.642  11.885  1.00  0.00    -0.480 OA
ATOM     68  H   UNL     1       5.138   5.169  12.659  1.00  0.00     0.296 HD
ENDBRANCH  65  67
ENDBRANCH  49  65
ENDBRANCH  47  49
ENDBRANCH  43  45
ENDBRANCH   1  43
BRANCH   1  69
ATOM     69  C   UNL     1       6.005   0.569   6.408  1.00  0.00    -0.001 C 
ATOM     70  C   UNL     1       5.269  -0.493   6.782  1.00  0.00     0.001 C 
BRANCH  70  71
ATOM     71  C   UNL     1       5.519  -1.897   6.451  1.00  0.00    -0.055 C 
ATOM     72  C   UNL     1       5.593  -2.779   7.470  1.00  0.00    -0.018 C 
ATOM     73  C   UNL     1       5.667  -2.260   4.996  1.00  0.00     0.044 C 
BRANCH  72  74
ATOM     74  C   UNL     1       5.835  -4.281   7.428  1.00  0.00     0.038 C 
ATOM     75  C   UNL     1       4.985  -4.908   8.540  1.00  0.00     0.015 C 
BRANCH  74  76
ATOM     76  C   UNL     1       7.365  -4.545   7.549  1.00  0.00     0.128 C 
BRANCH  76  77
ATOM     77  O   UNL     1       7.705  -4.849   8.912  1.00  0.00    -0.381 OA
ATOM     78  C   UNL     1       8.342  -6.109   9.075  1.00  0.00     0.195 C 
ENDBRANCH  76  77
BRANCH  76  79
ATOM     79  C   UNL     1       7.903  -5.598   6.548  1.00  0.00     0.068 C 
BRANCH  79  80
ATOM     80  C   UNL     1       6.911  -6.273   5.631  1.00  0.00    -0.045 A 
ATOM     81  C   UNL     1       6.194  -7.402   6.048  1.00  0.00     0.004 A 
ATOM     82  C   UNL     1       6.713  -5.792   4.328  1.00  0.00     0.004 A 
ATOM     83  C   UNL     1       5.289  -8.029   5.189  1.00  0.00     0.000 A 
ATOM     84  C   UNL     1       5.808  -6.420   3.469  1.00  0.00     0.000 A 
ATOM     85  C   UNL     1       5.096  -7.537   3.900  1.00  0.00     0.000 A 
ENDBRANCH  79  80
ENDBRANCH  76  79
ENDBRANCH  74  76
ENDBRANCH  72  74
ENDBRANCH  70  71
ENDBRANCH   1  69
TORSDOF 17
ENDMDL
MODEL 12
REMARK VINA RESULT:    -6.449      5.271      8.398
REMARK INTER + INTRA:         -25.185
REMARK INTER:                 -22.282
REMARK INTRA:                  -2.902
REMARK UNBOUND:                -5.916
REMARK SMILES C=C1C(=O)N[C@H](C)C(=O)N[C@@H](CC(C)C)C(=O)N[C@@H](C(=O)O)[C@H](C)C(=O)N[C@@H](CCCN=C(N)N)C(=O)N[C@@H](/C=C/C(C)=C/[C@H](C)[C@H](Cc2ccccc2)OC)[C@H](C)C(=O)N[C@@H](C(=O)O)CCC(=O)N1C
REMARK SMILES IDX 39 1 38 2 37 3 36 4 28 6 27 7 25 8 26 9 23 11 24 12 19 13
REMARK SMILES IDX 18 14 16 15 17 16 11 18 10 19 8 20 9 21 12 24 13 25 14 26
REMARK SMILES IDX 15 27 20 28 21 29 22 30 29 32 30 33 31 34 32 35 33 36 34 37
REMARK SMILES IDX 35 38 57 43 58 44 59 45 60 46 61 47 62 49 66 50 67 51 68 52
REMARK SMILES IDX 69 53 70 54 71 55 2 56 1 57 3 58 4 59 5 60 6 62 7 63 63 65
REMARK SMILES IDX 64 66 65 67 40 69 41 70 42 71 44 72 43 73 45 74 46 75 47 76
REMARK SMILES IDX 55 77 56 78 48 79 49 80 50 81 54 82 51 83 53 84 52 85
REMARK H PARENT 38 5 27 10 18 17 10 22 22 31 34 39 34 40 35 41 35 42 61 48
REMARK H PARENT 5 61 65 68
REMARK Flexibility Score:  369.900
ROOT
ATOM      1  C   UNL     1       4.767   4.029   3.256  1.00  0.00     0.117 C 
ENDROOT
BRANCH   1   2
ATOM      2  N   UNL     1       4.379   4.497   4.587  1.00  0.00    -0.347 N 
ATOM      3  O   UNL     1       4.523   2.485   5.682  1.00  0.00    -0.273 OA
ATOM      4  C   UNL     1       4.376   3.702   5.716  1.00  0.00     0.243 C 
ATOM      5  H   UNL     1       4.142   5.469   4.719  1.00  0.00     0.164 HD
BRANCH   4   6
ATOM      6  C   UNL     1       4.008   4.465   7.014  1.00  0.00     0.171 C 
BRANCH   6   7
ATOM      7  N   UNL     1       4.194   3.599   8.190  1.00  0.00    -0.344 N 
ATOM      8  C   UNL     1       3.666   3.952   9.413  1.00  0.00     0.226 C 
ATOM      9  O   UNL     1       3.045   4.994   9.589  1.00  0.00    -0.275 OA
ATOM     10  H   UNL     1       4.758   2.763   8.100  1.00  0.00     0.164 HD
BRANCH   8  11
ATOM     11  C   UNL     1       3.896   2.929  10.512  1.00  0.00     0.109 C 
ATOM     12  C   UNL     1       4.542   1.671   9.933  1.00  0.00     0.021 C 
BRANCH  11  13
ATOM     13  C   UNL     1       4.672   3.580  11.675  1.00  0.00     0.204 C 
BRANCH  13  14
ATOM     14  N   UNL     1       4.149   3.174  12.983  1.00  0.00    -0.340 N 
ATOM     15  C   UNL     1       3.216   3.913  13.678  1.00  0.00     0.243 C 
ATOM     16  O   UNL     1       2.711   4.937  13.221  1.00  0.00    -0.273 OA
ATOM     17  H   UNL     1       4.633   2.423  13.482  1.00  0.00     0.164 HD
BRANCH  15  18
ATOM     18  C   UNL     1       2.970   3.402  15.119  1.00  0.00     0.171 C 
BRANCH  18  19
ATOM     19  N   UNL     1       4.130   2.588  15.477  1.00  0.00    -0.343 N 
ATOM     20  C   UNL     1       4.057   1.601  16.442  1.00  0.00     0.242 CG0
ATOM     21  O   UNL     1       3.054   1.452  17.136  1.00  0.00    -0.273 OA
ATOM     22  H   UNL     1       5.015   2.751  15.012  1.00  0.00     0.164 HD
ATOM     23  G   UNL     1       5.359   0.795  16.627  1.00  0.00     0.000 G0
ENDBRANCH  18  19
BRANCH  18  24
ATOM     24  C   UNL     1       2.788   4.578  16.087  1.00  0.00     0.038 C 
BRANCH  24  25
ATOM     25  C   UNL     1       1.356   4.744  16.636  1.00  0.00    -0.015 C 
ATOM     26  C   UNL     1       0.419   3.625  16.177  1.00  0.00     0.007 C 
ATOM     27  C   UNL     1       0.791   6.099  16.202  1.00  0.00     0.007 C 
ENDBRANCH  24  25
ENDBRANCH  18  24
ENDBRANCH  15  18
ENDBRANCH  13  14
BRANCH  13  28
ATOM     28  C   UNL     1       6.168   3.249  11.662  1.00  0.00     0.327 C 
ATOM     29  O   UNL     1       6.746   2.488  12.422  1.00  0.00    -0.250 OA
BRANCH  28  30
ATOM     30  O   UNL     1       6.864   3.985  10.773  1.00  0.00    -0.480 OA
ATOM     31  H   UNL     1       6.190   4.291  10.131  1.00  0.00     0.296 HD
ENDBRANCH  28  30
ENDBRANCH  13  28
ENDBRANCH  11  13
ENDBRANCH   8  11
ENDBRANCH   6   7
BRANCH   6  32
ATOM     32  C   UNL     1       4.873   5.725   7.121  1.00  0.00     0.037 C 
BRANCH  32  33
ATOM     33  C   UNL     1       4.049   7.010   6.953  1.00  0.00     0.026 C 
BRANCH  33  34
ATOM     34  C   UNL     1       4.435   8.089   7.965  1.00  0.00     0.146 C 
BRANCH  34  35
ATOM     35  N   UNL     1       3.338   9.040   8.079  1.00  0.00    -0.254 NA
ATOM     36  C   UNL     1       2.183   8.606   8.427  1.00  0.00     0.185 C 
ATOM     37  N   UNL     1       1.166   9.474   8.541  1.00  0.00    -0.370 N 
ATOM     38  N   UNL     1       1.805   7.348   8.714  1.00  0.00    -0.370 N 
ATOM     39  H   UNL     1       1.375  10.446   8.350  1.00  0.00     0.159 HD
ATOM     40  H   UNL     1       0.286   9.247   8.971  1.00  0.00     0.159 HD
ATOM     41  H   UNL     1       0.834   7.113   8.840  1.00  0.00     0.159 HD
ATOM     42  H   UNL     1       2.464   6.588   8.655  1.00  0.00     0.159 HD
ENDBRANCH  34  35
ENDBRANCH  33  34
ENDBRANCH  32  33
ENDBRANCH   6  32
ENDBRANCH   4   6
ENDBRANCH   1   2
BRANCH   1  43
ATOM     43  C   UNL     1       6.296   4.256   3.078  1.00  0.00     0.102 C 
ATOM     44  C   UNL     1       7.020   4.604   4.389  1.00  0.00     0.020 C 
BRANCH  43  45
ATOM     45  C   UNL     1       6.577   5.236   1.934  1.00  0.00     0.225 C 
ATOM     46  O   UNL     1       5.697   5.690   1.209  1.00  0.00    -0.275 OA
ATOM     47  N   UNL     1       7.905   5.511   1.703  1.00  0.00    -0.342 N 
ATOM     48  H   UNL     1       8.597   5.255   2.393  1.00  0.00     0.164 HD
BRANCH  47  49
ATOM     49  C   UNL     1       8.322   6.458   0.665  1.00  0.00     0.192 C 
BRANCH  49  50
ATOM     50  C   UNL     1       8.584   5.706  -0.643  1.00  0.00     0.047 C 
BRANCH  50  51
ATOM     51  C   UNL     1       8.063   6.469  -1.868  1.00  0.00     0.103 C 
BRANCH  51  52
ATOM     52  C   UNL     1       7.930   5.566  -3.092  1.00  0.00     0.226 C 
ATOM     53  O   UNL     1       7.165   4.600  -3.058  1.00  0.00    -0.275 OA
BRANCH  52  54
ATOM     54  N   UNL     1       8.654   5.950  -4.236  1.00  0.00    -0.311 N 
ATOM     55  C   UNL     1      10.103   5.726  -4.325  1.00  0.00     0.153 C 
BRANCH  54  56
ATOM     56  C   UNL     1       8.020   6.554  -5.335  1.00  0.00     0.102 C 
ATOM     57  C   UNL     1       7.932   7.878  -5.539  1.00  0.00     0.043 C 
BRANCH  56  58
ATOM     58  C   UNL     1       7.408   5.716  -6.433  1.00  0.00     0.268 C 
ATOM     59  O   UNL     1       6.230   5.386  -6.446  1.00  0.00    -0.268 OA
ATOM     60  N   UNL     1       8.291   5.421  -7.444  1.00  0.00    -0.339 N 
ATOM     61  H   UNL     1       9.254   5.722  -7.353  1.00  0.00     0.164 HD
BRANCH  60  62
ATOM     62  C   UNL     1       7.890   4.673  -8.635  1.00  0.00     0.168 CG0
ATOM     63  C   UNL     1       8.330   3.217  -8.540  1.00  0.00     0.041 C 
ATOM     64  G   UNL     1       8.486   5.343  -9.891  1.00  0.00     0.000 G0
ENDBRANCH  60  62
ENDBRANCH  56  58
ENDBRANCH  54  56
ENDBRANCH  52  54
ENDBRANCH  51  52
ENDBRANCH  50  51
ENDBRANCH  49  50
BRANCH  49  65
ATOM     65  C   UNL     1       9.589   7.226   1.073  1.00  0.00     0.326 C 
ATOM     66  O   UNL     1      10.677   6.724   1.315  1.00  0.00    -0.250 OA
BRANCH  65  67
ATOM     67  O   UNL     1       9.418   8.559   1.216  1.00  0.00    -0.480 OA
ATOM     68  H   UNL     1      10.050   8.798   1.928  1.00  0.00     0.296 HD
ENDBRANCH  65  67
ENDBRANCH  49  65
ENDBRANCH  47  49
ENDBRANCH  43  45
ENDBRANCH   1  43
BRANCH   1  69
ATOM     69  C   UNL     1       3.809   4.686   2.279  1.00  0.00    -0.001 C 
ATOM     70  C   UNL     1       2.858   4.087   1.540  1.00  0.00     0.001 C 
BRANCH  70  71
ATOM     71  C   UNL     1       1.925   4.735   0.616  1.00  0.00    -0.055 C 
ATOM     72  C   UNL     1       1.126   3.941  -0.128  1.00  0.00    -0.018 C 
ATOM     73  C   UNL     1       1.917   6.240   0.566  1.00  0.00     0.044 C 
BRANCH  72  74
ATOM     74  C   UNL     1       0.071   4.328  -1.155  1.00  0.00     0.038 C 
ATOM     75  C   UNL     1      -1.072   3.312  -1.034  1.00  0.00     0.015 C 
BRANCH  74  76
ATOM     76  C   UNL     1       0.741   4.393  -2.559  1.00  0.00     0.128 C 
BRANCH  76  77
ATOM     77  O   UNL     1       0.044   3.533  -3.476  1.00  0.00    -0.381 OA
ATOM     78  C   UNL     1       0.271   3.850  -4.843  1.00  0.00     0.195 C 
ENDBRANCH  76  77
BRANCH  76  79
ATOM     79  C   UNL     1       0.918   5.833  -3.105  1.00  0.00     0.068 C 
BRANCH  79  80
ATOM     80  C   UNL     1       2.323   6.369  -3.241  1.00  0.00    -0.045 A 
ATOM     81  C   UNL     1       2.836   6.742  -4.490  1.00  0.00     0.004 A 
ATOM     82  C   UNL     1       3.151   6.476  -2.113  1.00  0.00     0.004 A 
ATOM     83  C   UNL     1       4.141   7.224  -4.609  1.00  0.00     0.000 A 
ATOM     84  C   UNL     1       4.457   6.957  -2.233  1.00  0.00     0.000 A 
ATOM     85  C   UNL     1       4.950   7.333  -3.480  1.00  0.00     0.000 A 
ENDBRANCH  79  80
ENDBRANCH  76  79
ENDBRANCH  74  76
ENDBRANCH  72  74
ENDBRANCH  70  71
ENDBRANCH   1  69
TORSDOF 17
ENDMDL
MODEL 13
REMARK VINA RESULT:    -6.449      1.830      3.495
REMARK INTER + INTRA:         -25.182
REMARK INTER:                 -18.599
REMARK INTRA:                  -6.583
REMARK UNBOUND:                -5.916
REMARK SMILES C=C1C(=O)N[C@H](C)C(=O)N[C@@H](CC(C)C)C(=O)N[C@@H](C(=O)O)[C@H](C)C(=O)N[C@@H](CCCN=C(N)N)C(=O)N[C@@H](/C=C/C(C)=C/[C@H](C)[C@H](Cc2ccccc2)OC)[C@H](C)C(=O)N[C@@H](C(=O)O)CCC(=O)N1C
REMARK SMILES IDX 39 1 38 2 37 3 36 4 28 6 27 7 25 8 26 9 23 11 24 12 19 13
REMARK SMILES IDX 18 14 16 15 17 16 11 18 10 19 8 20 9 21 12 24 13 25 14 26
REMARK SMILES IDX 15 27 20 28 21 29 22 30 29 32 30 33 31 34 32 35 33 36 34 37
REMARK SMILES IDX 35 38 57 43 58 44 59 45 60 46 61 47 62 49 66 50 67 51 68 52
REMARK SMILES IDX 69 53 70 54 71 55 2 56 1 57 3 58 4 59 5 60 6 62 7 63 63 65
REMARK SMILES IDX 64 66 65 67 40 69 41 70 42 71 44 72 43 73 45 74 46 75 47 76
REMARK SMILES IDX 55 77 56 78 48 79 49 80 50 81 54 82 51 83 53 84 52 85
REMARK H PARENT 38 5 27 10 18 17 10 22 22 31 34 39 34 40 35 41 35 42 61 48
REMARK H PARENT 5 61 65 68
REMARK Flexibility Score:  369.900
ROOT
ATOM      1  C   UNL     1       5.351   4.962   7.005  1.00  0.00     0.117 C 
ENDROOT
BRANCH   1   2
ATOM      2  N   UNL     1       5.113   3.589   7.451  1.00  0.00    -0.347 N 
ATOM      3  O   UNL     1       7.078   3.287   8.598  1.00  0.00    -0.273 OA
ATOM      4  C   UNL     1       5.959   2.891   8.291  1.00  0.00     0.243 C 
ATOM      5  H   UNL     1       4.261   3.121   7.179  1.00  0.00     0.164 HD
BRANCH   4   6
ATOM      6  C   UNL     1       5.432   1.486   8.679  1.00  0.00     0.171 C 
BRANCH   6   7
ATOM      7  N   UNL     1       5.526   0.567   7.534  1.00  0.00    -0.344 N 
ATOM      8  C   UNL     1       5.237  -0.772   7.682  1.00  0.00     0.226 C 
ATOM      9  O   UNL     1       4.915  -1.263   8.757  1.00  0.00    -0.275 OA
ATOM     10  H   UNL     1       5.854   0.923   6.645  1.00  0.00     0.164 HD
BRANCH   8  11
ATOM     11  C   UNL     1       5.328  -1.577   6.397  1.00  0.00     0.109 C 
ATOM     12  C   UNL     1       6.674  -1.332   5.717  1.00  0.00     0.021 C 
BRANCH  11  13
ATOM     13  C   UNL     1       5.008  -3.058   6.686  1.00  0.00     0.204 C 
BRANCH  13  14
ATOM     14  N   UNL     1       3.566  -3.298   6.802  1.00  0.00    -0.340 N 
ATOM     15  C   UNL     1       3.029  -4.232   7.662  1.00  0.00     0.243 C 
ATOM     16  O   UNL     1       3.721  -4.888   8.439  1.00  0.00    -0.273 OA
ATOM     17  H   UNL     1       2.953  -2.900   6.085  1.00  0.00     0.164 HD
BRANCH  15  18
ATOM     18  C   UNL     1       1.510  -4.456   7.462  1.00  0.00     0.171 C 
BRANCH  18  19
ATOM     19  N   UNL     1       1.357  -5.790   6.884  1.00  0.00    -0.343 N 
ATOM     20  C   UNL     1       1.660  -6.050   5.562  1.00  0.00     0.242 CG0
ATOM     21  O   UNL     1       1.945  -5.149   4.778  1.00  0.00    -0.273 OA
ATOM     22  H   UNL     1       1.012  -6.546   7.464  1.00  0.00     0.164 HD
ATOM     23  G   UNL     1       1.511  -7.531   5.154  1.00  0.00     0.000 G0
ENDBRANCH  18  19
BRANCH  18  24
ATOM     24  C   UNL     1       0.765  -4.332   8.797  1.00  0.00     0.038 C 
BRANCH  24  25
ATOM     25  C   UNL     1      -0.618  -3.653   8.702  1.00  0.00    -0.015 C 
ATOM     26  C   UNL     1      -0.903  -3.099   7.305  1.00  0.00     0.007 C 
ATOM     27  C   UNL     1      -0.709  -2.525   9.732  1.00  0.00     0.007 C 
ENDBRANCH  24  25
ENDBRANCH  18  24
ENDBRANCH  15  18
ENDBRANCH  13  14
BRANCH  13  28
ATOM     28  C   UNL     1       5.542  -4.011   5.613  1.00  0.00     0.327 C 
ATOM     29  O   UNL     1       6.594  -4.630   5.655  1.00  0.00    -0.250 OA
BRANCH  28  30
ATOM     30  O   UNL     1       4.779  -4.036   4.501  1.00  0.00    -0.480 OA
ATOM     31  H   UNL     1       4.289  -4.882   4.564  1.00  0.00     0.296 HD
ENDBRANCH  28  30
ENDBRANCH  13  28
ENDBRANCH  11  13
ENDBRANCH   8  11
ENDBRANCH   6   7
BRANCH   6  32
ATOM     32  C   UNL     1       6.237   0.958   9.872  1.00  0.00     0.037 C 
BRANCH  32  33
ATOM     33  C   UNL     1       5.667   1.439  11.214  1.00  0.00     0.026 C 
BRANCH  33  34
ATOM     34  C   UNL     1       4.166   1.177  11.339  1.00  0.00     0.146 C 
BRANCH  34  35
ATOM     35  N   UNL     1       3.538   2.334  11.962  1.00  0.00    -0.254 NA
ATOM     36  C   UNL     1       2.878   3.147  11.224  1.00  0.00     0.185 C 
ATOM     37  N   UNL     1       2.291   4.214  11.788  1.00  0.00    -0.370 N 
ATOM     38  N   UNL     1       2.666   3.101   9.897  1.00  0.00    -0.370 N 
ATOM     39  H   UNL     1       2.397   4.314  12.790  1.00  0.00     0.159 HD
ATOM     40  H   UNL     1       1.620   4.795  11.315  1.00  0.00     0.159 HD
ATOM     41  H   UNL     1       2.247   3.876   9.409  1.00  0.00     0.159 HD
ATOM     42  H   UNL     1       3.063   2.360   9.340  1.00  0.00     0.159 HD
ENDBRANCH  34  35
ENDBRANCH  33  34
ENDBRANCH  32  33
ENDBRANCH   6  32
ENDBRANCH   4   6
ENDBRANCH   1   2
BRANCH   1  43
ATOM     43  C   UNL     1       4.597   5.931   7.962  1.00  0.00     0.102 C 
ATOM     44  C   UNL     1       3.442   6.685   7.282  1.00  0.00     0.020 C 
BRANCH  43  45
ATOM     45  C   UNL     1       5.577   6.839   8.710  1.00  0.00     0.225 C 
ATOM     46  O   UNL     1       5.291   7.974   9.080  1.00  0.00    -0.275 OA
ATOM     47  N   UNL     1       6.849   6.337   8.866  1.00  0.00    -0.342 N 
ATOM     48  H   UNL     1       7.024   5.356   8.695  1.00  0.00     0.164 HD
BRANCH  47  49
ATOM     49  C   UNL     1       7.882   7.080   9.593  1.00  0.00     0.192 C 
BRANCH  49  50
ATOM     50  C   UNL     1       9.266   6.675   9.077  1.00  0.00     0.047 C 
BRANCH  50  51
ATOM     51  C   UNL     1       9.765   7.601   7.960  1.00  0.00     0.103 C 
BRANCH  51  52
ATOM     52  C   UNL     1       9.366   7.095   6.575  1.00  0.00     0.226 C 
ATOM     53  O   UNL     1       8.173   7.003   6.279  1.00  0.00    -0.275 OA
BRANCH  52  54
ATOM     54  N   UNL     1      10.417   6.831   5.677  1.00  0.00    -0.311 N 
ATOM     55  C   UNL     1      10.609   5.490   5.111  1.00  0.00     0.153 C 
BRANCH  54  56
ATOM     56  C   UNL     1      11.316   7.838   5.286  1.00  0.00     0.102 C 
ATOM     57  C   UNL     1      12.644   7.678   5.166  1.00  0.00     0.043 C 
BRANCH  56  58
ATOM     58  C   UNL     1      10.821   9.216   4.913  1.00  0.00     0.268 C 
ATOM     59  O   UNL     1       9.693   9.431   4.493  1.00  0.00    -0.268 OA
ATOM     60  N   UNL     1      11.744  10.205   5.157  1.00  0.00    -0.339 N 
ATOM     61  H   UNL     1      12.662   9.942   5.497  1.00  0.00     0.164 HD
BRANCH  60  62
ATOM     62  C   UNL     1      11.450  11.619   4.927  1.00  0.00     0.168 CG0
ATOM     63  C   UNL     1      11.666  11.992   3.466  1.00  0.00     0.041 C 
ATOM     64  G   UNL     1      12.332  12.486   5.849  1.00  0.00     0.000 G0
ENDBRANCH  60  62
ENDBRANCH  56  58
ENDBRANCH  54  56
ENDBRANCH  52  54
ENDBRANCH  51  52
ENDBRANCH  50  51
ENDBRANCH  49  50
BRANCH  49  65
ATOM     65  C   UNL     1       7.807   6.822  11.106  1.00  0.00     0.326 C 
ATOM     66  O   UNL     1       8.430   5.962  11.712  1.00  0.00    -0.250 OA
BRANCH  65  67
ATOM     67  O   UNL     1       6.923   7.601  11.767  1.00  0.00    -0.480 OA
ATOM     68  H   UNL     1       6.722   7.085  12.578  1.00  0.00     0.296 HD
ENDBRANCH  65  67
ENDBRANCH  49  65
ENDBRANCH  47  49
ENDBRANCH  43  45
ENDBRANCH   1  43
BRANCH   1  69
ATOM     69  C   UNL     1       5.022   4.990   5.524  1.00  0.00    -0.001 C 
ATOM     70  C   UNL     1       5.805   4.594   4.505  1.00  0.00     0.001 C 
BRANCH  70  71
ATOM     71  C   UNL     1       5.468   4.606   3.080  1.00  0.00    -0.055 C 
ATOM     72  C   UNL     1       6.432   4.976   2.211  1.00  0.00    -0.018 C 
ATOM     73  C   UNL     1       4.073   4.198   2.685  1.00  0.00     0.044 C 
BRANCH  72  74
ATOM     74  C   UNL     1       6.372   5.078   0.693  1.00  0.00     0.038 C 
ATOM     75  C   UNL     1       6.781   3.712   0.131  1.00  0.00     0.015 C 
BRANCH  74  76
ATOM     76  C   UNL     1       7.268   6.267   0.236  1.00  0.00     0.128 C 
BRANCH  76  77
ATOM     77  O   UNL     1       6.485   7.211  -0.515  1.00  0.00    -0.381 OA
ATOM     78  C   UNL     1       5.115   6.851  -0.633  1.00  0.00     0.195 C 
ENDBRANCH  76  77
BRANCH  76  79
ATOM     79  C   UNL     1       8.068   6.931   1.385  1.00  0.00     0.068 C 
BRANCH  79  80
ATOM     80  C   UNL     1       9.555   6.682   1.447  1.00  0.00    -0.045 A 
ATOM     81  C   UNL     1      10.068   5.378   1.463  1.00  0.00     0.004 A 
ATOM     82  C   UNL     1      10.451   7.759   1.518  1.00  0.00     0.004 A 
ATOM     83  C   UNL     1      11.445   5.155   1.535  1.00  0.00     0.000 A 
ATOM     84  C   UNL     1      11.827   7.535   1.591  1.00  0.00     0.000 A 
ATOM     85  C   UNL     1      12.324   6.234   1.598  1.00  0.00     0.000 A 
ENDBRANCH  79  80
ENDBRANCH  76  79
ENDBRANCH  74  76
ENDBRANCH  72  74
ENDBRANCH  70  71
ENDBRANCH   1  69
TORSDOF 17
ENDMDL
MODEL 14
REMARK VINA RESULT:    -6.445      6.233     12.050
REMARK INTER + INTRA:         -25.172
REMARK INTER:                 -16.972
REMARK INTRA:                  -8.200
REMARK UNBOUND:                -5.916
REMARK SMILES C=C1C(=O)N[C@H](C)C(=O)N[C@@H](CC(C)C)C(=O)N[C@@H](C(=O)O)[C@H](C)C(=O)N[C@@H](CCCN=C(N)N)C(=O)N[C@@H](/C=C/C(C)=C/[C@H](C)[C@H](Cc2ccccc2)OC)[C@H](C)C(=O)N[C@@H](C(=O)O)CCC(=O)N1C
REMARK SMILES IDX 39 1 38 2 37 3 36 4 28 6 27 7 25 8 26 9 23 11 24 12 19 13
REMARK SMILES IDX 18 14 16 15 17 16 11 18 10 19 8 20 9 21 12 24 13 25 14 26
REMARK SMILES IDX 15 27 20 28 21 29 22 30 29 32 30 33 31 34 32 35 33 36 34 37
REMARK SMILES IDX 35 38 57 43 58 44 59 45 60 46 61 47 62 49 66 50 67 51 68 52
REMARK SMILES IDX 69 53 70 54 71 55 2 56 1 57 3 58 4 59 5 60 6 62 7 63 63 65
REMARK SMILES IDX 64 66 65 67 40 69 41 70 42 71 44 72 43 73 45 74 46 75 47 76
REMARK SMILES IDX 55 77 56 78 48 79 49 80 50 81 54 82 51 83 53 84 52 85
REMARK H PARENT 38 5 27 10 18 17 10 22 22 31 34 39 34 40 35 41 35 42 61 48
REMARK H PARENT 5 61 65 68
REMARK Flexibility Score:  369.900
ROOT
ATOM      1  C   UNL     1       6.732   5.017  11.618  1.00  0.00     0.117 C 
ENDROOT
BRANCH   1   2
ATOM      2  N   UNL     1       6.205   3.747  12.117  1.00  0.00    -0.347 N 
ATOM      3  O   UNL     1       4.205   4.533  12.923  1.00  0.00    -0.273 OA
ATOM      4  C   UNL     1       4.940   3.590  12.649  1.00  0.00     0.243 C 
ATOM      5  H   UNL     1       6.764   2.911  12.032  1.00  0.00     0.164 HD
BRANCH   4   6
ATOM      6  C   UNL     1       4.597   2.125  13.023  1.00  0.00     0.171 C 
BRANCH   6   7
ATOM      7  N   UNL     1       3.508   2.088  14.011  1.00  0.00    -0.344 N 
ATOM      8  C   UNL     1       3.780   2.172  15.360  1.00  0.00     0.226 C 
ATOM      9  O   UNL     1       4.920   2.257  15.799  1.00  0.00    -0.275 OA
ATOM     10  H   UNL     1       2.558   1.950  13.690  1.00  0.00     0.164 HD
BRANCH   8  11
ATOM     11  C   UNL     1       2.547   2.174  16.247  1.00  0.00     0.109 C 
ATOM     12  C   UNL     1       2.878   1.562  17.609  1.00  0.00     0.021 C 
BRANCH  11  13
ATOM     13  C   UNL     1       1.948   3.593  16.303  1.00  0.00     0.204 C 
BRANCH  13  14
ATOM     14  N   UNL     1       2.982   4.625  16.426  1.00  0.00    -0.340 N 
ATOM     15  C   UNL     1       2.766   5.830  17.058  1.00  0.00     0.243 C 
ATOM     16  O   UNL     1       1.704   6.102  17.617  1.00  0.00    -0.273 OA
ATOM     17  H   UNL     1       3.828   4.528  15.858  1.00  0.00     0.164 HD
BRANCH  15  18
ATOM     18  C   UNL     1       3.928   6.838  16.883  1.00  0.00     0.171 C 
BRANCH  18  19
ATOM     19  N   UNL     1       4.686   6.824  18.132  1.00  0.00    -0.343 N 
ATOM     20  C   UNL     1       4.881   7.970  18.879  1.00  0.00     0.242 CG0
ATOM     21  O   UNL     1       4.543   9.075  18.462  1.00  0.00    -0.273 OA
ATOM     22  H   UNL     1       5.086   5.953  18.462  1.00  0.00     0.164 HD
ATOM     23  G   UNL     1       5.637   7.745  20.205  1.00  0.00     0.000 G0
ENDBRANCH  18  19
BRANCH  18  24
ATOM     24  C   UNL     1       4.807   6.449  15.688  1.00  0.00     0.038 C 
BRANCH  24  25
ATOM     25  C   UNL     1       5.633   7.608  15.090  1.00  0.00    -0.015 C 
ATOM     26  C   UNL     1       6.976   7.795  15.797  1.00  0.00     0.007 C 
ATOM     27  C   UNL     1       4.826   8.907  15.165  1.00  0.00     0.007 C 
ENDBRANCH  24  25
ENDBRANCH  18  24
ENDBRANCH  15  18
ENDBRANCH  13  14
BRANCH  13  28
ATOM     28  C   UNL     1       1.105   3.941  15.072  1.00  0.00     0.327 C 
ATOM     29  O   UNL     1       1.410   4.722  14.184  1.00  0.00    -0.250 OA
BRANCH  28  30
ATOM     30  O   UNL     1      -0.120   3.377  15.094  1.00  0.00    -0.480 OA
ATOM     31  H   UNL     1      -0.402   3.449  16.029  1.00  0.00     0.296 HD
ENDBRANCH  28  30
ENDBRANCH  13  28
ENDBRANCH  11  13
ENDBRANCH   8  11
ENDBRANCH   6   7
BRANCH   6  32
ATOM     32  C   UNL     1       4.210   1.360  11.753  1.00  0.00     0.037 C 
BRANCH  32  33
ATOM     33  C   UNL     1       5.243   0.284  11.388  1.00  0.00     0.026 C 
BRANCH  33  34
ATOM     34  C   UNL     1       6.153   0.713  10.237  1.00  0.00     0.146 C 
BRANCH  34  35
ATOM     35  N   UNL     1       5.849  -0.102   9.068  1.00  0.00    -0.254 NA
ATOM     36  C   UNL     1       5.290   0.455   8.060  1.00  0.00     0.185 C 
ATOM     37  N   UNL     1       5.010  -0.285   6.976  1.00  0.00    -0.370 N 
ATOM     38  N   UNL     1       4.916   1.738   7.902  1.00  0.00    -0.370 N 
ATOM     39  H   UNL     1       5.271  -1.262   7.013  1.00  0.00     0.159 HD
ATOM     40  H   UNL     1       4.736   0.106   6.091  1.00  0.00     0.159 HD
ATOM     41  H   UNL     1       4.357   2.025   7.115  1.00  0.00     0.159 HD
ATOM     42  H   UNL     1       5.051   2.406   8.645  1.00  0.00     0.159 HD
ENDBRANCH  34  35
ENDBRANCH  33  34
ENDBRANCH  32  33
ENDBRANCH   6  32
ENDBRANCH   4   6
ENDBRANCH   1   2
BRANCH   1  43
ATOM     43  C   UNL     1       6.976   4.884  10.087  1.00  0.00     0.102 C 
ATOM     44  C   UNL     1       8.084   5.813   9.561  1.00  0.00     0.020 C 
BRANCH  43  45
ATOM     45  C   UNL     1       5.661   4.985   9.309  1.00  0.00     0.225 C 
ATOM     46  O   UNL     1       4.773   4.139   9.380  1.00  0.00    -0.275 OA
ATOM     47  N   UNL     1       5.566   6.048   8.440  1.00  0.00    -0.342 N 
ATOM     48  H   UNL     1       6.229   6.808   8.505  1.00  0.00     0.164 HD
BRANCH  47  49
ATOM     49  C   UNL     1       4.351   6.291   7.657  1.00  0.00     0.192 C 
BRANCH  49  50
ATOM     50  C   UNL     1       4.661   6.136   6.166  1.00  0.00     0.047 C 
BRANCH  50  51
ATOM     51  C   UNL     1       4.121   4.819   5.592  1.00  0.00     0.103 C 
BRANCH  51  52
ATOM     52  C   UNL     1       5.183   4.060   4.800  1.00  0.00     0.226 C 
ATOM     53  O   UNL     1       5.616   2.989   5.230  1.00  0.00    -0.275 OA
BRANCH  52  54
ATOM     54  N   UNL     1       5.554   4.612   3.560  1.00  0.00    -0.311 N 
ATOM     55  C   UNL     1       6.815   5.349   3.407  1.00  0.00     0.153 C 
BRANCH  54  56
ATOM     56  C   UNL     1       4.738   4.474   2.424  1.00  0.00     0.102 C 
ATOM     57  C   UNL     1       3.419   4.223   2.451  1.00  0.00     0.043 C 
BRANCH  56  58
ATOM     58  C   UNL     1       5.306   4.653   1.036  1.00  0.00     0.268 C 
ATOM     59  O   UNL     1       6.065   3.847   0.514  1.00  0.00    -0.268 OA
ATOM     60  N   UNL     1       4.833   5.774   0.398  1.00  0.00    -0.339 N 
ATOM     61  H   UNL     1       4.215   6.398   0.904  1.00  0.00     0.164 HD
BRANCH  60  62
ATOM     62  C   UNL     1       5.205   6.105  -0.977  1.00  0.00     0.168 CG0
ATOM     63  C   UNL     1       4.171   7.022  -1.618  1.00  0.00     0.041 C 
ATOM     64  G   UNL     1       5.366   4.807  -1.795  1.00  0.00     0.000 G0
ENDBRANCH  60  62
ENDBRANCH  56  58
ENDBRANCH  54  56
ENDBRANCH  52  54
ENDBRANCH  51  52
ENDBRANCH  50  51
ENDBRANCH  49  50
BRANCH  49  65
ATOM     65  C   UNL     1       3.781   7.694   7.915  1.00  0.00     0.326 C 
ATOM     66  O   UNL     1       4.226   8.506   8.713  1.00  0.00    -0.250 OA
BRANCH  65  67
ATOM     67  O   UNL     1       2.662   7.986   7.216  1.00  0.00    -0.480 OA
ATOM     68  H   UNL     1       2.423   7.132   6.795  1.00  0.00     0.296 HD
ENDBRANCH  65  67
ENDBRANCH  49  65
ENDBRANCH  47  49
ENDBRANCH  43  45
ENDBRANCH   1  43
BRANCH   1  69
ATOM     69  C   UNL     1       7.900   5.374  12.519  1.00  0.00    -0.001 C 
ATOM     70  C   UNL     1       8.889   4.563  12.935  1.00  0.00     0.001 C 
BRANCH  70  71
ATOM     71  C   UNL     1      10.023   4.925  13.788  1.00  0.00    -0.055 C 
ATOM     72  C   UNL     1       9.778   5.706  14.861  1.00  0.00    -0.018 C 
ATOM     73  C   UNL     1      11.382   4.394  13.412  1.00  0.00     0.044 C 
BRANCH  72  74
ATOM     74  C   UNL     1      10.746   6.232  15.911  1.00  0.00     0.038 C 
ATOM     75  C   UNL     1      10.377   5.564  17.241  1.00  0.00     0.015 C 
BRANCH  74  76
ATOM     76  C   UNL     1      10.678   7.788  15.920  1.00  0.00     0.128 C 
BRANCH  76  77
ATOM     77  O   UNL     1      11.582   8.312  16.908  1.00  0.00    -0.381 OA
ATOM     78  C   UNL     1      12.951   8.200  16.546  1.00  0.00     0.195 C 
ENDBRANCH  76  77
BRANCH  76  79
ATOM     79  C   UNL     1      10.874   8.435  14.526  1.00  0.00     0.068 C 
BRANCH  79  80
ATOM     80  C   UNL     1       9.717   9.203  13.935  1.00  0.00    -0.045 A 
ATOM     81  C   UNL     1       9.276  10.402  14.511  1.00  0.00     0.004 A 
ATOM     82  C   UNL     1       9.042   8.709  12.807  1.00  0.00     0.004 A 
ATOM     83  C   UNL     1       8.196  11.099  13.966  1.00  0.00     0.000 A 
ATOM     84  C   UNL     1       7.962   9.407  12.264  1.00  0.00     0.000 A 
ATOM     85  C   UNL     1       7.540  10.602  12.842  1.00  0.00     0.000 A 
ENDBRANCH  79  80
ENDBRANCH  76  79
ENDBRANCH  74  76
ENDBRANCH  72  74
ENDBRANCH  70  71
ENDBRANCH   1  69
TORSDOF 17
ENDMDL
MODEL 15
REMARK VINA RESULT:    -6.425      4.062     13.397
REMARK INTER + INTRA:         -25.113
REMARK INTER:                 -19.267
REMARK INTRA:                  -5.846
REMARK UNBOUND:                -5.916
REMARK SMILES C=C1C(=O)N[C@H](C)C(=O)N[C@@H](CC(C)C)C(=O)N[C@@H](C(=O)O)[C@H](C)C(=O)N[C@@H](CCCN=C(N)N)C(=O)N[C@@H](/C=C/C(C)=C/[C@H](C)[C@H](Cc2ccccc2)OC)[C@H](C)C(=O)N[C@@H](C(=O)O)CCC(=O)N1C
REMARK SMILES IDX 39 1 38 2 37 3 36 4 28 6 27 7 25 8 26 9 23 11 24 12 19 13
REMARK SMILES IDX 18 14 16 15 17 16 11 18 10 19 8 20 9 21 12 24 13 25 14 26
REMARK SMILES IDX 15 27 20 28 21 29 22 30 29 32 30 33 31 34 32 35 33 36 34 37
REMARK SMILES IDX 35 38 57 43 58 44 59 45 60 46 61 47 62 49 66 50 67 51 68 52
REMARK SMILES IDX 69 53 70 54 71 55 2 56 1 57 3 58 4 59 5 60 6 62 7 63 63 65
REMARK SMILES IDX 64 66 65 67 40 69 41 70 42 71 44 72 43 73 45 74 46 75 47 76
REMARK SMILES IDX 55 77 56 78 48 79 49 80 50 81 54 82 51 83 53 84 52 85
REMARK H PARENT 38 5 27 10 18 17 10 22 22 31 34 39 34 40 35 41 35 42 61 48
REMARK H PARENT 5 61 65 68
REMARK Flexibility Score:  369.900
ROOT
ATOM      1  C   UNL     1       5.010  -1.771   9.373  1.00  0.00     0.117 C 
ENDROOT
BRANCH   1   2
ATOM      2  N   UNL     1       4.911  -0.321   9.196  1.00  0.00    -0.347 N 
ATOM      3  O   UNL     1       4.275   0.213  11.336  1.00  0.00    -0.273 OA
ATOM      4  C   UNL     1       4.640   0.566  10.220  1.00  0.00     0.243 C 
ATOM      5  H   UNL     1       5.098   0.080   8.290  1.00  0.00     0.164 HD
BRANCH   4   6
ATOM      6  C   UNL     1       4.678   2.052   9.782  1.00  0.00     0.171 C 
BRANCH   6   7
ATOM      7  N   UNL     1       4.742   2.156   8.316  1.00  0.00    -0.344 N 
ATOM      8  C   UNL     1       5.519   3.121   7.713  1.00  0.00     0.226 C 
ATOM      9  O   UNL     1       6.166   3.942   8.352  1.00  0.00    -0.275 OA
ATOM     10  H   UNL     1       4.169   1.538   7.755  1.00  0.00     0.164 HD
BRANCH   8  11
ATOM     11  C   UNL     1       5.524   3.063   6.195  1.00  0.00     0.109 C 
ATOM     12  C   UNL     1       4.912   1.746   5.718  1.00  0.00     0.021 C 
BRANCH  11  13
ATOM     13  C   UNL     1       4.859   4.331   5.623  1.00  0.00     0.204 C 
BRANCH  13  14
ATOM     14  N   UNL     1       4.688   4.256   4.169  1.00  0.00    -0.340 N 
ATOM     15  C   UNL     1       5.655   4.671   3.279  1.00  0.00     0.243 C 
ATOM     16  O   UNL     1       6.757   5.078   3.643  1.00  0.00    -0.273 OA
ATOM     17  H   UNL     1       3.750   4.072   3.805  1.00  0.00     0.164 HD
BRANCH  15  18
ATOM     18  C   UNL     1       5.174   4.691   1.807  1.00  0.00     0.171 C 
BRANCH  18  19
ATOM     19  N   UNL     1       6.065   3.805   1.063  1.00  0.00    -0.343 N 
ATOM     20  C   UNL     1       6.801   4.251  -0.018  1.00  0.00     0.242 CG0
ATOM     21  O   UNL     1       6.640   5.376  -0.486  1.00  0.00    -0.273 OA
ATOM     22  H   UNL     1       6.145   2.833   1.339  1.00  0.00     0.164 HD
ATOM     23  G   UNL     1       7.744   3.192  -0.627  1.00  0.00     0.000 G0
ENDBRANCH  18  19
BRANCH  18  24
ATOM     24  C   UNL     1       3.714   4.233   1.709  1.00  0.00     0.038 C 
BRANCH  24  25
ATOM     25  C   UNL     1       2.759   5.256   1.058  1.00  0.00    -0.015 C 
ATOM     26  C   UNL     1       1.527   4.596   0.438  1.00  0.00     0.007 C 
ATOM     27  C   UNL     1       3.510   6.052  -0.012  1.00  0.00     0.007 C 
ENDBRANCH  24  25
ENDBRANCH  18  24
ENDBRANCH  15  18
ENDBRANCH  13  14
BRANCH  13  28
ATOM     28  C   UNL     1       3.482   4.616   6.228  1.00  0.00     0.327 C 
ATOM     29  O   UNL     1       3.255   5.277   7.230  1.00  0.00    -0.250 OA
BRANCH  28  30
ATOM     30  O   UNL     1       2.484   3.957   5.605  1.00  0.00    -0.480 OA
ATOM     31  H   UNL     1       1.822   3.799   6.311  1.00  0.00     0.296 HD
ENDBRANCH  28  30
ENDBRANCH  13  28
ENDBRANCH  11  13
ENDBRANCH   8  11
ENDBRANCH   6   7
BRANCH   6  32
ATOM     32  C   UNL     1       3.437   2.769  10.327  1.00  0.00     0.037 C 
BRANCH  32  33
ATOM     33  C   UNL     1       3.726   3.510  11.640  1.00  0.00     0.026 C 
BRANCH  33  34
ATOM     34  C   UNL     1       2.451   3.856  12.410  1.00  0.00     0.146 C 
BRANCH  34  35
ATOM     35  N   UNL     1       2.267   2.880  13.476  1.00  0.00    -0.254 NA
ATOM     36  C   UNL     1       1.566   3.210  14.496  1.00  0.00     0.185 C 
ATOM     37  N   UNL     1       1.386   2.317  15.482  1.00  0.00    -0.370 N 
ATOM     38  N   UNL     1       0.944   4.374  14.754  1.00  0.00    -0.370 N 
ATOM     39  H   UNL     1       1.816   1.409  15.357  1.00  0.00     0.159 HD
ATOM     40  H   UNL     1       0.716   2.433  16.222  1.00  0.00     0.159 HD
ATOM     41  H   UNL     1       0.539   4.560  15.656  1.00  0.00     0.159 HD
ATOM     42  H   UNL     1       1.008   5.143  14.105  1.00  0.00     0.159 HD
ENDBRANCH  34  35
ENDBRANCH  33  34
ENDBRANCH  32  33
ENDBRANCH   6  32
ENDBRANCH   4   6
ENDBRANCH   1   2
BRANCH   1  43
ATOM     43  C   UNL     1       6.347  -2.091  10.100  1.00  0.00     0.102 C 
ATOM     44  C   UNL     1       7.594  -1.696   9.291  1.00  0.00     0.020 C 
BRANCH  43  45
ATOM     45  C   UNL     1       6.366  -3.537  10.605  1.00  0.00     0.225 C 
ATOM     46  O   UNL     1       7.314  -4.298  10.426  1.00  0.00    -0.275 OA
ATOM     47  N   UNL     1       5.204  -3.973  11.198  1.00  0.00    -0.342 N 
ATOM     48  H   UNL     1       4.500  -3.302  11.472  1.00  0.00     0.164 HD
BRANCH  47  49
ATOM     49  C   UNL     1       5.090  -5.323  11.760  1.00  0.00     0.192 C 
BRANCH  49  50
ATOM     50  C   UNL     1       3.918  -6.056  11.102  1.00  0.00     0.047 C 
BRANCH  50  51
ATOM     51  C   UNL     1       2.814  -5.094  10.642  1.00  0.00     0.103 C 
BRANCH  51  52
ATOM     52  C   UNL     1       1.427  -5.564  11.073  1.00  0.00     0.226 C 
ATOM     53  O   UNL     1       1.307  -6.274  12.074  1.00  0.00    -0.275 OA
BRANCH  52  54
ATOM     54  N   UNL     1       0.339  -5.082  10.322  1.00  0.00    -0.311 N 
ATOM     55  C   UNL     1       0.484  -4.776   8.893  1.00  0.00     0.153 C 
BRANCH  54  56
ATOM     56  C   UNL     1      -0.923  -4.880  10.906  1.00  0.00     0.102 C 
ATOM     57  C   UNL     1      -1.366  -3.709  11.392  1.00  0.00     0.043 C 
BRANCH  56  58
ATOM     58  C   UNL     1      -1.927  -6.005  10.990  1.00  0.00     0.268 C 
ATOM     59  O   UNL     1      -2.633  -6.344  10.049  1.00  0.00    -0.268 OA
ATOM     60  N   UNL     1      -1.918  -6.648  12.205  1.00  0.00    -0.339 N 
ATOM     61  H   UNL     1      -1.310  -6.299  12.936  1.00  0.00     0.164 HD
BRANCH  60  62
ATOM     62  C   UNL     1      -2.767  -7.807  12.479  1.00  0.00     0.168 CG0
ATOM     63  C   UNL     1      -4.192  -7.375  12.804  1.00  0.00     0.041 C 
ATOM     64  G   UNL     1      -2.166  -8.624  13.641  1.00  0.00     0.000 G0
ENDBRANCH  60  62
ENDBRANCH  56  58
ENDBRANCH  54  56
ENDBRANCH  52  54
ENDBRANCH  51  52
ENDBRANCH  50  51
ENDBRANCH  49  50
BRANCH  49  65
ATOM     65  C   UNL     1       4.878  -5.287  13.282  1.00  0.00     0.326 C 
ATOM     66  O   UNL     1       4.203  -6.078  13.924  1.00  0.00    -0.250 OA
BRANCH  65  67
ATOM     67  O   UNL     1       5.464  -4.243  13.908  1.00  0.00    -0.480 OA
ATOM     68  H   UNL     1       5.249  -3.478  13.332  1.00  0.00     0.296 HD
ENDBRANCH  65  67
ENDBRANCH  49  65
ENDBRANCH  47  49
ENDBRANCH  43  45
ENDBRANCH   1  43
BRANCH   1  69
ATOM     69  C   UNL     1       4.752  -2.383   8.008  1.00  0.00    -0.001 C 
ATOM     70  C   UNL     1       4.104  -3.529   7.736  1.00  0.00     0.001 C 
BRANCH  70  71
ATOM     71  C   UNL     1       3.843  -4.099   6.413  1.00  0.00    -0.055 C 
ATOM     72  C   UNL     1       2.848  -5.004   6.304  1.00  0.00    -0.018 C 
ATOM     73  C   UNL     1       4.698  -3.630   5.265  1.00  0.00     0.044 C 
BRANCH  72  74
ATOM     74  C   UNL     1       2.354  -5.751   5.073  1.00  0.00     0.038 C 
ATOM     75  C   UNL     1       1.004  -5.137   4.682  1.00  0.00     0.015 C 
BRANCH  74  76
ATOM     76  C   UNL     1       2.311  -7.274   5.395  1.00  0.00     0.128 C 
BRANCH  76  77
ATOM     77  O   UNL     1       1.057  -7.831   4.965  1.00  0.00    -0.381 OA
ATOM     78  C   UNL     1       1.175  -8.719   3.862  1.00  0.00     0.195 C 
ENDBRANCH  76  77
BRANCH  76  79
ATOM     79  C   UNL     1       3.532  -8.065   4.863  1.00  0.00     0.068 C 
BRANCH  79  80
ATOM     80  C   UNL     1       4.902  -7.456   5.043  1.00  0.00    -0.045 A 
ATOM     81  C   UNL     1       5.543  -7.479   6.289  1.00  0.00     0.004 A 
ATOM     82  C   UNL     1       5.545  -6.830   3.965  1.00  0.00     0.004 A 
ATOM     83  C   UNL     1       6.804  -6.901   6.451  1.00  0.00     0.000 A 
ATOM     84  C   UNL     1       6.806  -6.252   4.128  1.00  0.00     0.000 A 
ATOM     85  C   UNL     1       7.436  -6.289   5.370  1.00  0.00     0.000 A 
ENDBRANCH  79  80
ENDBRANCH  76  79
ENDBRANCH  74  76
ENDBRANCH  72  74
ENDBRANCH  70  71
ENDBRANCH   1  69
TORSDOF 17
ENDMDL
MODEL 16
REMARK VINA RESULT:    -6.414      5.440     10.832
REMARK INTER + INTRA:         -25.079
REMARK INTER:                 -17.268
REMARK INTRA:                  -7.811
REMARK UNBOUND:                -5.916
REMARK SMILES C=C1C(=O)N[C@H](C)C(=O)N[C@@H](CC(C)C)C(=O)N[C@@H](C(=O)O)[C@H](C)C(=O)N[C@@H](CCCN=C(N)N)C(=O)N[C@@H](/C=C/C(C)=C/[C@H](C)[C@H](Cc2ccccc2)OC)[C@H](C)C(=O)N[C@@H](C(=O)O)CCC(=O)N1C
REMARK SMILES IDX 39 1 38 2 37 3 36 4 28 6 27 7 25 8 26 9 23 11 24 12 19 13
REMARK SMILES IDX 18 14 16 15 17 16 11 18 10 19 8 20 9 21 12 24 13 25 14 26
REMARK SMILES IDX 15 27 20 28 21 29 22 30 29 32 30 33 31 34 32 35 33 36 34 37
REMARK SMILES IDX 35 38 57 43 58 44 59 45 60 46 61 47 62 49 66 50 67 51 68 52
REMARK SMILES IDX 69 53 70 54 71 55 2 56 1 57 3 58 4 59 5 60 6 62 7 63 63 65
REMARK SMILES IDX 64 66 65 67 40 69 41 70 42 71 44 72 43 73 45 74 46 75 47 76
REMARK SMILES IDX 55 77 56 78 48 79 49 80 50 81 54 82 51 83 53 84 52 85
REMARK H PARENT 38 5 27 10 18 17 10 22 22 31 34 39 34 40 35 41 35 42 61 48
REMARK H PARENT 5 61 65 68
REMARK Flexibility Score:  369.900
ROOT
ATOM      1  C   UNL     1       7.488   6.179  10.044  1.00  0.00     0.117 C 
ENDROOT
BRANCH   1   2
ATOM      2  N   UNL     1       7.472   5.294  11.208  1.00  0.00    -0.347 N 
ATOM      3  O   UNL     1       5.287   4.607  11.048  1.00  0.00    -0.273 OA
ATOM      4  C   UNL     1       6.395   4.505  11.565  1.00  0.00     0.243 C 
ATOM      5  H   UNL     1       8.304   5.201  11.771  1.00  0.00     0.164 HD
BRANCH   4   6
ATOM      6  C   UNL     1       6.667   3.595  12.789  1.00  0.00     0.171 C 
BRANCH   6   7
ATOM      7  N   UNL     1       5.401   3.119  13.369  1.00  0.00    -0.344 N 
ATOM      8  C   UNL     1       5.223   3.083  14.735  1.00  0.00     0.226 C 
ATOM      9  O   UNL     1       6.098   3.417  15.524  1.00  0.00    -0.275 OA
ATOM     10  H   UNL     1       4.678   2.771  12.751  1.00  0.00     0.164 HD
BRANCH   8  11
ATOM     11  C   UNL     1       3.844   2.621  15.174  1.00  0.00     0.109 C 
ATOM     12  C   UNL     1       3.963   1.672  16.366  1.00  0.00     0.021 C 
BRANCH  11  13
ATOM     13  C   UNL     1       2.934   3.843  15.406  1.00  0.00     0.204 C 
BRANCH  13  14
ATOM     14  N   UNL     1       3.692   5.023  15.831  1.00  0.00    -0.340 N 
ATOM     15  C   UNL     1       3.194   5.954  16.716  1.00  0.00     0.243 C 
ATOM     16  O   UNL     1       2.098   5.828  17.260  1.00  0.00    -0.273 OA
ATOM     17  H   UNL     1       4.537   5.266  15.306  1.00  0.00     0.164 HD
BRANCH  15  18
ATOM     18  C   UNL     1       4.083   7.215  16.853  1.00  0.00     0.171 C 
BRANCH  18  19
ATOM     19  N   UNL     1       5.192   6.851  17.732  1.00  0.00    -0.343 N 
ATOM     20  C   UNL     1       5.465   7.554  18.890  1.00  0.00     0.242 CG0
ATOM     21  O   UNL     1       4.873   8.594  19.167  1.00  0.00    -0.273 OA
ATOM     22  H   UNL     1       5.785   6.066  17.486  1.00  0.00     0.164 HD
ATOM     23  G   UNL     1       6.624   6.975  19.728  1.00  0.00     0.000 G0
ENDBRANCH  18  19
BRANCH  18  24
ATOM     24  C   UNL     1       4.582   7.678  15.479  1.00  0.00     0.038 C 
BRANCH  24  25
ATOM     25  C   UNL     1       6.100   7.947  15.402  1.00  0.00    -0.015 C 
ATOM     26  C   UNL     1       6.433   9.438  15.448  1.00  0.00     0.007 C 
ATOM     27  C   UNL     1       6.667   7.331  14.121  1.00  0.00     0.007 C 
ENDBRANCH  24  25
ENDBRANCH  18  24
ENDBRANCH  15  18
ENDBRANCH  13  14
BRANCH  13  28
ATOM     28  C   UNL     1       2.131   4.242  14.164  1.00  0.00     0.327 C 
ATOM     29  O   UNL     1       2.584   4.702  13.127  1.00  0.00    -0.250 OA
BRANCH  28  30
ATOM     30  O   UNL     1       0.797   4.150  14.345  1.00  0.00    -0.480 OA
ATOM     31  H   UNL     1       0.459   3.830  13.483  1.00  0.00     0.296 HD
ENDBRANCH  28  30
ENDBRANCH  13  28
ENDBRANCH  11  13
ENDBRANCH   8  11
ENDBRANCH   6   7
BRANCH   6  32
ATOM     32  C   UNL     1       7.547   2.417  12.355  1.00  0.00     0.037 C 
BRANCH  32  33
ATOM     33  C   UNL     1       7.480   2.172  10.841  1.00  0.00     0.026 C 
BRANCH  33  34
ATOM     34  C   UNL     1       6.629   0.954  10.482  1.00  0.00     0.146 C 
BRANCH  34  35
ATOM     35  N   UNL     1       6.328   0.994   9.057  1.00  0.00    -0.254 NA
ATOM     36  C   UNL     1       5.205   1.480   8.680  1.00  0.00     0.185 C 
ATOM     37  N   UNL     1       4.920   1.526   7.369  1.00  0.00    -0.370 N 
ATOM     38  N   UNL     1       4.207   1.981   9.429  1.00  0.00    -0.370 N 
ATOM     39  H   UNL     1       5.628   1.176   6.737  1.00  0.00     0.159 HD
ATOM     40  H   UNL     1       4.148   2.044   6.986  1.00  0.00     0.159 HD
ATOM     41  H   UNL     1       3.313   2.206   9.023  1.00  0.00     0.159 HD
ATOM     42  H   UNL     1       4.278   1.995  10.434  1.00  0.00     0.159 HD
ENDBRANCH  34  35
ENDBRANCH  33  34
ENDBRANCH  32  33
ENDBRANCH   6  32
ENDBRANCH   4   6
ENDBRANCH   1   2
BRANCH   1  43
ATOM     43  C   UNL     1       8.026   5.380   8.822  1.00  0.00     0.102 C 
ATOM     44  C   UNL     1       9.090   6.141   8.013  1.00  0.00     0.020 C 
BRANCH  43  45
ATOM     45  C   UNL     1       6.875   4.833   7.973  1.00  0.00     0.225 C 
ATOM     46  O   UNL     1       7.021   3.948   7.134  1.00  0.00    -0.275 OA
ATOM     47  N   UNL     1       5.663   5.464   8.140  1.00  0.00    -0.342 N 
ATOM     48  H   UNL     1       5.523   6.077   8.931  1.00  0.00     0.164 HD
BRANCH  47  49
ATOM     49  C   UNL     1       4.464   5.024   7.420  1.00  0.00     0.192 C 
BRANCH  49  50
ATOM     50  C   UNL     1       4.372   5.756   6.079  1.00  0.00     0.047 C 
BRANCH  50  51
ATOM     51  C   UNL     1       3.638   4.930   5.014  1.00  0.00     0.103 C 
BRANCH  51  52
ATOM     52  C   UNL     1       4.580   3.988   4.268  1.00  0.00     0.226 C 
ATOM     53  O   UNL     1       4.666   2.809   4.616  1.00  0.00    -0.275 OA
BRANCH  52  54
ATOM     54  N   UNL     1       5.251   4.526   3.154  1.00  0.00    -0.311 N 
ATOM     55  C   UNL     1       6.646   4.975   3.256  1.00  0.00     0.153 C 
BRANCH  54  56
ATOM     56  C   UNL     1       4.618   4.648   1.906  1.00  0.00     0.102 C 
ATOM     57  C   UNL     1       3.374   4.223   1.631  1.00  0.00     0.043 C 
BRANCH  56  58
ATOM     58  C   UNL     1       5.306   5.336   0.751  1.00  0.00     0.268 C 
ATOM     59  O   UNL     1       5.142   6.519   0.482  1.00  0.00    -0.268 OA
ATOM     60  N   UNL     1       6.183   4.518   0.079  1.00  0.00    -0.339 N 
ATOM     61  H   UNL     1       6.254   3.547   0.358  1.00  0.00     0.164 HD
BRANCH  60  62
ATOM     62  C   UNL     1       7.001   4.999  -1.033  1.00  0.00     0.168 CG0
ATOM     63  C   UNL     1       8.261   5.689  -0.526  1.00  0.00     0.041 C 
ATOM     64  G   UNL     1       6.169   5.957  -1.910  1.00  0.00     0.000 G0
ENDBRANCH  60  62
ENDBRANCH  56  58
ENDBRANCH  54  56
ENDBRANCH  52  54
ENDBRANCH  51  52
ENDBRANCH  50  51
ENDBRANCH  49  50
BRANCH  49  65
ATOM     65  C   UNL     1       3.187   5.287   8.233  1.00  0.00     0.326 C 
ATOM     66  O   UNL     1       2.890   6.346   8.766  1.00  0.00    -0.250 OA
BRANCH  65  67
ATOM     67  O   UNL     1       2.385   4.211   8.386  1.00  0.00    -0.480 OA
ATOM     68  H   UNL     1       2.860   3.498   7.908  1.00  0.00     0.296 HD
ENDBRANCH  65  67
ENDBRANCH  49  65
ENDBRANCH  47  49
ENDBRANCH  43  45
ENDBRANCH   1  43
BRANCH   1  69
ATOM     69  C   UNL     1       8.220   7.436  10.477  1.00  0.00    -0.001 C 
ATOM     70  C   UNL     1       7.715   8.678  10.591  1.00  0.00     0.001 C 
BRANCH  70  71
ATOM     71  C   UNL     1       8.426   9.880  11.031  1.00  0.00    -0.055 C 
ATOM     72  C   UNL     1       9.346  10.406  10.196  1.00  0.00    -0.018 C 
ATOM     73  C   UNL     1       8.074  10.449  12.381  1.00  0.00     0.044 C 
BRANCH  72  74
ATOM     74  C   UNL     1      10.225  11.634  10.382  1.00  0.00     0.038 C 
ATOM     75  C   UNL     1       9.401  12.851   9.944  1.00  0.00     0.015 C 
BRANCH  74  76
ATOM     76  C   UNL     1      11.551  11.426   9.593  1.00  0.00     0.128 C 
BRANCH  76  77
ATOM     77  O   UNL     1      12.677  11.602  10.470  1.00  0.00    -0.381 OA
ATOM     78  C   UNL     1      13.624  12.552   9.999  1.00  0.00     0.195 C 
ENDBRANCH  76  77
BRANCH  76  79
ATOM     79  C   UNL     1      11.610  10.095   8.802  1.00  0.00     0.068 C 
BRANCH  79  80
ATOM     80  C   UNL     1      11.409  10.151   7.307  1.00  0.00    -0.045 A 
ATOM     81  C   UNL     1      10.542   9.260   6.661  1.00  0.00     0.004 A 
ATOM     82  C   UNL     1      12.114  11.086   6.533  1.00  0.00     0.004 A 
ATOM     83  C   UNL     1      10.372   9.310   5.276  1.00  0.00     0.000 A 
ATOM     84  C   UNL     1      11.943  11.134   5.148  1.00  0.00     0.000 A 
ATOM     85  C   UNL     1      11.071  10.248   4.520  1.00  0.00     0.000 A 
ENDBRANCH  79  80
ENDBRANCH  76  79
ENDBRANCH  74  76
ENDBRANCH  72  74
ENDBRANCH  70  71
ENDBRANCH   1  69
TORSDOF 17
ENDMDL
MODEL 17
REMARK VINA RESULT:    -6.397      5.229      8.975
REMARK INTER + INTRA:         -25.028
REMARK INTER:                 -19.537
REMARK INTRA:                  -5.491
REMARK UNBOUND:                -5.916
REMARK SMILES C=C1C(=O)N[C@H](C)C(=O)N[C@@H](CC(C)C)C(=O)N[C@@H](C(=O)O)[C@H](C)C(=O)N[C@@H](CCCN=C(N)N)C(=O)N[C@@H](/C=C/C(C)=C/[C@H](C)[C@H](Cc2ccccc2)OC)[C@H](C)C(=O)N[C@@H](C(=O)O)CCC(=O)N1C
REMARK SMILES IDX 39 1 38 2 37 3 36 4 28 6 27 7 25 8 26 9 23 11 24 12 19 13
REMARK SMILES IDX 18 14 16 15 17 16 11 18 10 19 8 20 9 21 12 24 13 25 14 26
REMARK SMILES IDX 15 27 20 28 21 29 22 30 29 32 30 33 31 34 32 35 33 36 34 37
REMARK SMILES IDX 35 38 57 43 58 44 59 45 60 46 61 47 62 49 66 50 67 51 68 52
REMARK SMILES IDX 69 53 70 54 71 55 2 56 1 57 3 58 4 59 5 60 6 62 7 63 63 65
REMARK SMILES IDX 64 66 65 67 40 69 41 70 42 71 44 72 43 73 45 74 46 75 47 76
REMARK SMILES IDX 55 77 56 78 48 79 49 80 50 81 54 82 51 83 53 84 52 85
REMARK H PARENT 38 5 27 10 18 17 10 22 22 31 34 39 34 40 35 41 35 42 61 48
REMARK H PARENT 5 61 65 68
REMARK Flexibility Score:  369.900
ROOT
ATOM      1  C   UNL     1       5.052   5.770   7.214  1.00  0.00     0.117 C 
ENDROOT
BRANCH   1   2
ATOM      2  N   UNL     1       5.719   4.655   7.888  1.00  0.00    -0.347 N 
ATOM      3  O   UNL     1       5.383   5.351  10.050  1.00  0.00    -0.273 OA
ATOM      4  C   UNL     1       5.751   4.489   9.259  1.00  0.00     0.243 C 
ATOM      5  H   UNL     1       6.145   3.927   7.336  1.00  0.00     0.164 HD
BRANCH   4   6
ATOM      6  C   UNL     1       6.447   3.180   9.712  1.00  0.00     0.171 C 
BRANCH   6   7
ATOM      7  N   UNL     1       5.870   2.702  10.979  1.00  0.00    -0.344 N 
ATOM      8  C   UNL     1       4.552   2.305  11.045  1.00  0.00     0.226 C 
ATOM      9  O   UNL     1       3.800   2.348  10.078  1.00  0.00    -0.275 OA
ATOM     10  H   UNL     1       6.441   2.716  11.814  1.00  0.00     0.164 HD
BRANCH   8  11
ATOM     11  C   UNL     1       4.123   1.787  12.406  1.00  0.00     0.109 C 
ATOM     12  C   UNL     1       5.346   1.568  13.296  1.00  0.00     0.021 C 
BRANCH  11  13
ATOM     13  C   UNL     1       3.046   2.716  13.002  1.00  0.00     0.204 C 
BRANCH  13  14
ATOM     14  N   UNL     1       3.018   2.660  14.466  1.00  0.00    -0.340 N 
ATOM     15  C   UNL     1       1.880   2.908  15.203  1.00  0.00     0.243 C 
ATOM     16  O   UNL     1       0.791   3.136  14.679  1.00  0.00    -0.273 OA
ATOM     17  H   UNL     1       3.912   2.628  14.963  1.00  0.00     0.164 HD
BRANCH  15  18
ATOM     18  C   UNL     1       2.137   2.997  16.727  1.00  0.00     0.171 C 
BRANCH  18  19
ATOM     19  N   UNL     1       1.022   3.752  17.297  1.00  0.00    -0.343 N 
ATOM     20  C   UNL     1       1.064   5.127  17.426  1.00  0.00     0.242 CG0
ATOM     21  O   UNL     1       2.088   5.765  17.193  1.00  0.00    -0.273 OA
ATOM     22  H   UNL     1       0.196   3.257  17.612  1.00  0.00     0.164 HD
ATOM     23  G   UNL     1      -0.234   5.755  17.974  1.00  0.00     0.000 G0
ENDBRANCH  18  19
BRANCH  18  24
ATOM     24  C   UNL     1       2.239   1.596  17.342  1.00  0.00     0.038 C 
BRANCH  24  25
ATOM     25  C   UNL     1       3.680   1.109  17.600  1.00  0.00    -0.015 C 
ATOM     26  C   UNL     1       3.790   0.247  18.858  1.00  0.00     0.007 C 
ATOM     27  C   UNL     1       4.618   2.313  17.716  1.00  0.00     0.007 C 
ENDBRANCH  24  25
ENDBRANCH  18  24
ENDBRANCH  15  18
ENDBRANCH  13  14
BRANCH  13  28
ATOM     28  C   UNL     1       3.231   4.185  12.607  1.00  0.00     0.327 C 
ATOM     29  O   UNL     1       4.012   4.976  13.112  1.00  0.00    -0.250 OA
BRANCH  28  30
ATOM     30  O   UNL     1       2.340   4.600  11.684  1.00  0.00    -0.480 OA
ATOM     31  H   UNL     1       2.286   5.569  11.819  1.00  0.00     0.296 HD
ENDBRANCH  28  30
ENDBRANCH  13  28
ENDBRANCH  11  13
ENDBRANCH   8  11
ENDBRANCH   6   7
BRANCH   6  32
ATOM     32  C   UNL     1       6.299   2.125   8.611  1.00  0.00     0.037 C 
BRANCH  32  33
ATOM     33  C   UNL     1       7.658   1.661   8.067  1.00  0.00     0.026 C 
BRANCH  33  34
ATOM     34  C   UNL     1       8.832   2.362   8.751  1.00  0.00     0.146 C 
BRANCH  34  35
ATOM     35  N   UNL     1       9.421   3.311   7.816  1.00  0.00    -0.254 NA
ATOM     36  C   UNL     1       9.690   4.494   8.229  1.00  0.00     0.185 C 
ATOM     37  N   UNL     1      10.237   5.375   7.378  1.00  0.00    -0.370 N 
ATOM     38  N   UNL     1       9.502   5.025   9.451  1.00  0.00    -0.370 N 
ATOM     39  H   UNL     1      10.419   5.046   6.439  1.00  0.00     0.159 HD
ATOM     40  H   UNL     1      10.633   6.254   7.666  1.00  0.00     0.159 HD
ATOM     41  H   UNL     1       9.625   6.011   9.614  1.00  0.00     0.159 HD
ATOM     42  H   UNL     1       9.083   4.480  10.188  1.00  0.00     0.159 HD
ENDBRANCH  34  35
ENDBRANCH  33  34
ENDBRANCH  32  33
ENDBRANCH   6  32
ENDBRANCH   4   6
ENDBRANCH   1   2
BRANCH   1  43
ATOM     43  C   UNL     1       3.741   5.241   6.562  1.00  0.00     0.102 C 
ATOM     44  C   UNL     1       2.770   4.605   7.571  1.00  0.00     0.020 C 
BRANCH  43  45
ATOM     45  C   UNL     1       4.047   4.356   5.351  1.00  0.00     0.225 C 
ATOM     46  O   UNL     1       4.468   3.207   5.449  1.00  0.00    -0.275 OA
ATOM     47  N   UNL     1       3.911   4.963   4.123  1.00  0.00    -0.342 N 
ATOM     48  H   UNL     1       3.424   5.846   4.054  1.00  0.00     0.164 HD
BRANCH  47  49
ATOM     49  C   UNL     1       4.135   4.228   2.875  1.00  0.00     0.192 C 
BRANCH  49  50
ATOM     50  C   UNL     1       5.402   4.749   2.192  1.00  0.00     0.047 C 
BRANCH  50  51
ATOM     51  C   UNL     1       5.285   4.737   0.662  1.00  0.00     0.103 C 
BRANCH  51  52
ATOM     52  C   UNL     1       5.626   6.094   0.049  1.00  0.00     0.226 C 
ATOM     53  O   UNL     1       6.383   6.860   0.648  1.00  0.00    -0.275 OA
BRANCH  52  54
ATOM     54  N   UNL     1       5.098   6.356  -1.229  1.00  0.00    -0.311 N 
ATOM     55  C   UNL     1       3.683   6.100  -1.529  1.00  0.00     0.153 C 
BRANCH  54  56
ATOM     56  C   UNL     1       5.899   6.874  -2.260  1.00  0.00     0.102 C 
ATOM     57  C   UNL     1       5.672   8.033  -2.900  1.00  0.00     0.043 C 
BRANCH  56  58
ATOM     58  C   UNL     1       7.149   6.154  -2.707  1.00  0.00     0.268 C 
ATOM     59  O   UNL     1       7.541   5.113  -2.196  1.00  0.00    -0.268 OA
ATOM     60  N   UNL     1       7.759   6.749  -3.785  1.00  0.00    -0.339 N 
ATOM     61  H   UNL     1       7.377   7.616  -4.144  1.00  0.00     0.164 HD
BRANCH  60  62
ATOM     62  C   UNL     1       8.949   6.182  -4.418  1.00  0.00     0.168 CG0
ATOM     63  C   UNL     1       9.692   7.236  -5.230  1.00  0.00     0.041 C 
ATOM     64  G   UNL     1       8.541   4.992  -5.312  1.00  0.00     0.000 G0
ENDBRANCH  60  62
ENDBRANCH  56  58
ENDBRANCH  54  56
ENDBRANCH  52  54
ENDBRANCH  51  52
ENDBRANCH  50  51
ENDBRANCH  49  50
BRANCH  49  65
ATOM     65  C   UNL     1       2.945   4.366   1.914  1.00  0.00     0.326 C 
ATOM     66  O   UNL     1       2.422   5.418   1.576  1.00  0.00    -0.250 OA
BRANCH  65  67
ATOM     67  O   UNL     1       2.434   3.194   1.476  1.00  0.00    -0.480 OA
ATOM     68  H   UNL     1       2.687   2.555   2.178  1.00  0.00     0.296 HD
ENDBRANCH  65  67
ENDBRANCH  49  65
ENDBRANCH  47  49
ENDBRANCH  43  45
ENDBRANCH   1  43
BRANCH   1  69
ATOM     69  C   UNL     1       6.101   6.419   6.329  1.00  0.00    -0.001 C 
ATOM     70  C   UNL     1       7.078   5.807   5.638  1.00  0.00     0.001 C 
BRANCH  70  71
ATOM     71  C   UNL     1       8.072   6.443   4.770  1.00  0.00    -0.055 C 
ATOM     72  C   UNL     1       8.479   5.761   3.678  1.00  0.00    -0.018 C 
ATOM     73  C   UNL     1       8.563   7.815   5.152  1.00  0.00     0.044 C 
BRANCH  72  74
ATOM     74  C   UNL     1       9.484   6.167   2.609  1.00  0.00     0.038 C 
ATOM     75  C   UNL     1       9.270   5.235   1.410  1.00  0.00     0.015 C 
BRANCH  74  76
ATOM     76  C   UNL     1      10.914   6.122   3.224  1.00  0.00     0.128 C 
BRANCH  76  77
ATOM     77  O   UNL     1      11.464   4.800   3.093  1.00  0.00    -0.381 OA
ATOM     78  C   UNL     1      11.870   4.226   4.328  1.00  0.00     0.195 C 
ENDBRANCH  76  77
BRANCH  76  79
ATOM     79  C   UNL     1      11.865   7.222   2.687  1.00  0.00     0.068 C 
BRANCH  79  80
ATOM     80  C   UNL     1      11.610   8.647   3.115  1.00  0.00    -0.045 A 
ATOM     81  C   UNL     1      12.158   9.153   4.301  1.00  0.00     0.004 A 
ATOM     82  C   UNL     1      10.792   9.483   2.340  1.00  0.00     0.004 A 
ATOM     83  C   UNL     1      11.907  10.468   4.698  1.00  0.00     0.000 A 
ATOM     84  C   UNL     1      10.540  10.798   2.738  1.00  0.00     0.000 A 
ATOM     85  C   UNL     1      11.099  11.290   3.915  1.00  0.00     0.000 A 
ENDBRANCH  79  80
ENDBRANCH  76  79
ENDBRANCH  74  76
ENDBRANCH  72  74
ENDBRANCH  70  71
ENDBRANCH   1  69
TORSDOF 17
ENDMDL
MODEL 18
REMARK VINA RESULT:    -6.368      2.326     11.590
REMARK INTER + INTRA:         -24.941
REMARK INTER:                 -18.325
REMARK INTRA:                  -6.616
REMARK UNBOUND:                -5.916
REMARK SMILES C=C1C(=O)N[C@H](C)C(=O)N[C@@H](CC(C)C)C(=O)N[C@@H](C(=O)O)[C@H](C)C(=O)N[C@@H](CCCN=C(N)N)C(=O)N[C@@H](/C=C/C(C)=C/[C@H](C)[C@H](Cc2ccccc2)OC)[C@H](C)C(=O)N[C@@H](C(=O)O)CCC(=O)N1C
REMARK SMILES IDX 39 1 38 2 37 3 36 4 28 6 27 7 25 8 26 9 23 11 24 12 19 13
REMARK SMILES IDX 18 14 16 15 17 16 11 18 10 19 8 20 9 21 12 24 13 25 14 26
REMARK SMILES IDX 15 27 20 28 21 29 22 30 29 32 30 33 31 34 32 35 33 36 34 37
REMARK SMILES IDX 35 38 57 43 58 44 59 45 60 46 61 47 62 49 66 50 67 51 68 52
REMARK SMILES IDX 69 53 70 54 71 55 2 56 1 57 3 58 4 59 5 60 6 62 7 63 63 65
REMARK SMILES IDX 64 66 65 67 40 69 41 70 42 71 44 72 43 73 45 74 46 75 47 76
REMARK SMILES IDX 55 77 56 78 48 79 49 80 50 81 54 82 51 83 53 84 52 85
REMARK H PARENT 38 5 27 10 18 17 10 22 22 31 34 39 34 40 35 41 35 42 61 48
REMARK H PARENT 5 61 65 68
REMARK Flexibility Score:  369.900
ROOT
ATOM      1  C   UNL     1       4.813   4.765   5.806  1.00  0.00     0.117 C 
ENDROOT
BRANCH   1   2
ATOM      2  N   UNL     1       6.259   4.986   5.787  1.00  0.00    -0.347 N 
ATOM      3  O   UNL     1       6.275   7.040   6.811  1.00  0.00    -0.273 OA
ATOM      4  C   UNL     1       6.884   6.069   6.375  1.00  0.00     0.243 C 
ATOM      5  H   UNL     1       6.860   4.293   5.366  1.00  0.00     0.164 HD
BRANCH   4   6
ATOM      6  C   UNL     1       8.430   6.020   6.286  1.00  0.00     0.171 C 
BRANCH   6   7
ATOM      7  N   UNL     1       8.865   6.006   4.880  1.00  0.00    -0.344 N 
ATOM      8  C   UNL     1      10.103   5.513   4.532  1.00  0.00     0.226 C 
ATOM      9  O   UNL     1      10.902   5.090   5.359  1.00  0.00    -0.275 OA
ATOM     10  H   UNL     1       8.260   6.410   4.176  1.00  0.00     0.164 HD
BRANCH   8  11
ATOM     11  C   UNL     1      10.381   5.517   3.039  1.00  0.00     0.109 C 
ATOM     12  C   UNL     1       9.073   5.658   2.261  1.00  0.00     0.021 C 
BRANCH  11  13
ATOM     13  C   UNL     1      11.448   6.580   2.710  1.00  0.00     0.204 C 
BRANCH  13  14
ATOM     14  N   UNL     1      11.374   7.734   3.612  1.00  0.00    -0.340 N 
ATOM     15  C   UNL     1      11.296   9.034   3.160  1.00  0.00     0.243 C 
ATOM     16  O   UNL     1      11.221   9.314   1.964  1.00  0.00    -0.273 OA
ATOM     17  H   UNL     1      11.583   7.584   4.602  1.00  0.00     0.164 HD
BRANCH  15  18
ATOM     18  C   UNL     1      11.439  10.089   4.283  1.00  0.00     0.171 C 
BRANCH  18  19
ATOM     19  N   UNL     1      10.712  11.276   3.837  1.00  0.00    -0.343 N 
ATOM     20  C   UNL     1      11.301  12.525   3.812  1.00  0.00     0.242 CG0
ATOM     21  O   UNL     1      12.418  12.719   4.287  1.00  0.00    -0.273 OA
ATOM     22  H   UNL     1       9.746  11.187   3.543  1.00  0.00     0.164 HD
ATOM     23  G   UNL     1      10.405  13.641   3.237  1.00  0.00     0.000 G0
ENDBRANCH  18  19
BRANCH  18  24
ATOM     24  C   UNL     1      10.879   9.551   5.606  1.00  0.00     0.038 C 
BRANCH  24  25
ATOM     25  C   UNL     1      11.779   9.799   6.835  1.00  0.00    -0.015 C 
ATOM     26  C   UNL     1      11.551  11.175   7.460  1.00  0.00     0.007 C 
ATOM     27  C   UNL     1      13.249   9.651   6.434  1.00  0.00     0.007 C 
ENDBRANCH  24  25
ENDBRANCH  18  24
ENDBRANCH  15  18
ENDBRANCH  13  14
BRANCH  13  28
ATOM     28  C   UNL     1      12.880   6.040   2.781  1.00  0.00     0.327 C 
ATOM     29  O   UNL     1      13.476   5.702   3.792  1.00  0.00    -0.250 OA
BRANCH  28  30
ATOM     30  O   UNL     1      13.516   6.070   1.592  1.00  0.00    -0.480 OA
ATOM     31  H   UNL     1      13.429   7.000   1.295  1.00  0.00     0.296 HD
ENDBRANCH  28  30
ENDBRANCH  13  28
ENDBRANCH  11  13
ENDBRANCH   8  11
ENDBRANCH   6   7
BRANCH   6  32
ATOM     32  C   UNL     1       9.015   7.227   7.028  1.00  0.00     0.037 C 
BRANCH  32  33
ATOM     33  C   UNL     1       9.369   6.896   8.485  1.00  0.00     0.026 C 
BRANCH  33  34
ATOM     34  C   UNL     1       9.716   5.420   8.682  1.00  0.00     0.146 C 
BRANCH  34  35
ATOM     35  N   UNL     1       8.749   4.827   9.595  1.00  0.00    -0.254 NA
ATOM     36  C   UNL     1       8.242   3.688   9.298  1.00  0.00     0.185 C 
ATOM     37  N   UNL     1       7.353   3.130  10.135  1.00  0.00    -0.370 N 
ATOM     38  N   UNL     1       8.471   2.916   8.221  1.00  0.00    -0.370 N 
ATOM     39  H   UNL     1       7.135   3.648  10.977  1.00  0.00     0.159 HD
ATOM     40  H   UNL     1       7.046   2.176  10.064  1.00  0.00     0.159 HD
ATOM     41  H   UNL     1       7.905   2.105   8.032  1.00  0.00     0.159 HD
ATOM     42  H   UNL     1       9.106   3.218   7.500  1.00  0.00     0.159 HD
ENDBRANCH  34  35
ENDBRANCH  33  34
ENDBRANCH  32  33
ENDBRANCH   6  32
ENDBRANCH   4   6
ENDBRANCH   1   2
BRANCH   1  43
ATOM     43  C   UNL     1       4.504   3.594   6.784  1.00  0.00     0.102 C 
ATOM     44  C   UNL     1       4.448   4.027   8.258  1.00  0.00     0.020 C 
BRANCH  43  45
ATOM     45  C   UNL     1       5.427   2.400   6.521  1.00  0.00     0.225 C 
ATOM     46  O   UNL     1       6.471   2.488   5.880  1.00  0.00    -0.275 OA
ATOM     47  N   UNL     1       4.966   1.185   6.971  1.00  0.00    -0.342 N 
ATOM     48  H   UNL     1       4.192   1.152   7.620  1.00  0.00     0.164 HD
BRANCH  47  49
ATOM     49  C   UNL     1       5.759  -0.039   6.822  1.00  0.00     0.192 C 
BRANCH  49  50
ATOM     50  C   UNL     1       4.826  -1.248   6.715  1.00  0.00     0.047 C 
BRANCH  50  51
ATOM     51  C   UNL     1       5.292  -2.252   5.653  1.00  0.00     0.103 C 
BRANCH  51  52
ATOM     52  C   UNL     1       5.641  -3.609   6.261  1.00  0.00     0.226 C 
ATOM     53  O   UNL     1       6.747  -3.780   6.777  1.00  0.00    -0.275 OA
BRANCH  52  54
ATOM     54  N   UNL     1       4.621  -4.578   6.258  1.00  0.00    -0.311 N 
ATOM     55  C   UNL     1       4.058  -5.088   7.515  1.00  0.00     0.153 C 
BRANCH  54  56
ATOM     56  C   UNL     1       4.100  -5.089   5.057  1.00  0.00     0.102 C 
ATOM     57  C   UNL     1       2.866  -4.843   4.589  1.00  0.00     0.043 C 
BRANCH  56  58
ATOM     58  C   UNL     1       4.946  -5.952   4.150  1.00  0.00     0.268 C 
ATOM     59  O   UNL     1       5.918  -5.529   3.539  1.00  0.00    -0.268 OA
ATOM     60  N   UNL     1       4.552  -7.268   4.135  1.00  0.00    -0.339 N 
ATOM     61  H   UNL     1       3.729  -7.537   4.661  1.00  0.00     0.164 HD
BRANCH  60  62
ATOM     62  C   UNL     1       5.270  -8.288   3.372  1.00  0.00     0.168 CG0
ATOM     63  C   UNL     1       4.915  -9.687   3.859  1.00  0.00     0.041 C 
ATOM     64  G   UNL     1       6.789  -8.041   3.482  1.00  0.00     0.000 G0
ENDBRANCH  60  62
ENDBRANCH  56  58
ENDBRANCH  54  56
ENDBRANCH  52  54
ENDBRANCH  51  52
ENDBRANCH  50  51
ENDBRANCH  49  50
BRANCH  49  65
ATOM     65  C   UNL     1       6.719  -0.240   8.005  1.00  0.00     0.326 C 
ATOM     66  O   UNL     1       6.660   0.347   9.075  1.00  0.00    -0.250 OA
BRANCH  65  67
ATOM     67  O   UNL     1       7.728  -1.108   7.771  1.00  0.00    -0.480 OA
ATOM     68  H   UNL     1       8.343  -0.956   8.521  1.00  0.00     0.296 HD
ENDBRANCH  65  67
ENDBRANCH  49  65
ENDBRANCH  47  49
ENDBRANCH  43  45
ENDBRANCH   1  43
BRANCH   1  69
ATOM     69  C   UNL     1       4.383   4.642   4.356  1.00  0.00    -0.001 C 
ATOM     70  C   UNL     1       5.145   4.812   3.261  1.00  0.00     0.001 C 
BRANCH  70  71
ATOM     71  C   UNL     1       4.724   4.670   1.866  1.00  0.00    -0.055 C 
ATOM     72  C   UNL     1       5.534   5.174   0.911  1.00  0.00    -0.018 C 
ATOM     73  C   UNL     1       3.421   3.964   1.594  1.00  0.00     0.044 C 
BRANCH  72  74
ATOM     74  C   UNL     1       5.359   5.171  -0.601  1.00  0.00     0.038 C 
ATOM     75  C   UNL     1       6.662   4.634  -1.206  1.00  0.00     0.015 C 
BRANCH  74  76
ATOM     76  C   UNL     1       4.967   6.606  -1.063  1.00  0.00     0.128 C 
BRANCH  76  77
ATOM     77  O   UNL     1       5.352   6.802  -2.434  1.00  0.00    -0.381 OA
ATOM     78  C   UNL     1       6.042   8.023  -2.664  1.00  0.00     0.195 C 
ENDBRANCH  76  77
BRANCH  76  79
ATOM     79  C   UNL     1       3.484   6.968  -0.799  1.00  0.00     0.068 C 
BRANCH  79  80
ATOM     80  C   UNL     1       2.421   6.128  -1.464  1.00  0.00    -0.045 A 
ATOM     81  C   UNL     1       2.271   6.123  -2.857  1.00  0.00     0.004 A 
ATOM     82  C   UNL     1       1.543   5.355  -0.689  1.00  0.00     0.004 A 
ATOM     83  C   UNL     1       1.276   5.353  -3.463  1.00  0.00     0.000 A 
ATOM     84  C   UNL     1       0.547   4.586  -1.296  1.00  0.00     0.000 A 
ATOM     85  C   UNL     1       0.415   4.584  -2.683  1.00  0.00     0.000 A 
ENDBRANCH  79  80
ENDBRANCH  76  79
ENDBRANCH  74  76
ENDBRANCH  72  74
ENDBRANCH  70  71
ENDBRANCH   1  69
TORSDOF 17
ENDMDL
MODEL 19
REMARK VINA RESULT:    -6.346      5.173      8.278
REMARK INTER + INTRA:         -24.877
REMARK INTER:                 -20.167
REMARK INTRA:                  -4.710
REMARK UNBOUND:                -5.916
REMARK SMILES C=C1C(=O)N[C@H](C)C(=O)N[C@@H](CC(C)C)C(=O)N[C@@H](C(=O)O)[C@H](C)C(=O)N[C@@H](CCCN=C(N)N)C(=O)N[C@@H](/C=C/C(C)=C/[C@H](C)[C@H](Cc2ccccc2)OC)[C@H](C)C(=O)N[C@@H](C(=O)O)CCC(=O)N1C
REMARK SMILES IDX 39 1 38 2 37 3 36 4 28 6 27 7 25 8 26 9 23 11 24 12 19 13
REMARK SMILES IDX 18 14 16 15 17 16 11 18 10 19 8 20 9 21 12 24 13 25 14 26
REMARK SMILES IDX 15 27 20 28 21 29 22 30 29 32 30 33 31 34 32 35 33 36 34 37
REMARK SMILES IDX 35 38 57 43 58 44 59 45 60 46 61 47 62 49 66 50 67 51 68 52
REMARK SMILES IDX 69 53 70 54 71 55 2 56 1 57 3 58 4 59 5 60 6 62 7 63 63 65
REMARK SMILES IDX 64 66 65 67 40 69 41 70 42 71 44 72 43 73 45 74 46 75 47 76
REMARK SMILES IDX 55 77 56 78 48 79 49 80 50 81 54 82 51 83 53 84 52 85
REMARK H PARENT 38 5 27 10 18 17 10 22 22 31 34 39 34 40 35 41 35 42 61 48
REMARK H PARENT 5 61 65 68
REMARK Flexibility Score:  369.900
ROOT
ATOM      1  C   UNL     1       4.698   4.181   3.154  1.00  0.00     0.117 C 
ENDROOT
BRANCH   1   2
ATOM      2  N   UNL     1       4.259   4.725   4.439  1.00  0.00    -0.347 N 
ATOM      3  O   UNL     1       2.666   3.144   4.922  1.00  0.00    -0.273 OA
ATOM      4  C   UNL     1       3.339   4.110   5.266  1.00  0.00     0.243 C 
ATOM      5  H   UNL     1       4.678   5.576   4.785  1.00  0.00     0.164 HD
BRANCH   4   6
ATOM      6  C   UNL     1       3.115   4.851   6.609  1.00  0.00     0.171 C 
BRANCH   6   7
ATOM      7  N   UNL     1       3.419   3.964   7.743  1.00  0.00    -0.344 N 
ATOM      8  C   UNL     1       4.706   3.528   7.970  1.00  0.00     0.226 C 
ATOM      9  O   UNL     1       5.644   3.832   7.242  1.00  0.00    -0.275 OA
ATOM     10  H   UNL     1       2.659   3.637   8.327  1.00  0.00     0.164 HD
BRANCH   8  11
ATOM     11  C   UNL     1       4.865   2.665   9.209  1.00  0.00     0.109 C 
ATOM     12  C   UNL     1       5.353   1.269   8.819  1.00  0.00     0.021 C 
BRANCH  11  13
ATOM     13  C   UNL     1       5.747   3.393  10.243  1.00  0.00     0.204 C 
BRANCH  13  14
ATOM     14  N   UNL     1       5.229   3.251  11.608  1.00  0.00    -0.340 N 
ATOM     15  C   UNL     1       5.370   4.229  12.568  1.00  0.00     0.243 C 
ATOM     16  O   UNL     1       5.889   5.318  12.330  1.00  0.00    -0.273 OA
ATOM     17  H   UNL     1       4.926   2.321  11.912  1.00  0.00     0.164 HD
BRANCH  15  18
ATOM     18  C   UNL     1       4.933   3.775  13.982  1.00  0.00     0.171 C 
BRANCH  18  19
ATOM     19  N   UNL     1       3.472   3.808  14.000  1.00  0.00    -0.343 N 
ATOM     20  C   UNL     1       2.772   4.976  14.234  1.00  0.00     0.242 CG0
ATOM     21  O   UNL     1       3.343   6.012  14.569  1.00  0.00    -0.273 OA
ATOM     22  H   UNL     1       2.953   2.952  13.842  1.00  0.00     0.164 HD
ATOM     23  G   UNL     1       1.240   4.831  14.135  1.00  0.00     0.000 G0
ENDBRANCH  18  19
BRANCH  18  24
ATOM     24  C   UNL     1       5.467   2.371  14.289  1.00  0.00     0.038 C 
BRANCH  24  25
ATOM     25  C   UNL     1       6.965   2.317  14.657  1.00  0.00    -0.015 C 
ATOM     26  C   UNL     1       7.576   0.935  14.425  1.00  0.00     0.007 C 
ATOM     27  C   UNL     1       7.150   2.722  16.122  1.00  0.00     0.007 C 
ENDBRANCH  24  25
ENDBRANCH  18  24
ENDBRANCH  15  18
ENDBRANCH  13  14
BRANCH  13  28
ATOM     28  C   UNL     1       7.197   2.901  10.255  1.00  0.00     0.327 C 
ATOM     29  O   UNL     1       7.690   2.122  11.057  1.00  0.00    -0.250 OA
BRANCH  28  30
ATOM     30  O   UNL     1       7.969   3.507   9.330  1.00  0.00    -0.480 OA
ATOM     31  H   UNL     1       7.333   3.825   8.656  1.00  0.00     0.296 HD
ENDBRANCH  28  30
ENDBRANCH  13  28
ENDBRANCH  11  13
ENDBRANCH   8  11
ENDBRANCH   6   7
BRANCH   6  32
ATOM     32  C   UNL     1       3.996   6.105   6.645  1.00  0.00     0.037 C 
BRANCH  32  33
ATOM     33  C   UNL     1       3.848   6.880   7.962  1.00  0.00     0.026 C 
BRANCH  33  34
ATOM     34  C   UNL     1       4.935   7.940   8.143  1.00  0.00     0.146 C 
BRANCH  34  35
ATOM     35  N   UNL     1       5.745   7.589   9.301  1.00  0.00    -0.254 NA
ATOM     36  C   UNL     1       6.778   6.851   9.127  1.00  0.00     0.185 C 
ATOM     37  N   UNL     1       7.535   6.525  10.186  1.00  0.00    -0.370 N 
ATOM     38  N   UNL     1       7.253   6.319   7.987  1.00  0.00    -0.370 N 
ATOM     39  H   UNL     1       7.247   6.898  11.082  1.00  0.00     0.159 HD
ATOM     40  H   UNL     1       8.444   6.103  10.111  1.00  0.00     0.159 HD
ATOM     41  H   UNL     1       7.996   5.639   8.000  1.00  0.00     0.159 HD
ATOM     42  H   UNL     1       6.774   6.468   7.113  1.00  0.00     0.159 HD
ENDBRANCH  34  35
ENDBRANCH  33  34
ENDBRANCH  32  33
ENDBRANCH   6  32
ENDBRANCH   4   6
ENDBRANCH   1   2
BRANCH   1  43
ATOM     43  C   UNL     1       6.236   4.379   3.031  1.00  0.00     0.102 C 
ATOM     44  C   UNL     1       6.909   4.782   4.354  1.00  0.00     0.020 C 
BRANCH  43  45
ATOM     45  C   UNL     1       6.580   5.296   1.854  1.00  0.00     0.225 C 
ATOM     46  O   UNL     1       5.740   5.717   1.063  1.00  0.00    -0.275 OA
ATOM     47  N   UNL     1       7.920   5.553   1.675  1.00  0.00    -0.342 N 
ATOM     48  H   UNL     1       8.575   5.330   2.411  1.00  0.00     0.164 HD
BRANCH  47  49
ATOM     49  C   UNL     1       8.395   6.443   0.611  1.00  0.00     0.192 C 
BRANCH  49  50
ATOM     50  C   UNL     1       8.564   5.649  -0.687  1.00  0.00     0.047 C 
BRANCH  50  51
ATOM     51  C   UNL     1       8.093   6.437  -1.917  1.00  0.00     0.103 C 
BRANCH  51  52
ATOM     52  C   UNL     1       7.964   5.549  -3.153  1.00  0.00     0.226 C 
ATOM     53  O   UNL     1       7.167   4.609  -3.149  1.00  0.00    -0.275 OA
BRANCH  52  54
ATOM     54  N   UNL     1       8.733   5.918  -4.272  1.00  0.00    -0.311 N 
ATOM     55  C   UNL     1      10.126   5.473  -4.412  1.00  0.00     0.153 C 
BRANCH  54  56
ATOM     56  C   UNL     1       8.198   6.716  -5.297  1.00  0.00     0.102 C 
ATOM     57  C   UNL     1       8.174   8.059  -5.291  1.00  0.00     0.043 C 
BRANCH  56  58
ATOM     58  C   UNL     1       7.631   6.092  -6.550  1.00  0.00     0.268 C 
ATOM     59  O   UNL     1       6.646   5.365  -6.549  1.00  0.00    -0.268 OA
ATOM     60  N   UNL     1       8.291   6.476  -7.692  1.00  0.00    -0.339 N 
ATOM     61  H   UNL     1       9.105   7.073  -7.607  1.00  0.00     0.164 HD
BRANCH  60  62
ATOM     62  C   UNL     1       7.868   6.039  -9.022  1.00  0.00     0.168 CG0
ATOM     63  C   UNL     1       8.290   4.599  -9.284  1.00  0.00     0.041 C 
ATOM     64  G   UNL     1       8.457   6.984 -10.089  1.00  0.00     0.000 G0
ENDBRANCH  60  62
ENDBRANCH  56  58
ENDBRANCH  54  56
ENDBRANCH  52  54
ENDBRANCH  51  52
ENDBRANCH  50  51
ENDBRANCH  49  50
BRANCH  49  65
ATOM     65  C   UNL     1       9.731   7.105   0.980  1.00  0.00     0.326 C 
ATOM     66  O   UNL     1      10.751   6.515   1.306  1.00  0.00    -0.250 OA
BRANCH  65  67
ATOM     67  O   UNL     1       9.709   8.456   0.983  1.00  0.00    -0.480 OA
ATOM     68  H   UNL     1       8.911   8.676   0.456  1.00  0.00     0.296 HD
ENDBRANCH  65  67
ENDBRANCH  49  65
ENDBRANCH  47  49
ENDBRANCH  43  45
ENDBRANCH   1  43
BRANCH   1  69
ATOM     69  C   UNL     1       3.793   4.796   2.102  1.00  0.00    -0.001 C 
ATOM     70  C   UNL     1       2.718   4.235   1.520  1.00  0.00     0.001 C 
BRANCH  70  71
ATOM     71  C   UNL     1       1.839   4.847   0.522  1.00  0.00    -0.055 C 
ATOM     72  C   UNL     1       1.021   4.032  -0.178  1.00  0.00    -0.018 C 
ATOM     73  C   UNL     1       1.903   6.342   0.351  1.00  0.00     0.044 C 
BRANCH  72  74
ATOM     74  C   UNL     1       0.012   4.381  -1.263  1.00  0.00     0.038 C 
ATOM     75  C   UNL     1      -1.143   3.380  -1.145  1.00  0.00     0.015 C 
BRANCH  74  76
ATOM     76  C   UNL     1       0.737   4.382  -2.641  1.00  0.00     0.128 C 
BRANCH  76  77
ATOM     77  O   UNL     1       0.075   3.481  -3.544  1.00  0.00    -0.381 OA
ATOM     78  C   UNL     1       0.196   3.852  -4.911  1.00  0.00     0.195 C 
ENDBRANCH  76  77
BRANCH  76  79
ATOM     79  C   UNL     1       0.940   5.795  -3.244  1.00  0.00     0.068 C 
BRANCH  79  80
ATOM     80  C   UNL     1       2.353   6.307  -3.386  1.00  0.00    -0.045 A 
ATOM     81  C   UNL     1       2.893   6.595  -4.647  1.00  0.00     0.004 A 
ATOM     82  C   UNL     1       3.161   6.477  -2.252  1.00  0.00     0.004 A 
ATOM     83  C   UNL     1       4.205   7.055  -4.771  1.00  0.00     0.000 A 
ATOM     84  C   UNL     1       4.474   6.936  -2.377  1.00  0.00     0.000 A 
ATOM     85  C   UNL     1       4.995   7.226  -3.636  1.00  0.00     0.000 A 
ENDBRANCH  79  80
ENDBRANCH  76  79
ENDBRANCH  74  76
ENDBRANCH  72  74
ENDBRANCH  70  71
ENDBRANCH   1  69
TORSDOF 17
ENDMDL
MODEL 20
REMARK VINA RESULT:    -6.342      4.142     12.218
REMARK INTER + INTRA:         -24.863
REMARK INTER:                 -20.007
REMARK INTRA:                  -4.856
REMARK UNBOUND:                -5.916
REMARK SMILES C=C1C(=O)N[C@H](C)C(=O)N[C@@H](CC(C)C)C(=O)N[C@@H](C(=O)O)[C@H](C)C(=O)N[C@@H](CCCN=C(N)N)C(=O)N[C@@H](/C=C/C(C)=C/[C@H](C)[C@H](Cc2ccccc2)OC)[C@H](C)C(=O)N[C@@H](C(=O)O)CCC(=O)N1C
REMARK SMILES IDX 39 1 38 2 37 3 36 4 28 6 27 7 25 8 26 9 23 11 24 12 19 13
REMARK SMILES IDX 18 14 16 15 17 16 11 18 10 19 8 20 9 21 12 24 13 25 14 26
REMARK SMILES IDX 15 27 20 28 21 29 22 30 29 32 30 33 31 34 32 35 33 36 34 37
REMARK SMILES IDX 35 38 57 43 58 44 59 45 60 46 61 47 62 49 66 50 67 51 68 52
REMARK SMILES IDX 69 53 70 54 71 55 2 56 1 57 3 58 4 59 5 60 6 62 7 63 63 65
REMARK SMILES IDX 64 66 65 67 40 69 41 70 42 71 44 72 43 73 45 74 46 75 47 76
REMARK SMILES IDX 55 77 56 78 48 79 49 80 50 81 54 82 51 83 53 84 52 85
REMARK H PARENT 38 5 27 10 18 17 10 22 22 31 34 39 34 40 35 41 35 42 61 48
REMARK H PARENT 5 61 65 68
REMARK Flexibility Score:  369.900
ROOT
ATOM      1  C   UNL     1       5.142   2.949   6.190  1.00  0.00     0.117 C 
ENDROOT
BRANCH   1   2
ATOM      2  N   UNL     1       6.189   3.814   5.646  1.00  0.00    -0.347 N 
ATOM      3  O   UNL     1       4.891   4.975   4.151  1.00  0.00    -0.273 OA
ATOM      4  C   UNL     1       5.960   4.824   4.732  1.00  0.00     0.243 C 
ATOM      5  H   UNL     1       7.136   3.717   5.982  1.00  0.00     0.164 HD
BRANCH   4   6
ATOM      6  C   UNL     1       7.226   5.649   4.384  1.00  0.00     0.171 C 
BRANCH   6   7
ATOM      7  N   UNL     1       7.170   6.112   2.988  1.00  0.00    -0.344 N 
ATOM      8  C   UNL     1       8.231   5.902   2.135  1.00  0.00     0.226 C 
ATOM      9  O   UNL     1       9.266   5.350   2.491  1.00  0.00    -0.275 OA
ATOM     10  H   UNL     1       6.359   6.632   2.676  1.00  0.00     0.164 HD
BRANCH   8  11
ATOM     11  C   UNL     1       7.999   6.389   0.715  1.00  0.00     0.109 C 
ATOM     12  C   UNL     1       9.129   5.911  -0.197  1.00  0.00     0.021 C 
BRANCH  11  13
ATOM     13  C   UNL     1       6.582   5.994   0.254  1.00  0.00     0.204 C 
BRANCH  13  14
ATOM     14  N   UNL     1       6.384   6.225  -1.180  1.00  0.00    -0.340 N 
ATOM     15  C   UNL     1       5.204   6.707  -1.705  1.00  0.00     0.243 C 
ATOM     16  O   UNL     1       4.253   7.034  -0.999  1.00  0.00    -0.273 OA
ATOM     17  H   UNL     1       7.073   5.834  -1.829  1.00  0.00     0.164 HD
BRANCH  15  18
ATOM     18  C   UNL     1       5.156   6.671  -3.253  1.00  0.00     0.171 C 
BRANCH  18  19
ATOM     19  N   UNL     1       3.792   7.028  -3.637  1.00  0.00    -0.343 N 
ATOM     20  C   UNL     1       3.179   6.476  -4.745  1.00  0.00     0.242 CG0
ATOM     21  O   UNL     1       3.796   5.763  -5.533  1.00  0.00    -0.273 OA
ATOM     22  H   UNL     1       3.279   7.703  -3.081  1.00  0.00     0.164 HD
ATOM     23  G   UNL     1       1.713   6.912  -4.946  1.00  0.00     0.000 G0
ENDBRANCH  18  19
BRANCH  18  24
ATOM     24  C   UNL     1       6.180   7.645  -3.849  1.00  0.00     0.038 C 
BRANCH  24  25
ATOM     25  C   UNL     1       7.200   6.998  -4.810  1.00  0.00    -0.015 C 
ATOM     26  C   UNL     1       7.832   5.733  -4.229  1.00  0.00     0.007 C 
ATOM     27  C   UNL     1       8.296   8.010  -5.155  1.00  0.00     0.007 C 
ENDBRANCH  24  25
ENDBRANCH  18  24
ENDBRANCH  15  18
ENDBRANCH  13  14
BRANCH  13  28
ATOM     28  C   UNL     1       6.246   4.525   0.528  1.00  0.00     0.327 C 
ATOM     29  O   UNL     1       6.802   3.553   0.039  1.00  0.00    -0.250 OA
BRANCH  28  30
ATOM     30  O   UNL     1       5.155   4.368   1.305  1.00  0.00    -0.480 OA
ATOM     31  H   UNL     1       5.087   5.212   1.797  1.00  0.00     0.296 HD
ENDBRANCH  28  30
ENDBRANCH  13  28
ENDBRANCH  11  13
ENDBRANCH   8  11
ENDBRANCH   6   7
BRANCH   6  32
ATOM     32  C   UNL     1       7.336   6.833   5.350  1.00  0.00     0.037 C 
BRANCH  32  33
ATOM     33  C   UNL     1       8.770   7.372   5.444  1.00  0.00     0.026 C 
BRANCH  33  34
ATOM     34  C   UNL     1       8.982   8.625   4.594  1.00  0.00     0.146 C 
BRANCH  34  35
ATOM     35  N   UNL     1      10.412   8.825   4.400  1.00  0.00    -0.254 NA
ATOM     36  C   UNL     1      10.850   9.016   3.211  1.00  0.00     0.185 C 
ATOM     37  N   UNL     1      12.164   9.206   3.021  1.00  0.00    -0.370 N 
ATOM     38  N   UNL     1      10.164   9.059   2.055  1.00  0.00    -0.370 N 
ATOM     39  H   UNL     1      12.748   9.198   3.848  1.00  0.00     0.159 HD
ATOM     40  H   UNL     1      12.560   9.531   2.156  1.00  0.00     0.159 HD
ATOM     41  H   UNL     1      10.639   9.077   1.168  1.00  0.00     0.159 HD
ATOM     42  H   UNL     1       9.166   8.916   2.045  1.00  0.00     0.159 HD
ENDBRANCH  34  35
ENDBRANCH  33  34
ENDBRANCH  32  33
ENDBRANCH   6  32
ENDBRANCH   4   6
ENDBRANCH   1   2
BRANCH   1  43
ATOM     43  C   UNL     1       4.721   3.498   7.583  1.00  0.00     0.102 C 
ATOM     44  C   UNL     1       3.603   4.552   7.513  1.00  0.00     0.020 C 
BRANCH  43  45
ATOM     45  C   UNL     1       5.943   3.941   8.393  1.00  0.00     0.225 C 
ATOM     46  O   UNL     1       7.043   3.406   8.294  1.00  0.00    -0.275 OA
ATOM     47  N   UNL     1       5.712   4.930   9.322  1.00  0.00    -0.342 N 
ATOM     48  H   UNL     1       4.852   5.459   9.285  1.00  0.00     0.164 HD
BRANCH  47  49
ATOM     49  C   UNL     1       6.795   5.478  10.143  1.00  0.00     0.192 C 
BRANCH  49  50
ATOM     50  C   UNL     1       6.640   4.996  11.587  1.00  0.00     0.047 C 
BRANCH  50  51
ATOM     51  C   UNL     1       5.498   3.982  11.743  1.00  0.00     0.103 C 
BRANCH  51  52
ATOM     52  C   UNL     1       4.828   4.080  13.112  1.00  0.00     0.226 C 
ATOM     53  O   UNL     1       4.695   5.181  13.649  1.00  0.00    -0.275 OA
BRANCH  52  54
ATOM     54  N   UNL     1       4.325   2.881  13.651  1.00  0.00    -0.311 N 
ATOM     55  C   UNL     1       4.526   1.599  12.961  1.00  0.00     0.153 C 
BRANCH  54  56
ATOM     56  C   UNL     1       3.619   2.863  14.865  1.00  0.00     0.102 C 
ATOM     57  C   UNL     1       4.130   2.474  16.045  1.00  0.00     0.043 C 
BRANCH  56  58
ATOM     58  C   UNL     1       2.189   3.343  14.938  1.00  0.00     0.268 C 
ATOM     59  O   UNL     1       1.452   3.401  13.963  1.00  0.00    -0.268 OA
ATOM     60  N   UNL     1       1.784   3.644  16.217  1.00  0.00    -0.339 N 
ATOM     61  H   UNL     1       2.460   3.580  16.969  1.00  0.00     0.164 HD
BRANCH  60  62
ATOM     62  C   UNL     1       0.419   4.069  16.522  1.00  0.00     0.168 CG0
ATOM     63  C   UNL     1       0.416   5.355  17.338  1.00  0.00     0.041 C 
ATOM     64  G   UNL     1      -0.316   2.941  17.276  1.00  0.00     0.000 G0
ENDBRANCH  60  62
ENDBRANCH  56  58
ENDBRANCH  54  56
ENDBRANCH  52  54
ENDBRANCH  51  52
ENDBRANCH  50  51
ENDBRANCH  49  50
BRANCH  49  65
ATOM     65  C   UNL     1       6.803   7.015  10.117  1.00  0.00     0.326 C 
ATOM     66  O   UNL     1       6.042   7.719   9.471  1.00  0.00    -0.250 OA
BRANCH  65  67
ATOM     67  O   UNL     1       7.789   7.585  10.845  1.00  0.00    -0.480 OA
ATOM     68  H   UNL     1       7.819   8.508  10.510  1.00  0.00     0.296 HD
ENDBRANCH  65  67
ENDBRANCH  49  65
ENDBRANCH  47  49
ENDBRANCH  43  45
ENDBRANCH   1  43
BRANCH   1  69
ATOM     69  C   UNL     1       5.671   1.529   6.090  1.00  0.00    -0.001 C 
ATOM     70  C   UNL     1       5.312   0.469   6.836  1.00  0.00     0.001 C 
BRANCH  70  71
ATOM     71  C   UNL     1       5.813  -0.901   6.716  1.00  0.00    -0.055 C 
ATOM     72  C   UNL     1       4.906  -1.894   6.603  1.00  0.00    -0.018 C 
ATOM     73  C   UNL     1       7.306  -1.105   6.718  1.00  0.00     0.044 C 
BRANCH  72  74
ATOM     74  C   UNL     1       5.131  -3.393   6.463  1.00  0.00     0.038 C 
ATOM     75  C   UNL     1       5.248  -3.694   4.964  1.00  0.00     0.015 C 
BRANCH  74  76
ATOM     76  C   UNL     1       3.978  -4.143   7.192  1.00  0.00     0.128 C 
BRANCH  76  77
ATOM     77  O   UNL     1       4.498  -5.296   7.875  1.00  0.00    -0.381 OA
ATOM     78  C   UNL     1       5.034  -5.005   9.159  1.00  0.00     0.195 C 
ENDBRANCH  76  77
BRANCH  76  79
ATOM     79  C   UNL     1       3.120  -3.237   8.111  1.00  0.00     0.068 C 
BRANCH  79  80
ATOM     80  C   UNL     1       1.650  -3.554   8.243  1.00  0.00    -0.045 A 
ATOM     81  C   UNL     1       0.985  -3.398   9.466  1.00  0.00     0.004 A 
ATOM     82  C   UNL     1       0.930  -4.039   7.141  1.00  0.00     0.004 A 
ATOM     83  C   UNL     1      -0.372  -3.707   9.584  1.00  0.00     0.000 A 
ATOM     84  C   UNL     1      -0.427  -4.348   7.260  1.00  0.00     0.000 A 
ATOM     85  C   UNL     1      -1.078  -4.180   8.480  1.00  0.00     0.000 A 
ENDBRANCH  79  80
ENDBRANCH  76  79
ENDBRANCH  74  76
ENDBRANCH  72  74
ENDBRANCH  70  71
ENDBRANCH   1  69
TORSDOF 17
ENDMDL
MODEL 21
REMARK VINA RESULT:    -6.298      2.165     12.018
REMARK INTER + INTRA:         -24.733
REMARK INTER:                 -19.784
REMARK INTRA:                  -4.949
REMARK UNBOUND:                -5.916
REMARK SMILES C=C1C(=O)N[C@H](C)C(=O)N[C@@H](CC(C)C)C(=O)N[C@@H](C(=O)O)[C@H](C)C(=O)N[C@@H](CCCN=C(N)N)C(=O)N[C@@H](/C=C/C(C)=C/[C@H](C)[C@H](Cc2ccccc2)OC)[C@H](C)C(=O)N[C@@H](C(=O)O)CCC(=O)N1C
REMARK SMILES IDX 39 1 38 2 37 3 36 4 28 6 27 7 25 8 26 9 23 11 24 12 19 13
REMARK SMILES IDX 18 14 16 15 17 16 11 18 10 19 8 20 9 21 12 24 13 25 14 26
REMARK SMILES IDX 15 27 20 28 21 29 22 30 29 32 30 33 31 34 32 35 33 36 34 37
REMARK SMILES IDX 35 38 57 43 58 44 59 45 60 46 61 47 62 49 66 50 67 51 68 52
REMARK SMILES IDX 69 53 70 54 71 55 2 56 1 57 3 58 4 59 5 60 6 62 7 63 63 65
REMARK SMILES IDX 64 66 65 67 40 69 41 70 42 71 44 72 43 73 45 74 46 75 47 76
REMARK SMILES IDX 55 77 56 78 48 79 49 80 50 81 54 82 51 83 53 84 52 85
REMARK H PARENT 38 5 27 10 18 17 10 22 22 31 34 39 34 40 35 41 35 42 61 48
REMARK H PARENT 5 61 65 68
REMARK Flexibility Score:  369.900
ROOT
ATOM      1  C   UNL     1       5.197   4.656   6.751  1.00  0.00     0.117 C 
ENDROOT
BRANCH   1   2
ATOM      2  N   UNL     1       6.635   4.928   6.753  1.00  0.00    -0.347 N 
ATOM      3  O   UNL     1       6.521   7.220   6.731  1.00  0.00    -0.273 OA
ATOM      4  C   UNL     1       7.183   6.193   6.836  1.00  0.00     0.243 C 
ATOM      5  H   UNL     1       7.284   4.156   6.744  1.00  0.00     0.164 HD
BRANCH   4   6
ATOM      6  C   UNL     1       8.731   6.199   6.907  1.00  0.00     0.171 C 
BRANCH   6   7
ATOM      7  N   UNL     1       9.303   6.672   5.636  1.00  0.00    -0.344 N 
ATOM      8  C   UNL     1      10.366   6.014   5.056  1.00  0.00     0.226 C 
ATOM      9  O   UNL     1      10.895   5.034   5.567  1.00  0.00    -0.275 OA
ATOM     10  H   UNL     1       8.936   7.518   5.218  1.00  0.00     0.164 HD
BRANCH   8  11
ATOM     11  C   UNL     1      10.805   6.591   3.721  1.00  0.00     0.109 C 
ATOM     12  C   UNL     1      10.921   5.478   2.680  1.00  0.00     0.021 C 
BRANCH  11  13
ATOM     13  C   UNL     1       9.875   7.756   3.325  1.00  0.00     0.204 C 
BRANCH  13  14
ATOM     14  N   UNL     1      10.577   9.043   3.316  1.00  0.00    -0.340 N 
ATOM     15  C   UNL     1      10.724   9.823   4.442  1.00  0.00     0.243 C 
ATOM     16  O   UNL     1      10.329   9.465   5.550  1.00  0.00    -0.273 OA
ATOM     17  H   UNL     1      10.793   9.465   2.409  1.00  0.00     0.164 HD
BRANCH  15  18
ATOM     18  C   UNL     1      11.312  11.226   4.150  1.00  0.00     0.171 C 
BRANCH  18  19
ATOM     19  N   UNL     1      12.763  11.107   4.283  1.00  0.00    -0.343 N 
ATOM     20  C   UNL     1      13.503  12.007   5.026  1.00  0.00     0.242 CG0
ATOM     21  O   UNL     1      12.995  13.022   5.498  1.00  0.00    -0.273 OA
ATOM     22  H   UNL     1      13.245  10.349   3.814  1.00  0.00     0.164 HD
ATOM     23  G   UNL     1      15.006  11.675   5.115  1.00  0.00     0.000 G0
ENDBRANCH  18  19
BRANCH  18  24
ATOM     24  C   UNL     1      10.913  11.699   2.747  1.00  0.00     0.038 C 
BRANCH  24  25
ATOM     25  C   UNL     1      10.968  13.228   2.543  1.00  0.00    -0.015 C 
ATOM     26  C   UNL     1      10.088  13.984   3.539  1.00  0.00     0.007 C 
ATOM     27  C   UNL     1      10.540  13.572   1.114  1.00  0.00     0.007 C 
ENDBRANCH  24  25
ENDBRANCH  18  24
ENDBRANCH  15  18
ENDBRANCH  13  14
BRANCH  13  28
ATOM     28  C   UNL     1       9.238   7.576   1.944  1.00  0.00     0.327 C 
ATOM     29  O   UNL     1       9.820   7.602   0.870  1.00  0.00    -0.250 OA
BRANCH  28  30
ATOM     30  O   UNL     1       7.893   7.493   1.989  1.00  0.00    -0.480 OA
ATOM     31  H   UNL     1       7.596   7.936   1.167  1.00  0.00     0.296 HD
ENDBRANCH  28  30
ENDBRANCH  13  28
ENDBRANCH  11  13
ENDBRANCH   8  11
ENDBRANCH   6   7
BRANCH   6  32
ATOM     32  C   UNL     1       9.178   7.088   8.073  1.00  0.00     0.037 C 
BRANCH  32  33
ATOM     33  C   UNL     1       8.545   6.660   9.404  1.00  0.00     0.026 C 
BRANCH  33  34
ATOM     34  C   UNL     1       8.205   7.851  10.300  1.00  0.00     0.146 C 
BRANCH  34  35
ATOM     35  N   UNL     1       9.250   8.856  10.163  1.00  0.00    -0.254 NA
ATOM     36  C   UNL     1       9.024  10.040  10.595  1.00  0.00     0.185 C 
ATOM     37  N   UNL     1       9.982  10.973  10.478  1.00  0.00    -0.370 N 
ATOM     38  N   UNL     1       7.916  10.529  11.181  1.00  0.00    -0.370 N 
ATOM     39  H   UNL     1      10.853  10.679  10.055  1.00  0.00     0.159 HD
ATOM     40  H   UNL     1       9.949  11.865  10.942  1.00  0.00     0.159 HD
ATOM     41  H   UNL     1       7.808  11.515  11.350  1.00  0.00     0.159 HD
ATOM     42  H   UNL     1       7.108   9.942  11.319  1.00  0.00     0.159 HD
ENDBRANCH  34  35
ENDBRANCH  33  34
ENDBRANCH  32  33
ENDBRANCH   6  32
ENDBRANCH   4   6
ENDBRANCH   1   2
BRANCH   1  43
ATOM     43  C   UNL     1       4.886   3.630   7.879  1.00  0.00     0.102 C 
ATOM     44  C   UNL     1       5.012   4.219   9.294  1.00  0.00     0.020 C 
BRANCH  43  45
ATOM     45  C   UNL     1       5.672   2.332   7.674  1.00  0.00     0.225 C 
ATOM     46  O   UNL     1       6.884   2.305   7.479  1.00  0.00    -0.275 OA
ATOM     47  N   UNL     1       4.916   1.183   7.627  1.00  0.00    -0.342 N 
ATOM     48  H   UNL     1       3.954   1.204   7.937  1.00  0.00     0.164 HD
BRANCH  47  49
ATOM     49  C   UNL     1       5.536  -0.136   7.472  1.00  0.00     0.192 C 
BRANCH  49  50
ATOM     50  C   UNL     1       4.641  -1.027   6.606  1.00  0.00     0.047 C 
BRANCH  50  51
ATOM     51  C   UNL     1       5.001  -2.513   6.733  1.00  0.00     0.103 C 
BRANCH  51  52
ATOM     52  C   UNL     1       5.605  -3.069   5.444  1.00  0.00     0.226 C 
ATOM     53  O   UNL     1       6.041  -2.294   4.591  1.00  0.00    -0.275 OA
BRANCH  52  54
ATOM     54  N   UNL     1       5.694  -4.470   5.347  1.00  0.00    -0.311 N 
ATOM     55  C   UNL     1       6.661  -5.224   6.155  1.00  0.00     0.153 C 
BRANCH  54  56
ATOM     56  C   UNL     1       4.860  -5.199   4.482  1.00  0.00     0.102 C 
ATOM     57  C   UNL     1       5.290  -5.976   3.475  1.00  0.00     0.043 C 
BRANCH  56  58
ATOM     58  C   UNL     1       3.360  -5.192   4.664  1.00  0.00     0.268 C 
ATOM     59  O   UNL     1       2.589  -4.718   3.841  1.00  0.00    -0.268 OA
ATOM     60  N   UNL     1       2.952  -5.830   5.810  1.00  0.00    -0.339 N 
ATOM     61  H   UNL     1       3.655  -6.188   6.446  1.00  0.00     0.164 HD
BRANCH  60  62
ATOM     62  C   UNL     1       1.539  -5.994   6.150  1.00  0.00     0.168 CG0
ATOM     63  C   UNL     1       1.257  -7.406   6.648  1.00  0.00     0.041 C 
ATOM     64  G   UNL     1       0.670  -5.666   4.918  1.00  0.00     0.000 G0
ENDBRANCH  60  62
ENDBRANCH  56  58
ENDBRANCH  54  56
ENDBRANCH  52  54
ENDBRANCH  51  52
ENDBRANCH  50  51
ENDBRANCH  49  50
BRANCH  49  65
ATOM     65  C   UNL     1       5.768  -0.817   8.830  1.00  0.00     0.326 C 
ATOM     66  O   UNL     1       6.801  -1.367   9.182  1.00  0.00    -0.250 OA
BRANCH  65  67
ATOM     67  O   UNL     1       4.691  -0.828   9.646  1.00  0.00    -0.480 OA
ATOM     68  H   UNL     1       4.927  -1.491  10.331  1.00  0.00     0.296 HD
ENDBRANCH  65  67
ENDBRANCH  49  65
ENDBRANCH  47  49
ENDBRANCH  43  45
ENDBRANCH   1  43
BRANCH   1  69
ATOM     69  C   UNL     1       4.834   4.306   5.320  1.00  0.00    -0.001 C 
ATOM     70  C   UNL     1       5.175   4.974   4.204  1.00  0.00     0.001 C 
BRANCH  70  71
ATOM     71  C   UNL     1       4.836   4.614   2.825  1.00  0.00    -0.055 C 
ATOM     72  C   UNL     1       5.694   4.982   1.851  1.00  0.00    -0.018 C 
ATOM     73  C   UNL     1       3.558   3.850   2.593  1.00  0.00     0.044 C 
BRANCH  72  74
ATOM     74  C   UNL     1       5.607   4.747   0.350  1.00  0.00     0.038 C 
ATOM     75  C   UNL     1       6.790   3.851  -0.037  1.00  0.00     0.015 C 
BRANCH  74  76
ATOM     76  C   UNL     1       5.568   6.126  -0.372  1.00  0.00     0.128 C 
BRANCH  76  77
ATOM     77  O   UNL     1       6.035   5.985  -1.724  1.00  0.00    -0.381 OA
ATOM     78  C   UNL     1       6.218   7.223  -2.397  1.00  0.00     0.195 C 
ENDBRANCH  76  77
BRANCH  76  79
ATOM     79  C   UNL     1       4.198   6.844  -0.283  1.00  0.00     0.068 C 
BRANCH  79  80
ATOM     80  C   UNL     1       2.976   6.099  -0.762  1.00  0.00    -0.045 A 
ATOM     81  C   UNL     1       2.177   5.372   0.130  1.00  0.00     0.004 A 
ATOM     82  C   UNL     1       2.636   6.101  -2.124  1.00  0.00     0.004 A 
ATOM     83  C   UNL     1       1.056   4.673  -0.324  1.00  0.00     0.000 A 
ATOM     84  C   UNL     1       1.515   5.401  -2.577  1.00  0.00     0.000 A 
ATOM     85  C   UNL     1       0.725   4.689  -1.677  1.00  0.00     0.000 A 
ENDBRANCH  79  80
ENDBRANCH  76  79
ENDBRANCH  74  76
ENDBRANCH  72  74
ENDBRANCH  70  71
ENDBRANCH   1  69
TORSDOF 17
ENDMDL
MODEL 22
REMARK VINA RESULT:    -6.277      4.803      9.974
REMARK INTER + INTRA:         -24.669
REMARK INTER:                 -17.613
REMARK INTRA:                  -7.056
REMARK UNBOUND:                -5.916
REMARK SMILES C=C1C(=O)N[C@H](C)C(=O)N[C@@H](CC(C)C)C(=O)N[C@@H](C(=O)O)[C@H](C)C(=O)N[C@@H](CCCN=C(N)N)C(=O)N[C@@H](/C=C/C(C)=C/[C@H](C)[C@H](Cc2ccccc2)OC)[C@H](C)C(=O)N[C@@H](C(=O)O)CCC(=O)N1C
REMARK SMILES IDX 39 1 38 2 37 3 36 4 28 6 27 7 25 8 26 9 23 11 24 12 19 13
REMARK SMILES IDX 18 14 16 15 17 16 11 18 10 19 8 20 9 21 12 24 13 25 14 26
REMARK SMILES IDX 15 27 20 28 21 29 22 30 29 32 30 33 31 34 32 35 33 36 34 37
REMARK SMILES IDX 35 38 57 43 58 44 59 45 60 46 61 47 62 49 66 50 67 51 68 52
REMARK SMILES IDX 69 53 70 54 71 55 2 56 1 57 3 58 4 59 5 60 6 62 7 63 63 65
REMARK SMILES IDX 64 66 65 67 40 69 41 70 42 71 44 72 43 73 45 74 46 75 47 76
REMARK SMILES IDX 55 77 56 78 48 79 49 80 50 81 54 82 51 83 53 84 52 85
REMARK H PARENT 38 5 27 10 18 17 10 22 22 31 34 39 34 40 35 41 35 42 61 48
REMARK H PARENT 5 61 65 68
REMARK Flexibility Score:  369.900
ROOT
ATOM      1  C   UNL     1       6.799   0.263   7.656  1.00  0.00     0.117 C 
ENDROOT
BRANCH   1   2
ATOM      2  N   UNL     1       6.939   1.081   8.862  1.00  0.00    -0.347 N 
ATOM      3  O   UNL     1       8.712   2.362   8.165  1.00  0.00    -0.273 OA
ATOM      4  C   UNL     1       7.829   2.130   8.984  1.00  0.00     0.243 C 
ATOM      5  H   UNL     1       6.325   0.917   9.645  1.00  0.00     0.164 HD
BRANCH   4   6
ATOM      6  C   UNL     1       7.716   2.889  10.331  1.00  0.00     0.171 C 
BRANCH   6   7
ATOM      7  N   UNL     1       6.875   2.137  11.276  1.00  0.00    -0.344 N 
ATOM      8  C   UNL     1       5.509   2.316  11.297  1.00  0.00     0.226 C 
ATOM      9  O   UNL     1       4.936   3.111  10.561  1.00  0.00    -0.275 OA
ATOM     10  H   UNL     1       7.319   1.521  11.945  1.00  0.00     0.164 HD
BRANCH   8  11
ATOM     11  C   UNL     1       4.776   1.429  12.288  1.00  0.00     0.109 C 
ATOM     12  C   UNL     1       4.917  -0.038  11.884  1.00  0.00     0.021 C 
BRANCH  11  13
ATOM     13  C   UNL     1       5.242   1.755  13.722  1.00  0.00     0.204 C 
BRANCH  13  14
ATOM     14  N   UNL     1       4.118   1.844  14.659  1.00  0.00    -0.340 N 
ATOM     15  C   UNL     1       3.881   2.955  15.440  1.00  0.00     0.243 C 
ATOM     16  O   UNL     1       4.562   3.975  15.360  1.00  0.00    -0.273 OA
ATOM     17  H   UNL     1       3.610   0.984  14.883  1.00  0.00     0.164 HD
BRANCH  15  18
ATOM     18  C   UNL     1       2.771   2.742  16.498  1.00  0.00     0.171 C 
BRANCH  18  19
ATOM     19  N   UNL     1       3.348   1.907  17.549  1.00  0.00    -0.343 N 
ATOM     20  C   UNL     1       2.690   0.797  18.043  1.00  0.00     0.242 CG0
ATOM     21  O   UNL     1       1.534   0.537  17.717  1.00  0.00    -0.273 OA
ATOM     22  H   UNL     1       4.254   2.148  17.934  1.00  0.00     0.164 HD
ATOM     23  G   UNL     1       3.489  -0.004  19.091  1.00  0.00     0.000 G0
ENDBRANCH  18  19
BRANCH  18  24
ATOM     24  C   UNL     1       2.286   4.087  17.052  1.00  0.00     0.038 C 
BRANCH  24  25
ATOM     25  C   UNL     1       1.007   4.636  16.383  1.00  0.00    -0.015 C 
ATOM     26  C   UNL     1       0.160   5.475  17.341  1.00  0.00     0.007 C 
ATOM     27  C   UNL     1       0.172   3.475  15.839  1.00  0.00     0.007 C 
ENDBRANCH  24  25
ENDBRANCH  18  24
ENDBRANCH  15  18
ENDBRANCH  13  14
BRANCH  13  28
ATOM     28  C   UNL     1       6.223   0.723  14.286  1.00  0.00     0.327 C 
ATOM     29  O   UNL     1       5.963  -0.155  15.095  1.00  0.00    -0.250 OA
BRANCH  28  30
ATOM     30  O   UNL     1       7.495   0.933  13.892  1.00  0.00    -0.480 OA
ATOM     31  H   UNL     1       8.033   0.409  14.522  1.00  0.00     0.296 HD
ENDBRANCH  28  30
ENDBRANCH  13  28
ENDBRANCH  11  13
ENDBRANCH   8  11
ENDBRANCH   6   7
BRANCH   6  32
ATOM     32  C   UNL     1       9.121   3.108  10.904  1.00  0.00     0.037 C 
BRANCH  32  33
ATOM     33  C   UNL     1       9.316   4.538  11.428  1.00  0.00     0.026 C 
BRANCH  33  34
ATOM     34  C   UNL     1       8.385   5.542  10.747  1.00  0.00     0.146 C 
BRANCH  34  35
ATOM     35  N   UNL     1       9.193   6.564  10.094  1.00  0.00    -0.254 NA
ATOM     36  C   UNL     1       9.463   6.430   8.850  1.00  0.00     0.185 C 
ATOM     37  N   UNL     1      10.202   7.368   8.237  1.00  0.00    -0.370 N 
ATOM     38  N   UNL     1       9.105   5.444   8.008  1.00  0.00    -0.370 N 
ATOM     39  H   UNL     1      10.503   8.151   8.803  1.00  0.00     0.159 HD
ATOM     40  H   UNL     1      10.310   7.427   7.239  1.00  0.00     0.159 HD
ATOM     41  H   UNL     1       9.497   5.381   7.083  1.00  0.00     0.159 HD
ATOM     42  H   UNL     1       8.559   4.663   8.337  1.00  0.00     0.159 HD
ENDBRANCH  34  35
ENDBRANCH  33  34
ENDBRANCH  32  33
ENDBRANCH   6  32
ENDBRANCH   4   6
ENDBRANCH   1   2
BRANCH   1  43
ATOM     43  C   UNL     1       5.335   0.384   7.144  1.00  0.00     0.102 C 
ATOM     44  C   UNL     1       4.916  -0.766   6.212  1.00  0.00     0.020 C 
BRANCH  43  45
ATOM     45  C   UNL     1       5.067   1.778   6.570  1.00  0.00     0.225 C 
ATOM     46  O   UNL     1       5.302   2.080   5.403  1.00  0.00    -0.275 OA
ATOM     47  N   UNL     1       4.626   2.717   7.475  1.00  0.00    -0.342 N 
ATOM     48  H   UNL     1       4.296   2.420   8.382  1.00  0.00     0.164 HD
BRANCH  47  49
ATOM     49  C   UNL     1       4.295   4.083   7.061  1.00  0.00     0.192 C 
BRANCH  49  50
ATOM     50  C   UNL     1       5.495   5.001   7.308  1.00  0.00     0.047 C 
BRANCH  50  51
ATOM     51  C   UNL     1       5.848   5.842   6.074  1.00  0.00     0.103 C 
BRANCH  51  52
ATOM     52  C   UNL     1       6.916   5.174   5.210  1.00  0.00     0.226 C 
ATOM     53  O   UNL     1       7.621   4.285   5.691  1.00  0.00    -0.275 OA
BRANCH  52  54
ATOM     54  N   UNL     1       6.975   5.577   3.863  1.00  0.00    -0.311 N 
ATOM     55  C   UNL     1       7.911   6.622   3.427  1.00  0.00     0.153 C 
BRANCH  54  56
ATOM     56  C   UNL     1       6.150   4.994   2.887  1.00  0.00     0.102 C 
ATOM     57  C   UNL     1       4.904   4.542   3.105  1.00  0.00     0.043 C 
BRANCH  56  58
ATOM     58  C   UNL     1       6.612   4.871   1.454  1.00  0.00     0.268 C 
ATOM     59  O   UNL     1       7.582   4.205   1.119  1.00  0.00    -0.268 OA
ATOM     60  N   UNL     1       5.795   5.526   0.565  1.00  0.00    -0.339 N 
ATOM     61  H   UNL     1       5.016   6.065   0.925  1.00  0.00     0.164 HD
BRANCH  60  62
ATOM     62  C   UNL     1       6.023   5.485  -0.879  1.00  0.00     0.168 CG0
ATOM     63  C   UNL     1       6.414   6.859  -1.410  1.00  0.00     0.041 C 
ATOM     64  G   UNL     1       4.754   4.967  -1.588  1.00  0.00     0.000 G0
ENDBRANCH  60  62
ENDBRANCH  56  58
ENDBRANCH  54  56
ENDBRANCH  52  54
ENDBRANCH  51  52
ENDBRANCH  50  51
ENDBRANCH  49  50
BRANCH  49  65
ATOM     65  C   UNL     1       3.075   4.626   7.822  1.00  0.00     0.326 C 
ATOM     66  O   UNL     1       2.510   5.686   7.596  1.00  0.00    -0.250 OA
BRANCH  65  67
ATOM     67  O   UNL     1       2.665   3.855   8.854  1.00  0.00    -0.480 OA
ATOM     68  H   UNL     1       3.233   4.145   9.600  1.00  0.00     0.296 HD
ENDBRANCH  65  67
ENDBRANCH  49  65
ENDBRANCH  47  49
ENDBRANCH  43  45
ENDBRANCH   1  43
BRANCH   1  69
ATOM     69  C   UNL     1       7.341  -1.110   8.010  1.00  0.00    -0.001 C 
ATOM     70  C   UNL     1       8.630  -1.475   8.124  1.00  0.00     0.001 C 
BRANCH  70  71
ATOM     71  C   UNL     1       9.141  -2.798   8.488  1.00  0.00    -0.055 C 
ATOM     72  C   UNL     1       9.984  -3.404   7.626  1.00  0.00    -0.018 C 
ATOM     73  C   UNL     1       8.695  -3.387   9.801  1.00  0.00     0.044 C 
BRANCH  72  74
ATOM     74  C   UNL     1      10.666  -4.760   7.737  1.00  0.00     0.038 C 
ATOM     75  C   UNL     1      12.160  -4.539   7.473  1.00  0.00     0.015 C 
BRANCH  74  76
ATOM     76  C   UNL     1       9.970  -5.753   6.761  1.00  0.00     0.128 C 
BRANCH  76  77
ATOM     77  O   UNL     1      10.767  -6.940   6.616  1.00  0.00    -0.381 OA
ATOM     78  C   UNL     1      10.532  -7.912   7.626  1.00  0.00     0.195 C 
ENDBRANCH  76  77
BRANCH  76  79
ATOM     79  C   UNL     1       8.495  -6.062   7.122  1.00  0.00     0.068 C 
BRANCH  79  80
ATOM     80  C   UNL     1       7.426  -5.662   6.134  1.00  0.00    -0.045 A 
ATOM     81  C   UNL     1       6.656  -4.508   6.332  1.00  0.00     0.004 A 
ATOM     82  C   UNL     1       7.167  -6.461   5.010  1.00  0.00     0.004 A 
ATOM     83  C   UNL     1       5.659  -4.153   5.420  1.00  0.00     0.000 A 
ATOM     84  C   UNL     1       6.170  -6.105   4.100  1.00  0.00     0.000 A 
ATOM     85  C   UNL     1       5.417  -4.951   4.304  1.00  0.00     0.000 A 
ENDBRANCH  79  80
ENDBRANCH  76  79
ENDBRANCH  74  76
ENDBRANCH  72  74
ENDBRANCH  70  71
ENDBRANCH   1  69
TORSDOF 17
ENDMDL
MODEL 23
REMARK VINA RESULT:    -6.244      4.869      9.866
REMARK INTER + INTRA:         -24.571
REMARK INTER:                 -16.210
REMARK INTRA:                  -8.361
REMARK UNBOUND:                -5.916
REMARK SMILES C=C1C(=O)N[C@H](C)C(=O)N[C@@H](CC(C)C)C(=O)N[C@@H](C(=O)O)[C@H](C)C(=O)N[C@@H](CCCN=C(N)N)C(=O)N[C@@H](/C=C/C(C)=C/[C@H](C)[C@H](Cc2ccccc2)OC)[C@H](C)C(=O)N[C@@H](C(=O)O)CCC(=O)N1C
REMARK SMILES IDX 39 1 38 2 37 3 36 4 28 6 27 7 25 8 26 9 23 11 24 12 19 13
REMARK SMILES IDX 18 14 16 15 17 16 11 18 10 19 8 20 9 21 12 24 13 25 14 26
REMARK SMILES IDX 15 27 20 28 21 29 22 30 29 32 30 33 31 34 32 35 33 36 34 37
REMARK SMILES IDX 35 38 57 43 58 44 59 45 60 46 61 47 62 49 66 50 67 51 68 52
REMARK SMILES IDX 69 53 70 54 71 55 2 56 1 57 3 58 4 59 5 60 6 62 7 63 63 65
REMARK SMILES IDX 64 66 65 67 40 69 41 70 42 71 44 72 43 73 45 74 46 75 47 76
REMARK SMILES IDX 55 77 56 78 48 79 49 80 50 81 54 82 51 83 53 84 52 85
REMARK H PARENT 38 5 27 10 18 17 10 22 22 31 34 39 34 40 35 41 35 42 61 48
REMARK H PARENT 5 61 65 68
REMARK Flexibility Score:  369.900
ROOT
ATOM      1  C   UNL     1       6.564   5.677   8.924  1.00  0.00     0.117 C 
ENDROOT
BRANCH   1   2
ATOM      2  N   UNL     1       5.882   4.404   9.155  1.00  0.00    -0.347 N 
ATOM      3  O   UNL     1       3.763   5.233   9.459  1.00  0.00    -0.273 OA
ATOM      4  C   UNL     1       4.515   4.276   9.314  1.00  0.00     0.243 C 
ATOM      5  H   UNL     1       6.417   3.549   9.154  1.00  0.00     0.164 HD
BRANCH   4   6
ATOM      6  C   UNL     1       4.039   2.808   9.458  1.00  0.00     0.171 C 
BRANCH   6   7
ATOM      7  N   UNL     1       5.179   1.924   9.749  1.00  0.00    -0.344 N 
ATOM      8  C   UNL     1       5.697   1.101   8.772  1.00  0.00     0.226 C 
ATOM      9  O   UNL     1       5.232   1.045   7.640  1.00  0.00    -0.275 OA
ATOM     10  H   UNL     1       5.548   1.892  10.691  1.00  0.00     0.164 HD
BRANCH   8  11
ATOM     11  C   UNL     1       6.905   0.291   9.212  1.00  0.00     0.109 C 
ATOM     12  C   UNL     1       8.034   1.225   9.648  1.00  0.00     0.021 C 
BRANCH  11  13
ATOM     13  C   UNL     1       6.479  -0.749  10.268  1.00  0.00     0.204 C 
BRANCH  13  14
ATOM     14  N   UNL     1       6.489  -0.193  11.625  1.00  0.00    -0.340 N 
ATOM     15  C   UNL     1       7.245  -0.727  12.646  1.00  0.00     0.243 C 
ATOM     16  O   UNL     1       8.012  -1.673  12.476  1.00  0.00    -0.273 OA
ATOM     17  H   UNL     1       5.767   0.490  11.870  1.00  0.00     0.164 HD
BRANCH  15  18
ATOM     18  C   UNL     1       6.937  -0.107  14.032  1.00  0.00     0.171 C 
BRANCH  18  19
ATOM     19  N   UNL     1       8.224   0.091  14.696  1.00  0.00    -0.343 N 
ATOM     20  C   UNL     1       8.376  -0.088  16.058  1.00  0.00     0.242 CG0
ATOM     21  O   UNL     1       7.412  -0.293  16.792  1.00  0.00    -0.273 OA
ATOM     22  H   UNL     1       9.028   0.375  14.148  1.00  0.00     0.164 HD
ATOM     23  G   UNL     1       9.822   0.089  16.565  1.00  0.00     0.000 G0
ENDBRANCH  18  19
BRANCH  18  24
ATOM     24  C   UNL     1       6.175   1.214  13.877  1.00  0.00     0.038 C 
BRANCH  24  25
ATOM     25  C   UNL     1       7.041   2.481  14.037  1.00  0.00    -0.015 C 
ATOM     26  C   UNL     1       6.532   3.403  15.146  1.00  0.00     0.007 C 
ATOM     27  C   UNL     1       7.086   3.245  12.712  1.00  0.00     0.007 C 
ENDBRANCH  24  25
ENDBRANCH  18  24
ENDBRANCH  15  18
ENDBRANCH  13  14
BRANCH  13  28
ATOM     28  C   UNL     1       5.079  -1.320  10.022  1.00  0.00     0.327 C 
ATOM     29  O   UNL     1       4.763  -2.104   9.140  1.00  0.00    -0.250 OA
BRANCH  28  30
ATOM     30  O   UNL     1       4.140  -0.781  10.825  1.00  0.00    -0.480 OA
ATOM     31  H   UNL     1       3.371  -1.382  10.735  1.00  0.00     0.296 HD
ENDBRANCH  28  30
ENDBRANCH  13  28
ENDBRANCH  11  13
ENDBRANCH   8  11
ENDBRANCH   6   7
BRANCH   6  32
ATOM     32  C   UNL     1       2.987   2.726  10.569  1.00  0.00     0.037 C 
BRANCH  32  33
ATOM     33  C   UNL     1       3.621   2.558  11.957  1.00  0.00     0.026 C 
BRANCH  33  34
ATOM     34  C   UNL     1       3.260   3.700  12.907  1.00  0.00     0.146 C 
BRANCH  34  35
ATOM     35  N   UNL     1       1.983   3.400  13.539  1.00  0.00    -0.254 NA
ATOM     36  C   UNL     1       1.980   2.731  14.632  1.00  0.00     0.185 C 
ATOM     37  N   UNL     1       0.810   2.453  15.226  1.00  0.00    -0.370 N 
ATOM     38  N   UNL     1       3.023   2.236  15.322  1.00  0.00    -0.370 N 
ATOM     39  H   UNL     1      -0.025   2.802  14.772  1.00  0.00     0.159 HD
ATOM     40  H   UNL     1       0.732   2.091  16.161  1.00  0.00     0.159 HD
ATOM     41  H   UNL     1       2.885   1.606  16.095  1.00  0.00     0.159 HD
ATOM     42  H   UNL     1       3.965   2.356  14.983  1.00  0.00     0.159 HD
ENDBRANCH  34  35
ENDBRANCH  33  34
ENDBRANCH  32  33
ENDBRANCH   6  32
ENDBRANCH   4   6
ENDBRANCH   1   2
BRANCH   1  43
ATOM     43  C   UNL     1       7.515   5.515   7.704  1.00  0.00     0.102 C 
ATOM     44  C   UNL     1       7.917   6.853   7.059  1.00  0.00     0.020 C 
BRANCH  43  45
ATOM     45  C   UNL     1       6.966   4.487   6.711  1.00  0.00     0.225 C 
ATOM     46  O   UNL     1       7.389   3.337   6.632  1.00  0.00    -0.275 OA
ATOM     47  N   UNL     1       6.018   4.960   5.832  1.00  0.00    -0.342 N 
ATOM     48  H   UNL     1       5.576   5.852   6.006  1.00  0.00     0.164 HD
BRANCH  47  49
ATOM     49  C   UNL     1       5.378   4.081   4.849  1.00  0.00     0.192 C 
BRANCH  49  50
ATOM     50  C   UNL     1       5.272   4.804   3.504  1.00  0.00     0.047 C 
BRANCH  50  51
ATOM     51  C   UNL     1       6.524   4.608   2.638  1.00  0.00     0.103 C 
BRANCH  51  52
ATOM     52  C   UNL     1       7.390   5.865   2.590  1.00  0.00     0.226 C 
ATOM     53  O   UNL     1       7.636   6.477   3.631  1.00  0.00    -0.275 OA
BRANCH  52  54
ATOM     54  N   UNL     1       7.926   6.209   1.335  1.00  0.00    -0.311 N 
ATOM     55  C   UNL     1       9.129   7.045   1.230  1.00  0.00     0.153 C 
BRANCH  54  56
ATOM     56  C   UNL     1       7.337   5.763   0.140  1.00  0.00     0.102 C 
ATOM     57  C   UNL     1       7.576   4.574  -0.437  1.00  0.00     0.043 C 
BRANCH  56  58
ATOM     58  C   UNL     1       6.318   6.610  -0.585  1.00  0.00     0.268 C 
ATOM     59  O   UNL     1       5.207   6.852  -0.135  1.00  0.00    -0.268 OA
ATOM     60  N   UNL     1       6.791   7.131  -1.766  1.00  0.00    -0.339 N 
ATOM     61  H   UNL     1       7.720   6.874  -2.075  1.00  0.00     0.164 HD
BRANCH  60  62
ATOM     62  C   UNL     1       5.990   8.030  -2.596  1.00  0.00     0.168 CG0
ATOM     63  C   UNL     1       5.222   7.254  -3.659  1.00  0.00     0.041 C 
ATOM     64  G   UNL     1       6.906   9.087  -3.247  1.00  0.00     0.000 G0
ENDBRANCH  60  62
ENDBRANCH  56  58
ENDBRANCH  54  56
ENDBRANCH  52  54
ENDBRANCH  51  52
ENDBRANCH  50  51
ENDBRANCH  49  50
BRANCH  49  65
ATOM     65  C   UNL     1       3.976   3.647   5.305  1.00  0.00     0.326 C 
ATOM     66  O   UNL     1       3.273   4.245   6.107  1.00  0.00    -0.250 OA
BRANCH  65  67
ATOM     67  O   UNL     1       3.554   2.471   4.790  1.00  0.00    -0.480 OA
ATOM     68  H   UNL     1       3.302   2.700   3.869  1.00  0.00     0.296 HD
ENDBRANCH  65  67
ENDBRANCH  49  65
ENDBRANCH  47  49
ENDBRANCH  43  45
ENDBRANCH   1  43
BRANCH   1  69
ATOM     69  C   UNL     1       7.150   6.094  10.261  1.00  0.00    -0.001 C 
ATOM     70  C   UNL     1       7.172   7.328  10.795  1.00  0.00     0.001 C 
BRANCH  70  71
ATOM     71  C   UNL     1       7.722   7.713  12.096  1.00  0.00    -0.055 C 
ATOM     72  C   UNL     1       7.159   7.177  13.199  1.00  0.00    -0.018 C 
ATOM     73  C   UNL     1       8.882   8.675  12.111  1.00  0.00     0.044 C 
BRANCH  72  74
ATOM     74  C   UNL     1       7.516   7.389  14.663  1.00  0.00     0.038 C 
ATOM     75  C   UNL     1       8.672   6.435  14.989  1.00  0.00     0.015 C 
BRANCH  74  76
ATOM     76  C   UNL     1       6.237   7.183  15.526  1.00  0.00     0.128 C 
BRANCH  76  77
ATOM     77  O   UNL     1       5.987   8.355  16.321  1.00  0.00    -0.381 OA
ATOM     78  C   UNL     1       6.349   8.207  17.687  1.00  0.00     0.195 C 
ENDBRANCH  76  77
BRANCH  76  79
ATOM     79  C   UNL     1       4.996   6.732  14.715  1.00  0.00     0.068 C 
BRANCH  79  80
ATOM     80  C   UNL     1       3.766   6.308  15.481  1.00  0.00    -0.045 A 
ATOM     81  C   UNL     1       2.490   6.733  15.090  1.00  0.00     0.004 A 
ATOM     82  C   UNL     1       3.887   5.499  16.621  1.00  0.00     0.004 A 
ATOM     83  C   UNL     1       1.358   6.348  15.812  1.00  0.00     0.000 A 
ATOM     84  C   UNL     1       2.755   5.115  17.343  1.00  0.00     0.000 A 
ATOM     85  C   UNL     1       1.492   5.538  16.938  1.00  0.00     0.000 A 
ENDBRANCH  79  80
ENDBRANCH  76  79
ENDBRANCH  74  76
ENDBRANCH  72  74
ENDBRANCH  70  71
ENDBRANCH   1  69
TORSDOF 17
ENDMDL
MODEL 24
REMARK VINA RESULT:    -6.195      5.557      9.356
REMARK INTER + INTRA:         -24.425
REMARK INTER:                 -17.329
REMARK INTRA:                  -7.096
REMARK UNBOUND:                -5.916
REMARK SMILES C=C1C(=O)N[C@H](C)C(=O)N[C@@H](CC(C)C)C(=O)N[C@@H](C(=O)O)[C@H](C)C(=O)N[C@@H](CCCN=C(N)N)C(=O)N[C@@H](/C=C/C(C)=C/[C@H](C)[C@H](Cc2ccccc2)OC)[C@H](C)C(=O)N[C@@H](C(=O)O)CCC(=O)N1C
REMARK SMILES IDX 39 1 38 2 37 3 36 4 28 6 27 7 25 8 26 9 23 11 24 12 19 13
REMARK SMILES IDX 18 14 16 15 17 16 11 18 10 19 8 20 9 21 12 24 13 25 14 26
REMARK SMILES IDX 15 27 20 28 21 29 22 30 29 32 30 33 31 34 32 35 33 36 34 37
REMARK SMILES IDX 35 38 57 43 58 44 59 45 60 46 61 47 62 49 66 50 67 51 68 52
REMARK SMILES IDX 69 53 70 54 71 55 2 56 1 57 3 58 4 59 5 60 6 62 7 63 63 65
REMARK SMILES IDX 64 66 65 67 40 69 41 70 42 71 44 72 43 73 45 74 46 75 47 76
REMARK SMILES IDX 55 77 56 78 48 79 49 80 50 81 54 82 51 83 53 84 52 85
REMARK H PARENT 38 5 27 10 18 17 10 22 22 31 34 39 34 40 35 41 35 42 61 48
REMARK H PARENT 5 61 65 68
REMARK Flexibility Score:  369.900
ROOT
ATOM      1  C   UNL     1       4.575   1.525  11.746  1.00  0.00     0.117 C 
ENDROOT
BRANCH   1   2
ATOM      2  N   UNL     1       4.644   0.486  10.718  1.00  0.00    -0.347 N 
ATOM      3  O   UNL     1       5.284  -1.252  12.073  1.00  0.00    -0.273 OA
ATOM      4  C   UNL     1       4.906  -0.845  10.980  1.00  0.00     0.243 C 
ATOM      5  H   UNL     1       4.444   0.726   9.758  1.00  0.00     0.164 HD
BRANCH   4   6
ATOM      6  C   UNL     1       4.836  -1.752   9.725  1.00  0.00     0.171 C 
BRANCH   6   7
ATOM      7  N   UNL     1       3.523  -2.412   9.640  1.00  0.00    -0.344 N 
ATOM      8  C   UNL     1       3.393  -3.640   9.029  1.00  0.00     0.226 C 
ATOM      9  O   UNL     1       4.338  -4.226   8.514  1.00  0.00    -0.275 OA
ATOM     10  H   UNL     1       2.707  -1.929   9.994  1.00  0.00     0.164 HD
BRANCH   8  11
ATOM     11  C   UNL     1       1.987  -4.214   9.071  1.00  0.00     0.109 C 
ATOM     12  C   UNL     1       1.059  -3.274   9.840  1.00  0.00     0.021 C 
BRANCH  11  13
ATOM     13  C   UNL     1       1.522  -4.558   7.642  1.00  0.00     0.204 C 
BRANCH  13  14
ATOM     14  N   UNL     1       2.043  -5.851   7.189  1.00  0.00    -0.340 N 
ATOM     15  C   UNL     1       2.733  -6.007   6.006  1.00  0.00     0.243 C 
ATOM     16  O   UNL     1       3.013  -5.059   5.275  1.00  0.00    -0.273 OA
ATOM     17  H   UNL     1       1.717  -6.695   7.667  1.00  0.00     0.164 HD
BRANCH  15  18
ATOM     18  C   UNL     1       3.001  -7.487   5.637  1.00  0.00     0.171 C 
BRANCH  18  19
ATOM     19  N   UNL     1       2.075  -7.824   4.558  1.00  0.00    -0.343 N 
ATOM     20  C   UNL     1       0.791  -8.266   4.811  1.00  0.00     0.242 CG0
ATOM     21  O   UNL     1       0.413  -8.524   5.952  1.00  0.00    -0.273 OA
ATOM     22  H   UNL     1       2.380  -7.738   3.595  1.00  0.00     0.164 HD
ATOM     23  G   UNL     1      -0.065  -8.496   3.549  1.00  0.00     0.000 G0
ENDBRANCH  18  19
BRANCH  18  24
ATOM     24  C   UNL     1       4.460  -7.681   5.205  1.00  0.00     0.038 C 
BRANCH  24  25
ATOM     25  C   UNL     1       4.653  -7.998   3.707  1.00  0.00    -0.015 C 
ATOM     26  C   UNL     1       5.114  -9.436   3.467  1.00  0.00     0.007 C 
ATOM     27  C   UNL     1       5.666  -7.024   3.101  1.00  0.00     0.007 C 
ENDBRANCH  24  25
ENDBRANCH  18  24
ENDBRANCH  15  18
ENDBRANCH  13  14
BRANCH  13  28
ATOM     28  C   UNL     1      -0.003  -4.608   7.499  1.00  0.00     0.327 C 
ATOM     29  O   UNL     1      -0.738  -5.495   7.905  1.00  0.00    -0.250 OA
BRANCH  28  30
ATOM     30  O   UNL     1      -0.497  -3.601   6.752  1.00  0.00    -0.480 OA
ATOM     31  H   UNL     1      -1.371  -3.411   7.151  1.00  0.00     0.296 HD
ENDBRANCH  28  30
ENDBRANCH  13  28
ENDBRANCH  11  13
ENDBRANCH   8  11
ENDBRANCH   6   7
BRANCH   6  32
ATOM     32  C   UNL     1       5.105  -0.906   8.476  1.00  0.00     0.037 C 
BRANCH  32  33
ATOM     33  C   UNL     1       6.600  -0.834   8.137  1.00  0.00     0.026 C 
BRANCH  33  34
ATOM     34  C   UNL     1       6.897  -1.277   6.703  1.00  0.00     0.146 C 
BRANCH  34  35
ATOM     35  N   UNL     1       6.853  -2.731   6.643  1.00  0.00    -0.254 NA
ATOM     36  C   UNL     1       6.042  -3.288   5.822  1.00  0.00     0.185 C 
ATOM     37  N   UNL     1       5.996  -4.627   5.754  1.00  0.00    -0.370 N 
ATOM     38  N   UNL     1       5.179  -2.712   4.966  1.00  0.00    -0.370 N 
ATOM     39  H   UNL     1       6.627  -5.134   6.362  1.00  0.00     0.159 HD
ATOM     40  H   UNL     1       5.522  -5.131   5.024  1.00  0.00     0.159 HD
ATOM     41  H   UNL     1       4.493  -3.259   4.471  1.00  0.00     0.159 HD
ATOM     42  H   UNL     1       5.094  -1.708   4.921  1.00  0.00     0.159 HD
ENDBRANCH  34  35
ENDBRANCH  33  34
ENDBRANCH  32  33
ENDBRANCH   6  32
ENDBRANCH   4   6
ENDBRANCH   1   2
BRANCH   1  43
ATOM     43  C   UNL     1       3.106   2.027  11.845  1.00  0.00     0.102 C 
ATOM     44  C   UNL     1       2.611   2.728  10.568  1.00  0.00     0.020 C 
BRANCH  43  45
ATOM     45  C   UNL     1       2.887   2.840  13.124  1.00  0.00     0.225 C 
ATOM     46  O   UNL     1       2.769   4.062  13.131  1.00  0.00    -0.275 OA
ATOM     47  N   UNL     1       2.924   2.120  14.297  1.00  0.00    -0.342 N 
ATOM     48  H   UNL     1       2.869   1.112  14.266  1.00  0.00     0.164 HD
BRANCH  47  49
ATOM     49  C   UNL     1       2.694   2.759  15.596  1.00  0.00     0.192 C 
BRANCH  49  50
ATOM     50  C   UNL     1       3.503   2.036  16.675  1.00  0.00     0.047 C 
BRANCH  50  51
ATOM     51  C   UNL     1       4.965   2.502  16.718  1.00  0.00     0.103 C 
BRANCH  51  52
ATOM     52  C   UNL     1       5.079   4.019  16.860  1.00  0.00     0.226 C 
ATOM     53  O   UNL     1       4.321   4.619  17.625  1.00  0.00    -0.275 OA
BRANCH  52  54
ATOM     54  N   UNL     1       6.120   4.639  16.145  1.00  0.00    -0.311 N 
ATOM     55  C   UNL     1       7.525   4.313  16.420  1.00  0.00     0.153 C 
BRANCH  54  56
ATOM     56  C   UNL     1       5.856   5.585  15.141  1.00  0.00     0.102 C 
ATOM     57  C   UNL     1       5.930   5.346  13.821  1.00  0.00     0.043 C 
BRANCH  56  58
ATOM     58  C   UNL     1       5.408   6.984  15.492  1.00  0.00     0.268 C 
ATOM     59  O   UNL     1       4.802   7.709  14.714  1.00  0.00    -0.268 OA
ATOM     60  N   UNL     1       5.692   7.332  16.791  1.00  0.00    -0.339 N 
ATOM     61  H   UNL     1       6.207   6.678  17.369  1.00  0.00     0.164 HD
BRANCH  60  62
ATOM     62  C   UNL     1       5.291   8.618  17.359  1.00  0.00     0.168 CG0
ATOM     63  C   UNL     1       4.977   8.487  18.844  1.00  0.00     0.041 C 
ATOM     64  G   UNL     1       4.071   9.165  16.589  1.00  0.00     0.000 G0
ENDBRANCH  60  62
ENDBRANCH  56  58
ENDBRANCH  54  56
ENDBRANCH  52  54
ENDBRANCH  51  52
ENDBRANCH  50  51
ENDBRANCH  49  50
BRANCH  49  65
ATOM     65  C   UNL     1       1.207   2.745  15.980  1.00  0.00     0.326 C 
ATOM     66  O   UNL     1       0.732   2.201  16.966  1.00  0.00    -0.250 OA
BRANCH  65  67
ATOM     67  O   UNL     1       0.389   3.352  15.091  1.00  0.00    -0.480 OA
ATOM     68  H   UNL     1       0.914   3.360  14.262  1.00  0.00     0.296 HD
ENDBRANCH  65  67
ENDBRANCH  49  65
ENDBRANCH  47  49
ENDBRANCH  43  45
ENDBRANCH   1  43
BRANCH   1  69
ATOM     69  C   UNL     1       5.670   2.523  11.414  1.00  0.00    -0.001 C 
ATOM     70  C   UNL     1       6.292   2.691  10.234  1.00  0.00     0.001 C 
BRANCH  70  71
ATOM     71  C   UNL     1       7.333   3.673   9.920  1.00  0.00    -0.055 C 
ATOM     72  C   UNL     1       6.938   4.911   9.556  1.00  0.00    -0.018 C 
ATOM     73  C   UNL     1       8.769   3.233  10.033  1.00  0.00     0.044 C 
BRANCH  72  74
ATOM     74  C   UNL     1       7.784   6.120   9.181  1.00  0.00     0.038 C 
ATOM     75  C   UNL     1       7.754   7.081  10.375  1.00  0.00     0.015 C 
BRANCH  74  76
ATOM     76  C   UNL     1       7.242   6.716   7.848  1.00  0.00     0.128 C 
BRANCH  76  77
ATOM     77  O   UNL     1       8.281   6.724   6.855  1.00  0.00    -0.381 OA
ATOM     78  C   UNL     1       8.337   5.535   6.078  1.00  0.00     0.195 C 
ENDBRANCH  76  77
BRANCH  76  79
ATOM     79  C   UNL     1       5.937   6.049   7.345  1.00  0.00     0.068 C 
BRANCH  79  80
ATOM     80  C   UNL     1       4.626   6.718   7.681  1.00  0.00    -0.045 A 
ATOM     81  C   UNL     1       4.510   8.114   7.693  1.00  0.00     0.004 A 
ATOM     82  C   UNL     1       3.503   5.946   8.015  1.00  0.00     0.004 A 
ATOM     83  C   UNL     1       3.297   8.725   8.018  1.00  0.00     0.000 A 
ATOM     84  C   UNL     1       2.291   6.558   8.341  1.00  0.00     0.000 A 
ATOM     85  C   UNL     1       2.188   7.947   8.341  1.00  0.00     0.000 A 
ENDBRANCH  79  80
ENDBRANCH  76  79
ENDBRANCH  74  76
ENDBRANCH  72  74
ENDBRANCH  70  71
ENDBRANCH   1  69
TORSDOF 17
ENDMDL
MODEL 25
REMARK VINA RESULT:    -6.177      3.849     11.546
REMARK INTER + INTRA:         -24.371
REMARK INTER:                 -19.554
REMARK INTRA:                  -4.817
REMARK UNBOUND:                -5.916
REMARK SMILES C=C1C(=O)N[C@H](C)C(=O)N[C@@H](CC(C)C)C(=O)N[C@@H](C(=O)O)[C@H](C)C(=O)N[C@@H](CCCN=C(N)N)C(=O)N[C@@H](/C=C/C(C)=C/[C@H](C)[C@H](Cc2ccccc2)OC)[C@H](C)C(=O)N[C@@H](C(=O)O)CCC(=O)N1C
REMARK SMILES IDX 39 1 38 2 37 3 36 4 28 6 27 7 25 8 26 9 23 11 24 12 19 13
REMARK SMILES IDX 18 14 16 15 17 16 11 18 10 19 8 20 9 21 12 24 13 25 14 26
REMARK SMILES IDX 15 27 20 28 21 29 22 30 29 32 30 33 31 34 32 35 33 36 34 37
REMARK SMILES IDX 35 38 57 43 58 44 59 45 60 46 61 47 62 49 66 50 67 51 68 52
REMARK SMILES IDX 69 53 70 54 71 55 2 56 1 57 3 58 4 59 5 60 6 62 7 63 63 65
REMARK SMILES IDX 64 66 65 67 40 69 41 70 42 71 44 72 43 73 45 74 46 75 47 76
REMARK SMILES IDX 55 77 56 78 48 79 49 80 50 81 54 82 51 83 53 84 52 85
REMARK H PARENT 38 5 27 10 18 17 10 22 22 31 34 39 34 40 35 41 35 42 61 48
REMARK H PARENT 5 61 65 68
REMARK Flexibility Score:  369.900
ROOT
ATOM      1  C   UNL     1       5.127   2.519   7.630  1.00  0.00     0.117 C 
ENDROOT
BRANCH   1   2
ATOM      2  N   UNL     1       6.100   3.554   7.279  1.00  0.00    -0.347 N 
ATOM      3  O   UNL     1       5.440   3.878   5.104  1.00  0.00    -0.273 OA
ATOM      4  C   UNL     1       6.119   4.218   6.067  1.00  0.00     0.243 C 
ATOM      5  H   UNL     1       6.776   3.851   7.966  1.00  0.00     0.164 HD
BRANCH   4   6
ATOM      6  C   UNL     1       7.196   5.329   5.982  1.00  0.00     0.171 C 
BRANCH   6   7
ATOM      7  N   UNL     1       7.185   5.955   4.651  1.00  0.00    -0.344 N 
ATOM      8  C   UNL     1       8.311   6.579   4.158  1.00  0.00     0.226 C 
ATOM      9  O   UNL     1       9.353   6.663   4.798  1.00  0.00    -0.275 OA
ATOM     10  H   UNL     1       6.323   5.965   4.120  1.00  0.00     0.164 HD
BRANCH   8  11
ATOM     11  C   UNL     1       8.157   7.127   2.750  1.00  0.00     0.109 C 
ATOM     12  C   UNL     1       9.413   7.900   2.347  1.00  0.00     0.021 C 
BRANCH  11  13
ATOM     13  C   UNL     1       7.758   5.990   1.788  1.00  0.00     0.204 C 
BRANCH  13  14
ATOM     14  N   UNL     1       6.611   6.353   0.951  1.00  0.00    -0.340 N 
ATOM     15  C   UNL     1       5.553   5.500   0.720  1.00  0.00     0.243 C 
ATOM     16  O   UNL     1       5.469   4.394   1.251  1.00  0.00    -0.273 OA
ATOM     17  H   UNL     1       6.689   7.188   0.364  1.00  0.00     0.164 HD
BRANCH  15  18
ATOM     18  C   UNL     1       4.566   6.016  -0.356  1.00  0.00     0.171 C 
BRANCH  18  19
ATOM     19  N   UNL     1       5.204   5.790  -1.652  1.00  0.00    -0.343 N 
ATOM     20  C   UNL     1       5.488   6.831  -2.515  1.00  0.00     0.242 CG0
ATOM     21  O   UNL     1       5.098   7.975  -2.293  1.00  0.00    -0.273 OA
ATOM     22  H   UNL     1       5.442   4.845  -1.932  1.00  0.00     0.164 HD
ATOM     23  G   UNL     1       6.233   6.409  -3.798  1.00  0.00     0.000 G0
ENDBRANCH  18  19
BRANCH  18  24
ATOM     24  C   UNL     1       3.224   5.281  -0.255  1.00  0.00     0.038 C 
BRANCH  24  25
ATOM     25  C   UNL     1       1.990   6.146  -0.591  1.00  0.00    -0.015 C 
ATOM     26  C   UNL     1       1.555   6.004  -2.050  1.00  0.00     0.007 C 
ATOM     27  C   UNL     1       2.291   7.615  -0.284  1.00  0.00     0.007 C 
ENDBRANCH  24  25
ENDBRANCH  18  24
ENDBRANCH  15  18
ENDBRANCH  13  14
BRANCH  13  28
ATOM     28  C   UNL     1       8.892   5.570   0.848  1.00  0.00     0.327 C 
ATOM     29  O   UNL     1       9.888   4.933   1.156  1.00  0.00    -0.250 OA
BRANCH  28  30
ATOM     30  O   UNL     1       8.763   6.077  -0.395  1.00  0.00    -0.480 OA
ATOM     31  H   UNL     1       8.000   5.593  -0.775  1.00  0.00     0.296 HD
ENDBRANCH  28  30
ENDBRANCH  13  28
ENDBRANCH  11  13
ENDBRANCH   8  11
ENDBRANCH   6   7
BRANCH   6  32
ATOM     32  C   UNL     1       6.935   6.368   7.078  1.00  0.00     0.037 C 
BRANCH  32  33
ATOM     33  C   UNL     1       5.559   7.032   6.931  1.00  0.00     0.026 C 
BRANCH  33  34
ATOM     34  C   UNL     1       4.745   6.988   8.225  1.00  0.00     0.146 C 
BRANCH  34  35
ATOM     35  N   UNL     1       3.900   8.172   8.290  1.00  0.00    -0.254 NA
ATOM     36  C   UNL     1       2.629   8.017   8.341  1.00  0.00     0.185 C 
ATOM     37  N   UNL     1       1.841   9.102   8.406  1.00  0.00    -0.370 N 
ATOM     38  N   UNL     1       1.916   6.877   8.340  1.00  0.00    -0.370 N 
ATOM     39  H   UNL     1       2.306  10.001   8.421  1.00  0.00     0.159 HD
ATOM     40  H   UNL     1       0.860   9.064   8.622  1.00  0.00     0.159 HD
ATOM     41  H   UNL     1       0.914   6.890   8.243  1.00  0.00     0.159 HD
ATOM     42  H   UNL     1       2.378   5.984   8.279  1.00  0.00     0.159 HD
ENDBRANCH  34  35
ENDBRANCH  33  34
ENDBRANCH  32  33
ENDBRANCH   6  32
ENDBRANCH   4   6
ENDBRANCH   1   2
BRANCH   1  43
ATOM     43  C   UNL     1       4.609   2.795   9.071  1.00  0.00     0.102 C 
ATOM     44  C   UNL     1       3.429   3.781   9.118  1.00  0.00     0.020 C 
BRANCH  43  45
ATOM     45  C   UNL     1       5.762   3.162  10.010  1.00  0.00     0.225 C 
ATOM     46  O   UNL     1       6.223   4.297  10.095  1.00  0.00    -0.275 OA
ATOM     47  N   UNL     1       6.324   2.110  10.696  1.00  0.00    -0.342 N 
ATOM     48  H   UNL     1       5.843   1.222  10.732  1.00  0.00     0.164 HD
BRANCH  47  49
ATOM     49  C   UNL     1       7.412   2.316  11.657  1.00  0.00     0.192 C 
BRANCH  49  50
ATOM     50  C   UNL     1       7.088   3.515  12.551  1.00  0.00     0.047 C 
BRANCH  50  51
ATOM     51  C   UNL     1       6.063   3.169  13.640  1.00  0.00     0.103 C 
BRANCH  51  52
ATOM     52  C   UNL     1       4.871   4.123  13.629  1.00  0.00     0.226 C 
ATOM     53  O   UNL     1       5.064   5.340  13.588  1.00  0.00    -0.275 OA
BRANCH  52  54
ATOM     54  N   UNL     1       3.594   3.532  13.590  1.00  0.00    -0.311 N 
ATOM     55  C   UNL     1       3.302   2.424  12.671  1.00  0.00     0.153 C 
BRANCH  54  56
ATOM     56  C   UNL     1       2.557   3.972  14.429  1.00  0.00     0.102 C 
ATOM     57  C   UNL     1       1.540   4.761  14.045  1.00  0.00     0.043 C 
BRANCH  56  58
ATOM     58  C   UNL     1       2.489   3.533  15.873  1.00  0.00     0.268 C 
ATOM     59  O   UNL     1       2.668   4.294  16.814  1.00  0.00    -0.268 OA
ATOM     60  N   UNL     1       2.140   2.211  16.019  1.00  0.00    -0.339 N 
ATOM     61  H   UNL     1       2.019   1.644  15.189  1.00  0.00     0.164 HD
BRANCH  60  62
ATOM     62  C   UNL     1       1.956   1.595  17.333  1.00  0.00     0.168 CG0
ATOM     63  C   UNL     1       3.225   0.884  17.786  1.00  0.00     0.041 C 
ATOM     64  G   UNL     1       0.768   0.613  17.281  1.00  0.00     0.000 G0
ENDBRANCH  60  62
ENDBRANCH  56  58
ENDBRANCH  54  56
ENDBRANCH  52  54
ENDBRANCH  51  52
ENDBRANCH  50  51
ENDBRANCH  49  50
BRANCH  49  65
ATOM     65  C   UNL     1       8.755   2.557  10.949  1.00  0.00     0.326 C 
ATOM     66  O   UNL     1       9.626   3.329  11.322  1.00  0.00    -0.250 OA
BRANCH  65  67
ATOM     67  O   UNL     1       8.914   1.874   9.794  1.00  0.00    -0.480 OA
ATOM     68  H   UNL     1       9.886   1.876   9.656  1.00  0.00     0.296 HD
ENDBRANCH  65  67
ENDBRANCH  49  65
ENDBRANCH  47  49
ENDBRANCH  43  45
ENDBRANCH   1  43
BRANCH   1  69
ATOM     69  C   UNL     1       5.798   1.189   7.335  1.00  0.00    -0.001 C 
ATOM     70  C   UNL     1       5.373  -0.036   7.690  1.00  0.00     0.001 C 
BRANCH  70  71
ATOM     71  C   UNL     1       6.018  -1.314   7.380  1.00  0.00    -0.055 C 
ATOM     72  C   UNL     1       5.249  -2.295   6.862  1.00  0.00    -0.018 C 
ATOM     73  C   UNL     1       7.494  -1.441   7.654  1.00  0.00     0.044 C 
BRANCH  72  74
ATOM     74  C   UNL     1       5.640  -3.706   6.445  1.00  0.00     0.038 C 
ATOM     75  C   UNL     1       5.642  -3.741   4.912  1.00  0.00     0.015 C 
BRANCH  74  76
ATOM     76  C   UNL     1       4.665  -4.716   7.121  1.00  0.00     0.128 C 
BRANCH  76  77
ATOM     77  O   UNL     1       5.411  -5.765   7.760  1.00  0.00    -0.381 OA
ATOM     78  C   UNL     1       6.711  -5.369   8.178  1.00  0.00     0.195 C 
ENDBRANCH  76  77
BRANCH  76  79
ATOM     79  C   UNL     1       3.630  -4.055   8.065  1.00  0.00     0.068 C 
BRANCH  79  80
ATOM     80  C   UNL     1       2.181  -4.058   7.638  1.00  0.00    -0.045 A 
ATOM     81  C   UNL     1       1.761  -4.782   6.515  1.00  0.00     0.004 A 
ATOM     82  C   UNL     1       1.233  -3.308   8.350  1.00  0.00     0.004 A 
ATOM     83  C   UNL     1       0.422  -4.768   6.119  1.00  0.00     0.000 A 
ATOM     84  C   UNL     1      -0.106  -3.294   7.953  1.00  0.00     0.000 A 
ATOM     85  C   UNL     1      -0.511  -4.025   6.839  1.00  0.00     0.000 A 
ENDBRANCH  79  80
ENDBRANCH  76  79
ENDBRANCH  74  76
ENDBRANCH  72  74
ENDBRANCH  70  71
ENDBRANCH   1  69
TORSDOF 17
ENDMDL
MODEL 26
REMARK VINA RESULT:    -6.136      4.651     11.237
REMARK INTER + INTRA:         -24.247
REMARK INTER:                 -17.837
REMARK INTRA:                  -6.410
REMARK UNBOUND:                -5.916
REMARK SMILES C=C1C(=O)N[C@H](C)C(=O)N[C@@H](CC(C)C)C(=O)N[C@@H](C(=O)O)[C@H](C)C(=O)N[C@@H](CCCN=C(N)N)C(=O)N[C@@H](/C=C/C(C)=C/[C@H](C)[C@H](Cc2ccccc2)OC)[C@H](C)C(=O)N[C@@H](C(=O)O)CCC(=O)N1C
REMARK SMILES IDX 39 1 38 2 37 3 36 4 28 6 27 7 25 8 26 9 23 11 24 12 19 13
REMARK SMILES IDX 18 14 16 15 17 16 11 18 10 19 8 20 9 21 12 24 13 25 14 26
REMARK SMILES IDX 15 27 20 28 21 29 22 30 29 32 30 33 31 34 32 35 33 36 34 37
REMARK SMILES IDX 35 38 57 43 58 44 59 45 60 46 61 47 62 49 66 50 67 51 68 52
REMARK SMILES IDX 69 53 70 54 71 55 2 56 1 57 3 58 4 59 5 60 6 62 7 63 63 65
REMARK SMILES IDX 64 66 65 67 40 69 41 70 42 71 44 72 43 73 45 74 46 75 47 76
REMARK SMILES IDX 55 77 56 78 48 79 49 80 50 81 54 82 51 83 53 84 52 85
REMARK H PARENT 38 5 27 10 18 17 10 22 22 31 34 39 34 40 35 41 35 42 61 48
REMARK H PARENT 5 61 65 68
REMARK Flexibility Score:  369.900
ROOT
ATOM      1  C   UNL     1       5.255   2.650   6.706  1.00  0.00     0.117 C 
ENDROOT
BRANCH   1   2
ATOM      2  N   UNL     1       5.617   3.210   8.009  1.00  0.00    -0.347 N 
ATOM      3  O   UNL     1       3.526   3.918   8.637  1.00  0.00    -0.273 OA
ATOM      4  C   UNL     1       4.704   3.719   8.912  1.00  0.00     0.243 C 
ATOM      5  H   UNL     1       6.581   3.188   8.306  1.00  0.00     0.164 HD
BRANCH   4   6
ATOM      6  C   UNL     1       5.339   4.170  10.253  1.00  0.00     0.171 C 
BRANCH   6   7
ATOM      7  N   UNL     1       4.810   3.368  11.368  1.00  0.00    -0.344 N 
ATOM      8  C   UNL     1       4.834   3.855  12.656  1.00  0.00     0.226 C 
ATOM      9  O   UNL     1       5.306   4.949  12.940  1.00  0.00    -0.275 OA
ATOM     10  H   UNL     1       4.473   2.431  11.182  1.00  0.00     0.164 HD
BRANCH   8  11
ATOM     11  C   UNL     1       4.203   2.933  13.685  1.00  0.00     0.109 C 
ATOM     12  C   UNL     1       5.288   2.266  14.530  1.00  0.00     0.021 C 
BRANCH  11  13
ATOM     13  C   UNL     1       3.136   3.701  14.490  1.00  0.00     0.204 C 
BRANCH  13  14
ATOM     14  N   UNL     1       3.677   4.919  15.102  1.00  0.00    -0.340 N 
ATOM     15  C   UNL     1       3.281   5.374  16.341  1.00  0.00     0.243 C 
ATOM     16  O   UNL     1       2.488   4.755  17.048  1.00  0.00    -0.273 OA
ATOM     17  H   UNL     1       4.219   5.554  14.510  1.00  0.00     0.164 HD
BRANCH  15  18
ATOM     18  C   UNL     1       3.828   6.780  16.688  1.00  0.00     0.171 C 
BRANCH  18  19
ATOM     19  N   UNL     1       4.993   6.576  17.547  1.00  0.00    -0.343 N 
ATOM     20  C   UNL     1       5.226   7.364  18.657  1.00  0.00     0.242 CG0
ATOM     21  O   UNL     1       4.541   8.355  18.898  1.00  0.00    -0.273 OA
ATOM     22  H   UNL     1       5.653   5.840  17.323  1.00  0.00     0.164 HD
ATOM     23  G   UNL     1       6.460   6.948  19.485  1.00  0.00     0.000 G0
ENDBRANCH  18  19
BRANCH  18  24
ATOM     24  C   UNL     1       4.199   7.547  15.412  1.00  0.00     0.038 C 
BRANCH  24  25
ATOM     25  C   UNL     1       5.518   8.343  15.499  1.00  0.00    -0.015 C 
ATOM     26  C   UNL     1       5.292   9.854  15.471  1.00  0.00     0.007 C 
ATOM     27  C   UNL     1       6.440   7.938  14.346  1.00  0.00     0.007 C 
ENDBRANCH  24  25
ENDBRANCH  18  24
ENDBRANCH  15  18
ENDBRANCH  13  14
BRANCH  13  28
ATOM     28  C   UNL     1       1.926   4.117  13.646  1.00  0.00     0.327 C 
ATOM     29  O   UNL     1       1.943   4.434  12.466  1.00  0.00    -0.250 OA
BRANCH  28  30
ATOM     30  O   UNL     1       0.791   4.222  14.365  1.00  0.00    -0.480 OA
ATOM     31  H   UNL     1       0.216   4.803  13.825  1.00  0.00     0.296 HD
ENDBRANCH  28  30
ENDBRANCH  13  28
ENDBRANCH  11  13
ENDBRANCH   8  11
ENDBRANCH   6   7
BRANCH   6  32
ATOM     32  C   UNL     1       6.863   4.037  10.157  1.00  0.00     0.037 C 
BRANCH  32  33
ATOM     33  C   UNL     1       7.577   5.375  10.398  1.00  0.00     0.026 C 
BRANCH  33  34
ATOM     34  C   UNL     1       7.525   6.294   9.177  1.00  0.00     0.146 C 
BRANCH  34  35
ATOM     35  N   UNL     1       6.355   7.153   9.286  1.00  0.00    -0.254 NA
ATOM     36  C   UNL     1       5.620   7.324   8.250  1.00  0.00     0.185 C 
ATOM     37  N   UNL     1       4.536   8.110   8.340  1.00  0.00    -0.370 N 
ATOM     38  N   UNL     1       5.767   6.811   7.016  1.00  0.00    -0.370 N 
ATOM     39  H   UNL     1       4.350   8.526   9.244  1.00  0.00     0.159 HD
ATOM     40  H   UNL     1       3.821   8.155   7.634  1.00  0.00     0.159 HD
ATOM     41  H   UNL     1       5.200   7.132   6.248  1.00  0.00     0.159 HD
ATOM     42  H   UNL     1       6.550   6.214   6.799  1.00  0.00     0.159 HD
ENDBRANCH  34  35
ENDBRANCH  33  34
ENDBRANCH  32  33
ENDBRANCH   6  32
ENDBRANCH   4   6
ENDBRANCH   1   2
BRANCH   1  43
ATOM     43  C   UNL     1       5.852   1.217   6.601  1.00  0.00     0.102 C 
ATOM     44  C   UNL     1       4.917   0.215   5.901  1.00  0.00     0.020 C 
BRANCH  43  45
ATOM     45  C   UNL     1       6.374   0.736   7.958  1.00  0.00     0.225 C 
ATOM     46  O   UNL     1       7.452   1.092   8.426  1.00  0.00    -0.275 OA
ATOM     47  N   UNL     1       5.596  -0.205   8.593  1.00  0.00    -0.342 N 
ATOM     48  H   UNL     1       4.651  -0.370   8.274  1.00  0.00     0.164 HD
BRANCH  47  49
ATOM     49  C   UNL     1       5.952  -0.728   9.915  1.00  0.00     0.192 C 
BRANCH  49  50
ATOM     50  C   UNL     1       5.452  -2.169  10.049  1.00  0.00     0.047 C 
BRANCH  50  51
ATOM     51  C   UNL     1       6.460  -3.188   9.501  1.00  0.00     0.103 C 
BRANCH  51  52
ATOM     52  C   UNL     1       6.360  -3.335   7.984  1.00  0.00     0.226 C 
ATOM     53  O   UNL     1       7.061  -2.630   7.256  1.00  0.00    -0.275 OA
BRANCH  52  54
ATOM     54  N   UNL     1       5.505  -4.346   7.507  1.00  0.00    -0.311 N 
ATOM     55  C   UNL     1       5.849  -5.765   7.667  1.00  0.00     0.153 C 
BRANCH  54  56
ATOM     56  C   UNL     1       4.293  -4.038   6.867  1.00  0.00     0.102 C 
ATOM     57  C   UNL     1       3.451  -3.063   7.245  1.00  0.00     0.043 C 
BRANCH  56  58
ATOM     58  C   UNL     1       3.859  -4.787   5.629  1.00  0.00     0.268 C 
ATOM     59  O   UNL     1       4.547  -4.871   4.621  1.00  0.00    -0.268 OA
ATOM     60  N   UNL     1       2.645  -5.416   5.776  1.00  0.00    -0.339 N 
ATOM     61  H   UNL     1       2.132  -5.287   6.640  1.00  0.00     0.164 HD
BRANCH  60  62
ATOM     62  C   UNL     1       2.066  -6.247   4.723  1.00  0.00     0.168 CG0
ATOM     63  C   UNL     1       0.925  -5.522   4.019  1.00  0.00     0.041 C 
ATOM     64  G   UNL     1       1.575  -7.580   5.327  1.00  0.00     0.000 G0
ENDBRANCH  60  62
ENDBRANCH  56  58
ENDBRANCH  54  56
ENDBRANCH  52  54
ENDBRANCH  51  52
ENDBRANCH  50  51
ENDBRANCH  49  50
BRANCH  49  65
ATOM     65  C   UNL     1       5.354   0.126  11.043  1.00  0.00     0.326 C 
ATOM     66  O   UNL     1       4.165   0.359  11.203  1.00  0.00    -0.250 OA
BRANCH  65  67
ATOM     67  O   UNL     1       6.264   0.688  11.868  1.00  0.00    -0.480 OA
ATOM     68  H   UNL     1       7.112   0.279  11.590  1.00  0.00     0.296 HD
ENDBRANCH  65  67
ENDBRANCH  49  65
ENDBRANCH  47  49
ENDBRANCH  43  45
ENDBRANCH   1  43
BRANCH   1  69
ATOM     69  C   UNL     1       5.653   3.688   5.673  1.00  0.00    -0.001 C 
ATOM     70  C   UNL     1       5.427   3.650   4.348  1.00  0.00     0.001 C 
BRANCH  70  71
ATOM     71  C   UNL     1       5.796   4.669   3.363  1.00  0.00    -0.055 C 
ATOM     72  C   UNL     1       5.161   4.650   2.173  1.00  0.00    -0.018 C 
ATOM     73  C   UNL     1       6.853   5.670   3.751  1.00  0.00     0.044 C 
BRANCH  72  74
ATOM     74  C   UNL     1       5.333   5.574   0.975  1.00  0.00     0.038 C 
ATOM     75  C   UNL     1       4.083   5.418   0.100  1.00  0.00     0.015 C 
BRANCH  74  76
ATOM     76  C   UNL     1       6.675   5.227   0.264  1.00  0.00     0.128 C 
BRANCH  76  77
ATOM     77  O   UNL     1       6.413   4.669  -1.034  1.00  0.00    -0.381 OA
ATOM     78  C   UNL     1       7.045   5.372  -2.096  1.00  0.00     0.195 C 
ENDBRANCH  76  77
BRANCH  76  79
ATOM     79  C   UNL     1       7.685   6.402   0.220  1.00  0.00     0.068 C 
BRANCH  79  80
ATOM     80  C   UNL     1       9.050   6.183   0.825  1.00  0.00    -0.045 A 
ATOM     81  C   UNL     1       9.634   4.910   0.848  1.00  0.00     0.004 A 
ATOM     82  C   UNL     1       9.748   7.255   1.403  1.00  0.00     0.004 A 
ATOM     83  C   UNL     1      10.892   4.714   1.423  1.00  0.00     0.000 A 
ATOM     84  C   UNL     1      11.005   7.058   1.978  1.00  0.00     0.000 A 
ATOM     85  C   UNL     1      11.577   5.788   1.986  1.00  0.00     0.000 A 
ENDBRANCH  79  80
ENDBRANCH  76  79
ENDBRANCH  74  76
ENDBRANCH  72  74
ENDBRANCH  70  71
ENDBRANCH   1  69
TORSDOF 17
ENDMDL
MODEL 27
REMARK VINA RESULT:    -6.122      5.429     10.093
REMARK INTER + INTRA:         -24.206
REMARK INTER:                 -17.824
REMARK INTRA:                  -6.383
REMARK UNBOUND:                -5.916
REMARK SMILES C=C1C(=O)N[C@H](C)C(=O)N[C@@H](CC(C)C)C(=O)N[C@@H](C(=O)O)[C@H](C)C(=O)N[C@@H](CCCN=C(N)N)C(=O)N[C@@H](/C=C/C(C)=C/[C@H](C)[C@H](Cc2ccccc2)OC)[C@H](C)C(=O)N[C@@H](C(=O)O)CCC(=O)N1C
REMARK SMILES IDX 39 1 38 2 37 3 36 4 28 6 27 7 25 8 26 9 23 11 24 12 19 13
REMARK SMILES IDX 18 14 16 15 17 16 11 18 10 19 8 20 9 21 12 24 13 25 14 26
REMARK SMILES IDX 15 27 20 28 21 29 22 30 29 32 30 33 31 34 32 35 33 36 34 37
REMARK SMILES IDX 35 38 57 43 58 44 59 45 60 46 61 47 62 49 66 50 67 51 68 52
REMARK SMILES IDX 69 53 70 54 71 55 2 56 1 57 3 58 4 59 5 60 6 62 7 63 63 65
REMARK SMILES IDX 64 66 65 67 40 69 41 70 42 71 44 72 43 73 45 74 46 75 47 76
REMARK SMILES IDX 55 77 56 78 48 79 49 80 50 81 54 82 51 83 53 84 52 85
REMARK H PARENT 38 5 27 10 18 17 10 22 22 31 34 39 34 40 35 41 35 42 61 48
REMARK H PARENT 5 61 65 68
REMARK Flexibility Score:  369.900
ROOT
ATOM      1  C   UNL     1       5.056   4.615   6.982  1.00  0.00     0.117 C 
ENDROOT
BRANCH   1   2
ATOM      2  N   UNL     1       5.556   3.770   8.067  1.00  0.00    -0.347 N 
ATOM      3  O   UNL     1       4.348   4.709   9.778  1.00  0.00    -0.273 OA
ATOM      4  C   UNL     1       5.092   3.825   9.367  1.00  0.00     0.243 C 
ATOM      5  H   UNL     1       6.247   3.064   7.865  1.00  0.00     0.164 HD
BRANCH   4   6
ATOM      6  C   UNL     1       5.727   2.764  10.301  1.00  0.00     0.171 C 
BRANCH   6   7
ATOM      7  N   UNL     1       4.856   2.512  11.461  1.00  0.00    -0.344 N 
ATOM      8  C   UNL     1       5.274   2.830  12.735  1.00  0.00     0.226 C 
ATOM      9  O   UNL     1       6.378   3.307  12.968  1.00  0.00    -0.275 OA
ATOM     10  H   UNL     1       3.964   2.057  11.315  1.00  0.00     0.164 HD
BRANCH   8  11
ATOM     11  C   UNL     1       4.242   2.561  13.816  1.00  0.00     0.109 C 
ATOM     12  C   UNL     1       4.866   1.742  14.947  1.00  0.00     0.021 C 
BRANCH  11  13
ATOM     13  C   UNL     1       3.593   3.888  14.259  1.00  0.00     0.204 C 
BRANCH  13  14
ATOM     14  N   UNL     1       4.499   5.028  14.092  1.00  0.00    -0.340 N 
ATOM     15  C   UNL     1       4.821   5.885  15.122  1.00  0.00     0.243 C 
ATOM     16  O   UNL     1       4.417   5.717  16.271  1.00  0.00    -0.273 OA
ATOM     17  H   UNL     1       4.746   5.310  13.140  1.00  0.00     0.164 HD
BRANCH  15  18
ATOM     18  C   UNL     1       5.623   7.128  14.665  1.00  0.00     0.171 C 
BRANCH  18  19
ATOM     19  N   UNL     1       5.855   7.939  15.859  1.00  0.00    -0.343 N 
ATOM     20  C   UNL     1       5.290   9.191  16.010  1.00  0.00     0.242 CG0
ATOM     21  O   UNL     1       4.677   9.735  15.095  1.00  0.00    -0.273 OA
ATOM     22  H   UNL     1       6.451   7.580  16.596  1.00  0.00     0.164 HD
ATOM     23  G   UNL     1       5.584   9.861  17.368  1.00  0.00     0.000 G0
ENDBRANCH  18  19
BRANCH  18  24
ATOM     24  C   UNL     1       6.942   6.709  14.005  1.00  0.00     0.038 C 
BRANCH  24  25
ATOM     25  C   UNL     1       7.553   7.764  13.059  1.00  0.00    -0.015 C 
ATOM     26  C   UNL     1       7.618   7.282  11.609  1.00  0.00     0.007 C 
ATOM     27  C   UNL     1       8.958   8.136  13.541  1.00  0.00     0.007 C 
ENDBRANCH  24  25
ENDBRANCH  18  24
ENDBRANCH  15  18
ENDBRANCH  13  14
BRANCH  13  28
ATOM     28  C   UNL     1       2.307   4.215  13.494  1.00  0.00     0.327 C 
ATOM     29  O   UNL     1       1.165   4.067  13.903  1.00  0.00    -0.250 OA
BRANCH  28  30
ATOM     30  O   UNL     1       2.531   4.595  12.220  1.00  0.00    -0.480 OA
ATOM     31  H   UNL     1       3.365   4.142  11.977  1.00  0.00     0.296 HD
ENDBRANCH  28  30
ENDBRANCH  13  28
ENDBRANCH  11  13
ENDBRANCH   8  11
ENDBRANCH   6   7
BRANCH   6  32
ATOM     32  C   UNL     1       5.968   1.475   9.508  1.00  0.00     0.037 C 
BRANCH  32  33
ATOM     33  C   UNL     1       5.817   0.221  10.380  1.00  0.00     0.026 C 
BRANCH  33  34
ATOM     34  C   UNL     1       7.155  -0.466  10.655  1.00  0.00     0.146 C 
BRANCH  34  35
ATOM     35  N   UNL     1       8.064   0.500  11.257  1.00  0.00    -0.254 NA
ATOM     36  C   UNL     1       8.213   0.493  12.529  1.00  0.00     0.185 C 
ATOM     37  N   UNL     1       9.051   1.376  13.094  1.00  0.00    -0.370 N 
ATOM     38  N   UNL     1       7.630  -0.303  13.443  1.00  0.00    -0.370 N 
ATOM     39  H   UNL     1       9.537   2.005  12.468  1.00  0.00     0.159 HD
ATOM     40  H   UNL     1       9.353   1.322  14.052  1.00  0.00     0.159 HD
ATOM     41  H   UNL     1       7.723  -0.118  14.429  1.00  0.00     0.159 HD
ATOM     42  H   UNL     1       6.963  -1.004  13.162  1.00  0.00     0.159 HD
ENDBRANCH  34  35
ENDBRANCH  33  34
ENDBRANCH  32  33
ENDBRANCH   6  32
ENDBRANCH   4   6
ENDBRANCH   1   2
BRANCH   1  43
ATOM     43  C   UNL     1       4.591   3.698   5.815  1.00  0.00     0.102 C 
ATOM     44  C   UNL     1       5.574   2.556   5.504  1.00  0.00     0.020 C 
BRANCH  43  45
ATOM     45  C   UNL     1       4.194   4.526   4.589  1.00  0.00     0.225 C 
ATOM     46  O   UNL     1       3.406   5.467   4.641  1.00  0.00    -0.275 OA
ATOM     47  N   UNL     1       4.706   4.091   3.388  1.00  0.00    -0.342 N 
ATOM     48  H   UNL     1       5.462   3.421   3.381  1.00  0.00     0.164 HD
BRANCH  47  49
ATOM     49  C   UNL     1       4.440   4.807   2.137  1.00  0.00     0.192 C 
BRANCH  49  50
ATOM     50  C   UNL     1       3.310   4.110   1.376  1.00  0.00     0.047 C 
BRANCH  50  51
ATOM     51  C   UNL     1       2.061   4.993   1.251  1.00  0.00     0.103 C 
BRANCH  51  52
ATOM     52  C   UNL     1       2.026   5.754  -0.073  1.00  0.00     0.226 C 
ATOM     53  O   UNL     1       2.793   6.701  -0.252  1.00  0.00    -0.275 OA
BRANCH  52  54
ATOM     54  N   UNL     1       1.147   5.262  -1.055  1.00  0.00    -0.311 N 
ATOM     55  C   UNL     1       0.414   4.004  -0.853  1.00  0.00     0.153 C 
BRANCH  54  56
ATOM     56  C   UNL     1       0.933   5.953  -2.259  1.00  0.00     0.102 C 
ATOM     57  C   UNL     1      -0.145   6.707  -2.531  1.00  0.00     0.043 C 
BRANCH  56  58
ATOM     58  C   UNL     1       1.968   5.932  -3.360  1.00  0.00     0.268 C 
ATOM     59  O   UNL     1       1.801   5.351  -4.424  1.00  0.00    -0.268 OA
ATOM     60  N   UNL     1       3.081   6.683  -3.069  1.00  0.00    -0.339 N 
ATOM     61  H   UNL     1       3.147   7.124  -2.160  1.00  0.00     0.164 HD
BRANCH  60  62
ATOM     62  C   UNL     1       4.178   6.850  -4.022  1.00  0.00     0.168 CG0
ATOM     63  C   UNL     1       5.344   7.599  -3.388  1.00  0.00     0.041 C 
ATOM     64  G   UNL     1       3.668   7.593  -5.273  1.00  0.00     0.000 G0
ENDBRANCH  60  62
ENDBRANCH  56  58
ENDBRANCH  54  56
ENDBRANCH  52  54
ENDBRANCH  51  52
ENDBRANCH  50  51
ENDBRANCH  49  50
BRANCH  49  65
ATOM     65  C   UNL     1       5.690   4.872   1.245  1.00  0.00     0.326 C 
ATOM     66  O   UNL     1       6.759   4.327   1.478  1.00  0.00    -0.250 OA
BRANCH  65  67
ATOM     67  O   UNL     1       5.561   5.655   0.151  1.00  0.00    -0.480 OA
ATOM     68  H   UNL     1       6.485   5.779  -0.155  1.00  0.00     0.296 HD
ENDBRANCH  65  67
ENDBRANCH  49  65
ENDBRANCH  47  49
ENDBRANCH  43  45
ENDBRANCH   1  43
BRANCH   1  69
ATOM     69  C   UNL     1       6.135   5.649   6.718  1.00  0.00    -0.001 C 
ATOM     70  C   UNL     1       7.214   5.519   5.925  1.00  0.00     0.001 C 
BRANCH  70  71
ATOM     71  C   UNL     1       8.238   6.532   5.661  1.00  0.00    -0.055 C 
ATOM     72  C   UNL     1       8.189   7.180   4.477  1.00  0.00    -0.018 C 
ATOM     73  C   UNL     1       9.268   6.786   6.730  1.00  0.00     0.044 C 
BRANCH  72  74
ATOM     74  C   UNL     1       9.106   8.268   3.937  1.00  0.00     0.038 C 
ATOM     75  C   UNL     1       8.278   9.556   3.850  1.00  0.00     0.015 C 
BRANCH  74  76
ATOM     76  C   UNL     1       9.710   7.787   2.584  1.00  0.00     0.128 C 
BRANCH  76  77
ATOM     77  O   UNL     1      11.100   8.148   2.512  1.00  0.00    -0.381 OA
ATOM     78  C   UNL     1      11.632   8.620   3.742  1.00  0.00     0.195 C 
ENDBRANCH  76  77
BRANCH  76  79
ATOM     79  C   UNL     1       9.462   6.288   2.282  1.00  0.00     0.068 C 
BRANCH  79  80
ATOM     80  C   UNL     1      10.637   5.345   2.374  1.00  0.00    -0.045 A 
ATOM     81  C   UNL     1      11.211   4.791   1.222  1.00  0.00     0.004 A 
ATOM     82  C   UNL     1      11.158   4.985   3.627  1.00  0.00     0.004 A 
ATOM     83  C   UNL     1      12.289   3.908   1.318  1.00  0.00     0.000 A 
ATOM     84  C   UNL     1      12.235   4.101   3.721  1.00  0.00     0.000 A 
ATOM     85  C   UNL     1      12.801   3.564   2.567  1.00  0.00     0.000 A 
ENDBRANCH  79  80
ENDBRANCH  76  79
ENDBRANCH  74  76
ENDBRANCH  72  74
ENDBRANCH  70  71
ENDBRANCH   1  69
TORSDOF 17
ENDMDL
MODEL 28
REMARK VINA RESULT:    -6.121      3.951      9.249
REMARK INTER + INTRA:         -24.203
REMARK INTER:                 -17.515
REMARK INTRA:                  -6.688
REMARK UNBOUND:                -5.916
REMARK SMILES C=C1C(=O)N[C@H](C)C(=O)N[C@@H](CC(C)C)C(=O)N[C@@H](C(=O)O)[C@H](C)C(=O)N[C@@H](CCCN=C(N)N)C(=O)N[C@@H](/C=C/C(C)=C/[C@H](C)[C@H](Cc2ccccc2)OC)[C@H](C)C(=O)N[C@@H](C(=O)O)CCC(=O)N1C
REMARK SMILES IDX 39 1 38 2 37 3 36 4 28 6 27 7 25 8 26 9 23 11 24 12 19 13
REMARK SMILES IDX 18 14 16 15 17 16 11 18 10 19 8 20 9 21 12 24 13 25 14 26
REMARK SMILES IDX 15 27 20 28 21 29 22 30 29 32 30 33 31 34 32 35 33 36 34 37
REMARK SMILES IDX 35 38 57 43 58 44 59 45 60 46 61 47 62 49 66 50 67 51 68 52
REMARK SMILES IDX 69 53 70 54 71 55 2 56 1 57 3 58 4 59 5 60 6 62 7 63 63 65
REMARK SMILES IDX 64 66 65 67 40 69 41 70 42 71 44 72 43 73 45 74 46 75 47 76
REMARK SMILES IDX 55 77 56 78 48 79 49 80 50 81 54 82 51 83 53 84 52 85
REMARK H PARENT 38 5 27 10 18 17 10 22 22 31 34 39 34 40 35 41 35 42 61 48
REMARK H PARENT 5 61 65 68
REMARK Flexibility Score:  369.900
ROOT
ATOM      1  C   UNL     1       3.439   3.432   9.949  1.00  0.00     0.117 C 
ENDROOT
BRANCH   1   2
ATOM      2  N   UNL     1       4.395   2.365   9.650  1.00  0.00    -0.347 N 
ATOM      3  O   UNL     1       3.791   0.924  11.332  1.00  0.00    -0.273 OA
ATOM      4  C   UNL     1       4.432   1.153  10.312  1.00  0.00     0.243 C 
ATOM      5  H   UNL     1       5.042   2.481   8.885  1.00  0.00     0.164 HD
BRANCH   4   6
ATOM      6  C   UNL     1       5.482   0.165   9.743  1.00  0.00     0.171 C 
BRANCH   6   7
ATOM      7  N   UNL     1       5.039  -0.366   8.444  1.00  0.00    -0.344 N 
ATOM      8  C   UNL     1       5.380  -1.642   8.052  1.00  0.00     0.226 C 
ATOM      9  O   UNL     1       6.075  -2.380   8.740  1.00  0.00    -0.275 OA
ATOM     10  H   UNL     1       4.520   0.238   7.818  1.00  0.00     0.164 HD
BRANCH   8  11
ATOM     11  C   UNL     1       4.801  -2.061   6.712  1.00  0.00     0.109 C 
ATOM     12  C   UNL     1       5.844  -1.879   5.609  1.00  0.00     0.021 C 
BRANCH  11  13
ATOM     13  C   UNL     1       4.212  -3.482   6.819  1.00  0.00     0.204 C 
BRANCH  13  14
ATOM     14  N   UNL     1       5.257  -4.506   6.915  1.00  0.00    -0.340 N 
ATOM     15  C   UNL     1       5.301  -5.609   6.089  1.00  0.00     0.243 C 
ATOM     16  O   UNL     1       4.500  -5.780   5.172  1.00  0.00    -0.273 OA
ATOM     17  H   UNL     1       5.857  -4.504   7.744  1.00  0.00     0.164 HD
BRANCH  15  18
ATOM     18  C   UNL     1       6.364  -6.653   6.509  1.00  0.00     0.171 C 
BRANCH  18  19
ATOM     19  N   UNL     1       5.914  -7.942   5.987  1.00  0.00    -0.343 N 
ATOM     20  C   UNL     1       5.579  -8.990   6.822  1.00  0.00     0.242 CG0
ATOM     21  O   UNL     1       5.770  -8.933   8.034  1.00  0.00    -0.273 OA
ATOM     22  H   UNL     1       5.851  -8.077   4.984  1.00  0.00     0.164 HD
ATOM     23  G   UNL     1       5.051 -10.242   6.092  1.00  0.00     0.000 G0
ENDBRANCH  18  19
BRANCH  18  24
ATOM     24  C   UNL     1       7.744  -6.274   5.957  1.00  0.00     0.038 C 
BRANCH  24  25
ATOM     25  C   UNL     1       8.789  -5.904   7.031  1.00  0.00    -0.015 C 
ATOM     26  C   UNL     1      10.111  -6.648   6.842  1.00  0.00     0.007 C 
ATOM     27  C   UNL     1       8.224  -6.203   8.423  1.00  0.00     0.007 C 
ENDBRANCH  24  25
ENDBRANCH  18  24
ENDBRANCH  15  18
ENDBRANCH  13  14
BRANCH  13  28
ATOM     28  C   UNL     1       3.288  -3.662   8.027  1.00  0.00     0.327 C 
ATOM     29  O   UNL     1       3.431  -4.470   8.932  1.00  0.00    -0.250 OA
BRANCH  28  30
ATOM     30  O   UNL     1       2.178  -2.899   7.963  1.00  0.00    -0.480 OA
ATOM     31  H   UNL     1       2.060  -2.567   8.877  1.00  0.00     0.296 HD
ENDBRANCH  28  30
ENDBRANCH  13  28
ENDBRANCH  11  13
ENDBRANCH   8  11
ENDBRANCH   6   7
BRANCH   6  32
ATOM     32  C   UNL     1       6.829   0.883   9.610  1.00  0.00     0.037 C 
BRANCH  32  33
ATOM     33  C   UNL     1       7.544   1.029  10.961  1.00  0.00     0.026 C 
BRANCH  33  34
ATOM     34  C   UNL     1       8.848   0.234  11.021  1.00  0.00     0.146 C 
BRANCH  34  35
ATOM     35  N   UNL     1       8.600  -1.024  11.712  1.00  0.00    -0.254 NA
ATOM     36  C   UNL     1       8.611  -2.111  11.034  1.00  0.00     0.185 C 
ATOM     37  N   UNL     1       8.389  -3.276  11.661  1.00  0.00    -0.370 N 
ATOM     38  N   UNL     1       8.824  -2.282   9.717  1.00  0.00    -0.370 N 
ATOM     39  H   UNL     1       8.230  -3.231  12.660  1.00  0.00     0.159 HD
ATOM     40  H   UNL     1       8.551  -4.174  11.240  1.00  0.00     0.159 HD
ATOM     41  H   UNL     1       8.669  -3.174   9.276  1.00  0.00     0.159 HD
ATOM     42  H   UNL     1       8.989  -1.489   9.117  1.00  0.00     0.159 HD
ENDBRANCH  34  35
ENDBRANCH  33  34
ENDBRANCH  32  33
ENDBRANCH   6  32
ENDBRANCH   4   6
ENDBRANCH   1   2
BRANCH   1  43
ATOM     43  C   UNL     1       3.825   4.690   9.118  1.00  0.00     0.102 C 
ATOM     44  C   UNL     1       2.613   5.525   8.673  1.00  0.00     0.020 C 
BRANCH  43  45
ATOM     45  C   UNL     1       4.780   4.324   7.978  1.00  0.00     0.225 C 
ATOM     46  O   UNL     1       5.993   4.502   8.036  1.00  0.00    -0.275 OA
ATOM     47  N   UNL     1       4.180   3.862   6.829  1.00  0.00    -0.342 N 
ATOM     48  H   UNL     1       3.210   3.580   6.849  1.00  0.00     0.164 HD
BRANCH  47  49
ATOM     49  C   UNL     1       4.971   3.440   5.668  1.00  0.00     0.192 C 
BRANCH  49  50
ATOM     50  C   UNL     1       4.210   3.766   4.381  1.00  0.00     0.047 C 
BRANCH  50  51
ATOM     51  C   UNL     1       5.049   4.600   3.404  1.00  0.00     0.103 C 
BRANCH  51  52
ATOM     52  C   UNL     1       4.724   4.276   1.947  1.00  0.00     0.226 C 
ATOM     53  O   UNL     1       3.605   3.855   1.651  1.00  0.00    -0.275 OA
BRANCH  52  54
ATOM     54  N   UNL     1       5.729   4.559   1.003  1.00  0.00    -0.311 N 
ATOM     55  C   UNL     1       6.441   3.477   0.310  1.00  0.00     0.153 C 
BRANCH  54  56
ATOM     56  C   UNL     1       6.085   5.880   0.685  1.00  0.00     0.102 C 
ATOM     57  C   UNL     1       7.107   6.554   1.236  1.00  0.00     0.043 C 
BRANCH  56  58
ATOM     58  C   UNL     1       5.336   6.649  -0.378  1.00  0.00     0.268 C 
ATOM     59  O   UNL     1       4.150   6.938  -0.285  1.00  0.00    -0.268 OA
ATOM     60  N   UNL     1       6.136   7.047  -1.422  1.00  0.00    -0.339 N 
ATOM     61  H   UNL     1       7.107   6.758  -1.429  1.00  0.00     0.164 HD
BRANCH  60  62
ATOM     62  C   UNL     1       5.628   7.857  -2.528  1.00  0.00     0.168 CG0
ATOM     63  C   UNL     1       6.413   7.590  -3.807  1.00  0.00     0.041 C 
ATOM     64  G   UNL     1       5.694   9.350  -2.148  1.00  0.00     0.000 G0
ENDBRANCH  60  62
ENDBRANCH  56  58
ENDBRANCH  54  56
ENDBRANCH  52  54
ENDBRANCH  51  52
ENDBRANCH  50  51
ENDBRANCH  49  50
BRANCH  49  65
ATOM     65  C   UNL     1       5.280   1.935   5.710  1.00  0.00     0.326 C 
ATOM     66  O   UNL     1       6.328   1.435   6.090  1.00  0.00    -0.250 OA
BRANCH  65  67
ATOM     67  O   UNL     1       4.297   1.144   5.224  1.00  0.00    -0.480 OA
ATOM     68  H   UNL     1       4.234   1.407   4.281  1.00  0.00     0.296 HD
ENDBRANCH  65  67
ENDBRANCH  49  65
ENDBRANCH  47  49
ENDBRANCH  43  45
ENDBRANCH   1  43
BRANCH   1  69
ATOM     69  C   UNL     1       3.386   3.541  11.462  1.00  0.00    -0.001 C 
ATOM     70  C   UNL     1       2.318   3.841  12.222  1.00  0.00     0.001 C 
BRANCH  70  71
ATOM     71  C   UNL     1       2.273   3.922  13.684  1.00  0.00    -0.055 C 
ATOM     72  C   UNL     1       2.550   5.114  14.255  1.00  0.00    -0.018 C 
ATOM     73  C   UNL     1       1.914   2.674  14.446  1.00  0.00     0.044 C 
BRANCH  72  74
ATOM     74  C   UNL     1       2.577   5.492  15.729  1.00  0.00     0.038 C 
ATOM     75  C   UNL     1       1.426   6.477  15.965  1.00  0.00     0.015 C 
BRANCH  74  76
ATOM     76  C   UNL     1       3.991   6.044  16.079  1.00  0.00     0.128 C 
BRANCH  76  77
ATOM     77  O   UNL     1       3.870   7.217  16.901  1.00  0.00    -0.381 OA
ATOM     78  C   UNL     1       5.097   7.634  17.484  1.00  0.00     0.195 C 
ENDBRANCH  76  77
BRANCH  76  79
ATOM     79  C   UNL     1       4.948   4.985  16.681  1.00  0.00     0.068 C 
BRANCH  79  80
ATOM     80  C   UNL     1       5.255   3.759  15.856  1.00  0.00    -0.045 A 
ATOM     81  C   UNL     1       4.989   2.473  16.347  1.00  0.00     0.004 A 
ATOM     82  C   UNL     1       5.842   3.888  14.589  1.00  0.00     0.004 A 
ATOM     83  C   UNL     1       5.289   1.343  15.584  1.00  0.00     0.000 A 
ATOM     84  C   UNL     1       6.143   2.757  13.826  1.00  0.00     0.000 A 
ATOM     85  C   UNL     1       5.865   1.485  14.323  1.00  0.00     0.000 A 
ENDBRANCH  79  80
ENDBRANCH  76  79
ENDBRANCH  74  76
ENDBRANCH  72  74
ENDBRANCH  70  71
ENDBRANCH   1  69
TORSDOF 17
ENDMDL
MODEL 29
REMARK VINA RESULT:    -6.097      4.446     10.916
REMARK INTER + INTRA:         -24.132
REMARK INTER:                 -17.061
REMARK INTRA:                  -7.072
REMARK UNBOUND:                -5.916
REMARK SMILES C=C1C(=O)N[C@H](C)C(=O)N[C@@H](CC(C)C)C(=O)N[C@@H](C(=O)O)[C@H](C)C(=O)N[C@@H](CCCN=C(N)N)C(=O)N[C@@H](/C=C/C(C)=C/[C@H](C)[C@H](Cc2ccccc2)OC)[C@H](C)C(=O)N[C@@H](C(=O)O)CCC(=O)N1C
REMARK SMILES IDX 39 1 38 2 37 3 36 4 28 6 27 7 25 8 26 9 23 11 24 12 19 13
REMARK SMILES IDX 18 14 16 15 17 16 11 18 10 19 8 20 9 21 12 24 13 25 14 26
REMARK SMILES IDX 15 27 20 28 21 29 22 30 29 32 30 33 31 34 32 35 33 36 34 37
REMARK SMILES IDX 35 38 57 43 58 44 59 45 60 46 61 47 62 49 66 50 67 51 68 52
REMARK SMILES IDX 69 53 70 54 71 55 2 56 1 57 3 58 4 59 5 60 6 62 7 63 63 65
REMARK SMILES IDX 64 66 65 67 40 69 41 70 42 71 44 72 43 73 45 74 46 75 47 76
REMARK SMILES IDX 55 77 56 78 48 79 49 80 50 81 54 82 51 83 53 84 52 85
REMARK H PARENT 38 5 27 10 18 17 10 22 22 31 34 39 34 40 35 41 35 42 61 48
REMARK H PARENT 5 61 65 68
REMARK Flexibility Score:  369.900
ROOT
ATOM      1  C   UNL     1       8.132   2.277   7.878  1.00  0.00     0.117 C 
ENDROOT
BRANCH   1   2
ATOM      2  N   UNL     1       7.261   3.141   8.675  1.00  0.00    -0.347 N 
ATOM      3  O   UNL     1       5.248   2.327   7.929  1.00  0.00    -0.273 OA
ATOM      4  C   UNL     1       5.884   3.033   8.704  1.00  0.00     0.243 C 
ATOM      5  H   UNL     1       7.672   3.831   9.284  1.00  0.00     0.164 HD
BRANCH   4   6
ATOM      6  C   UNL     1       5.204   4.011   9.696  1.00  0.00     0.171 C 
BRANCH   6   7
ATOM      7  N   UNL     1       4.777   3.298  10.911  1.00  0.00    -0.344 N 
ATOM      8  C   UNL     1       3.599   3.632  11.544  1.00  0.00     0.226 C 
ATOM      9  O   UNL     1       2.871   4.536  11.151  1.00  0.00    -0.275 OA
ATOM     10  H   UNL     1       5.385   2.591  11.304  1.00  0.00     0.164 HD
BRANCH   8  11
ATOM     11  C   UNL     1       3.271   2.769  12.750  1.00  0.00     0.109 C 
ATOM     12  C   UNL     1       4.268   1.614  12.857  1.00  0.00     0.021 C 
BRANCH  11  13
ATOM     13  C   UNL     1       3.164   3.652  14.009  1.00  0.00     0.204 C 
BRANCH  13  14
ATOM     14  N   UNL     1       3.906   4.909  13.866  1.00  0.00    -0.340 N 
ATOM     15  C   UNL     1       5.132   5.125  14.456  1.00  0.00     0.243 C 
ATOM     16  O   UNL     1       5.721   4.255  15.095  1.00  0.00    -0.273 OA
ATOM     17  H   UNL     1       3.411   5.717  13.480  1.00  0.00     0.164 HD
BRANCH  15  18
ATOM     18  C   UNL     1       5.624   6.589  14.341  1.00  0.00     0.171 C 
BRANCH  18  19
ATOM     19  N   UNL     1       5.593   7.148  15.691  1.00  0.00    -0.343 N 
ATOM     20  C   UNL     1       4.921   8.321  15.978  1.00  0.00     0.242 CG0
ATOM     21  O   UNL     1       4.433   9.017  15.091  1.00  0.00    -0.273 OA
ATOM     22  H   UNL     1       6.080   6.669  16.439  1.00  0.00     0.164 HD
ATOM     23  G   UNL     1       4.933   8.712  17.471  1.00  0.00     0.000 G0
ENDBRANCH  18  19
BRANCH  18  24
ATOM     24  C   UNL     1       7.036   6.641  13.744  1.00  0.00     0.038 C 
BRANCH  24  25
ATOM     25  C   UNL     1       8.153   6.965  14.759  1.00  0.00    -0.015 C 
ATOM     26  C   UNL     1       9.115   8.037  14.247  1.00  0.00     0.007 C 
ATOM     27  C   UNL     1       8.932   5.690  15.092  1.00  0.00     0.007 C 
ENDBRANCH  24  25
ENDBRANCH  18  24
ENDBRANCH  15  18
ENDBRANCH  13  14
BRANCH  13  28
ATOM     28  C   UNL     1       1.721   4.015  14.371  1.00  0.00     0.327 C 
ATOM     29  O   UNL     1       0.792   3.234  14.508  1.00  0.00    -0.250 OA
BRANCH  28  30
ATOM     30  O   UNL     1       1.507   5.345  14.421  1.00  0.00    -0.480 OA
ATOM     31  H   UNL     1       0.834   5.508  13.728  1.00  0.00     0.296 HD
ENDBRANCH  28  30
ENDBRANCH  13  28
ENDBRANCH  11  13
ENDBRANCH   8  11
ENDBRANCH   6   7
BRANCH   6  32
ATOM     32  C   UNL     1       6.181   5.141  10.040  1.00  0.00     0.037 C 
BRANCH  32  33
ATOM     33  C   UNL     1       6.074   6.318   9.060  1.00  0.00     0.026 C 
BRANCH  33  34
ATOM     34  C   UNL     1       4.977   6.111   8.015  1.00  0.00     0.146 C 
BRANCH  34  35
ATOM     35  N   UNL     1       3.848   6.971   8.343  1.00  0.00    -0.254 NA
ATOM     36  C   UNL     1       2.671   6.467   8.343  1.00  0.00     0.185 C 
ATOM     37  N   UNL     1       1.624   7.249   8.649  1.00  0.00    -0.370 N 
ATOM     38  N   UNL     1       2.292   5.205   8.070  1.00  0.00    -0.370 N 
ATOM     39  H   UNL     1       1.829   8.213   8.877  1.00  0.00     0.159 HD
ATOM     40  H   UNL     1       0.702   6.895   8.839  1.00  0.00     0.159 HD
ATOM     41  H   UNL     1       1.320   4.964   7.966  1.00  0.00     0.159 HD
ATOM     42  H   UNL     1       2.974   4.511   7.808  1.00  0.00     0.159 HD
ENDBRANCH  34  35
ENDBRANCH  33  34
ENDBRANCH  32  33
ENDBRANCH   6  32
ENDBRANCH   4   6
ENDBRANCH   1   2
BRANCH   1  43
ATOM     43  C   UNL     1       9.047   1.470   8.844  1.00  0.00     0.102 C 
ATOM     44  C   UNL     1      10.141   0.665   8.122  1.00  0.00     0.020 C 
BRANCH  43  45
ATOM     45  C   UNL     1       8.214   0.642   9.827  1.00  0.00     0.225 C 
ATOM     46  O   UNL     1       8.120   0.913  11.021  1.00  0.00    -0.275 OA
ATOM     47  N   UNL     1       7.642  -0.496   9.307  1.00  0.00    -0.342 N 
ATOM     48  H   UNL     1       7.601  -0.623   8.305  1.00  0.00     0.164 HD
BRANCH  47  49
ATOM     49  C   UNL     1       6.788  -1.366  10.122  1.00  0.00     0.192 C 
BRANCH  49  50
ATOM     50  C   UNL     1       7.073  -2.831   9.781  1.00  0.00     0.047 C 
BRANCH  50  51
ATOM     51  C   UNL     1       7.531  -3.012   8.328  1.00  0.00     0.103 C 
BRANCH  51  52
ATOM     52  C   UNL     1       8.855  -3.768   8.234  1.00  0.00     0.226 C 
ATOM     53  O   UNL     1       9.902  -3.144   8.048  1.00  0.00    -0.275 OA
BRANCH  52  54
ATOM     54  N   UNL     1       8.800  -5.158   8.447  1.00  0.00    -0.311 N 
ATOM     55  C   UNL     1       9.758  -5.824   9.339  1.00  0.00     0.153 C 
BRANCH  54  56
ATOM     56  C   UNL     1       7.829  -5.956   7.821  1.00  0.00     0.102 C 
ATOM     57  C   UNL     1       6.796  -6.543   8.448  1.00  0.00     0.043 C 
BRANCH  56  58
ATOM     58  C   UNL     1       7.856  -6.183   6.328  1.00  0.00     0.268 C 
ATOM     59  O   UNL     1       8.863  -6.517   5.719  1.00  0.00    -0.268 OA
ATOM     60  N   UNL     1       6.623  -6.040   5.737  1.00  0.00    -0.339 N 
ATOM     61  H   UNL     1       5.839  -5.750   6.310  1.00  0.00     0.164 HD
BRANCH  60  62
ATOM     62  C   UNL     1       6.411  -6.275   4.310  1.00  0.00     0.168 CG0
ATOM     63  C   UNL     1       5.106  -5.644   3.839  1.00  0.00     0.041 C 
ATOM     64  G   UNL     1       6.415  -7.792   4.030  1.00  0.00     0.000 G0
ENDBRANCH  60  62
ENDBRANCH  56  58
ENDBRANCH  54  56
ENDBRANCH  52  54
ENDBRANCH  51  52
ENDBRANCH  50  51
ENDBRANCH  49  50
BRANCH  49  65
ATOM     65  C   UNL     1       5.297  -1.071   9.895  1.00  0.00     0.326 C 
ATOM     66  O   UNL     1       4.385  -1.410  10.635  1.00  0.00    -0.250 OA
BRANCH  65  67
ATOM     67  O   UNL     1       5.019  -0.428   8.740  1.00  0.00    -0.480 OA
ATOM     68  H   UNL     1       4.457  -1.065   8.250  1.00  0.00     0.296 HD
ENDBRANCH  65  67
ENDBRANCH  49  65
ENDBRANCH  47  49
ENDBRANCH  43  45
ENDBRANCH   1  43
BRANCH   1  69
ATOM     69  C   UNL     1       8.776   3.171   6.834  1.00  0.00    -0.001 C 
ATOM     70  C   UNL     1       8.427   4.428   6.508  1.00  0.00     0.001 C 
BRANCH  70  71
ATOM     71  C   UNL     1       9.070   5.289   5.513  1.00  0.00    -0.055 C 
ATOM     72  C   UNL     1       8.294   6.178   4.858  1.00  0.00    -0.018 C 
ATOM     73  C   UNL     1      10.552   5.128   5.298  1.00  0.00     0.044 C 
BRANCH  72  74
ATOM     74  C   UNL     1       8.681   7.190   3.788  1.00  0.00     0.038 C 
ATOM     75  C   UNL     1       8.417   8.584   4.368  1.00  0.00     0.015 C 
BRANCH  74  76
ATOM     76  C   UNL     1       7.895   6.865   2.484  1.00  0.00     0.128 C 
BRANCH  76  77
ATOM     77  O   UNL     1       8.572   7.433   1.349  1.00  0.00    -0.381 OA
ATOM     78  C   UNL     1       8.989   6.468   0.392  1.00  0.00     0.195 C 
ENDBRANCH  76  77
BRANCH  76  79
ATOM     79  C   UNL     1       7.575   5.360   2.300  1.00  0.00     0.068 C 
BRANCH  79  80
ATOM     80  C   UNL     1       6.125   4.953   2.198  1.00  0.00    -0.045 A 
ATOM     81  C   UNL     1       5.452   4.980   0.969  1.00  0.00     0.004 A 
ATOM     82  C   UNL     1       5.417   4.566   3.346  1.00  0.00     0.004 A 
ATOM     83  C   UNL     1       4.107   4.616   0.886  1.00  0.00     0.000 A 
ATOM     84  C   UNL     1       4.071   4.202   3.261  1.00  0.00     0.000 A 
ATOM     85  C   UNL     1       3.417   4.225   2.032  1.00  0.00     0.000 A 
ENDBRANCH  79  80
ENDBRANCH  76  79
ENDBRANCH  74  76
ENDBRANCH  72  74
ENDBRANCH  70  71
ENDBRANCH   1  69
TORSDOF 17
ENDMDL
MODEL 30
REMARK VINA RESULT:    -6.090      4.689      9.360
REMARK INTER + INTRA:         -24.110
REMARK INTER:                 -19.146
REMARK INTRA:                  -4.964
REMARK UNBOUND:                -5.916
REMARK SMILES C=C1C(=O)N[C@H](C)C(=O)N[C@@H](CC(C)C)C(=O)N[C@@H](C(=O)O)[C@H](C)C(=O)N[C@@H](CCCN=C(N)N)C(=O)N[C@@H](/C=C/C(C)=C/[C@H](C)[C@H](Cc2ccccc2)OC)[C@H](C)C(=O)N[C@@H](C(=O)O)CCC(=O)N1C
REMARK SMILES IDX 39 1 38 2 37 3 36 4 28 6 27 7 25 8 26 9 23 11 24 12 19 13
REMARK SMILES IDX 18 14 16 15 17 16 11 18 10 19 8 20 9 21 12 24 13 25 14 26
REMARK SMILES IDX 15 27 20 28 21 29 22 30 29 32 30 33 31 34 32 35 33 36 34 37
REMARK SMILES IDX 35 38 57 43 58 44 59 45 60 46 61 47 62 49 66 50 67 51 68 52
REMARK SMILES IDX 69 53 70 54 71 55 2 56 1 57 3 58 4 59 5 60 6 62 7 63 63 65
REMARK SMILES IDX 64 66 65 67 40 69 41 70 42 71 44 72 43 73 45 74 46 75 47 76
REMARK SMILES IDX 55 77 56 78 48 79 49 80 50 81 54 82 51 83 53 84 52 85
REMARK H PARENT 38 5 27 10 18 17 10 22 22 31 34 39 34 40 35 41 35 42 61 48
REMARK H PARENT 5 61 65 68
REMARK Flexibility Score:  369.900
ROOT
ATOM      1  C   UNL     1       6.154   6.313   6.879  1.00  0.00     0.117 C 
ENDROOT
BRANCH   1   2
ATOM      2  N   UNL     1       6.412   5.232   7.831  1.00  0.00    -0.347 N 
ATOM      3  O   UNL     1       6.291   6.476   9.757  1.00  0.00    -0.273 OA
ATOM      4  C   UNL     1       6.369   5.384   9.204  1.00  0.00     0.243 C 
ATOM      5  H   UNL     1       6.586   4.300   7.486  1.00  0.00     0.164 HD
BRANCH   4   6
ATOM      6  C   UNL     1       6.594   4.065   9.984  1.00  0.00     0.171 C 
BRANCH   6   7
ATOM      7  N   UNL     1       6.499   4.302  11.434  1.00  0.00    -0.344 N 
ATOM      8  C   UNL     1       7.547   3.979  12.268  1.00  0.00     0.226 C 
ATOM      9  O   UNL     1       8.583   3.467  11.860  1.00  0.00    -0.275 OA
ATOM     10  H   UNL     1       5.634   4.661  11.817  1.00  0.00     0.164 HD
BRANCH   8  11
ATOM     11  C   UNL     1       7.317   4.334  13.727  1.00  0.00     0.109 C 
ATOM     12  C   UNL     1       8.585   4.943  14.326  1.00  0.00     0.021 C 
BRANCH  11  13
ATOM     13  C   UNL     1       6.054   5.209  13.858  1.00  0.00     0.204 C 
BRANCH  13  14
ATOM     14  N   UNL     1       5.067   4.619  14.768  1.00  0.00    -0.340 N 
ATOM     15  C   UNL     1       3.721   4.566  14.479  1.00  0.00     0.243 C 
ATOM     16  O   UNL     1       3.259   4.954  13.408  1.00  0.00    -0.273 OA
ATOM     17  H   UNL     1       5.359   4.419  15.728  1.00  0.00     0.164 HD
BRANCH  15  18
ATOM     18  C   UNL     1       2.851   4.093  15.670  1.00  0.00     0.171 C 
BRANCH  18  19
ATOM     19  N   UNL     1       3.352   4.786  16.855  1.00  0.00    -0.343 N 
ATOM     20  C   UNL     1       3.368   6.164  16.942  1.00  0.00     0.242 CG0
ATOM     21  O   UNL     1       3.086   6.873  15.978  1.00  0.00    -0.273 OA
ATOM     22  H   UNL     1       3.706   4.244  17.636  1.00  0.00     0.164 HD
ATOM     23  G   UNL     1       3.858   6.712  18.298  1.00  0.00     0.000 G0
ENDBRANCH  18  19
BRANCH  18  24
ATOM     24  C   UNL     1       1.372   4.408  15.419  1.00  0.00     0.038 C 
BRANCH  24  25
ATOM     25  C   UNL     1       0.390   3.320  15.901  1.00  0.00    -0.015 C 
ATOM     26  C   UNL     1      -0.607   3.846  16.934  1.00  0.00     0.007 C 
ATOM     27  C   UNL     1       1.173   2.146  16.493  1.00  0.00     0.007 C 
ENDBRANCH  24  25
ENDBRANCH  18  24
ENDBRANCH  15  18
ENDBRANCH  13  14
BRANCH  13  28
ATOM     28  C   UNL     1       6.349   6.624  14.363  1.00  0.00     0.327 C 
ATOM     29  O   UNL     1       6.422   6.974  15.531  1.00  0.00    -0.250 OA
BRANCH  28  30
ATOM     30  O   UNL     1       6.418   7.536  13.372  1.00  0.00    -0.480 OA
ATOM     31  H   UNL     1       5.899   8.296  13.707  1.00  0.00     0.296 HD
ENDBRANCH  28  30
ENDBRANCH  13  28
ENDBRANCH  11  13
ENDBRANCH   8  11
ENDBRANCH   6   7
BRANCH   6  32
ATOM     32  C   UNL     1       5.560   3.029   9.530  1.00  0.00     0.037 C 
BRANCH  32  33
ATOM     33  C   UNL     1       5.911   1.612  10.007  1.00  0.00     0.026 C 
BRANCH  33  34
ATOM     34  C   UNL     1       6.552   0.766   8.907  1.00  0.00     0.146 C 
BRANCH  34  35
ATOM     35  N   UNL     1       6.077   1.239   7.614  1.00  0.00    -0.254 NA
ATOM     36  C   UNL     1       5.277   0.495   6.945  1.00  0.00     0.185 C 
ATOM     37  N   UNL     1       4.828   0.923   5.754  1.00  0.00    -0.370 N 
ATOM     38  N   UNL     1       4.783  -0.715   7.262  1.00  0.00    -0.370 N 
ATOM     39  H   UNL     1       5.148   1.834   5.449  1.00  0.00     0.159 HD
ATOM     40  H   UNL     1       4.073   0.486   5.255  1.00  0.00     0.159 HD
ATOM     41  H   UNL     1       4.272  -1.261   6.588  1.00  0.00     0.159 HD
ATOM     42  H   UNL     1       5.048  -1.167   8.123  1.00  0.00     0.159 HD
ENDBRANCH  34  35
ENDBRANCH  33  34
ENDBRANCH  32  33
ENDBRANCH   6  32
ENDBRANCH   4   6
ENDBRANCH   1   2
BRANCH   1  43
ATOM     43  C   UNL     1       4.921   5.925   6.012  1.00  0.00     0.102 C 
ATOM     44  C   UNL     1       3.678   5.567   6.843  1.00  0.00     0.020 C 
BRANCH  43  45
ATOM     45  C   UNL     1       5.294   4.871   4.965  1.00  0.00     0.225 C 
ATOM     46  O   UNL     1       5.493   3.692   5.242  1.00  0.00    -0.275 OA
ATOM     47  N   UNL     1       5.488   5.347   3.689  1.00  0.00    -0.342 N 
ATOM     48  H   UNL     1       5.176   6.278   3.449  1.00  0.00     0.164 HD
BRANCH  47  49
ATOM     49  C   UNL     1       5.814   4.448   2.577  1.00  0.00     0.192 C 
BRANCH  49  50
ATOM     50  C   UNL     1       7.049   4.970   1.839  1.00  0.00     0.047 C 
BRANCH  50  51
ATOM     51  C   UNL     1       6.880   4.921   0.314  1.00  0.00     0.103 C 
BRANCH  51  52
ATOM     52  C   UNL     1       7.060   6.296  -0.327  1.00  0.00     0.226 C 
ATOM     53  O   UNL     1       7.527   7.222   0.338  1.00  0.00    -0.275 OA
BRANCH  52  54
ATOM     54  N   UNL     1       6.742   6.396  -1.694  1.00  0.00    -0.311 N 
ATOM     55  C   UNL     1       7.546   5.705  -2.711  1.00  0.00     0.153 C 
BRANCH  54  56
ATOM     56  C   UNL     1       5.645   7.153  -2.137  1.00  0.00     0.102 C 
ATOM     57  C   UNL     1       5.656   7.974  -3.200  1.00  0.00     0.043 C 
BRANCH  56  58
ATOM     58  C   UNL     1       4.306   7.058  -1.443  1.00  0.00     0.268 C 
ATOM     59  O   UNL     1       4.120   7.434  -0.294  1.00  0.00    -0.268 OA
ATOM     60  N   UNL     1       3.311   6.568  -2.255  1.00  0.00    -0.339 N 
ATOM     61  H   UNL     1       3.550   6.268  -3.192  1.00  0.00     0.164 HD
BRANCH  60  62
ATOM     62  C   UNL     1       1.925   6.451  -1.804  1.00  0.00     0.168 CG0
ATOM     63  C   UNL     1       1.658   5.075  -1.207  1.00  0.00     0.041 C 
ATOM     64  G   UNL     1       0.972   6.729  -2.984  1.00  0.00     0.000 G0
ENDBRANCH  60  62
ENDBRANCH  56  58
ENDBRANCH  54  56
ENDBRANCH  52  54
ENDBRANCH  51  52
ENDBRANCH  50  51
ENDBRANCH  49  50
BRANCH  49  65
ATOM     65  C   UNL     1       4.644   4.324   1.588  1.00  0.00     0.326 C 
ATOM     66  O   UNL     1       3.560   4.878   1.696  1.00  0.00    -0.250 OA
BRANCH  65  67
ATOM     67  O   UNL     1       4.864   3.476   0.559  1.00  0.00    -0.480 OA
ATOM     68  H   UNL     1       5.291   2.701   0.985  1.00  0.00     0.296 HD
ENDBRANCH  65  67
ENDBRANCH  49  65
ENDBRANCH  47  49
ENDBRANCH  43  45
ENDBRANCH   1  43
BRANCH   1  69
ATOM     69  C   UNL     1       7.476   6.595   6.189  1.00  0.00    -0.001 C 
ATOM     70  C   UNL     1       8.540   5.777   6.095  1.00  0.00     0.001 C 
BRANCH  70  71
ATOM     71  C   UNL     1       9.803   6.051   5.408  1.00  0.00    -0.055 C 
ATOM     72  C   UNL     1      10.108   7.340   5.147  1.00  0.00    -0.018 C 
ATOM     73  C   UNL     1      10.677   4.878   5.048  1.00  0.00     0.044 C 
BRANCH  72  74
ATOM     74  C   UNL     1      11.336   7.918   4.458  1.00  0.00     0.038 C 
ATOM     75  C   UNL     1      12.186   8.595   5.541  1.00  0.00     0.015 C 
BRANCH  74  76
ATOM     76  C   UNL     1      10.869   8.862   3.310  1.00  0.00     0.128 C 
BRANCH  76  77
ATOM     77  O   UNL     1      11.341  10.198   3.551  1.00  0.00    -0.381 OA
ATOM     78  C   UNL     1      10.431  11.208   3.135  1.00  0.00     0.195 C 
ENDBRANCH  76  77
BRANCH  76  79
ATOM     79  C   UNL     1      11.219   8.348   1.891  1.00  0.00     0.068 C 
BRANCH  79  80
ATOM     80  C   UNL     1      11.487   6.872   1.720  1.00  0.00    -0.045 A 
ATOM     81  C   UNL     1      12.793   6.367   1.754  1.00  0.00     0.004 A 
ATOM     82  C   UNL     1      10.426   5.983   1.494  1.00  0.00     0.004 A 
ATOM     83  C   UNL     1      13.034   5.002   1.580  1.00  0.00     0.000 A 
ATOM     84  C   UNL     1      10.667   4.618   1.319  1.00  0.00     0.000 A 
ATOM     85  C   UNL     1      11.970   4.128   1.364  1.00  0.00     0.000 A 
ENDBRANCH  79  80
ENDBRANCH  76  79
ENDBRANCH  74  76
ENDBRANCH  72  74
ENDBRANCH  70  71
ENDBRANCH   1  69
TORSDOF 17
ENDMDL
MODEL 31
REMARK VINA RESULT:    -6.079      4.253      9.524
REMARK INTER + INTRA:         -24.078
REMARK INTER:                 -16.836
REMARK INTRA:                  -7.242
REMARK UNBOUND:                -5.916
REMARK SMILES C=C1C(=O)N[C@H](C)C(=O)N[C@@H](CC(C)C)C(=O)N[C@@H](C(=O)O)[C@H](C)C(=O)N[C@@H](CCCN=C(N)N)C(=O)N[C@@H](/C=C/C(C)=C/[C@H](C)[C@H](Cc2ccccc2)OC)[C@H](C)C(=O)N[C@@H](C(=O)O)CCC(=O)N1C
REMARK SMILES IDX 39 1 38 2 37 3 36 4 28 6 27 7 25 8 26 9 23 11 24 12 19 13
REMARK SMILES IDX 18 14 16 15 17 16 11 18 10 19 8 20 9 21 12 24 13 25 14 26
REMARK SMILES IDX 15 27 20 28 21 29 22 30 29 32 30 33 31 34 32 35 33 36 34 37
REMARK SMILES IDX 35 38 57 43 58 44 59 45 60 46 61 47 62 49 66 50 67 51 68 52
REMARK SMILES IDX 69 53 70 54 71 55 2 56 1 57 3 58 4 59 5 60 6 62 7 63 63 65
REMARK SMILES IDX 64 66 65 67 40 69 41 70 42 71 44 72 43 73 45 74 46 75 47 76
REMARK SMILES IDX 55 77 56 78 48 79 49 80 50 81 54 82 51 83 53 84 52 85
REMARK H PARENT 38 5 27 10 18 17 10 22 22 31 34 39 34 40 35 41 35 42 61 48
REMARK H PARENT 5 61 65 68
REMARK Flexibility Score:  369.900
ROOT
ATOM      1  C   UNL     1       4.787  -2.140   7.772  1.00  0.00     0.117 C 
ENDROOT
BRANCH   1   2
ATOM      2  N   UNL     1       3.548  -2.894   7.964  1.00  0.00    -0.347 N 
ATOM      3  O   UNL     1       3.616  -3.030  10.255  1.00  0.00    -0.273 OA
ATOM      4  C   UNL     1       3.013  -3.201   9.200  1.00  0.00     0.243 C 
ATOM      5  H   UNL     1       3.010  -3.175   7.158  1.00  0.00     0.164 HD
BRANCH   4   6
ATOM      6  C   UNL     1       1.648  -3.931   9.125  1.00  0.00     0.171 C 
BRANCH   6   7
ATOM      7  N   UNL     1       1.538  -4.928  10.202  1.00  0.00    -0.344 N 
ATOM      8  C   UNL     1       2.076  -6.188  10.051  1.00  0.00     0.226 C 
ATOM      9  O   UNL     1       2.642  -6.546   9.025  1.00  0.00    -0.275 OA
ATOM     10  H   UNL     1       1.019  -4.692  11.039  1.00  0.00     0.164 HD
BRANCH   8  11
ATOM     11  C   UNL     1       1.928  -7.081  11.271  1.00  0.00     0.109 C 
ATOM     12  C   UNL     1       1.911  -6.235  12.544  1.00  0.00     0.021 C 
BRANCH  11  13
ATOM     13  C   UNL     1       0.710  -8.010  11.093  1.00  0.00     0.204 C 
BRANCH  13  14
ATOM     14  N   UNL     1      -0.453  -7.545  11.854  1.00  0.00    -0.340 N 
ATOM     15  C   UNL     1      -1.253  -8.392  12.590  1.00  0.00     0.243 C 
ATOM     16  O   UNL     1      -1.011  -9.591  12.709  1.00  0.00    -0.273 OA
ATOM     17  H   UNL     1      -0.796  -6.597  11.677  1.00  0.00     0.164 HD
BRANCH  15  18
ATOM     18  C   UNL     1      -2.535  -7.715  13.134  1.00  0.00     0.171 C 
BRANCH  18  19
ATOM     19  N   UNL     1      -3.138  -8.656  14.076  1.00  0.00    -0.343 N 
ATOM     20  C   UNL     1      -4.457  -9.052  13.966  1.00  0.00     0.242 CG0
ATOM     21  O   UNL     1      -5.220  -8.533  13.155  1.00  0.00    -0.273 OA
ATOM     22  H   UNL     1      -2.579  -9.027  14.836  1.00  0.00     0.164 HD
ATOM     23  G   UNL     1      -4.892 -10.110  15.002  1.00  0.00     0.000 G0
ENDBRANCH  18  19
BRANCH  18  24
ATOM     24  C   UNL     1      -2.197  -6.381  13.812  1.00  0.00     0.038 C 
BRANCH  24  25
ATOM     25  C   UNL     1      -2.869  -5.146  13.175  1.00  0.00    -0.015 C 
ATOM     26  C   UNL     1      -4.007  -5.523  12.226  1.00  0.00     0.007 C 
ATOM     27  C   UNL     1      -1.822  -4.321  12.422  1.00  0.00     0.007 C 
ENDBRANCH  24  25
ENDBRANCH  18  24
ENDBRANCH  15  18
ENDBRANCH  13  14
BRANCH  13  28
ATOM     28  C   UNL     1       0.270  -8.154   9.633  1.00  0.00     0.327 C 
ATOM     29  O   UNL     1      -0.641  -7.548   9.090  1.00  0.00    -0.250 OA
BRANCH  28  30
ATOM     30  O   UNL     1       0.922  -9.136   8.978  1.00  0.00    -0.480 OA
ATOM     31  H   UNL     1       0.604  -9.063   8.055  1.00  0.00     0.296 HD
ENDBRANCH  28  30
ENDBRANCH  13  28
ENDBRANCH  11  13
ENDBRANCH   8  11
ENDBRANCH   6   7
BRANCH   6  32
ATOM     32  C   UNL     1       0.519  -2.899   9.218  1.00  0.00     0.037 C 
BRANCH  32  33
ATOM     33  C   UNL     1      -0.388  -2.920   7.979  1.00  0.00     0.026 C 
BRANCH  33  34
ATOM     34  C   UNL     1      -0.588  -4.331   7.424  1.00  0.00     0.146 C 
BRANCH  34  35
ATOM     35  N   UNL     1      -0.005  -4.399   6.091  1.00  0.00    -0.254 NA
ATOM     36  C   UNL     1       0.714  -5.414   5.786  1.00  0.00     0.185 C 
ATOM     37  N   UNL     1       1.252  -5.489   4.559  1.00  0.00    -0.370 N 
ATOM     38  N   UNL     1       1.036  -6.479   6.541  1.00  0.00    -0.370 N 
ATOM     39  H   UNL     1       1.046  -4.727   3.925  1.00  0.00     0.159 HD
ATOM     40  H   UNL     1       1.677  -6.321   4.188  1.00  0.00     0.159 HD
ATOM     41  H   UNL     1       1.725  -7.146   6.234  1.00  0.00     0.159 HD
ATOM     42  H   UNL     1       0.714  -6.548   7.494  1.00  0.00     0.159 HD
ENDBRANCH  34  35
ENDBRANCH  33  34
ENDBRANCH  32  33
ENDBRANCH   6  32
ENDBRANCH   4   6
ENDBRANCH   1   2
BRANCH   1  43
ATOM     43  C   UNL     1       4.691  -1.365   6.426  1.00  0.00     0.102 C 
ATOM     44  C   UNL     1       5.568  -1.961   5.312  1.00  0.00     0.020 C 
BRANCH  43  45
ATOM     45  C   UNL     1       4.897   0.138   6.641  1.00  0.00     0.225 C 
ATOM     46  O   UNL     1       4.989   0.941   5.718  1.00  0.00    -0.275 OA
ATOM     47  N   UNL     1       5.069   0.531   7.949  1.00  0.00    -0.342 N 
ATOM     48  H   UNL     1       4.841  -0.109   8.697  1.00  0.00     0.164 HD
BRANCH  47  49
ATOM     49  C   UNL     1       5.240   1.942   8.309  1.00  0.00     0.192 C 
BRANCH  49  50
ATOM     50  C   UNL     1       6.732   2.276   8.382  1.00  0.00     0.047 C 
BRANCH  50  51
ATOM     51  C   UNL     1       7.151   3.300   7.318  1.00  0.00     0.103 C 
BRANCH  51  52
ATOM     52  C   UNL     1       6.462   4.649   7.517  1.00  0.00     0.226 C 
ATOM     53  O   UNL     1       6.782   5.363   8.470  1.00  0.00    -0.275 OA
BRANCH  52  54
ATOM     54  N   UNL     1       5.535   5.031   6.529  1.00  0.00    -0.311 N 
ATOM     55  C   UNL     1       4.179   5.465   6.892  1.00  0.00     0.153 C 
BRANCH  54  56
ATOM     56  C   UNL     1       5.871   5.018   5.165  1.00  0.00     0.102 C 
ATOM     57  C   UNL     1       5.304   4.224   4.242  1.00  0.00     0.043 C 
BRANCH  56  58
ATOM     58  C   UNL     1       6.907   5.969   4.613  1.00  0.00     0.268 C 
ATOM     59  O   UNL     1       7.354   6.914   5.248  1.00  0.00    -0.268 OA
ATOM     60  N   UNL     1       7.340   5.625   3.355  1.00  0.00    -0.339 N 
ATOM     61  H   UNL     1       6.911   4.832   2.892  1.00  0.00     0.164 HD
BRANCH  60  62
ATOM     62  C   UNL     1       8.385   6.374   2.659  1.00  0.00     0.168 CG0
ATOM     63  C   UNL     1       9.750   5.731   2.868  1.00  0.00     0.041 C 
ATOM     64  G   UNL     1       8.388   7.836   3.151  1.00  0.00     0.000 G0
ENDBRANCH  60  62
ENDBRANCH  56  58
ENDBRANCH  54  56
ENDBRANCH  52  54
ENDBRANCH  51  52
ENDBRANCH  50  51
ENDBRANCH  49  50
BRANCH  49  65
ATOM     65  C   UNL     1       4.578   2.267   9.657  1.00  0.00     0.326 C 
ATOM     66  O   UNL     1       4.454   3.384  10.136  1.00  0.00    -0.250 OA
BRANCH  65  67
ATOM     67  O   UNL     1       4.166   1.187  10.358  1.00  0.00    -0.480 OA
ATOM     68  H   UNL     1       5.002   0.724  10.582  1.00  0.00     0.296 HD
ENDBRANCH  65  67
ENDBRANCH  49  65
ENDBRANCH  47  49
ENDBRANCH  43  45
ENDBRANCH   1  43
BRANCH   1  69
ATOM     69  C   UNL     1       5.921  -3.130   7.968  1.00  0.00    -0.001 C 
ATOM     70  C   UNL     1       7.082  -2.925   8.615  1.00  0.00     0.001 C 
BRANCH  70  71
ATOM     71  C   UNL     1       8.159  -3.895   8.817  1.00  0.00    -0.055 C 
ATOM     72  C   UNL     1       8.834  -4.320   7.728  1.00  0.00    -0.018 C 
ATOM     73  C   UNL     1       8.445  -4.345  10.226  1.00  0.00     0.044 C 
BRANCH  72  74
ATOM     74  C   UNL     1       9.987  -5.309   7.634  1.00  0.00     0.038 C 
ATOM     75  C   UNL     1      11.240  -4.508   7.257  1.00  0.00     0.015 C 
BRANCH  74  76
ATOM     76  C   UNL     1       9.603  -6.433   6.627  1.00  0.00     0.128 C 
BRANCH  76  77
ATOM     77  O   UNL     1      10.664  -7.399   6.542  1.00  0.00    -0.381 OA
ATOM     78  C   UNL     1      10.767  -8.236   7.687  1.00  0.00     0.195 C 
ENDBRANCH  76  77
BRANCH  76  79
ATOM     79  C   UNL     1       8.223  -7.080   6.903  1.00  0.00     0.068 C 
BRANCH  79  80
ATOM     80  C   UNL     1       7.026  -6.537   6.161  1.00  0.00    -0.045 A 
ATOM     81  C   UNL     1       7.164  -5.963   4.891  1.00  0.00     0.004 A 
ATOM     82  C   UNL     1       5.753  -6.574   6.750  1.00  0.00     0.004 A 
ATOM     83  C   UNL     1       6.053  -5.450   4.217  1.00  0.00     0.000 A 
ATOM     84  C   UNL     1       4.643  -6.060   6.075  1.00  0.00     0.000 A 
ATOM     85  C   UNL     1       4.793  -5.500   4.809  1.00  0.00     0.000 A 
ENDBRANCH  79  80
ENDBRANCH  76  79
ENDBRANCH  74  76
ENDBRANCH  72  74
ENDBRANCH  70  71
ENDBRANCH   1  69
TORSDOF 17
ENDMDL
MODEL 32
REMARK VINA RESULT:    -6.078      6.299     11.414
REMARK INTER + INTRA:         -24.075
REMARK INTER:                 -17.267
REMARK INTRA:                  -6.808
REMARK UNBOUND:                -5.916
REMARK SMILES C=C1C(=O)N[C@H](C)C(=O)N[C@@H](CC(C)C)C(=O)N[C@@H](C(=O)O)[C@H](C)C(=O)N[C@@H](CCCN=C(N)N)C(=O)N[C@@H](/C=C/C(C)=C/[C@H](C)[C@H](Cc2ccccc2)OC)[C@H](C)C(=O)N[C@@H](C(=O)O)CCC(=O)N1C
REMARK SMILES IDX 39 1 38 2 37 3 36 4 28 6 27 7 25 8 26 9 23 11 24 12 19 13
REMARK SMILES IDX 18 14 16 15 17 16 11 18 10 19 8 20 9 21 12 24 13 25 14 26
REMARK SMILES IDX 15 27 20 28 21 29 22 30 29 32 30 33 31 34 32 35 33 36 34 37
REMARK SMILES IDX 35 38 57 43 58 44 59 45 60 46 61 47 62 49 66 50 67 51 68 52
REMARK SMILES IDX 69 53 70 54 71 55 2 56 1 57 3 58 4 59 5 60 6 62 7 63 63 65
REMARK SMILES IDX 64 66 65 67 40 69 41 70 42 71 44 72 43 73 45 74 46 75 47 76
REMARK SMILES IDX 55 77 56 78 48 79 49 80 50 81 54 82 51 83 53 84 52 85
REMARK H PARENT 38 5 27 10 18 17 10 22 22 31 34 39 34 40 35 41 35 42 61 48
REMARK H PARENT 5 61 65 68
REMARK Flexibility Score:  369.900
ROOT
ATOM      1  C   UNL     1       7.184   5.902  10.185  1.00  0.00     0.117 C 
ENDROOT
BRANCH   1   2
ATOM      2  N   UNL     1       6.803   5.300  11.464  1.00  0.00    -0.347 N 
ATOM      3  O   UNL     1       4.789   4.417  10.806  1.00  0.00    -0.273 OA
ATOM      4  C   UNL     1       5.675   4.525  11.648  1.00  0.00     0.243 C 
ATOM      5  H   UNL     1       7.413   5.404  12.261  1.00  0.00     0.164 HD
BRANCH   4   6
ATOM      6  C   UNL     1       5.549   3.937  13.076  1.00  0.00     0.171 C 
BRANCH   6   7
ATOM      7  N   UNL     1       4.153   4.003  13.539  1.00  0.00    -0.344 N 
ATOM      8  C   UNL     1       3.734   5.024  14.363  1.00  0.00     0.226 C 
ATOM      9  O   UNL     1       4.490   5.901  14.766  1.00  0.00    -0.275 OA
ATOM     10  H   UNL     1       3.516   3.260  13.282  1.00  0.00     0.164 HD
BRANCH   8  11
ATOM     11  C   UNL     1       2.256   4.983  14.708  1.00  0.00     0.109 C 
ATOM     12  C   UNL     1       1.489   4.196  13.645  1.00  0.00     0.021 C 
BRANCH  11  13
ATOM     13  C   UNL     1       2.070   4.473  16.151  1.00  0.00     0.204 C 
BRANCH  13  14
ATOM     14  N   UNL     1       3.208   3.664  16.600  1.00  0.00    -0.340 N 
ATOM     15  C   UNL     1       3.070   2.379  17.078  1.00  0.00     0.243 C 
ATOM     16  O   UNL     1       1.987   1.797  17.104  1.00  0.00    -0.273 OA
ATOM     17  H   UNL     1       4.104   4.136  16.747  1.00  0.00     0.164 HD
BRANCH  15  18
ATOM     18  C   UNL     1       4.372   1.802  17.686  1.00  0.00     0.171 C 
BRANCH  18  19
ATOM     19  N   UNL     1       4.232   0.347  17.672  1.00  0.00    -0.343 N 
ATOM     20  C   UNL     1       3.793  -0.353  18.779  1.00  0.00     0.242 CG0
ATOM     21  O   UNL     1       3.629   0.197  19.865  1.00  0.00    -0.273 OA
ATOM     22  H   UNL     1       4.467  -0.167  16.831  1.00  0.00     0.164 HD
ATOM     23  G   UNL     1       3.633  -1.870  18.551  1.00  0.00     0.000 G0
ENDBRANCH  18  19
BRANCH  18  24
ATOM     24  C   UNL     1       5.594   2.256  16.879  1.00  0.00     0.038 C 
BRANCH  24  25
ATOM     25  C   UNL     1       6.569   3.175  17.647  1.00  0.00    -0.015 C 
ATOM     26  C   UNL     1       6.032   3.579  19.020  1.00  0.00     0.007 C 
ATOM     27  C   UNL     1       6.857   4.428  16.816  1.00  0.00     0.007 C 
ENDBRANCH  24  25
ENDBRANCH  18  24
ENDBRANCH  15  18
ENDBRANCH  13  14
BRANCH  13  28
ATOM     28  C   UNL     1       1.884   5.601  17.171  1.00  0.00     0.327 C 
ATOM     29  O   UNL     1       0.822   6.100  17.510  1.00  0.00    -0.250 OA
BRANCH  28  30
ATOM     30  O   UNL     1       3.051   6.111  17.613  1.00  0.00    -0.480 OA
ATOM     31  H   UNL     1       3.653   5.339  17.651  1.00  0.00     0.296 HD
ENDBRANCH  28  30
ENDBRANCH  13  28
ENDBRANCH  11  13
ENDBRANCH   8  11
ENDBRANCH   6   7
BRANCH   6  32
ATOM     32  C   UNL     1       6.056   2.490  13.071  1.00  0.00     0.037 C 
BRANCH  32  33
ATOM     33  C   UNL     1       4.914   1.476  13.230  1.00  0.00     0.026 C 
BRANCH  33  34
ATOM     34  C   UNL     1       4.336   1.031  11.886  1.00  0.00     0.146 C 
BRANCH  34  35
ATOM     35  N   UNL     1       5.428   0.608  11.021  1.00  0.00    -0.254 NA
ATOM     36  C   UNL     1       5.433   0.998   9.801  1.00  0.00     0.185 C 
ATOM     37  N   UNL     1       6.437   0.617   8.997  1.00  0.00    -0.370 N 
ATOM     38  N   UNL     1       4.541   1.773   9.159  1.00  0.00    -0.370 N 
ATOM     39  H   UNL     1       7.157   0.038   9.411  1.00  0.00     0.159 HD
ATOM     40  H   UNL     1       6.605   1.017   8.089  1.00  0.00     0.159 HD
ATOM     41  H   UNL     1       4.581   1.895   8.160  1.00  0.00     0.159 HD
ATOM     42  H   UNL     1       3.724   2.119   9.638  1.00  0.00     0.159 HD
ENDBRANCH  34  35
ENDBRANCH  33  34
ENDBRANCH  32  33
ENDBRANCH   6  32
ENDBRANCH   4   6
ENDBRANCH   1   2
BRANCH   1  43
ATOM     43  C   UNL     1       7.819   4.800   9.289  1.00  0.00     0.102 C 
ATOM     44  C   UNL     1       9.179   5.203   8.695  1.00  0.00     0.020 C 
BRANCH  43  45
ATOM     45  C   UNL     1       6.815   4.287   8.253  1.00  0.00     0.225 C 
ATOM     46  O   UNL     1       6.961   3.232   7.643  1.00  0.00    -0.275 OA
ATOM     47  N   UNL     1       5.770   5.136   7.971  1.00  0.00    -0.342 N 
ATOM     48  H   UNL     1       5.582   5.919   8.581  1.00  0.00     0.164 HD
BRANCH  47  49
ATOM     49  C   UNL     1       4.713   4.763   7.026  1.00  0.00     0.192 C 
BRANCH  49  50
ATOM     50  C   UNL     1       4.943   5.474   5.690  1.00  0.00     0.047 C 
BRANCH  50  51
ATOM     51  C   UNL     1       5.194   4.487   4.541  1.00  0.00     0.103 C 
BRANCH  51  52
ATOM     52  C   UNL     1       6.131   5.066   3.482  1.00  0.00     0.226 C 
ATOM     53  O   UNL     1       7.143   5.676   3.831  1.00  0.00    -0.275 OA
BRANCH  52  54
ATOM     54  N   UNL     1       5.806   4.792   2.141  1.00  0.00    -0.311 N 
ATOM     55  C   UNL     1       4.499   4.226   1.780  1.00  0.00     0.153 C 
BRANCH  54  56
ATOM     56  C   UNL     1       6.712   5.054   1.100  1.00  0.00     0.102 C 
ATOM     57  C   UNL     1       8.048   4.976   1.206  1.00  0.00     0.043 C 
BRANCH  56  58
ATOM     58  C   UNL     1       6.221   5.414  -0.283  1.00  0.00     0.268 C 
ATOM     59  O   UNL     1       6.439   4.726  -1.271  1.00  0.00    -0.268 OA
ATOM     60  N   UNL     1       5.451   6.552  -0.304  1.00  0.00    -0.339 N 
ATOM     61  H   UNL     1       5.325   7.071   0.557  1.00  0.00     0.164 HD
BRANCH  60  62
ATOM     62  C   UNL     1       4.823   7.046  -1.528  1.00  0.00     0.168 CG0
ATOM     63  C   UNL     1       3.418   6.478  -1.690  1.00  0.00     0.041 C 
ATOM     64  G   UNL     1       5.701   6.682  -2.743  1.00  0.00     0.000 G0
ENDBRANCH  60  62
ENDBRANCH  56  58
ENDBRANCH  54  56
ENDBRANCH  52  54
ENDBRANCH  51  52
ENDBRANCH  50  51
ENDBRANCH  49  50
BRANCH  49  65
ATOM     65  C   UNL     1       3.319   5.125   7.562  1.00  0.00     0.326 C 
ATOM     66  O   UNL     1       3.093   5.784   8.566  1.00  0.00    -0.250 OA
BRANCH  65  67
ATOM     67  O   UNL     1       2.291   4.601   6.858  1.00  0.00    -0.480 OA
ATOM     68  H   UNL     1       1.725   5.379   6.661  1.00  0.00     0.296 HD
ENDBRANCH  65  67
ENDBRANCH  49  65
ENDBRANCH  47  49
ENDBRANCH  43  45
ENDBRANCH   1  43
BRANCH   1  69
ATOM     69  C   UNL     1       8.003   7.134  10.524  1.00  0.00    -0.001 C 
ATOM     70  C   UNL     1       7.560   8.291  11.048  1.00  0.00     0.001 C 
BRANCH  70  71
ATOM     71  C   UNL     1       8.364   9.466  11.390  1.00  0.00    -0.055 C 
ATOM     72  C   UNL     1       8.288   9.931  12.655  1.00  0.00    -0.018 C 
ATOM     73  C   UNL     1       9.225  10.067  10.310  1.00  0.00     0.044 C 
BRANCH  72  74
ATOM     74  C   UNL     1       9.001  11.117  13.290  1.00  0.00     0.038 C 
ATOM     75  C   UNL     1      10.358  10.611  13.795  1.00  0.00     0.015 C 
BRANCH  74  76
ATOM     76  C   UNL     1       8.081  11.725  14.389  1.00  0.00     0.128 C 
BRANCH  76  77
ATOM     77  O   UNL     1       8.032  13.156  14.251  1.00  0.00    -0.381 OA
ATOM     78  C   UNL     1       7.166  13.601  13.216  1.00  0.00     0.195 C 
ENDBRANCH  76  77
BRANCH  76  79
ATOM     79  C   UNL     1       6.673  11.082  14.458  1.00  0.00     0.068 C 
BRANCH  79  80
ATOM     80  C   UNL     1       6.289  10.356  15.725  1.00  0.00    -0.045 A 
ATOM     81  C   UNL     1       6.151   8.962  15.745  1.00  0.00     0.004 A 
ATOM     82  C   UNL     1       6.037  11.075  16.903  1.00  0.00     0.004 A 
ATOM     83  C   UNL     1       5.782   8.299  16.917  1.00  0.00     0.000 A 
ATOM     84  C   UNL     1       5.667  10.411  18.075  1.00  0.00     0.000 A 
ATOM     85  C   UNL     1       5.541   9.024  18.082  1.00  0.00     0.000 A 
ENDBRANCH  79  80
ENDBRANCH  76  79
ENDBRANCH  74  76
ENDBRANCH  72  74
ENDBRANCH  70  71
ENDBRANCH   1  69
TORSDOF 17
ENDMDL
MODEL 33
REMARK VINA RESULT:    -6.067      3.917     14.743
REMARK INTER + INTRA:         -24.043
REMARK INTER:                 -16.681
REMARK INTRA:                  -7.362
REMARK UNBOUND:                -5.916
REMARK SMILES C=C1C(=O)N[C@H](C)C(=O)N[C@@H](CC(C)C)C(=O)N[C@@H](C(=O)O)[C@H](C)C(=O)N[C@@H](CCCN=C(N)N)C(=O)N[C@@H](/C=C/C(C)=C/[C@H](C)[C@H](Cc2ccccc2)OC)[C@H](C)C(=O)N[C@@H](C(=O)O)CCC(=O)N1C
REMARK SMILES IDX 39 1 38 2 37 3 36 4 28 6 27 7 25 8 26 9 23 11 24 12 19 13
REMARK SMILES IDX 18 14 16 15 17 16 11 18 10 19 8 20 9 21 12 24 13 25 14 26
REMARK SMILES IDX 15 27 20 28 21 29 22 30 29 32 30 33 31 34 32 35 33 36 34 37
REMARK SMILES IDX 35 38 57 43 58 44 59 45 60 46 61 47 62 49 66 50 67 51 68 52
REMARK SMILES IDX 69 53 70 54 71 55 2 56 1 57 3 58 4 59 5 60 6 62 7 63 63 65
REMARK SMILES IDX 64 66 65 67 40 69 41 70 42 71 44 72 43 73 45 74 46 75 47 76
REMARK SMILES IDX 55 77 56 78 48 79 49 80 50 81 54 82 51 83 53 84 52 85
REMARK H PARENT 38 5 27 10 18 17 10 22 22 31 34 39 34 40 35 41 35 42 61 48
REMARK H PARENT 5 61 65 68
REMARK Flexibility Score:  369.900
ROOT
ATOM      1  C   UNL     1       3.430  -2.987   7.250  1.00  0.00     0.117 C 
ENDROOT
BRANCH   1   2
ATOM      2  N   UNL     1       4.226  -1.800   7.563  1.00  0.00    -0.347 N 
ATOM      3  O   UNL     1       5.046  -1.408   5.454  1.00  0.00    -0.273 OA
ATOM      4  C   UNL     1       4.900  -1.049   6.618  1.00  0.00     0.243 C 
ATOM      5  H   UNL     1       4.259  -1.462   8.513  1.00  0.00     0.164 HD
BRANCH   4   6
ATOM      6  C   UNL     1       5.595   0.208   7.200  1.00  0.00     0.171 C 
BRANCH   6   7
ATOM      7  N   UNL     1       5.153   1.417   6.488  1.00  0.00    -0.344 N 
ATOM      8  C   UNL     1       6.064   2.371   6.090  1.00  0.00     0.226 C 
ATOM      9  O   UNL     1       7.264   2.276   6.323  1.00  0.00    -0.275 OA
ATOM     10  H   UNL     1       4.163   1.563   6.336  1.00  0.00     0.164 HD
BRANCH   8  11
ATOM     11  C   UNL     1       5.459   3.531   5.319  1.00  0.00     0.109 C 
ATOM     12  C   UNL     1       3.933   3.466   5.382  1.00  0.00     0.021 C 
BRANCH  11  13
ATOM     13  C   UNL     1       6.073   4.858   5.807  1.00  0.00     0.204 C 
BRANCH  13  14
ATOM     14  N   UNL     1       6.569   5.678   4.698  1.00  0.00    -0.340 N 
ATOM     15  C   UNL     1       7.897   5.713   4.329  1.00  0.00     0.243 C 
ATOM     16  O   UNL     1       8.750   5.010   4.867  1.00  0.00    -0.273 OA
ATOM     17  H   UNL     1       5.946   6.392   4.312  1.00  0.00     0.164 HD
BRANCH  15  18
ATOM     18  C   UNL     1       8.217   6.800   3.274  1.00  0.00     0.171 C 
BRANCH  18  19
ATOM     19  N   UNL     1       9.672   6.837   3.139  1.00  0.00    -0.343 N 
ATOM     20  C   UNL     1      10.383   8.018   3.228  1.00  0.00     0.242 CG0
ATOM     21  O   UNL     1       9.817   9.107   3.291  1.00  0.00    -0.273 OA
ATOM     22  H   UNL     1      10.178   5.974   2.970  1.00  0.00     0.164 HD
ATOM     23  G   UNL     1      11.914   7.848   3.139  1.00  0.00     0.000 G0
ENDBRANCH  18  19
BRANCH  18  24
ATOM     24  C   UNL     1       7.537   6.477   1.939  1.00  0.00     0.038 C 
BRANCH  24  25
ATOM     25  C   UNL     1       7.522   4.979   1.569  1.00  0.00    -0.015 C 
ATOM     26  C   UNL     1       8.523   4.639   0.464  1.00  0.00     0.007 C 
ATOM     27  C   UNL     1       6.113   4.570   1.131  1.00  0.00     0.007 C 
ENDBRANCH  24  25
ENDBRANCH  18  24
ENDBRANCH  15  18
ENDBRANCH  13  14
BRANCH  13  28
ATOM     28  C   UNL     1       5.089   5.720   6.604  1.00  0.00     0.327 C 
ATOM     29  O   UNL     1       4.253   6.480   6.139  1.00  0.00    -0.250 OA
BRANCH  28  30
ATOM     30  O   UNL     1       5.295   5.665   7.935  1.00  0.00    -0.480 OA
ATOM     31  H   UNL     1       5.997   6.330   8.098  1.00  0.00     0.296 HD
ENDBRANCH  28  30
ENDBRANCH  13  28
ENDBRANCH  11  13
ENDBRANCH   8  11
ENDBRANCH   6   7
BRANCH   6  32
ATOM     32  C   UNL     1       5.280   0.309   8.697  1.00  0.00     0.037 C 
BRANCH  32  33
ATOM     33  C   UNL     1       6.198   1.307   9.416  1.00  0.00     0.026 C 
BRANCH  33  34
ATOM     34  C   UNL     1       5.416   2.351  10.215  1.00  0.00     0.146 C 
BRANCH  34  35
ATOM     35  N   UNL     1       4.633   3.160   9.291  1.00  0.00    -0.254 NA
ATOM     36  C   UNL     1       3.396   3.365   9.551  1.00  0.00     0.185 C 
ATOM     37  N   UNL     1       2.666   4.113   8.709  1.00  0.00    -0.370 N 
ATOM     38  N   UNL     1       2.667   2.926  10.592  1.00  0.00    -0.370 N 
ATOM     39  H   UNL     1       3.148   4.490   7.903  1.00  0.00     0.159 HD
ATOM     40  H   UNL     1       1.748   4.461   8.927  1.00  0.00     0.159 HD
ATOM     41  H   UNL     1       1.667   3.038  10.613  1.00  0.00     0.159 HD
ATOM     42  H   UNL     1       3.083   2.337  11.297  1.00  0.00     0.159 HD
ENDBRANCH  34  35
ENDBRANCH  33  34
ENDBRANCH  32  33
ENDBRANCH   6  32
ENDBRANCH   4   6
ENDBRANCH   1   2
BRANCH   1  43
ATOM     43  C   UNL     1       2.372  -3.184   8.374  1.00  0.00     0.102 C 
ATOM     44  C   UNL     1       2.979  -3.640   9.712  1.00  0.00     0.020 C 
BRANCH  43  45
ATOM     45  C   UNL     1       1.210  -4.056   7.889  1.00  0.00     0.225 C 
ATOM     46  O   UNL     1       0.353  -3.656   7.106  1.00  0.00    -0.275 OA
ATOM     47  N   UNL     1       1.128  -5.304   8.461  1.00  0.00    -0.342 N 
ATOM     48  H   UNL     1       1.914  -5.670   8.979  1.00  0.00     0.164 HD
BRANCH  47  49
ATOM     49  C   UNL     1       0.088  -6.260   8.067  1.00  0.00     0.192 C 
BRANCH  49  50
ATOM     50  C   UNL     1      -0.543  -6.879   9.317  1.00  0.00     0.047 C 
BRANCH  50  51
ATOM     51  C   UNL     1      -1.917  -6.275   9.634  1.00  0.00     0.103 C 
BRANCH  51  52
ATOM     52  C   UNL     1      -1.819  -5.109  10.616  1.00  0.00     0.226 C 
ATOM     53  O   UNL     1      -1.431  -4.008  10.219  1.00  0.00    -0.275 OA
BRANCH  52  54
ATOM     54  N   UNL     1      -2.262  -5.356  11.929  1.00  0.00    -0.311 N 
ATOM     55  C   UNL     1      -3.670  -5.167  12.300  1.00  0.00     0.153 C 
BRANCH  54  56
ATOM     56  C   UNL     1      -1.379  -5.795  12.929  1.00  0.00     0.102 C 
ATOM     57  C   UNL     1      -0.268  -5.146  13.313  1.00  0.00     0.043 C 
BRANCH  56  58
ATOM     58  C   UNL     1      -1.655  -7.062  13.705  1.00  0.00     0.268 C 
ATOM     59  O   UNL     1      -2.003  -8.109  13.176  1.00  0.00    -0.268 OA
ATOM     60  N   UNL     1      -1.412  -6.934  15.052  1.00  0.00    -0.339 N 
ATOM     61  H   UNL     1      -1.136  -6.028  15.413  1.00  0.00     0.164 HD
BRANCH  60  62
ATOM     62  C   UNL     1      -1.556  -8.055  15.979  1.00  0.00     0.168 CG0
ATOM     63  C   UNL     1      -2.584  -7.744  17.059  1.00  0.00     0.041 C 
ATOM     64  G   UNL     1      -0.186  -8.384  16.608  1.00  0.00     0.000 G0
ENDBRANCH  60  62
ENDBRANCH  56  58
ENDBRANCH  54  56
ENDBRANCH  52  54
ENDBRANCH  51  52
ENDBRANCH  50  51
ENDBRANCH  49  50
BRANCH  49  65
ATOM     65  C   UNL     1       0.655  -7.378   7.177  1.00  0.00     0.326 C 
ATOM     66  O   UNL     1       0.050  -8.381   6.825  1.00  0.00    -0.250 OA
BRANCH  65  67
ATOM     67  O   UNL     1       1.950  -7.219   6.827  1.00  0.00    -0.480 OA
ATOM     68  H   UNL     1       2.436  -7.759   7.486  1.00  0.00     0.296 HD
ENDBRANCH  65  67
ENDBRANCH  49  65
ENDBRANCH  47  49
ENDBRANCH  43  45
ENDBRANCH   1  43
BRANCH   1  69
ATOM     69  C   UNL     1       4.422  -4.102   6.973  1.00  0.00    -0.001 C 
ATOM     70  C   UNL     1       4.498  -4.874   5.874  1.00  0.00     0.001 C 
BRANCH  70  71
ATOM     71  C   UNL     1       5.474  -5.933   5.609  1.00  0.00    -0.055 C 
ATOM     72  C   UNL     1       5.555  -6.948   6.495  1.00  0.00    -0.018 C 
ATOM     73  C   UNL     1       6.312  -5.819   4.363  1.00  0.00     0.044 C 
BRANCH  72  74
ATOM     74  C   UNL     1       6.461  -8.171   6.479  1.00  0.00     0.038 C 
ATOM     75  C   UNL     1       5.553  -9.405   6.418  1.00  0.00     0.015 C 
BRANCH  74  76
ATOM     76  C   UNL     1       7.403  -8.113   7.717  1.00  0.00     0.128 C 
BRANCH  76  77
ATOM     77  O   UNL     1       8.045  -9.386   7.904  1.00  0.00    -0.381 OA
ATOM     78  C   UNL     1       9.380  -9.287   8.383  1.00  0.00     0.195 C 
ENDBRANCH  76  77
BRANCH  76  79
ATOM     79  C   UNL     1       8.406  -6.933   7.690  1.00  0.00     0.068 C 
BRANCH  79  80
ATOM     80  C   UNL     1       7.942  -5.598   8.220  1.00  0.00    -0.045 A 
ATOM     81  C   UNL     1       8.252  -4.408   7.549  1.00  0.00     0.004 A 
ATOM     82  C   UNL     1       7.212  -5.527   9.417  1.00  0.00     0.004 A 
ATOM     83  C   UNL     1       7.831  -3.176   8.054  1.00  0.00     0.000 A 
ATOM     84  C   UNL     1       6.792  -4.294   9.921  1.00  0.00     0.000 A 
ATOM     85  C   UNL     1       7.100  -3.119   9.239  1.00  0.00     0.000 A 
ENDBRANCH  79  80
ENDBRANCH  76  79
ENDBRANCH  74  76
ENDBRANCH  72  74
ENDBRANCH  70  71
ENDBRANCH   1  69
TORSDOF 17
ENDMDL
MODEL 34
REMARK VINA RESULT:    -6.067      4.188     11.551
REMARK INTER + INTRA:         -24.042
REMARK INTER:                 -18.767
REMARK INTRA:                  -5.275
REMARK UNBOUND:                -5.916
REMARK SMILES C=C1C(=O)N[C@H](C)C(=O)N[C@@H](CC(C)C)C(=O)N[C@@H](C(=O)O)[C@H](C)C(=O)N[C@@H](CCCN=C(N)N)C(=O)N[C@@H](/C=C/C(C)=C/[C@H](C)[C@H](Cc2ccccc2)OC)[C@H](C)C(=O)N[C@@H](C(=O)O)CCC(=O)N1C
REMARK SMILES IDX 39 1 38 2 37 3 36 4 28 6 27 7 25 8 26 9 23 11 24 12 19 13
REMARK SMILES IDX 18 14 16 15 17 16 11 18 10 19 8 20 9 21 12 24 13 25 14 26
REMARK SMILES IDX 15 27 20 28 21 29 22 30 29 32 30 33 31 34 32 35 33 36 34 37
REMARK SMILES IDX 35 38 57 43 58 44 59 45 60 46 61 47 62 49 66 50 67 51 68 52
REMARK SMILES IDX 69 53 70 54 71 55 2 56 1 57 3 58 4 59 5 60 6 62 7 63 63 65
REMARK SMILES IDX 64 66 65 67 40 69 41 70 42 71 44 72 43 73 45 74 46 75 47 76
REMARK SMILES IDX 55 77 56 78 48 79 49 80 50 81 54 82 51 83 53 84 52 85
REMARK H PARENT 38 5 27 10 18 17 10 22 22 31 34 39 34 40 35 41 35 42 61 48
REMARK H PARENT 5 61 65 68
REMARK Flexibility Score:  369.900
ROOT
ATOM      1  C   UNL     1       5.689   2.164   6.948  1.00  0.00     0.117 C 
ENDROOT
BRANCH   1   2
ATOM      2  N   UNL     1       5.482   3.002   8.130  1.00  0.00    -0.347 N 
ATOM      3  O   UNL     1       3.520   3.993   7.471  1.00  0.00    -0.273 OA
ATOM      4  C   UNL     1       4.362   3.784   8.337  1.00  0.00     0.243 C 
ATOM      5  H   UNL     1       6.164   2.985   8.873  1.00  0.00     0.164 HD
BRANCH   4   6
ATOM      6  C   UNL     1       4.351   4.506   9.708  1.00  0.00     0.171 C 
BRANCH   6   7
ATOM      7  N   UNL     1       4.170   3.535  10.799  1.00  0.00    -0.344 N 
ATOM      8  C   UNL     1       3.132   3.671  11.695  1.00  0.00     0.226 C 
ATOM      9  O   UNL     1       2.335   4.600  11.647  1.00  0.00    -0.275 OA
ATOM     10  H   UNL     1       4.848   2.792  10.912  1.00  0.00     0.164 HD
BRANCH   8  11
ATOM     11  C   UNL     1       3.048   2.560  12.728  1.00  0.00     0.109 C 
ATOM     12  C   UNL     1       4.145   1.525  12.477  1.00  0.00     0.021 C 
BRANCH  11  13
ATOM     13  C   UNL     1       3.040   3.166  14.146  1.00  0.00     0.204 C 
BRANCH  13  14
ATOM     14  N   UNL     1       3.844   4.389  14.228  1.00  0.00    -0.340 N 
ATOM     15  C   UNL     1       4.932   4.515  15.065  1.00  0.00     0.243 C 
ATOM     16  O   UNL     1       5.342   3.587  15.759  1.00  0.00    -0.273 OA
ATOM     17  H   UNL     1       3.471   5.239  13.796  1.00  0.00     0.164 HD
BRANCH  15  18
ATOM     18  C   UNL     1       5.494   5.956  15.135  1.00  0.00     0.171 C 
BRANCH  18  19
ATOM     19  N   UNL     1       4.725   6.655  16.163  1.00  0.00    -0.343 N 
ATOM     20  C   UNL     1       3.485   7.205  15.899  1.00  0.00     0.242 CG0
ATOM     21  O   UNL     1       3.031   7.248  14.758  1.00  0.00    -0.273 OA
ATOM     22  H   UNL     1       5.111   6.748  17.096  1.00  0.00     0.164 HD
ATOM     23  G   UNL     1       2.792   7.832  17.125  1.00  0.00     0.000 G0
ENDBRANCH  18  19
BRANCH  18  24
ATOM     24  C   UNL     1       6.991   5.937  15.469  1.00  0.00     0.038 C 
BRANCH  24  25
ATOM     25  C   UNL     1       7.914   6.373  14.311  1.00  0.00    -0.015 C 
ATOM     26  C   UNL     1       7.185   7.222  13.269  1.00  0.00     0.007 C 
ATOM     27  C   UNL     1       8.516   5.136  13.639  1.00  0.00     0.007 C 
ENDBRANCH  24  25
ENDBRANCH  18  24
ENDBRANCH  15  18
ENDBRANCH  13  14
BRANCH  13  28
ATOM     28  C   UNL     1       1.634   3.512  14.646  1.00  0.00     0.327 C 
ATOM     29  O   UNL     1       0.812   2.726  15.092  1.00  0.00    -0.250 OA
BRANCH  28  30
ATOM     30  O   UNL     1       1.305   4.804  14.445  1.00  0.00    -0.480 OA
ATOM     31  H   UNL     1       0.958   5.102  15.311  1.00  0.00     0.296 HD
ENDBRANCH  28  30
ENDBRANCH  13  28
ENDBRANCH  11  13
ENDBRANCH   8  11
ENDBRANCH   6   7
BRANCH   6  32
ATOM     32  C   UNL     1       5.662   5.282   9.879  1.00  0.00     0.037 C 
BRANCH  32  33
ATOM     33  C   UNL     1       6.188   5.830   8.545  1.00  0.00     0.026 C 
BRANCH  33  34
ATOM     34  C   UNL     1       5.866   7.312   8.352  1.00  0.00     0.146 C 
BRANCH  34  35
ATOM     35  N   UNL     1       4.457   7.529   8.651  1.00  0.00    -0.254 NA
ATOM     36  C   UNL     1       3.593   7.311   7.730  1.00  0.00     0.185 C 
ATOM     37  N   UNL     1       2.292   7.503   7.997  1.00  0.00    -0.370 N 
ATOM     38  N   UNL     1       3.791   6.896   6.467  1.00  0.00    -0.370 N 
ATOM     39  H   UNL     1       2.060   7.807   8.934  1.00  0.00     0.159 HD
ATOM     40  H   UNL     1       1.549   7.192   7.394  1.00  0.00     0.159 HD
ATOM     41  H   UNL     1       3.041   6.895   5.795  1.00  0.00     0.159 HD
ATOM     42  H   UNL     1       4.724   6.727   6.123  1.00  0.00     0.159 HD
ENDBRANCH  34  35
ENDBRANCH  33  34
ENDBRANCH  32  33
ENDBRANCH   6  32
ENDBRANCH   4   6
ENDBRANCH   1   2
BRANCH   1  43
ATOM     43  C   UNL     1       6.033   0.721   7.418  1.00  0.00     0.102 C 
ATOM     44  C   UNL     1       7.544   0.435   7.460  1.00  0.00     0.020 C 
BRANCH  43  45
ATOM     45  C   UNL     1       5.225  -0.320   6.637  1.00  0.00     0.225 C 
ATOM     46  O   UNL     1       4.541  -0.040   5.656  1.00  0.00    -0.275 OA
ATOM     47  N   UNL     1       5.234  -1.592   7.161  1.00  0.00    -0.342 N 
ATOM     48  H   UNL     1       5.913  -1.837   7.868  1.00  0.00     0.164 HD
BRANCH  47  49
ATOM     49  C   UNL     1       4.535  -2.698   6.500  1.00  0.00     0.192 C 
BRANCH  49  50
ATOM     50  C   UNL     1       4.019  -3.683   7.552  1.00  0.00     0.047 C 
BRANCH  50  51
ATOM     51  C   UNL     1       2.490  -3.813   7.528  1.00  0.00     0.103 C 
BRANCH  51  52
ATOM     52  C   UNL     1       2.024  -4.930   6.596  1.00  0.00     0.226 C 
ATOM     53  O   UNL     1       2.292  -4.872   5.394  1.00  0.00    -0.275 OA
BRANCH  52  54
ATOM     54  N   UNL     1       1.366  -6.017   7.199  1.00  0.00    -0.311 N 
ATOM     55  C   UNL     1       0.032  -5.859   7.792  1.00  0.00     0.153 C 
BRANCH  54  56
ATOM     56  C   UNL     1       1.955  -7.291   7.253  1.00  0.00     0.102 C 
ATOM     57  C   UNL     1       2.508  -7.837   8.349  1.00  0.00     0.043 C 
BRANCH  56  58
ATOM     58  C   UNL     1       1.967  -8.191   6.040  1.00  0.00     0.268 C 
ATOM     59  O   UNL     1       1.019  -8.895   5.719  1.00  0.00    -0.268 OA
ATOM     60  N   UNL     1       3.121  -8.088   5.301  1.00  0.00    -0.339 N 
ATOM     61  H   UNL     1       3.865  -7.489   5.641  1.00  0.00     0.164 HD
BRANCH  60  62
ATOM     62  C   UNL     1       3.317  -8.825   4.053  1.00  0.00     0.168 CG0
ATOM     63  C   UNL     1       4.758  -8.712   3.571  1.00  0.00     0.041 C 
ATOM     64  G   UNL     1       2.340  -8.296   2.983  1.00  0.00     0.000 G0
ENDBRANCH  60  62
ENDBRANCH  56  58
ENDBRANCH  54  56
ENDBRANCH  52  54
ENDBRANCH  51  52
ENDBRANCH  50  51
ENDBRANCH  49  50
BRANCH  49  65
ATOM     65  C   UNL     1       5.451  -3.439   5.514  1.00  0.00     0.326 C 
ATOM     66  O   UNL     1       5.707  -4.634   5.543  1.00  0.00    -0.250 OA
BRANCH  65  67
ATOM     67  O   UNL     1       6.041  -2.650   4.590  1.00  0.00    -0.480 OA
ATOM     68  H   UNL     1       6.895  -3.100   4.412  1.00  0.00     0.296 HD
ENDBRANCH  65  67
ENDBRANCH  49  65
ENDBRANCH  47  49
ENDBRANCH  43  45
ENDBRANCH   1  43
BRANCH   1  69
ATOM     69  C   UNL     1       6.681   2.905   6.070  1.00  0.00    -0.001 C 
ATOM     70  C   UNL     1       6.633   4.195   5.693  1.00  0.00     0.001 C 
BRANCH  70  71
ATOM     71  C   UNL     1       7.608   4.905   4.863  1.00  0.00    -0.055 C 
ATOM     72  C   UNL     1       7.167   5.464   3.716  1.00  0.00    -0.018 C 
ATOM     73  C   UNL     1       9.031   4.970   5.351  1.00  0.00     0.044 C 
BRANCH  72  74
ATOM     74  C   UNL     1       7.940   6.255   2.670  1.00  0.00     0.038 C 
ATOM     75  C   UNL     1       8.273   7.618   3.289  1.00  0.00     0.015 C 
BRANCH  74  76
ATOM     76  C   UNL     1       7.095   6.319   1.364  1.00  0.00     0.128 C 
BRANCH  76  77
ATOM     77  O   UNL     1       7.915   6.763   0.270  1.00  0.00    -0.381 OA
ATOM     78  C   UNL     1       8.263   5.727  -0.639  1.00  0.00     0.195 C 
ENDBRANCH  76  77
BRANCH  76  79
ATOM     79  C   UNL     1       6.327   5.011   1.047  1.00  0.00     0.068 C 
BRANCH  79  80
ATOM     80  C   UNL     1       4.838   5.105   0.813  1.00  0.00    -0.045 A 
ATOM     81  C   UNL     1       3.947   4.262   1.489  1.00  0.00     0.004 A 
ATOM     82  C   UNL     1       4.324   6.024  -0.114  1.00  0.00     0.004 A 
ATOM     83  C   UNL     1       2.573   4.344   1.257  1.00  0.00     0.000 A 
ATOM     84  C   UNL     1       2.950   6.106  -0.346  1.00  0.00     0.000 A 
ATOM     85  C   UNL     1       2.074   5.267   0.340  1.00  0.00     0.000 A 
ENDBRANCH  79  80
ENDBRANCH  76  79
ENDBRANCH  74  76
ENDBRANCH  72  74
ENDBRANCH  70  71
ENDBRANCH   1  69
TORSDOF 17
ENDMDL
MODEL 35
REMARK VINA RESULT:    -6.052      4.673     14.593
REMARK INTER + INTRA:         -23.998
REMARK INTER:                 -17.894
REMARK INTRA:                  -6.104
REMARK UNBOUND:                -5.916
REMARK SMILES C=C1C(=O)N[C@H](C)C(=O)N[C@@H](CC(C)C)C(=O)N[C@@H](C(=O)O)[C@H](C)C(=O)N[C@@H](CCCN=C(N)N)C(=O)N[C@@H](/C=C/C(C)=C/[C@H](C)[C@H](Cc2ccccc2)OC)[C@H](C)C(=O)N[C@@H](C(=O)O)CCC(=O)N1C
REMARK SMILES IDX 39 1 38 2 37 3 36 4 28 6 27 7 25 8 26 9 23 11 24 12 19 13
REMARK SMILES IDX 18 14 16 15 17 16 11 18 10 19 8 20 9 21 12 24 13 25 14 26
REMARK SMILES IDX 15 27 20 28 21 29 22 30 29 32 30 33 31 34 32 35 33 36 34 37
REMARK SMILES IDX 35 38 57 43 58 44 59 45 60 46 61 47 62 49 66 50 67 51 68 52
REMARK SMILES IDX 69 53 70 54 71 55 2 56 1 57 3 58 4 59 5 60 6 62 7 63 63 65
REMARK SMILES IDX 64 66 65 67 40 69 41 70 42 71 44 72 43 73 45 74 46 75 47 76
REMARK SMILES IDX 55 77 56 78 48 79 49 80 50 81 54 82 51 83 53 84 52 85
REMARK H PARENT 38 5 27 10 18 17 10 22 22 31 34 39 34 40 35 41 35 42 61 48
REMARK H PARENT 5 61 65 68
REMARK Flexibility Score:  369.900
ROOT
ATOM      1  C   UNL     1       2.943  -3.823   7.587  1.00  0.00     0.117 C 
ENDROOT
BRANCH   1   2
ATOM      2  N   UNL     1       3.780  -2.643   7.809  1.00  0.00    -0.347 N 
ATOM      3  O   UNL     1       4.796  -3.340   9.746  1.00  0.00    -0.273 OA
ATOM      4  C   UNL     1       4.710  -2.535   8.824  1.00  0.00     0.243 C 
ATOM      5  H   UNL     1       3.726  -1.870   7.163  1.00  0.00     0.164 HD
BRANCH   4   6
ATOM      6  C   UNL     1       5.526  -1.218   8.785  1.00  0.00     0.171 C 
BRANCH   6   7
ATOM      7  N   UNL     1       4.999  -0.257   9.767  1.00  0.00    -0.344 N 
ATOM      8  C   UNL     1       4.916   1.085   9.463  1.00  0.00     0.226 C 
ATOM      9  O   UNL     1       5.290   1.543   8.390  1.00  0.00    -0.275 OA
ATOM     10  H   UNL     1       4.743  -0.588  10.689  1.00  0.00     0.164 HD
BRANCH   8  11
ATOM     11  C   UNL     1       4.301   1.938  10.559  1.00  0.00     0.109 C 
ATOM     12  C   UNL     1       4.297   1.172  11.882  1.00  0.00     0.021 C 
BRANCH  11  13
ATOM     13  C   UNL     1       5.001   3.310  10.607  1.00  0.00     0.204 C 
BRANCH  13  14
ATOM     14  N   UNL     1       4.712   4.118   9.418  1.00  0.00    -0.340 N 
ATOM     15  C   UNL     1       5.605   5.029   8.897  1.00  0.00     0.243 C 
ATOM     16  O   UNL     1       6.735   5.184   9.358  1.00  0.00    -0.273 OA
ATOM     17  H   UNL     1       3.746   4.149   9.081  1.00  0.00     0.164 HD
BRANCH  15  18
ATOM     18  C   UNL     1       5.006   5.910   7.773  1.00  0.00     0.171 C 
BRANCH  18  19
ATOM     19  N   UNL     1       5.139   7.298   8.214  1.00  0.00    -0.343 N 
ATOM     20  C   UNL     1       4.158   8.238   7.966  1.00  0.00     0.242 CG0
ATOM     21  O   UNL     1       3.192   7.986   7.249  1.00  0.00    -0.273 OA
ATOM     22  H   UNL     1       5.975   7.584   8.711  1.00  0.00     0.164 HD
ATOM     23  G   UNL     1       4.439   9.627   8.575  1.00  0.00     0.000 G0
ENDBRANCH  18  19
BRANCH  18  24
ATOM     24  C   UNL     1       5.738   5.669   6.447  1.00  0.00     0.038 C 
BRANCH  24  25
ATOM     25  C   UNL     1       5.154   4.529   5.587  1.00  0.00    -0.015 C 
ATOM     26  C   UNL     1       5.448   4.709   4.098  1.00  0.00     0.007 C 
ATOM     27  C   UNL     1       3.641   4.441   5.807  1.00  0.00     0.007 C 
ENDBRANCH  24  25
ENDBRANCH  18  24
ENDBRANCH  15  18
ENDBRANCH  13  14
BRANCH  13  28
ATOM     28  C   UNL     1       4.609   4.146  11.830  1.00  0.00     0.327 C 
ATOM     29  O   UNL     1       3.476   4.326  12.249  1.00  0.00    -0.250 OA
BRANCH  28  30
ATOM     30  O   UNL     1       5.653   4.800  12.379  1.00  0.00    -0.480 OA
ATOM     31  H   UNL     1       6.441   4.332  12.031  1.00  0.00     0.296 HD
ENDBRANCH  28  30
ENDBRANCH  13  28
ENDBRANCH  11  13
ENDBRANCH   8  11
ENDBRANCH   6   7
BRANCH   6  32
ATOM     32  C   UNL     1       7.001  -1.530   9.062  1.00  0.00     0.037 C 
BRANCH  32  33
ATOM     33  C   UNL     1       7.945  -0.650   8.231  1.00  0.00     0.026 C 
BRANCH  33  34
ATOM     34  C   UNL     1       9.239  -1.373   7.856  1.00  0.00     0.146 C 
BRANCH  34  35
ATOM     35  N   UNL     1       9.024  -2.809   7.966  1.00  0.00    -0.254 NA
ATOM     36  C   UNL     1      10.043  -3.574   8.096  1.00  0.00     0.185 C 
ATOM     37  N   UNL     1       9.857  -4.899   8.204  1.00  0.00    -0.370 N 
ATOM     38  N   UNL     1      11.346  -3.245   8.145  1.00  0.00    -0.370 N 
ATOM     39  H   UNL     1       8.899  -5.226   8.186  1.00  0.00     0.159 HD
ATOM     40  H   UNL     1      10.579  -5.542   8.480  1.00  0.00     0.159 HD
ATOM     41  H   UNL     1      12.064  -3.951   8.109  1.00  0.00     0.159 HD
ATOM     42  H   UNL     1      11.636  -2.283   8.060  1.00  0.00     0.159 HD
ENDBRANCH  34  35
ENDBRANCH  33  34
ENDBRANCH  32  33
ENDBRANCH   6  32
ENDBRANCH   4   6
ENDBRANCH   1   2
BRANCH   1  43
ATOM     43  C   UNL     1       2.938  -4.147   6.065  1.00  0.00     0.102 C 
ATOM     44  C   UNL     1       2.165  -5.430   5.716  1.00  0.00     0.020 C 
BRANCH  43  45
ATOM     45  C   UNL     1       4.356  -4.099   5.488  1.00  0.00     0.225 C 
ATOM     46  O   UNL     1       4.946  -3.050   5.244  1.00  0.00    -0.275 OA
ATOM     47  N   UNL     1       4.905  -5.319   5.165  1.00  0.00    -0.342 N 
ATOM     48  H   UNL     1       4.477  -6.167   5.507  1.00  0.00     0.164 HD
BRANCH  47  49
ATOM     49  C   UNL     1       6.269  -5.429   4.637  1.00  0.00     0.192 C 
BRANCH  49  50
ATOM     50  C   UNL     1       6.368  -6.650   3.719  1.00  0.00     0.047 C 
BRANCH  50  51
ATOM     51  C   UNL     1       4.991  -7.131   3.239  1.00  0.00     0.103 C 
BRANCH  51  52
ATOM     52  C   UNL     1       4.735  -8.592   3.603  1.00  0.00     0.226 C 
ATOM     53  O   UNL     1       5.290  -9.487   2.963  1.00  0.00    -0.275 OA
BRANCH  52  54
ATOM     54  N   UNL     1       3.918  -8.824   4.725  1.00  0.00    -0.311 N 
ATOM     55  C   UNL     1       2.459  -8.923   4.591  1.00  0.00     0.153 C 
BRANCH  54  56
ATOM     56  C   UNL     1       4.465  -8.977   6.011  1.00  0.00     0.102 C 
ATOM     57  C   UNL     1       4.153  -8.217   7.073  1.00  0.00     0.043 C 
BRANCH  56  58
ATOM     58  C   UNL     1       5.450 -10.083   6.308  1.00  0.00     0.268 C 
ATOM     59  O   UNL     1       6.406  -9.944   7.058  1.00  0.00    -0.268 OA
ATOM     60  N   UNL     1       5.125 -11.273   5.702  1.00  0.00    -0.339 N 
ATOM     61  H   UNL     1       4.321 -11.303   5.086  1.00  0.00     0.164 HD
BRANCH  60  62
ATOM     62  C   UNL     1       5.909 -12.490   5.906  1.00  0.00     0.168 CG0
ATOM     63  C   UNL     1       6.789 -12.783   4.697  1.00  0.00     0.041 C 
ATOM     64  G   UNL     1       4.961 -13.674   6.191  1.00  0.00     0.000 G0
ENDBRANCH  60  62
ENDBRANCH  56  58
ENDBRANCH  54  56
ENDBRANCH  52  54
ENDBRANCH  51  52
ENDBRANCH  50  51
ENDBRANCH  49  50
BRANCH  49  65
ATOM     65  C   UNL     1       7.305  -5.554   5.764  1.00  0.00     0.326 C 
ATOM     66  O   UNL     1       8.293  -6.274   5.745  1.00  0.00    -0.250 OA
BRANCH  65  67
ATOM     67  O   UNL     1       7.026  -4.829   6.870  1.00  0.00    -0.480 OA
ATOM     68  H   UNL     1       7.452  -5.337   7.593  1.00  0.00     0.296 HD
ENDBRANCH  65  67
ENDBRANCH  49  65
ENDBRANCH  47  49
ENDBRANCH  43  45
ENDBRANCH   1  43
BRANCH   1  69
ATOM     69  C   UNL     1       1.623  -3.543   8.281  1.00  0.00    -0.001 C 
ATOM     70  C   UNL     1       0.766  -4.440   8.801  1.00  0.00     0.001 C 
BRANCH  70  71
ATOM     71  C   UNL     1      -0.495  -4.156   9.488  1.00  0.00    -0.055 C 
ATOM     72  C   UNL     1      -1.060  -5.154  10.200  1.00  0.00    -0.018 C 
ATOM     73  C   UNL     1      -1.069  -2.769   9.359  1.00  0.00     0.044 C 
BRANCH  72  74
ATOM     74  C   UNL     1      -2.349  -5.150  11.009  1.00  0.00     0.038 C 
ATOM     75  C   UNL     1      -2.061  -4.403  12.317  1.00  0.00     0.015 C 
BRANCH  74  76
ATOM     76  C   UNL     1      -2.833  -6.619  11.189  1.00  0.00     0.128 C 
BRANCH  76  77
ATOM     77  O   UNL     1      -1.971  -7.310  12.109  1.00  0.00    -0.381 OA
ATOM     78  C   UNL     1      -2.433  -8.608  12.459  1.00  0.00     0.195 C 
ENDBRANCH  76  77
BRANCH  76  79
ATOM     79  C   UNL     1      -4.332  -6.747  11.559  1.00  0.00     0.068 C 
BRANCH  79  80
ATOM     80  C   UNL     1      -5.270  -7.317  10.522  1.00  0.00    -0.045 A 
ATOM     81  C   UNL     1      -6.592  -6.865  10.419  1.00  0.00     0.004 A 
ATOM     82  C   UNL     1      -4.836  -8.334   9.659  1.00  0.00     0.004 A 
ATOM     83  C   UNL     1      -7.458  -7.407   9.467  1.00  0.00     0.000 A 
ATOM     84  C   UNL     1      -5.703  -8.876   8.707  1.00  0.00     0.000 A 
ATOM     85  C   UNL     1      -7.013  -8.412   8.610  1.00  0.00     0.000 A 
ENDBRANCH  79  80
ENDBRANCH  76  79
ENDBRANCH  74  76
ENDBRANCH  72  74
ENDBRANCH  70  71
ENDBRANCH   1  69
TORSDOF 17
ENDMDL
MODEL 36
REMARK VINA RESULT:    -6.047      5.963     13.873
REMARK INTER + INTRA:         -23.981
REMARK INTER:                 -16.412
REMARK INTRA:                  -7.569
REMARK UNBOUND:                -5.916
REMARK SMILES C=C1C(=O)N[C@H](C)C(=O)N[C@@H](CC(C)C)C(=O)N[C@@H](C(=O)O)[C@H](C)C(=O)N[C@@H](CCCN=C(N)N)C(=O)N[C@@H](/C=C/C(C)=C/[C@H](C)[C@H](Cc2ccccc2)OC)[C@H](C)C(=O)N[C@@H](C(=O)O)CCC(=O)N1C
REMARK SMILES IDX 39 1 38 2 37 3 36 4 28 6 27 7 25 8 26 9 23 11 24 12 19 13
REMARK SMILES IDX 18 14 16 15 17 16 11 18 10 19 8 20 9 21 12 24 13 25 14 26
REMARK SMILES IDX 15 27 20 28 21 29 22 30 29 32 30 33 31 34 32 35 33 36 34 37
REMARK SMILES IDX 35 38 57 43 58 44 59 45 60 46 61 47 62 49 66 50 67 51 68 52
REMARK SMILES IDX 69 53 70 54 71 55 2 56 1 57 3 58 4 59 5 60 6 62 7 63 63 65
REMARK SMILES IDX 64 66 65 67 40 69 41 70 42 71 44 72 43 73 45 74 46 75 47 76
REMARK SMILES IDX 55 77 56 78 48 79 49 80 50 81 54 82 51 83 53 84 52 85
REMARK H PARENT 38 5 27 10 18 17 10 22 22 31 34 39 34 40 35 41 35 42 61 48
REMARK H PARENT 5 61 65 68
REMARK Flexibility Score:  369.900
ROOT
ATOM      1  C   UNL     1       5.149  -2.349   8.186  1.00  0.00     0.117 C 
ENDROOT
BRANCH   1   2
ATOM      2  N   UNL     1       5.161  -0.921   8.504  1.00  0.00    -0.347 N 
ATOM      3  O   UNL     1       5.706  -0.139   6.416  1.00  0.00    -0.273 OA
ATOM      4  C   UNL     1       5.349   0.078   7.569  1.00  0.00     0.243 C 
ATOM      5  H   UNL     1       4.974  -0.624   9.450  1.00  0.00     0.164 HD
BRANCH   4   6
ATOM      6  C   UNL     1       5.230   1.509   8.154  1.00  0.00     0.171 C 
BRANCH   6   7
ATOM      7  N   UNL     1       4.770   1.458   9.550  1.00  0.00    -0.344 N 
ATOM      8  C   UNL     1       3.989   2.467  10.071  1.00  0.00     0.226 C 
ATOM      9  O   UNL     1       3.662   3.451   9.419  1.00  0.00    -0.275 OA
ATOM     10  H   UNL     1       5.076   0.694  10.140  1.00  0.00     0.164 HD
BRANCH   8  11
ATOM     11  C   UNL     1       3.551   2.241  11.507  1.00  0.00     0.109 C 
ATOM     12  C   UNL     1       4.231   0.995  12.075  1.00  0.00     0.021 C 
BRANCH  11  13
ATOM     13  C   UNL     1       3.769   3.529  12.327  1.00  0.00     0.204 C 
BRANCH  13  14
ATOM     14  N   UNL     1       3.204   3.426  13.676  1.00  0.00    -0.340 N 
ATOM     15  C   UNL     1       2.004   4.003  14.030  1.00  0.00     0.243 C 
ATOM     16  O   UNL     1       1.292   4.596  13.221  1.00  0.00    -0.273 OA
ATOM     17  H   UNL     1       3.810   3.083  14.426  1.00  0.00     0.164 HD
BRANCH  15  18
ATOM     18  C   UNL     1       1.712   3.942  15.550  1.00  0.00     0.171 C 
BRANCH  18  19
ATOM     19  N   UNL     1       0.510   4.740  15.778  1.00  0.00    -0.343 N 
ATOM     20  C   UNL     1       0.408   5.617  16.841  1.00  0.00     0.242 CG0
ATOM     21  O   UNL     1       1.268   5.670  17.716  1.00  0.00    -0.273 OA
ATOM     22  H   UNL     1      -0.277   4.646  15.145  1.00  0.00     0.164 HD
ATOM     23  G   UNL     1      -0.904   6.429  16.873  1.00  0.00     0.000 G0
ENDBRANCH  18  19
BRANCH  18  24
ATOM     24  C   UNL     1       1.518   2.490  16.006  1.00  0.00     0.038 C 
BRANCH  24  25
ATOM     25  C   UNL     1       2.318   2.098  17.266  1.00  0.00    -0.015 C 
ATOM     26  C   UNL     1       3.830   2.152  17.040  1.00  0.00     0.007 C 
ATOM     27  C   UNL     1       1.914   0.692  17.715  1.00  0.00     0.007 C 
ENDBRANCH  24  25
ENDBRANCH  18  24
ENDBRANCH  15  18
ENDBRANCH  13  14
BRANCH  13  28
ATOM     28  C   UNL     1       5.247   3.903  12.482  1.00  0.00     0.327 C 
ATOM     29  O   UNL     1       5.981   3.581  13.403  1.00  0.00    -0.250 OA
BRANCH  28  30
ATOM     30  O   UNL     1       5.678   4.756  11.531  1.00  0.00    -0.480 OA
ATOM     31  H   UNL     1       5.175   4.499  10.730  1.00  0.00     0.296 HD
ENDBRANCH  28  30
ENDBRANCH  13  28
ENDBRANCH  11  13
ENDBRANCH   8  11
ENDBRANCH   6   7
BRANCH   6  32
ATOM     32  C   UNL     1       6.589   2.210   8.050  1.00  0.00     0.037 C 
BRANCH  32  33
ATOM     33  C   UNL     1       6.631   3.228   6.902  1.00  0.00     0.026 C 
BRANCH  33  34
ATOM     34  C   UNL     1       5.245   3.507   6.318  1.00  0.00     0.146 C 
BRANCH  34  35
ATOM     35  N   UNL     1       4.978   4.936   6.405  1.00  0.00    -0.254 NA
ATOM     36  C   UNL     1       3.782   5.323   6.653  1.00  0.00     0.185 C 
ATOM     37  N   UNL     1       3.526   6.638   6.740  1.00  0.00    -0.370 N 
ATOM     38  N   UNL     1       2.678   4.582   6.852  1.00  0.00    -0.370 N 
ATOM     39  H   UNL     1       4.311   7.263   6.612  1.00  0.00     0.159 HD
ATOM     40  H   UNL     1       2.665   7.014   7.099  1.00  0.00     0.159 HD
ATOM     41  H   UNL     1       1.767   5.007   6.900  1.00  0.00     0.159 HD
ATOM     42  H   UNL     1       2.720   3.576   6.799  1.00  0.00     0.159 HD
ENDBRANCH  34  35
ENDBRANCH  33  34
ENDBRANCH  32  33
ENDBRANCH   6  32
ENDBRANCH   4   6
ENDBRANCH   1   2
BRANCH   1  43
ATOM     43  C   UNL     1       3.972  -3.018   8.953  1.00  0.00     0.102 C 
ATOM     44  C   UNL     1       4.430  -4.041  10.006  1.00  0.00     0.020 C 
BRANCH  43  45
ATOM     45  C   UNL     1       2.917  -3.556   7.981  1.00  0.00     0.225 C 
ATOM     46  O   UNL     1       1.728  -3.255   8.047  1.00  0.00    -0.275 OA
ATOM     47  N   UNL     1       3.369  -4.484   7.071  1.00  0.00    -0.342 N 
ATOM     48  H   UNL     1       4.362  -4.604   6.930  1.00  0.00     0.164 HD
BRANCH  47  49
ATOM     49  C   UNL     1       2.480  -5.058   6.057  1.00  0.00     0.192 C 
BRANCH  49  50
ATOM     50  C   UNL     1       2.337  -6.564   6.291  1.00  0.00     0.047 C 
BRANCH  50  51
ATOM     51  C   UNL     1       2.758  -6.975   7.709  1.00  0.00     0.103 C 
BRANCH  51  52
ATOM     52  C   UNL     1       3.843  -8.050   7.695  1.00  0.00     0.226 C 
ATOM     53  O   UNL     1       3.531  -9.234   7.839  1.00  0.00    -0.275 OA
BRANCH  52  54
ATOM     54  N   UNL     1       5.156  -7.613   7.439  1.00  0.00    -0.311 N 
ATOM     55  C   UNL     1       5.985  -7.042   8.508  1.00  0.00     0.153 C 
BRANCH  54  56
ATOM     56  C   UNL     1       5.723  -7.710   6.157  1.00  0.00     0.102 C 
ATOM     57  C   UNL     1       6.742  -6.960   5.709  1.00  0.00     0.043 C 
BRANCH  56  58
ATOM     58  C   UNL     1       5.232  -8.742   5.169  1.00  0.00     0.268 C 
ATOM     59  O   UNL     1       4.611  -8.456   4.154  1.00  0.00    -0.268 OA
ATOM     60  N   UNL     1       5.611 -10.023   5.493  1.00  0.00    -0.339 N 
ATOM     61  H   UNL     1       6.115 -10.178   6.358  1.00  0.00     0.164 HD
BRANCH  60  62
ATOM     62  C   UNL     1       5.295 -11.168   4.640  1.00  0.00     0.168 CG0
ATOM     63  C   UNL     1       3.916 -11.730   4.967  1.00  0.00     0.041 C 
ATOM     64  G   UNL     1       6.380 -12.252   4.807  1.00  0.00     0.000 G0
ENDBRANCH  60  62
ENDBRANCH  56  58
ENDBRANCH  54  56
ENDBRANCH  52  54
ENDBRANCH  51  52
ENDBRANCH  50  51
ENDBRANCH  49  50
BRANCH  49  65
ATOM     65  C   UNL     1       3.009  -4.812   4.635  1.00  0.00     0.326 C 
ATOM     66  O   UNL     1       2.327  -4.771   3.621  1.00  0.00    -0.250 OA
BRANCH  65  67
ATOM     67  O   UNL     1       4.352  -4.693   4.546  1.00  0.00    -0.480 OA
ATOM     68  H   UNL     1       4.650  -4.731   5.480  1.00  0.00     0.296 HD
ENDBRANCH  65  67
ENDBRANCH  49  65
ENDBRANCH  47  49
ENDBRANCH  43  45
ENDBRANCH   1  43
BRANCH   1  69
ATOM     69  C   UNL     1       6.561  -2.850   8.429  1.00  0.00    -0.001 C 
ATOM     70  C   UNL     1       7.347  -3.525   7.572  1.00  0.00     0.001 C 
BRANCH  70  71
ATOM     71  C   UNL     1       8.717  -3.984   7.811  1.00  0.00    -0.055 C 
ATOM     72  C   UNL     1       8.931  -5.315   7.870  1.00  0.00    -0.018 C 
ATOM     73  C   UNL     1       9.791  -2.939   7.965  1.00  0.00     0.044 C 
BRANCH  72  74
ATOM     74  C   UNL     1      10.231  -6.073   8.099  1.00  0.00     0.038 C 
ATOM     75  C   UNL     1      10.555  -6.820   6.800  1.00  0.00     0.015 C 
BRANCH  74  76
ATOM     76  C   UNL     1      10.067  -6.982   9.352  1.00  0.00     0.128 C 
BRANCH  76  77
ATOM     77  O   UNL     1      10.730  -8.239   9.136  1.00  0.00    -0.381 OA
ATOM     78  C   UNL     1       9.906  -9.370   9.390  1.00  0.00     0.195 C 
ENDBRANCH  76  77
BRANCH  76  79
ATOM     79  C   UNL     1      10.487  -6.304  10.681  1.00  0.00     0.068 C 
BRANCH  79  80
ATOM     80  C   UNL     1       9.692  -5.107  11.146  1.00  0.00    -0.045 A 
ATOM     81  C   UNL     1       8.316  -5.205  11.391  1.00  0.00     0.004 A 
ATOM     82  C   UNL     1      10.320  -3.864  11.313  1.00  0.00     0.004 A 
ATOM     83  C   UNL     1       7.586  -4.090  11.807  1.00  0.00     0.000 A 
ATOM     84  C   UNL     1       9.588  -2.749  11.729  1.00  0.00     0.000 A 
ATOM     85  C   UNL     1       8.222  -2.863  11.977  1.00  0.00     0.000 A 
ENDBRANCH  79  80
ENDBRANCH  76  79
ENDBRANCH  74  76
ENDBRANCH  72  74
ENDBRANCH  70  71
ENDBRANCH   1  69
TORSDOF 17
ENDMDL
MODEL 37
REMARK VINA RESULT:    -6.042      3.818     14.743
REMARK INTER + INTRA:         -23.966
REMARK INTER:                 -17.131
REMARK INTRA:                  -6.836
REMARK UNBOUND:                -5.916
REMARK SMILES C=C1C(=O)N[C@H](C)C(=O)N[C@@H](CC(C)C)C(=O)N[C@@H](C(=O)O)[C@H](C)C(=O)N[C@@H](CCCN=C(N)N)C(=O)N[C@@H](/C=C/C(C)=C/[C@H](C)[C@H](Cc2ccccc2)OC)[C@H](C)C(=O)N[C@@H](C(=O)O)CCC(=O)N1C
REMARK SMILES IDX 39 1 38 2 37 3 36 4 28 6 27 7 25 8 26 9 23 11 24 12 19 13
REMARK SMILES IDX 18 14 16 15 17 16 11 18 10 19 8 20 9 21 12 24 13 25 14 26
REMARK SMILES IDX 15 27 20 28 21 29 22 30 29 32 30 33 31 34 32 35 33 36 34 37
REMARK SMILES IDX 35 38 57 43 58 44 59 45 60 46 61 47 62 49 66 50 67 51 68 52
REMARK SMILES IDX 69 53 70 54 71 55 2 56 1 57 3 58 4 59 5 60 6 62 7 63 63 65
REMARK SMILES IDX 64 66 65 67 40 69 41 70 42 71 44 72 43 73 45 74 46 75 47 76
REMARK SMILES IDX 55 77 56 78 48 79 49 80 50 81 54 82 51 83 53 84 52 85
REMARK H PARENT 38 5 27 10 18 17 10 22 22 31 34 39 34 40 35 41 35 42 61 48
REMARK H PARENT 5 61 65 68
REMARK Flexibility Score:  369.900
ROOT
ATOM      1  C   UNL     1       3.616  -2.885   7.456  1.00  0.00     0.117 C 
ENDROOT
BRANCH   1   2
ATOM      2  N   UNL     1       4.481  -1.816   7.958  1.00  0.00    -0.347 N 
ATOM      3  O   UNL     1       4.771  -0.692   5.978  1.00  0.00    -0.273 OA
ATOM      4  C   UNL     1       4.916  -0.750   7.195  1.00  0.00     0.243 C 
ATOM      5  H   UNL     1       4.747  -1.812   8.931  1.00  0.00     0.164 HD
BRANCH   4   6
ATOM      6  C   UNL     1       5.749   0.287   7.990  1.00  0.00     0.171 C 
BRANCH   6   7
ATOM      7  N   UNL     1       5.056   1.585   8.026  1.00  0.00    -0.344 N 
ATOM      8  C   UNL     1       5.409   2.594   7.157  1.00  0.00     0.226 C 
ATOM      9  O   UNL     1       6.316   2.476   6.342  1.00  0.00    -0.275 OA
ATOM     10  H   UNL     1       4.347   1.743   8.731  1.00  0.00     0.164 HD
BRANCH   8  11
ATOM     11  C   UNL     1       4.565   3.851   7.282  1.00  0.00     0.109 C 
ATOM     12  C   UNL     1       3.930   3.922   8.671  1.00  0.00     0.021 C 
BRANCH  11  13
ATOM     13  C   UNL     1       5.404   5.083   6.889  1.00  0.00     0.204 C 
BRANCH  13  14
ATOM     14  N   UNL     1       5.681   5.125   5.450  1.00  0.00    -0.340 N 
ATOM     15  C   UNL     1       6.866   5.599   4.930  1.00  0.00     0.243 C 
ATOM     16  O   UNL     1       7.801   5.965   5.641  1.00  0.00    -0.273 OA
ATOM     17  H   UNL     1       4.899   4.982   4.805  1.00  0.00     0.164 HD
BRANCH  15  18
ATOM     18  C   UNL     1       6.852   5.742   3.388  1.00  0.00     0.171 C 
BRANCH  18  19
ATOM     19  N   UNL     1       8.248   5.738   2.955  1.00  0.00    -0.343 N 
ATOM     20  C   UNL     1       8.756   6.719   2.124  1.00  0.00     0.242 CG0
ATOM     21  O   UNL     1       8.029   7.563   1.606  1.00  0.00    -0.273 OA
ATOM     22  H   UNL     1       8.863   4.994   3.264  1.00  0.00     0.164 HD
ATOM     23  G   UNL     1      10.267   6.592   1.839  1.00  0.00     0.000 G0
ENDBRANCH  18  19
BRANCH  18  24
ATOM     24  C   UNL     1       6.061   4.597   2.745  1.00  0.00     0.038 C 
BRANCH  24  25
ATOM     25  C   UNL     1       5.453   4.928   1.366  1.00  0.00    -0.015 C 
ATOM     26  C   UNL     1       4.000   4.469   1.241  1.00  0.00     0.007 C 
ATOM     27  C   UNL     1       6.295   4.279   0.264  1.00  0.00     0.007 C 
ENDBRANCH  24  25
ENDBRANCH  18  24
ENDBRANCH  15  18
ENDBRANCH  13  14
BRANCH  13  28
ATOM     28  C   UNL     1       4.737   6.411   7.262  1.00  0.00     0.327 C 
ATOM     29  O   UNL     1       5.024   7.123   8.211  1.00  0.00    -0.250 OA
BRANCH  28  30
ATOM     30  O   UNL     1       3.672   6.703   6.488  1.00  0.00    -0.480 OA
ATOM     31  H   UNL     1       2.906   6.354   6.990  1.00  0.00     0.296 HD
ENDBRANCH  28  30
ENDBRANCH  13  28
ENDBRANCH  11  13
ENDBRANCH   8  11
ENDBRANCH   6   7
BRANCH   6  32
ATOM     32  C   UNL     1       5.992  -0.243   9.408  1.00  0.00     0.037 C 
BRANCH  32  33
ATOM     33  C   UNL     1       6.157   0.891  10.429  1.00  0.00     0.026 C 
BRANCH  33  34
ATOM     34  C   UNL     1       5.160   0.787  11.584  1.00  0.00     0.146 C 
BRANCH  34  35
ATOM     35  N   UNL     1       3.926   1.460  11.202  1.00  0.00    -0.254 NA
ATOM     36  C   UNL     1       3.422   2.322  12.005  1.00  0.00     0.185 C 
ATOM     37  N   UNL     1       2.289   2.951  11.660  1.00  0.00    -0.370 N 
ATOM     38  N   UNL     1       3.873   2.721  13.207  1.00  0.00    -0.370 N 
ATOM     39  H   UNL     1       1.891   2.712  10.761  1.00  0.00     0.159 HD
ATOM     40  H   UNL     1       1.929   3.755  12.146  1.00  0.00     0.159 HD
ATOM     41  H   UNL     1       3.313   3.305  13.806  1.00  0.00     0.159 HD
ATOM     42  H   UNL     1       4.710   2.319  13.600  1.00  0.00     0.159 HD
ENDBRANCH  34  35
ENDBRANCH  33  34
ENDBRANCH  32  33
ENDBRANCH   6  32
ENDBRANCH   4   6
ENDBRANCH   1   2
BRANCH   1  43
ATOM     43  C   UNL     1       2.538  -3.197   8.534  1.00  0.00     0.102 C 
ATOM     44  C   UNL     1       3.116  -3.821   9.815  1.00  0.00     0.020 C 
BRANCH  43  45
ATOM     45  C   UNL     1       1.370  -3.984   7.931  1.00  0.00     0.225 C 
ATOM     46  O   UNL     1       0.390  -3.446   7.425  1.00  0.00    -0.275 OA
ATOM     47  N   UNL     1       1.440  -5.351   8.075  1.00  0.00    -0.342 N 
ATOM     48  H   UNL     1       2.311  -5.781   8.353  1.00  0.00     0.164 HD
BRANCH  47  49
ATOM     49  C   UNL     1       0.411  -6.233   7.517  1.00  0.00     0.192 C 
BRANCH  49  50
ATOM     50  C   UNL     1      -0.257  -7.023   8.646  1.00  0.00     0.047 C 
BRANCH  50  51
ATOM     51  C   UNL     1      -0.011  -6.391  10.023  1.00  0.00     0.103 C 
BRANCH  51  52
ATOM     52  C   UNL     1      -1.141  -5.448  10.431  1.00  0.00     0.226 C 
ATOM     53  O   UNL     1      -1.830  -4.910   9.562  1.00  0.00    -0.275 OA
BRANCH  52  54
ATOM     54  N   UNL     1      -1.373  -5.309  11.812  1.00  0.00    -0.311 N 
ATOM     55  C   UNL     1      -1.314  -3.992  12.460  1.00  0.00     0.153 C 
BRANCH  54  56
ATOM     56  C   UNL     1      -1.675  -6.418  12.619  1.00  0.00     0.102 C 
ATOM     57  C   UNL     1      -1.073  -6.708  13.784  1.00  0.00     0.043 C 
BRANCH  56  58
ATOM     58  C   UNL     1      -2.777  -7.378  12.236  1.00  0.00     0.268 C 
ATOM     59  O   UNL     1      -2.574  -8.428  11.643  1.00  0.00    -0.268 OA
ATOM     60  N   UNL     1      -4.017  -6.982  12.680  1.00  0.00    -0.339 N 
ATOM     61  H   UNL     1      -4.102  -6.091  13.155  1.00  0.00     0.164 HD
BRANCH  60  62
ATOM     62  C   UNL     1      -5.215  -7.794  12.473  1.00  0.00     0.168 CG0
ATOM     63  C   UNL     1      -5.938  -7.387  11.195  1.00  0.00     0.041 C 
ATOM     64  G   UNL     1      -6.147  -7.661  13.694  1.00  0.00     0.000 G0
ENDBRANCH  60  62
ENDBRANCH  56  58
ENDBRANCH  54  56
ENDBRANCH  52  54
ENDBRANCH  51  52
ENDBRANCH  50  51
ENDBRANCH  49  50
BRANCH  49  65
ATOM     65  C   UNL     1       1.001  -7.213   6.491  1.00  0.00     0.326 C 
ATOM     66  O   UNL     1       1.172  -6.980   5.303  1.00  0.00    -0.250 OA
BRANCH  65  67
ATOM     67  O   UNL     1       1.287  -8.439   6.981  1.00  0.00    -0.480 OA
ATOM     68  H   UNL     1       2.212  -8.594   6.690  1.00  0.00     0.296 HD
ENDBRANCH  65  67
ENDBRANCH  49  65
ENDBRANCH  47  49
ENDBRANCH  43  45
ENDBRANCH   1  43
BRANCH   1  69
ATOM     69  C   UNL     1       4.541  -3.999   6.999  1.00  0.00    -0.001 C 
ATOM     70  C   UNL     1       4.339  -4.866   5.991  1.00  0.00     0.001 C 
BRANCH  70  71
ATOM     71  C   UNL     1       5.249  -5.923   5.546  1.00  0.00    -0.055 C 
ATOM     72  C   UNL     1       4.981  -7.187   5.936  1.00  0.00    -0.018 C 
ATOM     73  C   UNL     1       6.414  -5.527   4.677  1.00  0.00     0.044 C 
BRANCH  72  74
ATOM     74  C   UNL     1       5.738  -8.471   5.628  1.00  0.00     0.038 C 
ATOM     75  C   UNL     1       4.922  -9.236   4.579  1.00  0.00     0.015 C 
BRANCH  74  76
ATOM     76  C   UNL     1       5.977  -9.243   6.959  1.00  0.00     0.128 C 
BRANCH  76  77
ATOM     77  O   UNL     1       5.672 -10.637   6.780  1.00  0.00    -0.381 OA
ATOM     78  C   UNL     1       5.344 -11.309   7.989  1.00  0.00     0.195 C 
ENDBRANCH  76  77
BRANCH  76  79
ATOM     79  C   UNL     1       7.378  -9.011   7.578  1.00  0.00     0.068 C 
BRANCH  79  80
ATOM     80  C   UNL     1       7.902  -7.596   7.631  1.00  0.00    -0.045 A 
ATOM     81  C   UNL     1       7.317  -6.641   8.473  1.00  0.00     0.004 A 
ATOM     82  C   UNL     1       8.972  -7.207   6.811  1.00  0.00     0.004 A 
ATOM     83  C   UNL     1       7.799  -5.330   8.506  1.00  0.00     0.000 A 
ATOM     84  C   UNL     1       9.452  -5.896   6.844  1.00  0.00     0.000 A 
ATOM     85  C   UNL     1       8.867  -4.959   7.692  1.00  0.00     0.000 A 
ENDBRANCH  79  80
ENDBRANCH  76  79
ENDBRANCH  74  76
ENDBRANCH  72  74
ENDBRANCH  70  71
ENDBRANCH   1  69
TORSDOF 17
ENDMDL
MODEL 38
REMARK VINA RESULT:    -6.037      5.469      9.941
REMARK INTER + INTRA:         -23.952
REMARK INTER:                 -17.795
REMARK INTRA:                  -6.158
REMARK UNBOUND:                -5.916
REMARK SMILES C=C1C(=O)N[C@H](C)C(=O)N[C@@H](CC(C)C)C(=O)N[C@@H](C(=O)O)[C@H](C)C(=O)N[C@@H](CCCN=C(N)N)C(=O)N[C@@H](/C=C/C(C)=C/[C@H](C)[C@H](Cc2ccccc2)OC)[C@H](C)C(=O)N[C@@H](C(=O)O)CCC(=O)N1C
REMARK SMILES IDX 39 1 38 2 37 3 36 4 28 6 27 7 25 8 26 9 23 11 24 12 19 13
REMARK SMILES IDX 18 14 16 15 17 16 11 18 10 19 8 20 9 21 12 24 13 25 14 26
REMARK SMILES IDX 15 27 20 28 21 29 22 30 29 32 30 33 31 34 32 35 33 36 34 37
REMARK SMILES IDX 35 38 57 43 58 44 59 45 60 46 61 47 62 49 66 50 67 51 68 52
REMARK SMILES IDX 69 53 70 54 71 55 2 56 1 57 3 58 4 59 5 60 6 62 7 63 63 65
REMARK SMILES IDX 64 66 65 67 40 69 41 70 42 71 44 72 43 73 45 74 46 75 47 76
REMARK SMILES IDX 55 77 56 78 48 79 49 80 50 81 54 82 51 83 53 84 52 85
REMARK H PARENT 38 5 27 10 18 17 10 22 22 31 34 39 34 40 35 41 35 42 61 48
REMARK H PARENT 5 61 65 68
REMARK Flexibility Score:  369.900
ROOT
ATOM      1  C   UNL     1       7.249   5.061   8.916  1.00  0.00     0.117 C 
ENDROOT
BRANCH   1   2
ATOM      2  N   UNL     1       7.701   5.094  10.307  1.00  0.00    -0.347 N 
ATOM      3  O   UNL     1       6.793   7.123  10.882  1.00  0.00    -0.273 OA
ATOM      4  C   UNL     1       7.357   6.084  11.208  1.00  0.00     0.243 C 
ATOM      5  H   UNL     1       8.257   4.333  10.665  1.00  0.00     0.164 HD
BRANCH   4   6
ATOM      6  C   UNL     1       7.896   5.837  12.640  1.00  0.00     0.171 C 
BRANCH   6   7
ATOM      7  N   UNL     1       7.282   6.778  13.590  1.00  0.00    -0.344 N 
ATOM      8  C   UNL     1       7.915   7.096  14.772  1.00  0.00     0.226 C 
ATOM      9  O   UNL     1       8.989   6.606  15.099  1.00  0.00    -0.275 OA
ATOM     10  H   UNL     1       6.364   7.152  13.386  1.00  0.00     0.164 HD
BRANCH   8  11
ATOM     11  C   UNL     1       7.180   8.122  15.618  1.00  0.00     0.109 C 
ATOM     12  C   UNL     1       7.831   9.496  15.461  1.00  0.00     0.021 C 
BRANCH  11  13
ATOM     13  C   UNL     1       5.672   8.078  15.299  1.00  0.00     0.204 C 
BRANCH  13  14
ATOM     14  N   UNL     1       5.000   6.959  15.966  1.00  0.00    -0.340 N 
ATOM     15  C   UNL     1       3.847   6.381  15.479  1.00  0.00     0.243 C 
ATOM     16  O   UNL     1       3.335   6.724  14.415  1.00  0.00    -0.273 OA
ATOM     17  H   UNL     1       5.284   6.728  16.922  1.00  0.00     0.164 HD
BRANCH  15  18
ATOM     18  C   UNL     1       3.206   5.362  16.454  1.00  0.00     0.171 C 
BRANCH  18  19
ATOM     19  N   UNL     1       4.167   5.156  17.535  1.00  0.00    -0.343 N 
ATOM     20  C   UNL     1       4.785   3.937  17.739  1.00  0.00     0.242 CG0
ATOM     21  O   UNL     1       4.457   2.936  17.106  1.00  0.00    -0.273 OA
ATOM     22  H   UNL     1       4.386   5.924  18.160  1.00  0.00     0.164 HD
ATOM     23  G   UNL     1       5.826   3.933  18.878  1.00  0.00     0.000 G0
ENDBRANCH  18  19
BRANCH  18  24
ATOM     24  C   UNL     1       1.868   5.890  16.984  1.00  0.00     0.038 C 
BRANCH  24  25
ATOM     25  C   UNL     1       0.633   5.078  16.539  1.00  0.00    -0.015 C 
ATOM     26  C   UNL     1      -0.593   5.351  17.411  1.00  0.00     0.007 C 
ATOM     27  C   UNL     1       0.962   3.583  16.566  1.00  0.00     0.007 C 
ENDBRANCH  24  25
ENDBRANCH  18  24
ENDBRANCH  15  18
ENDBRANCH  13  14
BRANCH  13  28
ATOM     28  C   UNL     1       4.933   9.357  15.701  1.00  0.00     0.327 C 
ATOM     29  O   UNL     1       4.923   9.868  16.811  1.00  0.00    -0.250 OA
BRANCH  28  30
ATOM     30  O   UNL     1       4.155   9.850  14.716  1.00  0.00    -0.480 OA
ATOM     31  H   UNL     1       4.786  10.290  14.109  1.00  0.00     0.296 HD
ENDBRANCH  28  30
ENDBRANCH  13  28
ENDBRANCH  11  13
ENDBRANCH   8  11
ENDBRANCH   6   7
BRANCH   6  32
ATOM     32  C   UNL     1       7.609   4.386  13.043  1.00  0.00     0.037 C 
BRANCH  32  33
ATOM     33  C   UNL     1       6.151   4.185  13.479  1.00  0.00     0.026 C 
BRANCH  33  34
ATOM     34  C   UNL     1       5.325   3.437  12.431  1.00  0.00     0.146 C 
BRANCH  34  35
ATOM     35  N   UNL     1       4.121   4.205  12.147  1.00  0.00    -0.254 NA
ATOM     36  C   UNL     1       3.025   3.862  12.714  1.00  0.00     0.185 C 
ATOM     37  N   UNL     1       1.910   4.565  12.463  1.00  0.00    -0.370 N 
ATOM     38  N   UNL     1       2.798   2.851  13.572  1.00  0.00    -0.370 N 
ATOM     39  H   UNL     1       2.002   5.351  11.832  1.00  0.00     0.159 HD
ATOM     40  H   UNL     1       1.061   4.471  12.994  1.00  0.00     0.159 HD
ATOM     41  H   UNL     1       1.862   2.597  13.842  1.00  0.00     0.159 HD
ATOM     42  H   UNL     1       3.544   2.228  13.839  1.00  0.00     0.159 HD
ENDBRANCH  34  35
ENDBRANCH  33  34
ENDBRANCH  32  33
ENDBRANCH   6  32
ENDBRANCH   4   6
ENDBRANCH   1   2
BRANCH   1  43
ATOM     43  C   UNL     1       6.705   3.637   8.606  1.00  0.00     0.102 C 
ATOM     44  C   UNL     1       7.418   2.524   9.393  1.00  0.00     0.020 C 
BRANCH  43  45
ATOM     45  C   UNL     1       6.644   3.388   7.096  1.00  0.00     0.225 C 
ATOM     46  O   UNL     1       7.294   2.511   6.533  1.00  0.00    -0.275 OA
ATOM     47  N   UNL     1       5.877   4.278   6.379  1.00  0.00    -0.342 N 
ATOM     48  H   UNL     1       5.237   4.890   6.864  1.00  0.00     0.164 HD
BRANCH  47  49
ATOM     49  C   UNL     1       5.698   4.141   4.930  1.00  0.00     0.192 C 
BRANCH  49  50
ATOM     50  C   UNL     1       6.279   5.368   4.223  1.00  0.00     0.047 C 
BRANCH  50  51
ATOM     51  C   UNL     1       7.034   4.996   2.939  1.00  0.00     0.103 C 
BRANCH  51  52
ATOM     52  C   UNL     1       6.713   5.949   1.789  1.00  0.00     0.226 C 
ATOM     53  O   UNL     1       7.170   7.094   1.800  1.00  0.00    -0.275 OA
BRANCH  52  54
ATOM     54  N   UNL     1       5.959   5.418   0.726  1.00  0.00    -0.311 N 
ATOM     55  C   UNL     1       5.116   4.230   0.917  1.00  0.00     0.153 C 
BRANCH  54  56
ATOM     56  C   UNL     1       5.978   6.004  -0.550  1.00  0.00     0.102 C 
ATOM     57  C   UNL     1       5.006   6.781  -1.054  1.00  0.00     0.043 C 
BRANCH  56  58
ATOM     58  C   UNL     1       7.167   5.828  -1.466  1.00  0.00     0.268 C 
ATOM     59  O   UNL     1       8.294   5.580  -1.059  1.00  0.00    -0.268 OA
ATOM     60  N   UNL     1       6.839   5.909  -2.798  1.00  0.00    -0.339 N 
ATOM     61  H   UNL     1       5.883   6.128  -3.052  1.00  0.00     0.164 HD
BRANCH  60  62
ATOM     62  C   UNL     1       7.827   5.707  -3.857  1.00  0.00     0.168 CG0
ATOM     63  C   UNL     1       7.609   6.686  -5.004  1.00  0.00     0.041 C 
ATOM     64  G   UNL     1       7.753   4.251  -4.361  1.00  0.00     0.000 G0
ENDBRANCH  60  62
ENDBRANCH  56  58
ENDBRANCH  54  56
ENDBRANCH  52  54
ENDBRANCH  51  52
ENDBRANCH  50  51
ENDBRANCH  49  50
BRANCH  49  65
ATOM     65  C   UNL     1       4.216   3.992   4.554  1.00  0.00     0.326 C 
ATOM     66  O   UNL     1       3.744   3.099   3.866  1.00  0.00    -0.250 OA
BRANCH  65  67
ATOM     67  O   UNL     1       3.417   4.987   5.001  1.00  0.00    -0.480 OA
ATOM     68  H   UNL     1       3.865   5.293   5.819  1.00  0.00     0.296 HD
ENDBRANCH  65  67
ENDBRANCH  49  65
ENDBRANCH  47  49
ENDBRANCH  43  45
ENDBRANCH   1  43
BRANCH   1  69
ATOM     69  C   UNL     1       8.397   5.605   8.084  1.00  0.00    -0.001 C 
ATOM     70  C   UNL     1       8.337   6.549   7.128  1.00  0.00     0.001 C 
BRANCH  70  71
ATOM     71  C   UNL     1       9.456   7.081   6.347  1.00  0.00    -0.055 C 
ATOM     72  C   UNL     1       9.166   7.739   5.205  1.00  0.00    -0.018 C 
ATOM     73  C   UNL     1      10.849   6.864   6.877  1.00  0.00     0.044 C 
BRANCH  72  74
ATOM     74  C   UNL     1      10.109   8.393   4.205  1.00  0.00     0.038 C 
ATOM     75  C   UNL     1       9.473   9.725   3.788  1.00  0.00     0.015 C 
BRANCH  74  76
ATOM     76  C   UNL     1      10.368   7.398   3.035  1.00  0.00     0.128 C 
BRANCH  76  77
ATOM     77  O   UNL     1      10.322   8.095   1.779  1.00  0.00    -0.381 OA
ATOM     78  C   UNL     1      11.603   8.346   1.217  1.00  0.00     0.195 C 
ENDBRANCH  76  77
BRANCH  76  79
ATOM     79  C   UNL     1      11.653   6.550   3.203  1.00  0.00     0.068 C 
BRANCH  79  80
ATOM     80  C   UNL     1      11.710   5.208   2.513  1.00  0.00    -0.045 A 
ATOM     81  C   UNL     1      12.700   4.271   2.837  1.00  0.00     0.004 A 
ATOM     82  C   UNL     1      10.783   4.890   1.510  1.00  0.00     0.004 A 
ATOM     83  C   UNL     1      12.755   3.038   2.184  1.00  0.00     0.000 A 
ATOM     84  C   UNL     1      10.839   3.656   0.856  1.00  0.00     0.000 A 
ATOM     85  C   UNL     1      11.824   2.731   1.195  1.00  0.00     0.000 A 
ENDBRANCH  79  80
ENDBRANCH  76  79
ENDBRANCH  74  76
ENDBRANCH  72  74
ENDBRANCH  70  71
ENDBRANCH   1  69
TORSDOF 17
ENDMDL
MODEL 39
REMARK VINA RESULT:    -6.034      5.108     11.616
REMARK INTER + INTRA:         -23.943
REMARK INTER:                 -17.409
REMARK INTRA:                  -6.534
REMARK UNBOUND:                -5.916
REMARK SMILES C=C1C(=O)N[C@H](C)C(=O)N[C@@H](CC(C)C)C(=O)N[C@@H](C(=O)O)[C@H](C)C(=O)N[C@@H](CCCN=C(N)N)C(=O)N[C@@H](/C=C/C(C)=C/[C@H](C)[C@H](Cc2ccccc2)OC)[C@H](C)C(=O)N[C@@H](C(=O)O)CCC(=O)N1C
REMARK SMILES IDX 39 1 38 2 37 3 36 4 28 6 27 7 25 8 26 9 23 11 24 12 19 13
REMARK SMILES IDX 18 14 16 15 17 16 11 18 10 19 8 20 9 21 12 24 13 25 14 26
REMARK SMILES IDX 15 27 20 28 21 29 22 30 29 32 30 33 31 34 32 35 33 36 34 37
REMARK SMILES IDX 35 38 57 43 58 44 59 45 60 46 61 47 62 49 66 50 67 51 68 52
REMARK SMILES IDX 69 53 70 54 71 55 2 56 1 57 3 58 4 59 5 60 6 62 7 63 63 65
REMARK SMILES IDX 64 66 65 67 40 69 41 70 42 71 44 72 43 73 45 74 46 75 47 76
REMARK SMILES IDX 55 77 56 78 48 79 49 80 50 81 54 82 51 83 53 84 52 85
REMARK H PARENT 38 5 27 10 18 17 10 22 22 31 34 39 34 40 35 41 35 42 61 48
REMARK H PARENT 5 61 65 68
REMARK Flexibility Score:  369.900
ROOT
ATOM      1  C   UNL     1       5.305   1.972   8.080  1.00  0.00     0.117 C 
ENDROOT
BRANCH   1   2
ATOM      2  N   UNL     1       5.657   2.624   9.342  1.00  0.00    -0.347 N 
ATOM      3  O   UNL     1       3.529   3.135  10.035  1.00  0.00    -0.273 OA
ATOM      4  C   UNL     1       4.732   3.073  10.265  1.00  0.00     0.243 C 
ATOM      5  H   UNL     1       6.629   2.717   9.596  1.00  0.00     0.164 HD
BRANCH   4   6
ATOM      6  C   UNL     1       5.368   3.647  11.556  1.00  0.00     0.171 C 
BRANCH   6   7
ATOM      7  N   UNL     1       4.793   2.998  12.745  1.00  0.00    -0.344 N 
ATOM      8  C   UNL     1       3.695   3.539  13.379  1.00  0.00     0.226 C 
ATOM      9  O   UNL     1       3.166   4.580  13.008  1.00  0.00    -0.275 OA
ATOM     10  H   UNL     1       5.244   2.173  13.121  1.00  0.00     0.164 HD
BRANCH   8  11
ATOM     11  C   UNL     1       3.187   2.725  14.556  1.00  0.00     0.109 C 
ATOM     12  C   UNL     1       4.323   1.888  15.145  1.00  0.00     0.021 C 
BRANCH  11  13
ATOM     13  C   UNL     1       2.474   3.650  15.561  1.00  0.00     0.204 C 
BRANCH  13  14
ATOM     14  N   UNL     1       3.145   4.947  15.690  1.00  0.00    -0.340 N 
ATOM     15  C   UNL     1       3.907   5.289  16.786  1.00  0.00     0.243 C 
ATOM     16  O   UNL     1       4.128   4.506  17.708  1.00  0.00    -0.273 OA
ATOM     17  H   UNL     1       2.881   5.691  15.039  1.00  0.00     0.164 HD
BRANCH  15  18
ATOM     18  C   UNL     1       4.342   6.776  16.798  1.00  0.00     0.171 C 
BRANCH  18  19
ATOM     19  N   UNL     1       5.401   6.895  17.797  1.00  0.00    -0.343 N 
ATOM     20  C   UNL     1       5.284   7.736  18.887  1.00  0.00     0.242 CG0
ATOM     21  O   UNL     1       4.344   8.520  18.996  1.00  0.00    -0.273 OA
ATOM     22  H   UNL     1       6.250   6.351  17.690  1.00  0.00     0.164 HD
ATOM     23  G   UNL     1       6.467   7.668  19.874  1.00  0.00     0.000 G0
ENDBRANCH  18  19
BRANCH  18  24
ATOM     24  C   UNL     1       4.828   7.208  15.409  1.00  0.00     0.038 C 
BRANCH  24  25
ATOM     25  C   UNL     1       5.902   8.317  15.419  1.00  0.00    -0.015 C 
ATOM     26  C   UNL     1       5.296   9.719  15.468  1.00  0.00     0.007 C 
ATOM     27  C   UNL     1       6.792   8.182  14.180  1.00  0.00     0.007 C 
ENDBRANCH  24  25
ENDBRANCH  18  24
ENDBRANCH  15  18
ENDBRANCH  13  14
BRANCH  13  28
ATOM     28  C   UNL     1       1.013   3.929  15.193  1.00  0.00     0.327 C 
ATOM     29  O   UNL     1       0.120   3.101  15.100  1.00  0.00    -0.250 OA
BRANCH  28  30
ATOM     30  O   UNL     1       0.791   5.214  14.849  1.00  0.00    -0.480 OA
ATOM     31  H   UNL     1       0.553   5.172  13.900  1.00  0.00     0.296 HD
ENDBRANCH  28  30
ENDBRANCH  13  28
ENDBRANCH  11  13
ENDBRANCH   8  11
ENDBRANCH   6   7
BRANCH   6  32
ATOM     32  C   UNL     1       6.886   3.443  11.503  1.00  0.00     0.037 C 
BRANCH  32  33
ATOM     33  C   UNL     1       7.637   4.448  12.388  1.00  0.00     0.026 C 
BRANCH  33  34
ATOM     34  C   UNL     1       8.520   3.763  13.432  1.00  0.00     0.146 C 
BRANCH  34  35
ATOM     35  N   UNL     1       7.690   3.365  14.560  1.00  0.00    -0.254 NA
ATOM     36  C   UNL     1       7.645   4.127  15.589  1.00  0.00     0.185 C 
ATOM     37  N   UNL     1       6.879   3.772  16.632  1.00  0.00    -0.370 N 
ATOM     38  N   UNL     1       8.277   5.295  15.804  1.00  0.00    -0.370 N 
ATOM     39  H   UNL     1       6.362   2.907  16.543  1.00  0.00     0.159 HD
ATOM     40  H   UNL     1       6.655   4.390  17.393  1.00  0.00     0.159 HD
ATOM     41  H   UNL     1       8.270   5.732  16.711  1.00  0.00     0.159 HD
ATOM     42  H   UNL     1       8.900   5.676  15.109  1.00  0.00     0.159 HD
ENDBRANCH  34  35
ENDBRANCH  33  34
ENDBRANCH  32  33
ENDBRANCH   6  32
ENDBRANCH   4   6
ENDBRANCH   1   2
BRANCH   1  43
ATOM     43  C   UNL     1       6.238   0.743   7.880  1.00  0.00     0.102 C 
ATOM     44  C   UNL     1       6.392   0.324   6.408  1.00  0.00     0.020 C 
BRANCH  43  45
ATOM     45  C   UNL     1       5.843  -0.405   8.815  1.00  0.00     0.225 C 
ATOM     46  O   UNL     1       5.864  -0.310  10.039  1.00  0.00    -0.275 OA
ATOM     47  N   UNL     1       5.549  -1.598   8.196  1.00  0.00    -0.342 N 
ATOM     48  H   UNL     1       5.390  -1.618   7.198  1.00  0.00     0.164 HD
BRANCH  47  49
ATOM     49  C   UNL     1       5.121  -2.773   8.961  1.00  0.00     0.192 C 
BRANCH  49  50
ATOM     50  C   UNL     1       6.197  -3.859   8.880  1.00  0.00     0.047 C 
BRANCH  50  51
ATOM     51  C   UNL     1       7.093  -3.700   7.645  1.00  0.00     0.103 C 
BRANCH  51  52
ATOM     52  C   UNL     1       6.419  -4.217   6.376  1.00  0.00     0.226 C 
ATOM     53  O   UNL     1       5.938  -3.416   5.571  1.00  0.00    -0.275 OA
BRANCH  52  54
ATOM     54  N   UNL     1       6.458  -5.608   6.167  1.00  0.00    -0.311 N 
ATOM     55  C   UNL     1       7.690  -6.271   5.720  1.00  0.00     0.153 C 
BRANCH  54  56
ATOM     56  C   UNL     1       5.327  -6.413   6.383  1.00  0.00     0.102 C 
ATOM     57  C   UNL     1       5.156  -7.232   7.433  1.00  0.00     0.043 C 
BRANCH  56  58
ATOM     58  C   UNL     1       4.155  -6.375   5.430  1.00  0.00     0.268 C 
ATOM     59  O   UNL     1       3.968  -7.221   4.566  1.00  0.00    -0.268 OA
ATOM     60  N   UNL     1       3.292  -5.335   5.676  1.00  0.00    -0.339 N 
ATOM     61  H   UNL     1       3.525  -4.670   6.404  1.00  0.00     0.164 HD
BRANCH  60  62
ATOM     62  C   UNL     1       2.060  -5.147   4.911  1.00  0.00     0.168 CG0
ATOM     63  C   UNL     1       0.842  -5.147   5.827  1.00  0.00     0.041 C 
ATOM     64  G   UNL     1       1.940  -6.256   3.844  1.00  0.00     0.000 G0
ENDBRANCH  60  62
ENDBRANCH  56  58
ENDBRANCH  54  56
ENDBRANCH  52  54
ENDBRANCH  51  52
ENDBRANCH  50  51
ENDBRANCH  49  50
BRANCH  49  65
ATOM     65  C   UNL     1       3.790  -3.335   8.439  1.00  0.00     0.326 C 
ATOM     66  O   UNL     1       3.331  -4.437   8.703  1.00  0.00    -0.250 OA
BRANCH  65  67
ATOM     67  O   UNL     1       3.136  -2.527   7.576  1.00  0.00    -0.480 OA
ATOM     68  H   UNL     1       2.263  -2.962   7.468  1.00  0.00     0.296 HD
ENDBRANCH  65  67
ENDBRANCH  49  65
ENDBRANCH  47  49
ENDBRANCH  43  45
ENDBRANCH   1  43
BRANCH   1  69
ATOM     69  C   UNL     1       5.296   3.065   7.027  1.00  0.00    -0.001 C 
ATOM     70  C   UNL     1       4.399   3.241   6.040  1.00  0.00     0.001 C 
BRANCH  70  71
ATOM     71  C   UNL     1       4.388   4.312   5.042  1.00  0.00    -0.055 C 
ATOM     72  C   UNL     1       4.239   3.962   3.747  1.00  0.00    -0.018 C 
ATOM     73  C   UNL     1       4.537   5.729   5.531  1.00  0.00     0.044 C 
BRANCH  72  74
ATOM     74  C   UNL     1       4.189   4.847   2.510  1.00  0.00     0.038 C 
ATOM     75  C   UNL     1       3.168   4.225   1.550  1.00  0.00     0.015 C 
BRANCH  74  76
ATOM     76  C   UNL     1       5.629   4.984   1.933  1.00  0.00     0.128 C 
BRANCH  76  77
ATOM     77  O   UNL     1       6.592   4.556   2.911  1.00  0.00    -0.381 OA
ATOM     78  C   UNL     1       7.560   5.547   3.230  1.00  0.00     0.195 C 
ENDBRANCH  76  77
BRANCH  76  79
ATOM     79  C   UNL     1       5.824   4.296   0.558  1.00  0.00     0.068 C 
BRANCH  79  80
ATOM     80  C   UNL     1       6.030   5.177  -0.650  1.00  0.00    -0.045 A 
ATOM     81  C   UNL     1       7.171   5.046  -1.453  1.00  0.00     0.004 A 
ATOM     82  C   UNL     1       5.090   6.167  -0.973  1.00  0.00     0.004 A 
ATOM     83  C   UNL     1       7.362   5.874  -2.561  1.00  0.00     0.000 A 
ATOM     84  C   UNL     1       5.281   6.995  -2.081  1.00  0.00     0.000 A 
ATOM     85  C   UNL     1       6.416   6.848  -2.875  1.00  0.00     0.000 A 
ENDBRANCH  79  80
ENDBRANCH  76  79
ENDBRANCH  74  76
ENDBRANCH  72  74
ENDBRANCH  70  71
ENDBRANCH   1  69
TORSDOF 17
ENDMDL
MODEL 40
REMARK VINA RESULT:    -6.018      4.395     11.698
REMARK INTER + INTRA:         -23.897
REMARK INTER:                 -17.691
REMARK INTRA:                  -6.205
REMARK UNBOUND:                -5.916
REMARK SMILES C=C1C(=O)N[C@H](C)C(=O)N[C@@H](CC(C)C)C(=O)N[C@@H](C(=O)O)[C@H](C)C(=O)N[C@@H](CCCN=C(N)N)C(=O)N[C@@H](/C=C/C(C)=C/[C@H](C)[C@H](Cc2ccccc2)OC)[C@H](C)C(=O)N[C@@H](C(=O)O)CCC(=O)N1C
REMARK SMILES IDX 39 1 38 2 37 3 36 4 28 6 27 7 25 8 26 9 23 11 24 12 19 13
REMARK SMILES IDX 18 14 16 15 17 16 11 18 10 19 8 20 9 21 12 24 13 25 14 26
REMARK SMILES IDX 15 27 20 28 21 29 22 30 29 32 30 33 31 34 32 35 33 36 34 37
REMARK SMILES IDX 35 38 57 43 58 44 59 45 60 46 61 47 62 49 66 50 67 51 68 52
REMARK SMILES IDX 69 53 70 54 71 55 2 56 1 57 3 58 4 59 5 60 6 62 7 63 63 65
REMARK SMILES IDX 64 66 65 67 40 69 41 70 42 71 44 72 43 73 45 74 46 75 47 76
REMARK SMILES IDX 55 77 56 78 48 79 49 80 50 81 54 82 51 83 53 84 52 85
REMARK H PARENT 38 5 27 10 18 17 10 22 22 31 34 39 34 40 35 41 35 42 61 48
REMARK H PARENT 5 61 65 68
REMARK Flexibility Score:  369.900
ROOT
ATOM      1  C   UNL     1       5.348   0.809   6.968  1.00  0.00     0.117 C 
ENDROOT
BRANCH   1   2
ATOM      2  N   UNL     1       4.817   1.261   8.255  1.00  0.00    -0.347 N 
ATOM      3  O   UNL     1       6.542   2.662   8.831  1.00  0.00    -0.273 OA
ATOM      4  C   UNL     1       5.416   2.224   9.043  1.00  0.00     0.243 C 
ATOM      5  H   UNL     1       3.935   0.895   8.582  1.00  0.00     0.164 HD
BRANCH   4   6
ATOM      6  C   UNL     1       4.604   2.582  10.314  1.00  0.00     0.171 C 
BRANCH   6   7
ATOM      7  N   UNL     1       5.392   3.455  11.199  1.00  0.00    -0.344 N 
ATOM      8  C   UNL     1       5.399   3.253  12.562  1.00  0.00     0.226 C 
ATOM      9  O   UNL     1       4.744   2.368  13.101  1.00  0.00    -0.275 OA
ATOM     10  H   UNL     1       5.892   4.238  10.797  1.00  0.00     0.164 HD
BRANCH   8  11
ATOM     11  C   UNL     1       6.302   4.201  13.331  1.00  0.00     0.109 C 
ATOM     12  C   UNL     1       7.523   4.566  12.486  1.00  0.00     0.021 C 
BRANCH  11  13
ATOM     13  C   UNL     1       5.483   5.404  13.840  1.00  0.00     0.204 C 
BRANCH  13  14
ATOM     14  N   UNL     1       4.724   5.082  15.052  1.00  0.00    -0.340 N 
ATOM     15  C   UNL     1       3.578   5.753  15.418  1.00  0.00     0.243 C 
ATOM     16  O   UNL     1       3.075   6.631  14.719  1.00  0.00    -0.273 OA
ATOM     17  H   UNL     1       5.165   4.473  15.747  1.00  0.00     0.164 HD
BRANCH  15  18
ATOM     18  C   UNL     1       3.069   5.383  16.833  1.00  0.00     0.171 C 
BRANCH  18  19
ATOM     19  N   UNL     1       3.419   6.500  17.709  1.00  0.00    -0.343 N 
ATOM     20  C   UNL     1       4.726   6.761  18.071  1.00  0.00     0.242 CG0
ATOM     21  O   UNL     1       5.639   5.990  17.784  1.00  0.00    -0.273 OA
ATOM     22  H   UNL     1       2.684   7.100  18.067  1.00  0.00     0.164 HD
ATOM     23  G   UNL     1       4.907   8.026  18.934  1.00  0.00     0.000 G0
ENDBRANCH  18  19
BRANCH  18  24
ATOM     24  C   UNL     1       1.556   5.134  16.817  1.00  0.00     0.038 C 
BRANCH  24  25
ATOM     25  C   UNL     1       1.148   3.666  16.568  1.00  0.00    -0.015 C 
ATOM     26  C   UNL     1       2.245   2.678  16.965  1.00  0.00     0.007 C 
ATOM     27  C   UNL     1       0.791   3.474  15.092  1.00  0.00     0.007 C 
ENDBRANCH  24  25
ENDBRANCH  18  24
ENDBRANCH  15  18
ENDBRANCH  13  14
BRANCH  13  28
ATOM     28  C   UNL     1       6.344   6.631  14.156  1.00  0.00     0.327 C 
ATOM     29  O   UNL     1       6.417   7.654  13.492  1.00  0.00    -0.250 OA
BRANCH  28  30
ATOM     30  O   UNL     1       7.151   6.449  15.221  1.00  0.00    -0.480 OA
ATOM     31  H   UNL     1       7.937   5.993  14.853  1.00  0.00     0.296 HD
ENDBRANCH  28  30
ENDBRANCH  13  28
ENDBRANCH  11  13
ENDBRANCH   8  11
ENDBRANCH   6   7
BRANCH   6  32
ATOM     32  C   UNL     1       3.294   3.261   9.900  1.00  0.00     0.037 C 
BRANCH  32  33
ATOM     33  C   UNL     1       3.411   4.792   9.897  1.00  0.00     0.026 C 
BRANCH  33  34
ATOM     34  C   UNL     1       3.106   5.399   8.527  1.00  0.00     0.146 C 
BRANCH  34  35
ATOM     35  N   UNL     1       2.290   6.591   8.712  1.00  0.00    -0.254 NA
ATOM     36  C   UNL     1       2.739   7.715   8.291  1.00  0.00     0.185 C 
ATOM     37  N   UNL     1       1.994   8.819   8.452  1.00  0.00    -0.370 N 
ATOM     38  N   UNL     1       3.906   7.982   7.677  1.00  0.00    -0.370 N 
ATOM     39  H   UNL     1       1.094   8.697   8.899  1.00  0.00     0.159 HD
ATOM     40  H   UNL     1       2.193   9.695   8.001  1.00  0.00     0.159 HD
ATOM     41  H   UNL     1       4.206   8.930   7.519  1.00  0.00     0.159 HD
ATOM     42  H   UNL     1       4.574   7.247   7.505  1.00  0.00     0.159 HD
ENDBRANCH  34  35
ENDBRANCH  33  34
ENDBRANCH  32  33
ENDBRANCH   6  32
ENDBRANCH   4   6
ENDBRANCH   1   2
BRANCH   1  43
ATOM     43  C   UNL     1       6.575  -0.109   7.234  1.00  0.00     0.102 C 
ATOM     44  C   UNL     1       7.917   0.534   6.841  1.00  0.00     0.020 C 
BRANCH  43  45
ATOM     45  C   UNL     1       6.358  -1.504   6.640  1.00  0.00     0.225 C 
ATOM     46  O   UNL     1       6.287  -1.716   5.433  1.00  0.00    -0.275 OA
ATOM     47  N   UNL     1       6.149  -2.511   7.555  1.00  0.00    -0.342 N 
ATOM     48  H   UNL     1       6.360  -2.352   8.530  1.00  0.00     0.164 HD
BRANCH  47  49
ATOM     49  C   UNL     1       5.963  -3.902   7.133  1.00  0.00     0.192 C 
BRANCH  49  50
ATOM     50  C   UNL     1       4.644  -4.438   7.696  1.00  0.00     0.047 C 
BRANCH  50  51
ATOM     51  C   UNL     1       3.424  -3.894   6.939  1.00  0.00     0.103 C 
BRANCH  51  52
ATOM     52  C   UNL     1       2.119  -4.515   7.434  1.00  0.00     0.226 C 
ATOM     53  O   UNL     1       1.950  -4.700   8.640  1.00  0.00    -0.275 OA
BRANCH  52  54
ATOM     54  N   UNL     1       1.139  -4.773   6.458  1.00  0.00    -0.311 N 
ATOM     55  C   UNL     1      -0.236  -4.280   6.618  1.00  0.00     0.153 C 
BRANCH  54  56
ATOM     56  C   UNL     1       1.437  -5.504   5.295  1.00  0.00     0.102 C 
ATOM     57  C   UNL     1       1.037  -5.173   4.056  1.00  0.00     0.043 C 
BRANCH  56  58
ATOM     58  C   UNL     1       2.304  -6.739   5.358  1.00  0.00     0.268 C 
ATOM     59  O   UNL     1       1.991  -7.745   5.980  1.00  0.00    -0.268 OA
ATOM     60  N   UNL     1       3.441  -6.641   4.593  1.00  0.00    -0.339 N 
ATOM     61  H   UNL     1       3.633  -5.768   4.115  1.00  0.00     0.164 HD
BRANCH  60  62
ATOM     62  C   UNL     1       4.389  -7.746   4.460  1.00  0.00     0.168 CG0
ATOM     63  C   UNL     1       5.568  -7.573   5.410  1.00  0.00     0.041 C 
ATOM     64  G   UNL     1       4.875  -7.839   2.999  1.00  0.00     0.000 G0
ENDBRANCH  60  62
ENDBRANCH  56  58
ENDBRANCH  54  56
ENDBRANCH  52  54
ENDBRANCH  51  52
ENDBRANCH  50  51
ENDBRANCH  49  50
BRANCH  49  65
ATOM     65  C   UNL     1       7.119  -4.798   7.605  1.00  0.00     0.326 C 
ATOM     66  O   UNL     1       8.275  -4.730   7.214  1.00  0.00    -0.250 OA
BRANCH  65  67
ATOM     67  O   UNL     1       6.764  -5.760   8.485  1.00  0.00    -0.480 OA
ATOM     68  H   UNL     1       6.722  -5.285   9.343  1.00  0.00     0.296 HD
ENDBRANCH  65  67
ENDBRANCH  49  65
ENDBRANCH  47  49
ENDBRANCH  43  45
ENDBRANCH   1  43
BRANCH   1  69
ATOM     69  C   UNL     1       5.534   2.058   6.125  1.00  0.00    -0.001 C 
ATOM     70  C   UNL     1       4.578   2.790   5.528  1.00  0.00     0.001 C 
BRANCH  70  71
ATOM     71  C   UNL     1       4.768   4.006   4.734  1.00  0.00    -0.055 C 
ATOM     72  C   UNL     1       5.314   3.875   3.507  1.00  0.00    -0.018 C 
ATOM     73  C   UNL     1       4.334   5.315   5.340  1.00  0.00     0.044 C 
BRANCH  72  74
ATOM     74  C   UNL     1       5.623   4.946   2.471  1.00  0.00     0.038 C 
ATOM     75  C   UNL     1       4.806   4.613   1.216  1.00  0.00     0.015 C 
BRANCH  74  76
ATOM     76  C   UNL     1       7.164   5.001   2.251  1.00  0.00     0.128 C 
BRANCH  76  77
ATOM     77  O   UNL     1       7.457   5.084   0.846  1.00  0.00    -0.381 OA
ATOM     78  C   UNL     1       8.118   6.284   0.471  1.00  0.00     0.195 C 
ENDBRANCH  76  77
BRANCH  76  79
ATOM     79  C   UNL     1       7.879   6.099   3.079  1.00  0.00     0.068 C 
BRANCH  79  80
ATOM     80  C   UNL     1       7.901   5.950   4.581  1.00  0.00    -0.045 A 
ATOM     81  C   UNL     1       7.472   6.991   5.415  1.00  0.00     0.004 A 
ATOM     82  C   UNL     1       8.380   4.770   5.168  1.00  0.00     0.004 A 
ATOM     83  C   UNL     1       7.509   6.851   6.804  1.00  0.00     0.000 A 
ATOM     84  C   UNL     1       8.417   4.631   6.557  1.00  0.00     0.000 A 
ATOM     85  C   UNL     1       7.980   5.671   7.375  1.00  0.00     0.000 A 
ENDBRANCH  79  80
ENDBRANCH  76  79
ENDBRANCH  74  76
ENDBRANCH  72  74
ENDBRANCH  70  71
ENDBRANCH   1  69
TORSDOF 17
ENDMDL
MODEL 41
REMARK VINA RESULT:    -6.004      3.999      9.364
REMARK INTER + INTRA:         -23.853
REMARK INTER:                 -18.904
REMARK INTRA:                  -4.950
REMARK UNBOUND:                -5.916
REMARK SMILES C=C1C(=O)N[C@H](C)C(=O)N[C@@H](CC(C)C)C(=O)N[C@@H](C(=O)O)[C@H](C)C(=O)N[C@@H](CCCN=C(N)N)C(=O)N[C@@H](/C=C/C(C)=C/[C@H](C)[C@H](Cc2ccccc2)OC)[C@H](C)C(=O)N[C@@H](C(=O)O)CCC(=O)N1C
REMARK SMILES IDX 39 1 38 2 37 3 36 4 28 6 27 7 25 8 26 9 23 11 24 12 19 13
REMARK SMILES IDX 18 14 16 15 17 16 11 18 10 19 8 20 9 21 12 24 13 25 14 26
REMARK SMILES IDX 15 27 20 28 21 29 22 30 29 32 30 33 31 34 32 35 33 36 34 37
REMARK SMILES IDX 35 38 57 43 58 44 59 45 60 46 61 47 62 49 66 50 67 51 68 52
REMARK SMILES IDX 69 53 70 54 71 55 2 56 1 57 3 58 4 59 5 60 6 62 7 63 63 65
REMARK SMILES IDX 64 66 65 67 40 69 41 70 42 71 44 72 43 73 45 74 46 75 47 76
REMARK SMILES IDX 55 77 56 78 48 79 49 80 50 81 54 82 51 83 53 84 52 85
REMARK H PARENT 38 5 27 10 18 17 10 22 22 31 34 39 34 40 35 41 35 42 61 48
REMARK H PARENT 5 61 65 68
REMARK Flexibility Score:  369.900
ROOT
ATOM      1  C   UNL     1       5.301   0.012   8.793  1.00  0.00     0.117 C 
ENDROOT
BRANCH   1   2
ATOM      2  N   UNL     1       5.447  -1.424   9.033  1.00  0.00    -0.347 N 
ATOM      3  O   UNL     1       3.829  -2.151   7.576  1.00  0.00    -0.273 OA
ATOM      4  C   UNL     1       4.760  -2.399   8.335  1.00  0.00     0.243 C 
ATOM      5  H   UNL     1       6.122  -1.746   9.710  1.00  0.00     0.164 HD
BRANCH   4   6
ATOM      6  C   UNL     1       5.162  -3.844   8.724  1.00  0.00     0.171 C 
BRANCH   6   7
ATOM      7  N   UNL     1       4.208  -4.812   8.161  1.00  0.00    -0.344 N 
ATOM      8  C   UNL     1       3.233  -5.380   8.953  1.00  0.00     0.226 C 
ATOM      9  O   UNL     1       3.126  -5.131  10.148  1.00  0.00    -0.275 OA
ATOM     10  H   UNL     1       4.308  -5.094   7.194  1.00  0.00     0.164 HD
BRANCH   8  11
ATOM     11  C   UNL     1       2.294  -6.316   8.214  1.00  0.00     0.109 C 
ATOM     12  C   UNL     1       2.505  -7.755   8.686  1.00  0.00     0.021 C 
BRANCH  11  13
ATOM     13  C   UNL     1       0.845  -5.802   8.332  1.00  0.00     0.204 C 
BRANCH  13  14
ATOM     14  N   UNL     1       0.391  -5.747   9.725  1.00  0.00    -0.340 N 
ATOM     15  C   UNL     1      -0.756  -6.372  10.164  1.00  0.00     0.243 C 
ATOM     16  O   UNL     1      -1.448  -7.073   9.428  1.00  0.00    -0.273 OA
ATOM     17  H   UNL     1       0.832  -5.064  10.347  1.00  0.00     0.164 HD
BRANCH  15  18
ATOM     18  C   UNL     1      -1.144  -6.004  11.617  1.00  0.00     0.171 C 
BRANCH  18  19
ATOM     19  N   UNL     1       0.006  -5.313  12.195  1.00  0.00    -0.343 N 
ATOM     20  C   UNL     1       0.792  -5.897  13.170  1.00  0.00     0.242 CG0
ATOM     21  O   UNL     1       0.483  -6.966  13.690  1.00  0.00    -0.273 OA
ATOM     22  H   UNL     1       0.235  -4.377  11.880  1.00  0.00     0.164 HD
ATOM     23  G   UNL     1       2.006  -5.049  13.602  1.00  0.00     0.000 G0
ENDBRANCH  18  19
BRANCH  18  24
ATOM     24  C   UNL     1      -2.398  -5.120  11.635  1.00  0.00     0.038 C 
BRANCH  24  25
ATOM     25  C   UNL     1      -3.347  -5.373  12.825  1.00  0.00    -0.015 C 
ATOM     26  C   UNL     1      -2.955  -6.610  13.634  1.00  0.00     0.007 C 
ATOM     27  C   UNL     1      -4.783  -5.525  12.314  1.00  0.00     0.007 C 
ENDBRANCH  24  25
ENDBRANCH  18  24
ENDBRANCH  15  18
ENDBRANCH  13  14
BRANCH  13  28
ATOM     28  C   UNL     1       0.651  -4.404   7.735  1.00  0.00     0.327 C 
ATOM     29  O   UNL     1       0.131  -4.143   6.661  1.00  0.00    -0.250 OA
BRANCH  28  30
ATOM     30  O   UNL     1       1.227  -3.431   8.470  1.00  0.00    -0.480 OA
ATOM     31  H   UNL     1       1.871  -3.017   7.858  1.00  0.00     0.296 HD
ENDBRANCH  28  30
ENDBRANCH  13  28
ENDBRANCH  11  13
ENDBRANCH   8  11
ENDBRANCH   6   7
BRANCH   6  32
ATOM     32  C   UNL     1       6.584  -4.122   8.223  1.00  0.00     0.037 C 
BRANCH  32  33
ATOM     33  C   UNL     1       6.666  -5.417   7.403  1.00  0.00     0.026 C 
BRANCH  33  34
ATOM     34  C   UNL     1       6.797  -5.152   5.903  1.00  0.00     0.146 C 
BRANCH  34  35
ATOM     35  N   UNL     1       5.489  -5.310   5.282  1.00  0.00    -0.254 NA
ATOM     36  C   UNL     1       4.865  -4.263   4.889  1.00  0.00     0.185 C 
ATOM     37  N   UNL     1       3.661  -4.397   4.311  1.00  0.00    -0.370 N 
ATOM     38  N   UNL     1       5.245  -2.975   4.964  1.00  0.00    -0.370 N 
ATOM     39  H   UNL     1       3.310  -5.340   4.208  1.00  0.00     0.159 HD
ATOM     40  H   UNL     1       3.192  -3.653   3.824  1.00  0.00     0.159 HD
ATOM     41  H   UNL     1       4.605  -2.229   4.746  1.00  0.00     0.159 HD
ATOM     42  H   UNL     1       6.123  -2.724   5.391  1.00  0.00     0.159 HD
ENDBRANCH  34  35
ENDBRANCH  33  34
ENDBRANCH  32  33
ENDBRANCH   6  32
ENDBRANCH   4   6
ENDBRANCH   1   2
BRANCH   1  43
ATOM     43  C   UNL     1       6.164   0.398   7.557  1.00  0.00     0.102 C 
ATOM     44  C   UNL     1       7.451   1.156   7.922  1.00  0.00     0.020 C 
BRANCH  43  45
ATOM     45  C   UNL     1       5.315   1.094   6.489  1.00  0.00     0.225 C 
ATOM     46  O   UNL     1       4.592   0.486   5.705  1.00  0.00    -0.275 OA
ATOM     47  N   UNL     1       5.482   2.457   6.395  1.00  0.00    -0.342 N 
ATOM     48  H   UNL     1       5.955   2.955   7.135  1.00  0.00     0.164 HD
BRANCH  47  49
ATOM     49  C   UNL     1       4.709   3.260   5.443  1.00  0.00     0.192 C 
BRANCH  49  50
ATOM     50  C   UNL     1       5.661   3.987   4.490  1.00  0.00     0.047 C 
BRANCH  50  51
ATOM     51  C   UNL     1       4.929   4.591   3.284  1.00  0.00     0.103 C 
BRANCH  51  52
ATOM     52  C   UNL     1       5.900   5.083   2.212  1.00  0.00     0.226 C 
ATOM     53  O   UNL     1       6.931   5.670   2.546  1.00  0.00    -0.275 OA
BRANCH  52  54
ATOM     54  N   UNL     1       5.580   4.759   0.880  1.00  0.00    -0.311 N 
ATOM     55  C   UNL     1       6.429   3.850   0.099  1.00  0.00     0.153 C 
BRANCH  54  56
ATOM     56  C   UNL     1       4.439   5.284   0.252  1.00  0.00     0.102 C 
ATOM     57  C   UNL     1       3.182   5.155   0.708  1.00  0.00     0.043 C 
BRANCH  56  58
ATOM     58  C   UNL     1       4.558   6.105  -1.011  1.00  0.00     0.268 C 
ATOM     59  O   UNL     1       3.675   6.165  -1.856  1.00  0.00    -0.268 OA
ATOM     60  N   UNL     1       5.727   6.825  -1.078  1.00  0.00    -0.339 N 
ATOM     61  H   UNL     1       6.412   6.712  -0.341  1.00  0.00     0.164 HD
BRANCH  60  62
ATOM     62  C   UNL     1       6.018   7.734  -2.186  1.00  0.00     0.168 CG0
ATOM     63  C   UNL     1       6.790   7.022  -3.290  1.00  0.00     0.041 C 
ATOM     64  G   UNL     1       6.811   8.949  -1.663  1.00  0.00     0.000 G0
ENDBRANCH  60  62
ENDBRANCH  56  58
ENDBRANCH  54  56
ENDBRANCH  52  54
ENDBRANCH  51  52
ENDBRANCH  50  51
ENDBRANCH  49  50
BRANCH  49  65
ATOM     65  C   UNL     1       3.821   4.290   6.159  1.00  0.00     0.326 C 
ATOM     66  O   UNL     1       4.211   5.133   6.953  1.00  0.00    -0.250 OA
BRANCH  65  67
ATOM     67  O   UNL     1       2.500   4.175   5.897  1.00  0.00    -0.480 OA
ATOM     68  H   UNL     1       2.077   4.715   6.599  1.00  0.00     0.296 HD
ENDBRANCH  65  67
ENDBRANCH  49  65
ENDBRANCH  47  49
ENDBRANCH  43  45
ENDBRANCH   1  43
BRANCH   1  69
ATOM     69  C   UNL     1       5.575   0.694  10.121  1.00  0.00    -0.001 C 
ATOM     70  C   UNL     1       5.355   0.202  11.353  1.00  0.00     0.001 C 
BRANCH  70  71
ATOM     71  C   UNL     1       5.644   0.862  12.628  1.00  0.00    -0.055 C 
ATOM     72  C   UNL     1       4.795   1.826  13.042  1.00  0.00    -0.018 C 
ATOM     73  C   UNL     1       6.862   0.411  13.391  1.00  0.00     0.044 C 
BRANCH  72  74
ATOM     74  C   UNL     1       4.840   2.670  14.308  1.00  0.00     0.038 C 
ATOM     75  C   UNL     1       4.254   1.817  15.440  1.00  0.00     0.015 C 
BRANCH  74  76
ATOM     76  C   UNL     1       4.091   4.009  14.044  1.00  0.00     0.128 C 
BRANCH  76  77
ATOM     77  O   UNL     1       4.709   4.710  12.951  1.00  0.00    -0.381 OA
ATOM     78  C   UNL     1       6.039   5.132  13.222  1.00  0.00     0.195 C 
ENDBRANCH  76  77
BRANCH  76  79
ATOM     79  C   UNL     1       2.560   3.850  13.866  1.00  0.00     0.068 C 
BRANCH  79  80
ATOM     80  C   UNL     1       1.665   4.330  14.983  1.00  0.00    -0.045 A 
ATOM     81  C   UNL     1       1.779   5.631  15.491  1.00  0.00     0.004 A 
ATOM     82  C   UNL     1       0.717   3.465  15.550  1.00  0.00     0.004 A 
ATOM     83  C   UNL     1       0.957   6.062  16.534  1.00  0.00     0.000 A 
ATOM     84  C   UNL     1      -0.104   3.898  16.594  1.00  0.00     0.000 A 
ATOM     85  C   UNL     1       0.014   5.196  17.084  1.00  0.00     0.000 A 
ENDBRANCH  79  80
ENDBRANCH  76  79
ENDBRANCH  74  76
ENDBRANCH  72  74
ENDBRANCH  70  71
ENDBRANCH   1  69
TORSDOF 17
ENDMDL
MODEL 42
REMARK VINA RESULT:    -5.998      4.639     11.284
REMARK INTER + INTRA:         -23.837
REMARK INTER:                 -17.242
REMARK INTRA:                  -6.595
REMARK UNBOUND:                -5.916
REMARK SMILES C=C1C(=O)N[C@H](C)C(=O)N[C@@H](CC(C)C)C(=O)N[C@@H](C(=O)O)[C@H](C)C(=O)N[C@@H](CCCN=C(N)N)C(=O)N[C@@H](/C=C/C(C)=C/[C@H](C)[C@H](Cc2ccccc2)OC)[C@H](C)C(=O)N[C@@H](C(=O)O)CCC(=O)N1C
REMARK SMILES IDX 39 1 38 2 37 3 36 4 28 6 27 7 25 8 26 9 23 11 24 12 19 13
REMARK SMILES IDX 18 14 16 15 17 16 11 18 10 19 8 20 9 21 12 24 13 25 14 26
REMARK SMILES IDX 15 27 20 28 21 29 22 30 29 32 30 33 31 34 32 35 33 36 34 37
REMARK SMILES IDX 35 38 57 43 58 44 59 45 60 46 61 47 62 49 66 50 67 51 68 52
REMARK SMILES IDX 69 53 70 54 71 55 2 56 1 57 3 58 4 59 5 60 6 62 7 63 63 65
REMARK SMILES IDX 64 66 65 67 40 69 41 70 42 71 44 72 43 73 45 74 46 75 47 76
REMARK SMILES IDX 55 77 56 78 48 79 49 80 50 81 54 82 51 83 53 84 52 85
REMARK H PARENT 38 5 27 10 18 17 10 22 22 31 34 39 34 40 35 41 35 42 61 48
REMARK H PARENT 5 61 65 68
REMARK Flexibility Score:  369.900
ROOT
ATOM      1  C   UNL     1       8.009   2.260   7.814  1.00  0.00     0.117 C 
ENDROOT
BRANCH   1   2
ATOM      2  N   UNL     1       7.142   3.122   8.617  1.00  0.00    -0.347 N 
ATOM      3  O   UNL     1       5.131   2.199   8.008  1.00  0.00    -0.273 OA
ATOM      4  C   UNL     1       5.774   2.963   8.720  1.00  0.00     0.243 C 
ATOM      5  H   UNL     1       7.554   3.854   9.177  1.00  0.00     0.164 HD
BRANCH   4   6
ATOM      6  C   UNL     1       5.103   3.955   9.704  1.00  0.00     0.171 C 
BRANCH   6   7
ATOM      7  N   UNL     1       4.667   3.255  10.923  1.00  0.00    -0.344 N 
ATOM      8  C   UNL     1       3.513   3.632  11.575  1.00  0.00     0.226 C 
ATOM      9  O   UNL     1       2.814   4.564  11.195  1.00  0.00    -0.275 OA
ATOM     10  H   UNL     1       5.253   2.523  11.305  1.00  0.00     0.164 HD
BRANCH   8  11
ATOM     11  C   UNL     1       3.170   2.779  12.783  1.00  0.00     0.109 C 
ATOM     12  C   UNL     1       4.139   1.601  12.888  1.00  0.00     0.021 C 
BRANCH  11  13
ATOM     13  C   UNL     1       3.089   3.666  14.042  1.00  0.00     0.204 C 
BRANCH  13  14
ATOM     14  N   UNL     1       3.958   4.843  13.944  1.00  0.00    -0.340 N 
ATOM     15  C   UNL     1       5.208   4.900  14.520  1.00  0.00     0.243 C 
ATOM     16  O   UNL     1       5.709   3.942  15.107  1.00  0.00    -0.273 OA
ATOM     17  H   UNL     1       3.546   5.717  13.605  1.00  0.00     0.164 HD
BRANCH  15  18
ATOM     18  C   UNL     1       5.851   6.307  14.465  1.00  0.00     0.171 C 
BRANCH  18  19
ATOM     19  N   UNL     1       5.433   7.006  15.678  1.00  0.00    -0.343 N 
ATOM     20  C   UNL     1       4.271   7.753  15.725  1.00  0.00     0.242 CG0
ATOM     21  O   UNL     1       3.606   7.972  14.716  1.00  0.00    -0.273 OA
ATOM     22  H   UNL     1       6.011   6.950  16.509  1.00  0.00     0.164 HD
ATOM     23  G   UNL     1       3.955   8.351  17.111  1.00  0.00     0.000 G0
ENDBRANCH  18  19
BRANCH  18  24
ATOM     24  C   UNL     1       7.379   6.201  14.375  1.00  0.00     0.038 C 
BRANCH  24  25
ATOM     25  C   UNL     1       7.916   5.785  12.989  1.00  0.00    -0.015 C 
ATOM     26  C   UNL     1       8.757   4.510  13.047  1.00  0.00     0.007 C 
ATOM     27  C   UNL     1       8.747   6.925  12.396  1.00  0.00     0.007 C 
ENDBRANCH  24  25
ENDBRANCH  18  24
ENDBRANCH  15  18
ENDBRANCH  13  14
BRANCH  13  28
ATOM     28  C   UNL     1       1.672   4.170  14.334  1.00  0.00     0.327 C 
ATOM     29  O   UNL     1       1.308   5.336  14.343  1.00  0.00    -0.250 OA
BRANCH  28  30
ATOM     30  O   UNL     1       0.829   3.189  14.714  1.00  0.00    -0.480 OA
ATOM     31  H   UNL     1       1.220   2.375  14.335  1.00  0.00     0.296 HD
ENDBRANCH  28  30
ENDBRANCH  13  28
ENDBRANCH  11  13
ENDBRANCH   8  11
ENDBRANCH   6   7
BRANCH   6  32
ATOM     32  C   UNL     1       6.092   5.076  10.041  1.00  0.00     0.037 C 
BRANCH  32  33
ATOM     33  C   UNL     1       6.144   6.151   8.946  1.00  0.00     0.026 C 
BRANCH  33  34
ATOM     34  C   UNL     1       5.002   6.015   7.938  1.00  0.00     0.146 C 
BRANCH  34  35
ATOM     35  N   UNL     1       3.912   6.892   8.340  1.00  0.00    -0.254 NA
ATOM     36  C   UNL     1       2.718   6.428   8.342  1.00  0.00     0.185 C 
ATOM     37  N   UNL     1       1.707   7.227   8.716  1.00  0.00    -0.370 N 
ATOM     38  N   UNL     1       2.290   5.197   8.010  1.00  0.00    -0.370 N 
ATOM     39  H   UNL     1       1.950   8.170   8.991  1.00  0.00     0.159 HD
ATOM     40  H   UNL     1       0.778   6.894   8.909  1.00  0.00     0.159 HD
ATOM     41  H   UNL     1       1.308   4.995   7.918  1.00  0.00     0.159 HD
ATOM     42  H   UNL     1       2.941   4.496   7.693  1.00  0.00     0.159 HD
ENDBRANCH  34  35
ENDBRANCH  33  34
ENDBRANCH  32  33
ENDBRANCH   6  32
ENDBRANCH   4   6
ENDBRANCH   1   2
BRANCH   1  43
ATOM     43  C   UNL     1       8.907   1.427   8.774  1.00  0.00     0.102 C 
ATOM     44  C   UNL     1      10.315   1.158   8.217  1.00  0.00     0.020 C 
BRANCH  43  45
ATOM     45  C   UNL     1       8.179   0.169   9.256  1.00  0.00     0.225 C 
ATOM     46  O   UNL     1       8.106  -0.153  10.438  1.00  0.00    -0.275 OA
ATOM     47  N   UNL     1       7.680  -0.643   8.263  1.00  0.00    -0.342 N 
ATOM     48  H   UNL     1       7.613  -0.294   7.318  1.00  0.00     0.164 HD
BRANCH  47  49
ATOM     49  C   UNL     1       6.929  -1.863   8.576  1.00  0.00     0.192 C 
BRANCH  49  50
ATOM     50  C   UNL     1       7.306  -2.968   7.586  1.00  0.00     0.047 C 
BRANCH  50  51
ATOM     51  C   UNL     1       7.491  -4.327   8.274  1.00  0.00     0.103 C 
BRANCH  51  52
ATOM     52  C   UNL     1       6.767  -5.449   7.532  1.00  0.00     0.226 C 
ATOM     53  O   UNL     1       5.562  -5.625   7.719  1.00  0.00    -0.275 OA
BRANCH  52  54
ATOM     54  N   UNL     1       7.530  -6.180   6.602  1.00  0.00    -0.311 N 
ATOM     55  C   UNL     1       7.167  -6.204   5.179  1.00  0.00     0.153 C 
BRANCH  54  56
ATOM     56  C   UNL     1       8.666  -6.905   6.997  1.00  0.00     0.102 C 
ATOM     57  C   UNL     1       9.935  -6.496   6.833  1.00  0.00     0.043 C 
BRANCH  56  58
ATOM     58  C   UNL     1       8.531  -8.234   7.704  1.00  0.00     0.268 C 
ATOM     59  O   UNL     1       7.451  -8.753   7.952  1.00  0.00    -0.268 OA
ATOM     60  N   UNL     1       9.740  -8.826   7.978  1.00  0.00    -0.339 N 
ATOM     61  H   UNL     1      10.591  -8.325   7.750  1.00  0.00     0.164 HD
BRANCH  60  62
ATOM     62  C   UNL     1       9.839 -10.144   8.603  1.00  0.00     0.168 CG0
ATOM     63  C   UNL     1      11.290 -10.502   8.899  1.00  0.00     0.041 C 
ATOM     64  G   UNL     1       9.192 -11.201   7.683  1.00  0.00     0.000 G0
ENDBRANCH  60  62
ENDBRANCH  56  58
ENDBRANCH  54  56
ENDBRANCH  52  54
ENDBRANCH  51  52
ENDBRANCH  50  51
ENDBRANCH  49  50
BRANCH  49  65
ATOM     65  C   UNL     1       5.412  -1.624   8.519  1.00  0.00     0.326 C 
ATOM     66  O   UNL     1       4.622  -2.236   7.814  1.00  0.00    -0.250 OA
BRANCH  65  67
ATOM     67  O   UNL     1       4.972  -0.605   9.289  1.00  0.00    -0.480 OA
ATOM     68  H   UNL     1       4.594   0.029   8.642  1.00  0.00     0.296 HD
ENDBRANCH  65  67
ENDBRANCH  49  65
ENDBRANCH  47  49
ENDBRANCH  43  45
ENDBRANCH   1  43
BRANCH   1  69
ATOM     69  C   UNL     1       8.672   3.162   6.788  1.00  0.00    -0.001 C 
ATOM     70  C   UNL     1       8.193   4.312   6.282  1.00  0.00     0.001 C 
BRANCH  70  71
ATOM     71  C   UNL     1       8.851   5.185   5.308  1.00  0.00    -0.055 C 
ATOM     72  C   UNL     1       8.068   5.971   4.539  1.00  0.00    -0.018 C 
ATOM     73  C   UNL     1      10.356   5.150   5.237  1.00  0.00     0.044 C 
BRANCH  72  74
ATOM     74  C   UNL     1       8.467   6.967   3.460  1.00  0.00     0.038 C 
ATOM     75  C   UNL     1       8.290   8.371   4.052  1.00  0.00     0.015 C 
BRANCH  74  76
ATOM     76  C   UNL     1       7.622   6.687   2.182  1.00  0.00     0.128 C 
BRANCH  76  77
ATOM     77  O   UNL     1       8.282   7.233   1.028  1.00  0.00    -0.381 OA
ATOM     78  C   UNL     1       8.801   6.247   0.146  1.00  0.00     0.195 C 
ENDBRANCH  76  77
BRANCH  76  79
ATOM     79  C   UNL     1       7.232   5.198   2.001  1.00  0.00     0.068 C 
BRANCH  79  80
ATOM     80  C   UNL     1       5.763   4.850   1.986  1.00  0.00    -0.045 A 
ATOM     81  C   UNL     1       4.974   5.094   0.854  1.00  0.00     0.004 A 
ATOM     82  C   UNL     1       5.155   4.297   3.124  1.00  0.00     0.004 A 
ATOM     83  C   UNL     1       3.613   4.782   0.853  1.00  0.00     0.000 A 
ATOM     84  C   UNL     1       3.794   3.986   3.122  1.00  0.00     0.000 A 
ATOM     85  C   UNL     1       3.024   4.227   1.986  1.00  0.00     0.000 A 
ENDBRANCH  79  80
ENDBRANCH  76  79
ENDBRANCH  74  76
ENDBRANCH  72  74
ENDBRANCH  70  71
ENDBRANCH   1  69
TORSDOF 17
ENDMDL
MODEL 43
REMARK VINA RESULT:    -5.988      4.258     11.661
REMARK INTER + INTRA:         -23.806
REMARK INTER:                 -17.050
REMARK INTRA:                  -6.756
REMARK UNBOUND:                -5.916
REMARK SMILES C=C1C(=O)N[C@H](C)C(=O)N[C@@H](CC(C)C)C(=O)N[C@@H](C(=O)O)[C@H](C)C(=O)N[C@@H](CCCN=C(N)N)C(=O)N[C@@H](/C=C/C(C)=C/[C@H](C)[C@H](Cc2ccccc2)OC)[C@H](C)C(=O)N[C@@H](C(=O)O)CCC(=O)N1C
REMARK SMILES IDX 39 1 38 2 37 3 36 4 28 6 27 7 25 8 26 9 23 11 24 12 19 13
REMARK SMILES IDX 18 14 16 15 17 16 11 18 10 19 8 20 9 21 12 24 13 25 14 26
REMARK SMILES IDX 15 27 20 28 21 29 22 30 29 32 30 33 31 34 32 35 33 36 34 37
REMARK SMILES IDX 35 38 57 43 58 44 59 45 60 46 61 47 62 49 66 50 67 51 68 52
REMARK SMILES IDX 69 53 70 54 71 55 2 56 1 57 3 58 4 59 5 60 6 62 7 63 63 65
REMARK SMILES IDX 64 66 65 67 40 69 41 70 42 71 44 72 43 73 45 74 46 75 47 76
REMARK SMILES IDX 55 77 56 78 48 79 49 80 50 81 54 82 51 83 53 84 52 85
REMARK H PARENT 38 5 27 10 18 17 10 22 22 31 34 39 34 40 35 41 35 42 61 48
REMARK H PARENT 5 61 65 68
REMARK Flexibility Score:  369.900
ROOT
ATOM      1  C   UNL     1       5.814   2.230   7.049  1.00  0.00     0.117 C 
ENDROOT
BRANCH   1   2
ATOM      2  N   UNL     1       5.744   3.037   8.268  1.00  0.00    -0.347 N 
ATOM      3  O   UNL     1       3.659   3.937   7.927  1.00  0.00    -0.273 OA
ATOM      4  C   UNL     1       4.630   3.757   8.655  1.00  0.00     0.243 C 
ATOM      5  H   UNL     1       6.527   3.044   8.903  1.00  0.00     0.164 HD
BRANCH   4   6
ATOM      6  C   UNL     1       4.786   4.456  10.030  1.00  0.00     0.171 C 
BRANCH   6   7
ATOM      7  N   UNL     1       4.452   3.526  11.120  1.00  0.00    -0.344 N 
ATOM      8  C   UNL     1       3.293   3.685  11.848  1.00  0.00     0.226 C 
ATOM      9  O   UNL     1       2.507   4.602  11.646  1.00  0.00    -0.275 OA
ATOM     10  H   UNL     1       5.110   2.795  11.361  1.00  0.00     0.164 HD
BRANCH   8  11
ATOM     11  C   UNL     1       3.064   2.614  12.901  1.00  0.00     0.109 C 
ATOM     12  C   UNL     1       4.165   1.556  12.823  1.00  0.00     0.021 C 
BRANCH  11  13
ATOM     13  C   UNL     1       2.893   3.272  14.285  1.00  0.00     0.204 C 
BRANCH  13  14
ATOM     14  N   UNL     1       3.804   4.406  14.473  1.00  0.00    -0.340 N 
ATOM     15  C   UNL     1       4.881   4.366  15.331  1.00  0.00     0.243 C 
ATOM     16  O   UNL     1       5.191   3.353  15.956  1.00  0.00    -0.273 OA
ATOM     17  H   UNL     1       3.518   5.317  14.105  1.00  0.00     0.164 HD
BRANCH  15  18
ATOM     18  C   UNL     1       5.571   5.739  15.522  1.00  0.00     0.171 C 
BRANCH  18  19
ATOM     19  N   UNL     1       4.708   6.522  16.404  1.00  0.00    -0.343 N 
ATOM     20  C   UNL     1       3.627   7.234  15.922  1.00  0.00     0.242 CG0
ATOM     21  O   UNL     1       3.419   7.350  14.716  1.00  0.00    -0.273 OA
ATOM     22  H   UNL     1       4.907   6.551  17.398  1.00  0.00     0.164 HD
ATOM     23  G   UNL     1       2.788   7.934  17.011  1.00  0.00     0.000 G0
ENDBRANCH  18  19
BRANCH  18  24
ATOM     24  C   UNL     1       6.972   5.562  16.119  1.00  0.00     0.038 C 
BRANCH  24  25
ATOM     25  C   UNL     1       8.126   6.020  15.202  1.00  0.00    -0.015 C 
ATOM     26  C   UNL     1       7.650   6.939  14.076  1.00  0.00     0.007 C 
ATOM     27  C   UNL     1       8.827   4.796  14.606  1.00  0.00     0.007 C 
ENDBRANCH  24  25
ENDBRANCH  18  24
ENDBRANCH  15  18
ENDBRANCH  13  14
BRANCH  13  28
ATOM     28  C   UNL     1       1.472   3.784  14.539  1.00  0.00     0.327 C 
ATOM     29  O   UNL     1       0.495   3.101  14.805  1.00  0.00    -0.250 OA
BRANCH  28  30
ATOM     30  O   UNL     1       1.342   5.109  14.326  1.00  0.00    -0.480 OA
ATOM     31  H   UNL     1       0.882   5.438  15.127  1.00  0.00     0.296 HD
ENDBRANCH  28  30
ENDBRANCH  13  28
ENDBRANCH  11  13
ENDBRANCH   8  11
ENDBRANCH   6   7
BRANCH   6  32
ATOM     32  C   UNL     1       6.223   4.972  10.171  1.00  0.00     0.037 C 
BRANCH  32  33
ATOM     33  C   UNL     1       6.924   4.399  11.411  1.00  0.00     0.026 C 
BRANCH  33  34
ATOM     34  C   UNL     1       8.016   3.390  11.052  1.00  0.00     0.146 C 
BRANCH  34  35
ATOM     35  N   UNL     1       7.385   2.147  10.629  1.00  0.00    -0.254 NA
ATOM     36  C   UNL     1       7.582   1.090  11.326  1.00  0.00     0.185 C 
ATOM     37  N   UNL     1       7.002  -0.059  10.949  1.00  0.00    -0.370 N 
ATOM     38  N   UNL     1       8.318   0.939  12.442  1.00  0.00    -0.370 N 
ATOM     39  H   UNL     1       6.421  -0.024  10.121  1.00  0.00     0.159 HD
ATOM     40  H   UNL     1       6.964  -0.880  11.529  1.00  0.00     0.159 HD
ATOM     41  H   UNL     1       8.508   0.025  12.820  1.00  0.00     0.159 HD
ATOM     42  H   UNL     1       8.825   1.718  12.831  1.00  0.00     0.159 HD
ENDBRANCH  34  35
ENDBRANCH  33  34
ENDBRANCH  32  33
ENDBRANCH   6  32
ENDBRANCH   4   6
ENDBRANCH   1   2
BRANCH   1  43
ATOM     43  C   UNL     1       6.142   0.762   7.446  1.00  0.00     0.102 C 
ATOM     44  C   UNL     1       7.639   0.421   7.348  1.00  0.00     0.020 C 
BRANCH  43  45
ATOM     45  C   UNL     1       5.231  -0.224   6.709  1.00  0.00     0.225 C 
ATOM     46  O   UNL     1       4.576   0.081   5.716  1.00  0.00    -0.275 OA
ATOM     47  N   UNL     1       5.113  -1.467   7.287  1.00  0.00    -0.342 N 
ATOM     48  H   UNL     1       5.765  -1.749   8.005  1.00  0.00     0.164 HD
BRANCH  47  49
ATOM     49  C   UNL     1       4.303  -2.524   6.673  1.00  0.00     0.192 C 
BRANCH  49  50
ATOM     50  C   UNL     1       3.667  -3.386   7.767  1.00  0.00     0.047 C 
BRANCH  50  51
ATOM     51  C   UNL     1       2.136  -3.425   7.660  1.00  0.00     0.103 C 
BRANCH  51  52
ATOM     52  C   UNL     1       1.648  -4.626   6.852  1.00  0.00     0.226 C 
ATOM     53  O   UNL     1       2.029  -4.774   5.689  1.00  0.00    -0.275 OA
BRANCH  52  54
ATOM     54  N   UNL     1       0.833  -5.550   7.532  1.00  0.00    -0.311 N 
ATOM     55  C   UNL     1      -0.474  -5.152   8.070  1.00  0.00     0.153 C 
BRANCH  54  56
ATOM     56  C   UNL     1       1.234  -6.883   7.717  1.00  0.00     0.102 C 
ATOM     57  C   UNL     1       1.737  -7.383   8.857  1.00  0.00     0.043 C 
BRANCH  56  58
ATOM     58  C   UNL     1       1.078  -7.900   6.610  1.00  0.00     0.268 C 
ATOM     59  O   UNL     1       0.043  -8.524   6.416  1.00  0.00    -0.268 OA
ATOM     60  N   UNL     1       2.190  -8.002   5.809  1.00  0.00    -0.339 N 
ATOM     61  H   UNL     1       3.011  -7.458   6.044  1.00  0.00     0.164 HD
BRANCH  60  62
ATOM     62  C   UNL     1       2.231  -8.882   4.642  1.00  0.00     0.168 CG0
ATOM     63  C   UNL     1       3.584  -8.804   3.945  1.00  0.00     0.041 C 
ATOM     64  G   UNL     1       1.094  -8.504   3.670  1.00  0.00     0.000 G0
ENDBRANCH  60  62
ENDBRANCH  56  58
ENDBRANCH  54  56
ENDBRANCH  52  54
ENDBRANCH  51  52
ENDBRANCH  50  51
ENDBRANCH  49  50
BRANCH  49  65
ATOM     65  C   UNL     1       5.144  -3.416   5.747  1.00  0.00     0.326 C 
ATOM     66  O   UNL     1       6.294  -3.774   5.957  1.00  0.00    -0.250 OA
BRANCH  65  67
ATOM     67  O   UNL     1       4.535  -3.762   4.591  1.00  0.00    -0.480 OA
ATOM     68  H   UNL     1       5.277  -3.849   3.955  1.00  0.00     0.296 HD
ENDBRANCH  65  67
ENDBRANCH  49  65
ENDBRANCH  47  49
ENDBRANCH  43  45
ENDBRANCH   1  43
BRANCH   1  69
ATOM     69  C   UNL     1       6.753   2.963   6.109  1.00  0.00    -0.001 C 
ATOM     70  C   UNL     1       6.774   4.279   5.836  1.00  0.00     0.001 C 
BRANCH  70  71
ATOM     71  C   UNL     1       7.699   4.979   4.943  1.00  0.00    -0.055 C 
ATOM     72  C   UNL     1       7.192   5.533   3.822  1.00  0.00    -0.018 C 
ATOM     73  C   UNL     1       9.151   5.037   5.342  1.00  0.00     0.044 C 
BRANCH  72  74
ATOM     74  C   UNL     1       7.903   6.312   2.725  1.00  0.00     0.038 C 
ATOM     75  C   UNL     1       8.291   7.673   3.316  1.00  0.00     0.015 C 
BRANCH  74  76
ATOM     76  C   UNL     1       6.974   6.383   1.478  1.00  0.00     0.128 C 
BRANCH  76  77
ATOM     77  O   UNL     1       7.728   6.802   0.327  1.00  0.00    -0.381 OA
ATOM     78  C   UNL     1       8.291   5.726  -0.410  1.00  0.00     0.195 C 
ENDBRANCH  76  77
BRANCH  76  79
ATOM     79  C   UNL     1       6.162   5.088   1.223  1.00  0.00     0.068 C 
BRANCH  79  80
ATOM     80  C   UNL     1       4.723   5.229   0.789  1.00  0.00    -0.045 A 
ATOM     81  C   UNL     1       3.710   4.475   1.394  1.00  0.00     0.004 A 
ATOM     82  C   UNL     1       4.382   6.104  -0.253  1.00  0.00     0.004 A 
ATOM     83  C   UNL     1       2.383   4.601   0.978  1.00  0.00     0.000 A 
ATOM     84  C   UNL     1       3.054   6.229  -0.670  1.00  0.00     0.000 A 
ATOM     85  C   UNL     1       2.055   5.479  -0.053  1.00  0.00     0.000 A 
ENDBRANCH  79  80
ENDBRANCH  76  79
ENDBRANCH  74  76
ENDBRANCH  72  74
ENDBRANCH  70  71
ENDBRANCH   1  69
TORSDOF 17
ENDMDL
MODEL 44
REMARK VINA RESULT:    -5.987      5.057      8.735
REMARK INTER + INTRA:         -23.802
REMARK INTER:                 -17.418
REMARK INTRA:                  -6.384
REMARK UNBOUND:                -5.916
REMARK SMILES C=C1C(=O)N[C@H](C)C(=O)N[C@@H](CC(C)C)C(=O)N[C@@H](C(=O)O)[C@H](C)C(=O)N[C@@H](CCCN=C(N)N)C(=O)N[C@@H](/C=C/C(C)=C/[C@H](C)[C@H](Cc2ccccc2)OC)[C@H](C)C(=O)N[C@@H](C(=O)O)CCC(=O)N1C
REMARK SMILES IDX 39 1 38 2 37 3 36 4 28 6 27 7 25 8 26 9 23 11 24 12 19 13
REMARK SMILES IDX 18 14 16 15 17 16 11 18 10 19 8 20 9 21 12 24 13 25 14 26
REMARK SMILES IDX 15 27 20 28 21 29 22 30 29 32 30 33 31 34 32 35 33 36 34 37
REMARK SMILES IDX 35 38 57 43 58 44 59 45 60 46 61 47 62 49 66 50 67 51 68 52
REMARK SMILES IDX 69 53 70 54 71 55 2 56 1 57 3 58 4 59 5 60 6 62 7 63 63 65
REMARK SMILES IDX 64 66 65 67 40 69 41 70 42 71 44 72 43 73 45 74 46 75 47 76
REMARK SMILES IDX 55 77 56 78 48 79 49 80 50 81 54 82 51 83 53 84 52 85
REMARK H PARENT 38 5 27 10 18 17 10 22 22 31 34 39 34 40 35 41 35 42 61 48
REMARK H PARENT 5 61 65 68
REMARK Flexibility Score:  369.900
ROOT
ATOM      1  C   UNL     1       6.111   1.757  11.505  1.00  0.00     0.117 C 
ENDROOT
BRANCH   1   2
ATOM      2  N   UNL     1       5.522   0.764  10.607  1.00  0.00    -0.347 N 
ATOM      3  O   UNL     1       7.368  -0.580  10.371  1.00  0.00    -0.273 OA
ATOM      4  C   UNL     1       6.172  -0.379  10.183  1.00  0.00     0.243 C 
ATOM      5  H   UNL     1       4.565   0.876  10.305  1.00  0.00     0.164 HD
BRANCH   4   6
ATOM      6  C   UNL     1       5.295  -1.308   9.307  1.00  0.00     0.171 C 
BRANCH   6   7
ATOM      7  N   UNL     1       6.116  -2.365   8.695  1.00  0.00    -0.344 N 
ATOM      8  C   UNL     1       6.141  -2.532   7.327  1.00  0.00     0.226 C 
ATOM      9  O   UNL     1       5.478  -1.839   6.565  1.00  0.00    -0.275 OA
ATOM     10  H   UNL     1       6.625  -3.001   9.296  1.00  0.00     0.164 HD
BRANCH   8  11
ATOM     11  C   UNL     1       7.077  -3.628   6.848  1.00  0.00     0.109 C 
ATOM     12  C   UNL     1       8.183  -3.862   7.878  1.00  0.00     0.021 C 
BRANCH  11  13
ATOM     13  C   UNL     1       6.263  -4.883   6.475  1.00  0.00     0.204 C 
BRANCH  13  14
ATOM     14  N   UNL     1       4.834  -4.590   6.329  1.00  0.00    -0.340 N 
ATOM     15  C   UNL     1       3.852  -5.317   6.965  1.00  0.00     0.243 C 
ATOM     16  O   UNL     1       4.109  -6.228   7.751  1.00  0.00    -0.273 OA
ATOM     17  H   UNL     1       4.548  -3.952   5.581  1.00  0.00     0.164 HD
BRANCH  15  18
ATOM     18  C   UNL     1       2.419  -4.962   6.500  1.00  0.00     0.171 C 
BRANCH  18  19
ATOM     19  N   UNL     1       1.962  -6.071   5.666  1.00  0.00    -0.343 N 
ATOM     20  C   UNL     1       1.623  -5.894   4.338  1.00  0.00     0.242 CG0
ATOM     21  O   UNL     1       1.561  -4.775   3.834  1.00  0.00    -0.273 OA
ATOM     22  H   UNL     1       1.885  -6.998   6.070  1.00  0.00     0.164 HD
ATOM     23  G   UNL     1       1.240  -7.193   3.600  1.00  0.00     0.000 G0
ENDBRANCH  18  19
BRANCH  18  24
ATOM     24  C   UNL     1       1.495  -4.748   7.706  1.00  0.00     0.038 C 
BRANCH  24  25
ATOM     25  C   UNL     1       0.681  -3.437   7.670  1.00  0.00    -0.015 C 
ATOM     26  C   UNL     1       0.329  -2.928   9.068  1.00  0.00     0.007 C 
ATOM     27  C   UNL     1      -0.601  -3.650   6.861  1.00  0.00     0.007 C 
ENDBRANCH  24  25
ENDBRANCH  18  24
ENDBRANCH  15  18
ENDBRANCH  13  14
BRANCH  13  28
ATOM     28  C   UNL     1       6.728  -5.537   5.170  1.00  0.00     0.327 C 
ATOM     29  O   UNL     1       6.136  -5.519   4.102  1.00  0.00    -0.250 OA
BRANCH  28  30
ATOM     30  O   UNL     1       7.848  -6.273   5.317  1.00  0.00    -0.480 OA
ATOM     31  H   UNL     1       7.669  -6.830   6.103  1.00  0.00     0.296 HD
ENDBRANCH  28  30
ENDBRANCH  13  28
ENDBRANCH  11  13
ENDBRANCH   8  11
ENDBRANCH   6   7
BRANCH   6  32
ATOM     32  C   UNL     1       4.181  -1.911  10.170  1.00  0.00     0.037 C 
BRANCH  32  33
ATOM     33  C   UNL     1       4.182  -3.445  10.128  1.00  0.00     0.026 C 
BRANCH  33  34
ATOM     34  C   UNL     1       4.862  -4.063  11.350  1.00  0.00     0.146 C 
BRANCH  34  35
ATOM     35  N   UNL     1       6.290  -3.785  11.284  1.00  0.00    -0.254 NA
ATOM     36  C   UNL     1       6.891  -3.400  12.348  1.00  0.00     0.185 C 
ATOM     37  N   UNL     1       8.207  -3.145  12.300  1.00  0.00    -0.370 N 
ATOM     38  N   UNL     1       6.385  -3.200  13.578  1.00  0.00    -0.370 N 
ATOM     39  H   UNL     1       8.664  -3.283  11.408  1.00  0.00     0.159 HD
ATOM     40  H   UNL     1       8.778  -3.011  13.117  1.00  0.00     0.159 HD
ATOM     41  H   UNL     1       6.932  -2.763  14.302  1.00  0.00     0.159 HD
ATOM     42  H   UNL     1       5.403  -3.338  13.758  1.00  0.00     0.159 HD
ENDBRANCH  34  35
ENDBRANCH  33  34
ENDBRANCH  32  33
ENDBRANCH   6  32
ENDBRANCH   4   6
ENDBRANCH   1   2
BRANCH   1  43
ATOM     43  C   UNL     1       5.415   1.645  12.892  1.00  0.00     0.102 C 
ATOM     44  C   UNL     1       5.645   0.291  13.585  1.00  0.00     0.020 C 
BRANCH  43  45
ATOM     45  C   UNL     1       3.942   2.055  12.803  1.00  0.00     0.225 C 
ATOM     46  O   UNL     1       3.261   1.896  11.794  1.00  0.00    -0.275 OA
ATOM     47  N   UNL     1       3.442   2.709  13.906  1.00  0.00    -0.342 N 
ATOM     48  H   UNL     1       3.960   2.697  14.773  1.00  0.00     0.164 HD
BRANCH  47  49
ATOM     49  C   UNL     1       2.039   3.129  13.976  1.00  0.00     0.192 C 
BRANCH  49  50
ATOM     50  C   UNL     1       1.948   4.648  13.816  1.00  0.00     0.047 C 
BRANCH  50  51
ATOM     51  C   UNL     1       3.250   5.355  14.216  1.00  0.00     0.103 C 
BRANCH  51  52
ATOM     52  C   UNL     1       3.034   6.358  15.347  1.00  0.00     0.226 C 
ATOM     53  O   UNL     1       2.886   7.553  15.083  1.00  0.00    -0.275 OA
BRANCH  52  54
ATOM     54  N   UNL     1       2.941   5.827  16.647  1.00  0.00    -0.311 N 
ATOM     55  C   UNL     1       1.650   5.752  17.343  1.00  0.00     0.153 C 
BRANCH  54  56
ATOM     56  C   UNL     1       4.074   5.344  17.323  1.00  0.00     0.102 C 
ATOM     57  C   UNL     1       4.398   4.047  17.452  1.00  0.00     0.043 C 
BRANCH  56  58
ATOM     58  C   UNL     1       5.072   6.296  17.940  1.00  0.00     0.268 C 
ATOM     59  O   UNL     1       6.269   6.053  18.018  1.00  0.00    -0.268 OA
ATOM     60  N   UNL     1       4.509   7.484  18.341  1.00  0.00    -0.339 N 
ATOM     61  H   UNL     1       3.507   7.603  18.252  1.00  0.00     0.164 HD
BRANCH  60  62
ATOM     62  C   UNL     1       5.306   8.571  18.908  1.00  0.00     0.168 CG0
ATOM     63  C   UNL     1       5.662   9.600  17.843  1.00  0.00     0.041 C 
ATOM     64  G   UNL     1       6.581   7.994  19.557  1.00  0.00     0.000 G0
ENDBRANCH  60  62
ENDBRANCH  56  58
ENDBRANCH  54  56
ENDBRANCH  52  54
ENDBRANCH  51  52
ENDBRANCH  50  51
ENDBRANCH  49  50
BRANCH  49  65
ATOM     65  C   UNL     1       1.391   2.718  15.308  1.00  0.00     0.326 C 
ATOM     66  O   UNL     1       0.303   3.100  15.716  1.00  0.00    -0.250 OA
BRANCH  65  67
ATOM     67  O   UNL     1       2.151   1.910  16.079  1.00  0.00    -0.480 OA
ATOM     68  H   UNL     1       1.891   2.152  16.994  1.00  0.00     0.296 HD
ENDBRANCH  65  67
ENDBRANCH  49  65
ENDBRANCH  47  49
ENDBRANCH  43  45
ENDBRANCH   1  43
BRANCH   1  69
ATOM     69  C   UNL     1       6.062   3.081  10.764  1.00  0.00    -0.001 C 
ATOM     70  C   UNL     1       6.791   3.447   9.695  1.00  0.00     0.001 C 
BRANCH  70  71
ATOM     71  C   UNL     1       6.719   4.720   8.975  1.00  0.00    -0.055 C 
ATOM     72  C   UNL     1       5.862   4.805   7.936  1.00  0.00    -0.018 C 
ATOM     73  C   UNL     1       7.600   5.846   9.450  1.00  0.00     0.044 C 
BRANCH  72  74
ATOM     74  C   UNL     1       5.576   5.986   7.018  1.00  0.00     0.038 C 
ATOM     75  C   UNL     1       4.057   6.050   6.823  1.00  0.00     0.015 C 
BRANCH  74  76
ATOM     76  C   UNL     1       6.396   5.810   5.706  1.00  0.00     0.128 C 
BRANCH  76  77
ATOM     77  O   UNL     1       7.792   6.033   5.965  1.00  0.00    -0.381 OA
ATOM     78  C   UNL     1       8.632   4.974   5.524  1.00  0.00     0.195 C 
ENDBRANCH  76  77
BRANCH  76  79
ATOM     79  C   UNL     1       6.129   4.471   4.972  1.00  0.00     0.068 C 
BRANCH  79  80
ATOM     80  C   UNL     1       5.421   4.525   3.640  1.00  0.00    -0.045 A 
ATOM     81  C   UNL     1       4.065   4.187   3.529  1.00  0.00     0.004 A 
ATOM     82  C   UNL     1       6.122   4.888   2.480  1.00  0.00     0.004 A 
ATOM     83  C   UNL     1       3.421   4.226   2.291  1.00  0.00     0.000 A 
ATOM     84  C   UNL     1       5.476   4.926   1.242  1.00  0.00     0.000 A 
ATOM     85  C   UNL     1       4.126   4.596   1.148  1.00  0.00     0.000 A 
ENDBRANCH  79  80
ENDBRANCH  76  79
ENDBRANCH  74  76
ENDBRANCH  72  74
ENDBRANCH  70  71
ENDBRANCH   1  69
TORSDOF 17
ENDMDL
MODEL 45
REMARK VINA RESULT:    -5.954      6.634     17.376
REMARK INTER + INTRA:         -23.705
REMARK INTER:                 -16.904
REMARK INTRA:                  -6.801
REMARK UNBOUND:                -5.916
REMARK SMILES C=C1C(=O)N[C@H](C)C(=O)N[C@@H](CC(C)C)C(=O)N[C@@H](C(=O)O)[C@H](C)C(=O)N[C@@H](CCCN=C(N)N)C(=O)N[C@@H](/C=C/C(C)=C/[C@H](C)[C@H](Cc2ccccc2)OC)[C@H](C)C(=O)N[C@@H](C(=O)O)CCC(=O)N1C
REMARK SMILES IDX 39 1 38 2 37 3 36 4 28 6 27 7 25 8 26 9 23 11 24 12 19 13
REMARK SMILES IDX 18 14 16 15 17 16 11 18 10 19 8 20 9 21 12 24 13 25 14 26
REMARK SMILES IDX 15 27 20 28 21 29 22 30 29 32 30 33 31 34 32 35 33 36 34 37
REMARK SMILES IDX 35 38 57 43 58 44 59 45 60 46 61 47 62 49 66 50 67 51 68 52
REMARK SMILES IDX 69 53 70 54 71 55 2 56 1 57 3 58 4 59 5 60 6 62 7 63 63 65
REMARK SMILES IDX 64 66 65 67 40 69 41 70 42 71 44 72 43 73 45 74 46 75 47 76
REMARK SMILES IDX 55 77 56 78 48 79 49 80 50 81 54 82 51 83 53 84 52 85
REMARK H PARENT 38 5 27 10 18 17 10 22 22 31 34 39 34 40 35 41 35 42 61 48
REMARK H PARENT 5 61 65 68
REMARK Flexibility Score:  369.900
ROOT
ATOM      1  C   UNL     1      -0.356  -6.627   8.045  1.00  0.00     0.117 C 
ENDROOT
BRANCH   1   2
ATOM      2  N   UNL     1       1.070  -6.341   7.881  1.00  0.00    -0.347 N 
ATOM      3  O   UNL     1       1.460  -7.720   6.087  1.00  0.00    -0.273 OA
ATOM      4  C   UNL     1       1.845  -6.843   6.854  1.00  0.00     0.243 C 
ATOM      5  H   UNL     1       1.522  -5.702   8.516  1.00  0.00     0.164 HD
BRANCH   4   6
ATOM      6  C   UNL     1       3.303  -6.318   6.860  1.00  0.00     0.171 C 
BRANCH   6   7
ATOM      7  N   UNL     1       3.393  -5.058   7.615  1.00  0.00    -0.344 N 
ATOM      8  C   UNL     1       3.850  -3.907   7.011  1.00  0.00     0.226 C 
ATOM      9  O   UNL     1       4.220  -3.877   5.843  1.00  0.00    -0.275 OA
ATOM     10  H   UNL     1       3.160  -5.059   8.601  1.00  0.00     0.164 HD
BRANCH   8  11
ATOM     11  C   UNL     1       3.831  -2.680   7.906  1.00  0.00     0.109 C 
ATOM     12  C   UNL     1       3.268  -3.041   9.281  1.00  0.00     0.021 C 
BRANCH  11  13
ATOM     13  C   UNL     1       5.228  -2.029   7.928  1.00  0.00     0.204 C 
BRANCH  13  14
ATOM     14  N   UNL     1       5.155  -0.566   7.964  1.00  0.00    -0.340 N 
ATOM     15  C   UNL     1       5.304   0.219   6.840  1.00  0.00     0.243 C 
ATOM     16  O   UNL     1       5.450  -0.259   5.716  1.00  0.00    -0.273 OA
ATOM     17  H   UNL     1       5.188  -0.105   8.877  1.00  0.00     0.164 HD
BRANCH  15  18
ATOM     18  C   UNL     1       5.397   1.733   7.151  1.00  0.00     0.171 C 
BRANCH  18  19
ATOM     19  N   UNL     1       4.541   2.412   6.181  1.00  0.00    -0.343 N 
ATOM     20  C   UNL     1       5.060   3.242   5.206  1.00  0.00     0.242 CG0
ATOM     21  O   UNL     1       6.249   3.553   5.191  1.00  0.00    -0.273 OA
ATOM     22  H   UNL     1       3.537   2.279   6.224  1.00  0.00     0.164 HD
ATOM     23  G   UNL     1       4.011   3.807   4.225  1.00  0.00     0.000 G0
ENDBRANCH  18  19
BRANCH  18  24
ATOM     24  C   UNL     1       4.952   2.019   8.590  1.00  0.00     0.038 C 
BRANCH  24  25
ATOM     25  C   UNL     1       5.528   3.315   9.197  1.00  0.00    -0.015 C 
ATOM     26  C   UNL     1       4.661   4.538   8.897  1.00  0.00     0.007 C 
ATOM     27  C   UNL     1       6.946   3.546   8.668  1.00  0.00     0.007 C 
ENDBRANCH  24  25
ENDBRANCH  18  24
ENDBRANCH  15  18
ENDBRANCH  13  14
BRANCH  13  28
ATOM     28  C   UNL     1       6.080  -2.470   9.122  1.00  0.00     0.327 C 
ATOM     29  O   UNL     1       6.544  -3.585   9.308  1.00  0.00    -0.250 OA
BRANCH  28  30
ATOM     30  O   UNL     1       6.199  -1.516  10.068  1.00  0.00    -0.480 OA
ATOM     31  H   UNL     1       7.146  -1.538  10.316  1.00  0.00     0.296 HD
ENDBRANCH  28  30
ENDBRANCH  13  28
ENDBRANCH  11  13
ENDBRANCH   8  11
ENDBRANCH   6   7
BRANCH   6  32
ATOM     32  C   UNL     1       4.221  -7.385   7.466  1.00  0.00     0.037 C 
BRANCH  32  33
ATOM     33  C   UNL     1       5.153  -8.010   6.418  1.00  0.00     0.026 C 
BRANCH  33  34
ATOM     34  C   UNL     1       5.950  -6.960   5.644  1.00  0.00     0.146 C 
BRANCH  34  35
ATOM     35  N   UNL     1       6.065  -7.387   4.256  1.00  0.00    -0.254 NA
ATOM     36  C   UNL     1       5.562  -6.644   3.342  1.00  0.00     0.185 C 
ATOM     37  N   UNL     1       5.666  -7.024   2.059  1.00  0.00    -0.370 N 
ATOM     38  N   UNL     1       4.910  -5.474   3.467  1.00  0.00    -0.370 N 
ATOM     39  H   UNL     1       6.155  -7.892   1.881  1.00  0.00     0.159 HD
ATOM     40  H   UNL     1       5.457  -6.422   1.281  1.00  0.00     0.159 HD
ATOM     41  H   UNL     1       4.439  -5.054   2.683  1.00  0.00     0.159 HD
ATOM     42  H   UNL     1       4.744  -5.075   4.378  1.00  0.00     0.159 HD
ENDBRANCH  34  35
ENDBRANCH  33  34
ENDBRANCH  32  33
ENDBRANCH   6  32
ENDBRANCH   4   6
ENDBRANCH   1   2
BRANCH   1  43
ATOM     43  C   UNL     1      -1.088  -5.302   8.406  1.00  0.00     0.102 C 
ATOM     44  C   UNL     1      -0.613  -4.095   7.580  1.00  0.00     0.020 C 
BRANCH  43  45
ATOM     45  C   UNL     1      -1.077  -5.062   9.919  1.00  0.00     0.225 C 
ATOM     46  O   UNL     1      -0.112  -4.595  10.517  1.00  0.00    -0.275 OA
ATOM     47  N   UNL     1      -2.195  -5.494  10.595  1.00  0.00    -0.342 N 
ATOM     48  H   UNL     1      -3.030  -5.733  10.080  1.00  0.00     0.164 HD
BRANCH  47  49
ATOM     49  C   UNL     1      -2.339  -5.299  12.041  1.00  0.00     0.192 C 
BRANCH  49  50
ATOM     50  C   UNL     1      -1.599  -6.412  12.787  1.00  0.00     0.047 C 
BRANCH  50  51
ATOM     51  C   UNL     1      -2.248  -7.786  12.574  1.00  0.00     0.103 C 
BRANCH  51  52
ATOM     52  C   UNL     1      -1.805  -8.800  13.627  1.00  0.00     0.226 C 
ATOM     53  O   UNL     1      -0.735  -9.396  13.487  1.00  0.00    -0.275 OA
BRANCH  52  54
ATOM     54  N   UNL     1      -2.634  -8.934  14.756  1.00  0.00    -0.311 N 
ATOM     55  C   UNL     1      -4.097  -8.896  14.629  1.00  0.00     0.153 C 
BRANCH  54  56
ATOM     56  C   UNL     1      -2.097  -9.115  16.042  1.00  0.00     0.102 C 
ATOM     57  C   UNL     1      -1.526  -8.148  16.778  1.00  0.00     0.043 C 
BRANCH  56  58
ATOM     58  C   UNL     1      -2.170 -10.457  16.730  1.00  0.00     0.268 C 
ATOM     59  O   UNL     1      -1.644 -11.468  16.285  1.00  0.00    -0.268 OA
ATOM     60  N   UNL     1      -2.828 -10.410  17.936  1.00  0.00    -0.339 N 
ATOM     61  H   UNL     1      -3.245  -9.535  18.230  1.00  0.00     0.164 HD
BRANCH  60  62
ATOM     62  C   UNL     1      -2.960 -11.585  18.798  1.00  0.00     0.168 CG0
ATOM     63  C   UNL     1      -1.929 -11.558  19.919  1.00  0.00     0.041 C 
ATOM     64  G   UNL     1      -2.813 -12.866  17.951  1.00  0.00     0.000 G0
ENDBRANCH  60  62
ENDBRANCH  56  58
ENDBRANCH  54  56
ENDBRANCH  52  54
ENDBRANCH  51  52
ENDBRANCH  50  51
ENDBRANCH  49  50
BRANCH  49  65
ATOM     65  C   UNL     1      -3.815  -5.293  12.468  1.00  0.00     0.326 C 
ATOM     66  O   UNL     1      -4.755  -5.665  11.780  1.00  0.00    -0.250 OA
BRANCH  65  67
ATOM     67  O   UNL     1      -4.045  -4.774  13.694  1.00  0.00    -0.480 OA
ATOM     68  H   UNL     1      -3.257  -5.046  14.212  1.00  0.00     0.296 HD
ENDBRANCH  65  67
ENDBRANCH  49  65
ENDBRANCH  47  49
ENDBRANCH  43  45
ENDBRANCH   1  43
BRANCH   1  69
ATOM     69  C   UNL     1      -0.446  -7.799   9.004  1.00  0.00    -0.001 C 
ATOM     70  C   UNL     1      -1.173  -8.921   8.858  1.00  0.00     0.001 C 
BRANCH  70  71
ATOM     71  C   UNL     1      -1.235 -10.056   9.781  1.00  0.00    -0.055 C 
ATOM     72  C   UNL     1      -2.423 -10.678   9.933  1.00  0.00    -0.018 C 
ATOM     73  C   UNL     1       0.034 -10.455  10.490  1.00  0.00     0.044 C 
BRANCH  72  74
ATOM     74  C   UNL     1      -2.782 -11.870  10.808  1.00  0.00     0.038 C 
ATOM     75  C   UNL     1      -2.458 -13.135  10.005  1.00  0.00     0.015 C 
BRANCH  74  76
ATOM     76  C   UNL     1      -4.269 -11.738  11.249  1.00  0.00     0.128 C 
BRANCH  76  77
ATOM     77  O   UNL     1      -4.508 -12.539  12.419  1.00  0.00    -0.381 OA
ATOM     78  C   UNL     1      -3.546 -12.346  13.448  1.00  0.00     0.195 C 
ENDBRANCH  76  77
BRANCH  76  79
ATOM     79  C   UNL     1      -4.749 -10.274  11.416  1.00  0.00     0.068 C 
BRANCH  79  80
ATOM     80  C   UNL     1      -5.686  -9.714  10.374  1.00  0.00    -0.045 A 
ATOM     81  C   UNL     1      -5.573  -8.386   9.940  1.00  0.00     0.004 A 
ATOM     82  C   UNL     1      -6.710 -10.512   9.841  1.00  0.00     0.004 A 
ATOM     83  C   UNL     1      -6.453  -7.871   8.986  1.00  0.00     0.000 A 
ATOM     84  C   UNL     1      -7.590  -9.995   8.887  1.00  0.00     0.000 A 
ATOM     85  C   UNL     1      -7.460  -8.676   8.459  1.00  0.00     0.000 A 
ENDBRANCH  79  80
ENDBRANCH  76  79
ENDBRANCH  74  76
ENDBRANCH  72  74
ENDBRANCH  70  71
ENDBRANCH   1  69
TORSDOF 17
ENDMDL
MODEL 46
REMARK VINA RESULT:    -5.948      4.584     10.183
REMARK INTER + INTRA:         -23.688
REMARK INTER:                 -16.830
REMARK INTRA:                  -6.858
REMARK UNBOUND:                -5.916
REMARK SMILES C=C1C(=O)N[C@H](C)C(=O)N[C@@H](CC(C)C)C(=O)N[C@@H](C(=O)O)[C@H](C)C(=O)N[C@@H](CCCN=C(N)N)C(=O)N[C@@H](/C=C/C(C)=C/[C@H](C)[C@H](Cc2ccccc2)OC)[C@H](C)C(=O)N[C@@H](C(=O)O)CCC(=O)N1C
REMARK SMILES IDX 39 1 38 2 37 3 36 4 28 6 27 7 25 8 26 9 23 11 24 12 19 13
REMARK SMILES IDX 18 14 16 15 17 16 11 18 10 19 8 20 9 21 12 24 13 25 14 26
REMARK SMILES IDX 15 27 20 28 21 29 22 30 29 32 30 33 31 34 32 35 33 36 34 37
REMARK SMILES IDX 35 38 57 43 58 44 59 45 60 46 61 47 62 49 66 50 67 51 68 52
REMARK SMILES IDX 69 53 70 54 71 55 2 56 1 57 3 58 4 59 5 60 6 62 7 63 63 65
REMARK SMILES IDX 64 66 65 67 40 69 41 70 42 71 44 72 43 73 45 74 46 75 47 76
REMARK SMILES IDX 55 77 56 78 48 79 49 80 50 81 54 82 51 83 53 84 52 85
REMARK H PARENT 38 5 27 10 18 17 10 22 22 31 34 39 34 40 35 41 35 42 61 48
REMARK H PARENT 5 61 65 68
REMARK Flexibility Score:  369.900
ROOT
ATOM      1  C   UNL     1       4.203  -2.804   7.568  1.00  0.00     0.117 C 
ENDROOT
BRANCH   1   2
ATOM      2  N   UNL     1       2.768  -3.085   7.593  1.00  0.00    -0.347 N 
ATOM      3  O   UNL     1       2.546  -3.374   9.860  1.00  0.00    -0.273 OA
ATOM      4  C   UNL     1       2.034  -3.258   8.751  1.00  0.00     0.243 C 
ATOM      5  H   UNL     1       2.253  -3.109   6.726  1.00  0.00     0.164 HD
BRANCH   4   6
ATOM      6  C   UNL     1       0.517  -3.456   8.504  1.00  0.00     0.171 C 
BRANCH   6   7
ATOM      7  N   UNL     1       0.146  -4.868   8.690  1.00  0.00    -0.344 N 
ATOM      8  C   UNL     1       0.217  -5.757   7.639  1.00  0.00     0.226 C 
ATOM      9  O   UNL     1       0.564  -5.422   6.513  1.00  0.00    -0.275 OA
ATOM     10  H   UNL     1      -0.210  -5.168   9.589  1.00  0.00     0.164 HD
BRANCH   8  11
ATOM     11  C   UNL     1      -0.145  -7.186   8.004  1.00  0.00     0.109 C 
ATOM     12  C   UNL     1       1.057  -8.105   7.788  1.00  0.00     0.021 C 
BRANCH  11  13
ATOM     13  C   UNL     1      -0.746  -7.226   9.423  1.00  0.00     0.204 C 
BRANCH  13  14
ATOM     14  N   UNL     1      -1.961  -8.044   9.485  1.00  0.00    -0.340 N 
ATOM     15  C   UNL     1      -3.105  -7.637  10.137  1.00  0.00     0.243 C 
ATOM     16  O   UNL     1      -3.207  -6.530  10.663  1.00  0.00    -0.273 OA
ATOM     17  H   UNL     1      -1.894  -9.026   9.204  1.00  0.00     0.164 HD
BRANCH  15  18
ATOM     18  C   UNL     1      -4.181  -8.745  10.250  1.00  0.00     0.171 C 
BRANCH  18  19
ATOM     19  N   UNL     1      -3.688  -9.710  11.231  1.00  0.00    -0.343 N 
ATOM     20  C   UNL     1      -3.990 -11.055  11.145  1.00  0.00     0.242 CG0
ATOM     21  O   UNL     1      -4.794 -11.483  10.320  1.00  0.00    -0.273 OA
ATOM     22  H   UNL     1      -3.113  -9.386  12.000  1.00  0.00     0.164 HD
ATOM     23  G   UNL     1      -3.316 -11.929  12.223  1.00  0.00     0.000 G0
ENDBRANCH  18  19
BRANCH  18  24
ATOM     24  C   UNL     1      -5.529  -8.150  10.675  1.00  0.00     0.038 C 
BRANCH  24  25
ATOM     25  C   UNL     1      -6.668  -8.339   9.651  1.00  0.00    -0.015 C 
ATOM     26  C   UNL     1      -6.156  -8.779   8.280  1.00  0.00     0.007 C 
ATOM     27  C   UNL     1      -7.457  -7.034   9.513  1.00  0.00     0.007 C 
ENDBRANCH  24  25
ENDBRANCH  18  24
ENDBRANCH  15  18
ENDBRANCH  13  14
BRANCH  13  28
ATOM     28  C   UNL     1       0.224  -7.774  10.474  1.00  0.00     0.327 C 
ATOM     29  O   UNL     1       0.266  -8.922  10.891  1.00  0.00    -0.250 OA
BRANCH  28  30
ATOM     30  O   UNL     1       1.004  -6.820  11.022  1.00  0.00    -0.480 OA
ATOM     31  H   UNL     1       1.769  -6.755  10.414  1.00  0.00     0.296 HD
ENDBRANCH  28  30
ENDBRANCH  13  28
ENDBRANCH  11  13
ENDBRANCH   8  11
ENDBRANCH   6   7
BRANCH   6  32
ATOM     32  C   UNL     1      -0.271  -2.553   9.460  1.00  0.00     0.037 C 
BRANCH  32  33
ATOM     33  C   UNL     1      -1.315  -3.336  10.268  1.00  0.00     0.026 C 
BRANCH  33  34
ATOM     34  C   UNL     1      -1.037  -3.300  11.772  1.00  0.00     0.146 C 
BRANCH  34  35
ATOM     35  N   UNL     1      -2.221  -3.770  12.479  1.00  0.00    -0.254 NA
ATOM     36  C   UNL     1      -2.196  -4.936  13.011  1.00  0.00     0.185 C 
ATOM     37  N   UNL     1      -3.279  -5.377  13.669  1.00  0.00    -0.370 N 
ATOM     38  N   UNL     1      -1.201  -5.841  13.017  1.00  0.00    -0.370 N 
ATOM     39  H   UNL     1      -4.069  -4.746  13.718  1.00  0.00     0.159 HD
ATOM     40  H   UNL     1      -3.279  -6.194  14.255  1.00  0.00     0.159 HD
ATOM     41  H   UNL     1      -1.353  -6.779  13.349  1.00  0.00     0.159 HD
ATOM     42  H   UNL     1      -0.331  -5.649  12.545  1.00  0.00     0.159 HD
ENDBRANCH  34  35
ENDBRANCH  33  34
ENDBRANCH  32  33
ENDBRANCH   6  32
ENDBRANCH   4   6
ENDBRANCH   1   2
BRANCH   1  43
ATOM     43  C   UNL     1       4.543  -2.079   6.233  1.00  0.00     0.102 C 
ATOM     44  C   UNL     1       5.689  -2.742   5.451  1.00  0.00     0.020 C 
BRANCH  43  45
ATOM     45  C   UNL     1       4.730  -0.575   6.456  1.00  0.00     0.225 C 
ATOM     46  O   UNL     1       4.626   0.254   5.558  1.00  0.00    -0.275 OA
ATOM     47  N   UNL     1       5.121  -0.209   7.724  1.00  0.00    -0.342 N 
ATOM     48  H   UNL     1       5.055  -0.875   8.480  1.00  0.00     0.164 HD
BRANCH  47  49
ATOM     49  C   UNL     1       5.304   1.198   8.092  1.00  0.00     0.192 C 
BRANCH  49  50
ATOM     50  C   UNL     1       6.765   1.601   7.877  1.00  0.00     0.047 C 
BRANCH  50  51
ATOM     51  C   UNL     1       6.914   2.707   6.823  1.00  0.00     0.103 C 
BRANCH  51  52
ATOM     52  C   UNL     1       6.629   4.092   7.401  1.00  0.00     0.226 C 
ATOM     53  O   UNL     1       7.172   4.438   8.452  1.00  0.00    -0.275 OA
BRANCH  52  54
ATOM     54  N   UNL     1       5.801   4.932   6.635  1.00  0.00    -0.311 N 
ATOM     55  C   UNL     1       6.254   6.266   6.220  1.00  0.00     0.153 C 
BRANCH  54  56
ATOM     56  C   UNL     1       4.517   4.527   6.234  1.00  0.00     0.102 C 
ATOM     57  C   UNL     1       3.417   4.590   7.002  1.00  0.00     0.043 C 
BRANCH  56  58
ATOM     58  C   UNL     1       4.267   4.013   4.836  1.00  0.00     0.268 C 
ATOM     59  O   UNL     1       3.440   3.149   4.578  1.00  0.00    -0.268 OA
ATOM     60  N   UNL     1       5.015   4.659   3.881  1.00  0.00    -0.339 N 
ATOM     61  H   UNL     1       5.686   5.357   4.178  1.00  0.00     0.164 HD
BRANCH  60  62
ATOM     62  C   UNL     1       4.884   4.361   2.455  1.00  0.00     0.168 CG0
ATOM     63  C   UNL     1       6.096   4.860   1.679  1.00  0.00     0.041 C 
ATOM     64  G   UNL     1       3.588   4.996   1.911  1.00  0.00     0.000 G0
ENDBRANCH  60  62
ENDBRANCH  56  58
ENDBRANCH  54  56
ENDBRANCH  52  54
ENDBRANCH  51  52
ENDBRANCH  50  51
ENDBRANCH  49  50
BRANCH  49  65
ATOM     65  C   UNL     1       4.916   1.456   9.557  1.00  0.00     0.326 C 
ATOM     66  O   UNL     1       4.853   2.552  10.093  1.00  0.00    -0.250 OA
BRANCH  65  67
ATOM     67  O   UNL     1       4.689   0.340  10.285  1.00  0.00    -0.480 OA
ATOM     68  H   UNL     1       5.547  -0.136  10.252  1.00  0.00     0.296 HD
ENDBRANCH  65  67
ENDBRANCH  49  65
ENDBRANCH  47  49
ENDBRANCH  43  45
ENDBRANCH   1  43
BRANCH   1  69
ATOM     69  C   UNL     1       4.897  -4.116   7.887  1.00  0.00    -0.001 C 
ATOM     70  C   UNL     1       5.788  -4.351   8.867  1.00  0.00     0.001 C 
BRANCH  70  71
ATOM     71  C   UNL     1       6.435  -5.627   9.178  1.00  0.00    -0.055 C 
ATOM     72  C   UNL     1       7.105  -6.250   8.186  1.00  0.00    -0.018 C 
ATOM     73  C   UNL     1       6.315  -6.151  10.586  1.00  0.00     0.044 C 
BRANCH  72  74
ATOM     74  C   UNL     1       7.867  -7.568   8.217  1.00  0.00     0.038 C 
ATOM     75  C   UNL     1       9.329  -7.253   7.879  1.00  0.00     0.015 C 
BRANCH  74  76
ATOM     76  C   UNL     1       7.174  -8.570   7.248  1.00  0.00     0.128 C 
BRANCH  76  77
ATOM     77  O   UNL     1       7.432  -9.920   7.671  1.00  0.00    -0.381 OA
ATOM     78  C   UNL     1       6.546 -10.875   7.103  1.00  0.00     0.195 C 
ENDBRANCH  76  77
BRANCH  76  79
ATOM     79  C   UNL     1       5.666  -8.290   7.025  1.00  0.00     0.068 C 
BRANCH  79  80
ATOM     80  C   UNL     1       5.279  -7.352   5.908  1.00  0.00    -0.045 A 
ATOM     81  C   UNL     1       3.985  -6.821   5.826  1.00  0.00     0.004 A 
ATOM     82  C   UNL     1       6.209  -7.019   4.911  1.00  0.00     0.004 A 
ATOM     83  C   UNL     1       3.631  -5.965   4.781  1.00  0.00     0.000 A 
ATOM     84  C   UNL     1       5.853  -6.163   3.865  1.00  0.00     0.000 A 
ATOM     85  C   UNL     1       4.565  -5.635   3.802  1.00  0.00     0.000 A 
ENDBRANCH  79  80
ENDBRANCH  76  79
ENDBRANCH  74  76
ENDBRANCH  72  74
ENDBRANCH  70  71
ENDBRANCH   1  69
TORSDOF 17
ENDMDL
MODEL 47
REMARK VINA RESULT:    -5.942      4.759     11.961
REMARK INTER + INTRA:         -23.669
REMARK INTER:                 -17.249
REMARK INTRA:                  -6.420
REMARK UNBOUND:                -5.916
REMARK SMILES C=C1C(=O)N[C@H](C)C(=O)N[C@@H](CC(C)C)C(=O)N[C@@H](C(=O)O)[C@H](C)C(=O)N[C@@H](CCCN=C(N)N)C(=O)N[C@@H](/C=C/C(C)=C/[C@H](C)[C@H](Cc2ccccc2)OC)[C@H](C)C(=O)N[C@@H](C(=O)O)CCC(=O)N1C
REMARK SMILES IDX 39 1 38 2 37 3 36 4 28 6 27 7 25 8 26 9 23 11 24 12 19 13
REMARK SMILES IDX 18 14 16 15 17 16 11 18 10 19 8 20 9 21 12 24 13 25 14 26
REMARK SMILES IDX 15 27 20 28 21 29 22 30 29 32 30 33 31 34 32 35 33 36 34 37
REMARK SMILES IDX 35 38 57 43 58 44 59 45 60 46 61 47 62 49 66 50 67 51 68 52
REMARK SMILES IDX 69 53 70 54 71 55 2 56 1 57 3 58 4 59 5 60 6 62 7 63 63 65
REMARK SMILES IDX 64 66 65 67 40 69 41 70 42 71 44 72 43 73 45 74 46 75 47 76
REMARK SMILES IDX 55 77 56 78 48 79 49 80 50 81 54 82 51 83 53 84 52 85
REMARK H PARENT 38 5 27 10 18 17 10 22 22 31 34 39 34 40 35 41 35 42 61 48
REMARK H PARENT 5 61 65 68
REMARK Flexibility Score:  369.900
ROOT
ATOM      1  C   UNL     1       5.427   1.013   7.581  1.00  0.00     0.117 C 
ENDROOT
BRANCH   1   2
ATOM      2  N   UNL     1       5.020   1.639   8.840  1.00  0.00    -0.347 N 
ATOM      3  O   UNL     1       7.018   2.648   9.348  1.00  0.00    -0.273 OA
ATOM      4  C   UNL     1       5.825   2.485   9.579  1.00  0.00     0.243 C 
ATOM      5  H   UNL     1       4.082   1.497   9.182  1.00  0.00     0.164 HD
BRANCH   4   6
ATOM      6  C   UNL     1       5.123   3.081  10.825  1.00  0.00     0.171 C 
BRANCH   6   7
ATOM      7  N   UNL     1       5.912   4.195  11.376  1.00  0.00    -0.344 N 
ATOM      8  C   UNL     1       6.234   4.233  12.715  1.00  0.00     0.226 C 
ATOM      9  O   UNL     1       5.870   3.372  13.507  1.00  0.00    -0.275 OA
ATOM     10  H   UNL     1       6.174   4.959  10.766  1.00  0.00     0.164 HD
BRANCH   8  11
ATOM     11  C   UNL     1       7.098   5.416  13.117  1.00  0.00     0.109 C 
ATOM     12  C   UNL     1       7.912   5.904  11.919  1.00  0.00     0.021 C 
BRANCH  11  13
ATOM     13  C   UNL     1       6.224   6.495  13.789  1.00  0.00     0.204 C 
BRANCH  13  14
ATOM     14  N   UNL     1       5.552   5.990  14.991  1.00  0.00    -0.340 N 
ATOM     15  C   UNL     1       4.339   6.474  15.429  1.00  0.00     0.243 C 
ATOM     16  O   UNL     1       3.703   7.323  14.806  1.00  0.00    -0.273 OA
ATOM     17  H   UNL     1       6.091   5.400  15.630  1.00  0.00     0.164 HD
BRANCH  15  18
ATOM     18  C   UNL     1       3.927   5.942  16.824  1.00  0.00     0.171 C 
BRANCH  18  19
ATOM     19  N   UNL     1       3.813   7.107  17.699  1.00  0.00    -0.343 N 
ATOM     20  C   UNL     1       4.920   7.836  18.090  1.00  0.00     0.242 CG0
ATOM     21  O   UNL     1       6.061   7.462  17.830  1.00  0.00    -0.273 OA
ATOM     22  H   UNL     1       2.899   7.388  18.036  1.00  0.00     0.164 HD
ATOM     23  G   UNL     1       4.594   9.076  18.948  1.00  0.00     0.000 G0
ENDBRANCH  18  19
BRANCH  18  24
ATOM     24  C   UNL     1       2.605   5.170  16.740  1.00  0.00     0.038 C 
BRANCH  24  25
ATOM     25  C   UNL     1       1.340   6.040  16.894  1.00  0.00    -0.015 C 
ATOM     26  C   UNL     1       0.251   5.351  17.716  1.00  0.00     0.007 C 
ATOM     27  C   UNL     1       0.791   6.399  15.510  1.00  0.00     0.007 C 
ENDBRANCH  24  25
ENDBRANCH  18  24
ENDBRANCH  15  18
ENDBRANCH  13  14
BRANCH  13  28
ATOM     28  C   UNL     1       7.014   7.741  14.200  1.00  0.00     0.327 C 
ATOM     29  O   UNL     1       7.064   8.798  13.590  1.00  0.00    -0.250 OA
BRANCH  28  30
ATOM     30  O   UNL     1       7.785   7.543  15.288  1.00  0.00    -0.480 OA
ATOM     31  H   UNL     1       8.370   8.329  15.315  1.00  0.00     0.296 HD
ENDBRANCH  28  30
ENDBRANCH  13  28
ENDBRANCH  11  13
ENDBRANCH   8  11
ENDBRANCH   6   7
BRANCH   6  32
ATOM     32  C   UNL     1       3.716   3.547  10.436  1.00  0.00     0.037 C 
BRANCH  32  33
ATOM     33  C   UNL     1       2.654   3.090  11.446  1.00  0.00     0.026 C 
BRANCH  33  34
ATOM     34  C   UNL     1       2.528   4.043  12.635  1.00  0.00     0.146 C 
BRANCH  34  35
ATOM     35  N   UNL     1       1.583   3.481  13.589  1.00  0.00    -0.254 NA
ATOM     36  C   UNL     1       2.028   2.725  14.523  1.00  0.00     0.185 C 
ATOM     37  N   UNL     1       1.166   2.206  15.410  1.00  0.00    -0.370 N 
ATOM     38  N   UNL     1       3.294   2.346  14.771  1.00  0.00    -0.370 N 
ATOM     39  H   UNL     1       0.191   2.454  15.296  1.00  0.00     0.159 HD
ATOM     40  H   UNL     1       1.450   1.753  16.262  1.00  0.00     0.159 HD
ATOM     41  H   UNL     1       3.500   1.635  15.453  1.00  0.00     0.159 HD
ATOM     42  H   UNL     1       4.046   2.649  14.173  1.00  0.00     0.159 HD
ENDBRANCH  34  35
ENDBRANCH  33  34
ENDBRANCH  32  33
ENDBRANCH   6  32
ENDBRANCH   4   6
ENDBRANCH   1   2
BRANCH   1  43
ATOM     43  C   UNL     1       6.706   0.165   7.841  1.00  0.00     0.102 C 
ATOM     44  C   UNL     1       7.839   0.445   6.839  1.00  0.00     0.020 C 
BRANCH  43  45
ATOM     45  C   UNL     1       6.360  -1.320   7.989  1.00  0.00     0.225 C 
ATOM     46  O   UNL     1       6.774  -2.185   7.222  1.00  0.00    -0.275 OA
ATOM     47  N   UNL     1       5.469  -1.623   8.993  1.00  0.00    -0.342 N 
ATOM     48  H   UNL     1       5.260  -0.934   9.701  1.00  0.00     0.164 HD
BRANCH  47  49
ATOM     49  C   UNL     1       5.074  -3.006   9.275  1.00  0.00     0.192 C 
BRANCH  49  50
ATOM     50  C   UNL     1       3.580  -3.183   8.992  1.00  0.00     0.047 C 
BRANCH  50  51
ATOM     51  C   UNL     1       3.289  -3.378   7.498  1.00  0.00     0.103 C 
BRANCH  51  52
ATOM     52  C   UNL     1       3.029  -4.843   7.151  1.00  0.00     0.226 C 
ATOM     53  O   UNL     1       1.880  -5.286   7.198  1.00  0.00    -0.275 OA
BRANCH  52  54
ATOM     54  N   UNL     1       4.139  -5.591   6.717  1.00  0.00    -0.311 N 
ATOM     55  C   UNL     1       5.030  -6.250   7.681  1.00  0.00     0.153 C 
BRANCH  54  56
ATOM     56  C   UNL     1       4.433  -5.741   5.352  1.00  0.00     0.102 C 
ATOM     57  C   UNL     1       5.100  -4.844   4.607  1.00  0.00     0.043 C 
BRANCH  56  58
ATOM     58  C   UNL     1       4.041  -6.995   4.607  1.00  0.00     0.268 C 
ATOM     59  O   UNL     1       2.894  -7.419   4.567  1.00  0.00    -0.268 OA
ATOM     60  N   UNL     1       5.089  -7.571   3.929  1.00  0.00    -0.339 N 
ATOM     61  H   UNL     1       6.012  -7.164   4.023  1.00  0.00     0.164 HD
BRANCH  60  62
ATOM     62  C   UNL     1       4.917  -8.758   3.094  1.00  0.00     0.168 CG0
ATOM     63  C   UNL     1       5.256 -10.026   3.868  1.00  0.00     0.041 C 
ATOM     64  G   UNL     1       5.800  -8.636   1.834  1.00  0.00     0.000 G0
ENDBRANCH  60  62
ENDBRANCH  56  58
ENDBRANCH  54  56
ENDBRANCH  52  54
ENDBRANCH  51  52
ENDBRANCH  50  51
ENDBRANCH  49  50
BRANCH  49  65
ATOM     65  C   UNL     1       5.365  -3.393  10.733  1.00  0.00     0.326 C 
ATOM     66  O   UNL     1       5.906  -4.426  11.100  1.00  0.00    -0.250 OA
BRANCH  65  67
ATOM     67  O   UNL     1       4.916  -2.509  11.651  1.00  0.00    -0.480 OA
ATOM     68  H   UNL     1       5.132  -2.936  12.508  1.00  0.00     0.296 HD
ENDBRANCH  65  67
ENDBRANCH  49  65
ENDBRANCH  47  49
ENDBRANCH  43  45
ENDBRANCH   1  43
BRANCH   1  69
ATOM     69  C   UNL     1       5.482   2.127   6.552  1.00  0.00    -0.001 C 
ATOM     70  C   UNL     1       4.528   3.035   6.278  1.00  0.00     0.001 C 
BRANCH  70  71
ATOM     71  C   UNL     1       4.602   4.119   5.297  1.00  0.00    -0.055 C 
ATOM     72  C   UNL     1       5.047   3.817   4.059  1.00  0.00    -0.018 C 
ATOM     73  C   UNL     1       4.168   5.493   5.736  1.00  0.00     0.044 C 
BRANCH  72  74
ATOM     74  C   UNL     1       5.224   4.725   2.851  1.00  0.00     0.038 C 
ATOM     75  C   UNL     1       4.257   4.231   1.768  1.00  0.00     0.015 C 
BRANCH  74  76
ATOM     76  C   UNL     1       6.725   4.721   2.437  1.00  0.00     0.128 C 
BRANCH  76  77
ATOM     77  O   UNL     1       6.840   4.724   1.004  1.00  0.00    -0.381 OA
ATOM     78  C   UNL     1       8.175   4.580   0.538  1.00  0.00     0.195 C 
ENDBRANCH  76  77
BRANCH  76  79
ATOM     79  C   UNL     1       7.566   5.837   3.108  1.00  0.00     0.068 C 
BRANCH  79  80
ATOM     80  C   UNL     1       7.738   5.789   4.607  1.00  0.00    -0.045 A 
ATOM     81  C   UNL     1       8.225   4.638   5.241  1.00  0.00     0.004 A 
ATOM     82  C   UNL     1       7.383   6.894   5.396  1.00  0.00     0.004 A 
ATOM     83  C   UNL     1       8.368   4.596   6.629  1.00  0.00     0.000 A 
ATOM     84  C   UNL     1       7.526   6.851   6.784  1.00  0.00     0.000 A 
ATOM     85  C   UNL     1       8.019   5.703   7.400  1.00  0.00     0.000 A 
ENDBRANCH  79  80
ENDBRANCH  76  79
ENDBRANCH  74  76
ENDBRANCH  72  74
ENDBRANCH  70  71
ENDBRANCH   1  69
TORSDOF 17
ENDMDL
MODEL 48
REMARK VINA RESULT:    -5.904      3.665      9.233
REMARK INTER + INTRA:         -23.555
REMARK INTER:                 -16.117
REMARK INTRA:                  -7.438
REMARK UNBOUND:                -5.916
REMARK SMILES C=C1C(=O)N[C@H](C)C(=O)N[C@@H](CC(C)C)C(=O)N[C@@H](C(=O)O)[C@H](C)C(=O)N[C@@H](CCCN=C(N)N)C(=O)N[C@@H](/C=C/C(C)=C/[C@H](C)[C@H](Cc2ccccc2)OC)[C@H](C)C(=O)N[C@@H](C(=O)O)CCC(=O)N1C
REMARK SMILES IDX 39 1 38 2 37 3 36 4 28 6 27 7 25 8 26 9 23 11 24 12 19 13
REMARK SMILES IDX 18 14 16 15 17 16 11 18 10 19 8 20 9 21 12 24 13 25 14 26
REMARK SMILES IDX 15 27 20 28 21 29 22 30 29 32 30 33 31 34 32 35 33 36 34 37
REMARK SMILES IDX 35 38 57 43 58 44 59 45 60 46 61 47 62 49 66 50 67 51 68 52
REMARK SMILES IDX 69 53 70 54 71 55 2 56 1 57 3 58 4 59 5 60 6 62 7 63 63 65
REMARK SMILES IDX 64 66 65 67 40 69 41 70 42 71 44 72 43 73 45 74 46 75 47 76
REMARK SMILES IDX 55 77 56 78 48 79 49 80 50 81 54 82 51 83 53 84 52 85
REMARK H PARENT 38 5 27 10 18 17 10 22 22 31 34 39 34 40 35 41 35 42 61 48
REMARK H PARENT 5 61 65 68
REMARK Flexibility Score:  369.900
ROOT
ATOM      1  C   UNL     1       5.332   0.924   7.311  1.00  0.00     0.117 C 
ENDROOT
BRANCH   1   2
ATOM      2  N   UNL     1       5.581  -0.517   7.241  1.00  0.00    -0.347 N 
ATOM      3  O   UNL     1       4.535  -0.918   5.237  1.00  0.00    -0.273 OA
ATOM      4  C   UNL     1       5.241  -1.309   6.161  1.00  0.00     0.243 C 
ATOM      5  H   UNL     1       6.074  -0.970   7.995  1.00  0.00     0.164 HD
BRANCH   4   6
ATOM      6  C   UNL     1       5.693  -2.784   6.304  1.00  0.00     0.171 C 
BRANCH   6   7
ATOM      7  N   UNL     1       4.624  -3.594   6.911  1.00  0.00    -0.344 N 
ATOM      8  C   UNL     1       4.510  -3.695   8.280  1.00  0.00     0.226 C 
ATOM      9  O   UNL     1       5.290  -3.146   9.050  1.00  0.00    -0.275 OA
ATOM     10  H   UNL     1       4.002  -4.116   6.307  1.00  0.00     0.164 HD
BRANCH   8  11
ATOM     11  C   UNL     1       3.326  -4.520   8.750  1.00  0.00     0.109 C 
ATOM     12  C   UNL     1       2.208  -4.477   7.708  1.00  0.00     0.021 C 
BRANCH  11  13
ATOM     13  C   UNL     1       3.797  -5.936   9.138  1.00  0.00     0.204 C 
BRANCH  13  14
ATOM     14  N   UNL     1       5.247  -6.094   8.988  1.00  0.00    -0.340 N 
ATOM     15  C   UNL     1       5.823  -7.204   8.408  1.00  0.00     0.243 C 
ATOM     16  O   UNL     1       5.156  -8.115   7.920  1.00  0.00    -0.273 OA
ATOM     17  H   UNL     1       5.856  -5.454   9.504  1.00  0.00     0.164 HD
BRANCH  15  18
ATOM     18  C   UNL     1       7.364  -7.246   8.548  1.00  0.00     0.171 C 
BRANCH  18  19
ATOM     19  N   UNL     1       7.673  -8.358   9.445  1.00  0.00    -0.343 N 
ATOM     20  C   UNL     1       7.439  -8.284  10.805  1.00  0.00     0.242 CG0
ATOM     21  O   UNL     1       7.086  -7.236  11.341  1.00  0.00    -0.273 OA
ATOM     22  H   UNL     1       8.076  -9.207   9.065  1.00  0.00     0.164 HD
ATOM     23  G   UNL     1       7.754  -9.582  11.577  1.00  0.00     0.000 G0
ENDBRANCH  18  19
BRANCH  18  24
ATOM     24  C   UNL     1       8.028  -7.429   7.178  1.00  0.00     0.038 C 
BRANCH  24  25
ATOM     25  C   UNL     1       8.964  -6.277   6.756  1.00  0.00    -0.015 C 
ATOM     26  C   UNL     1      10.442  -6.637   6.912  1.00  0.00     0.007 C 
ATOM     27  C   UNL     1       8.649  -5.028   7.584  1.00  0.00     0.007 C 
ENDBRANCH  24  25
ENDBRANCH  18  24
ENDBRANCH  15  18
ENDBRANCH  13  14
BRANCH  13  28
ATOM     28  C   UNL     1       3.445  -6.316  10.579  1.00  0.00     0.327 C 
ATOM     29  O   UNL     1       2.788  -5.648  11.363  1.00  0.00    -0.250 OA
BRANCH  28  30
ATOM     30  O   UNL     1       4.040  -7.456  10.986  1.00  0.00    -0.480 OA
ATOM     31  H   UNL     1       4.512  -7.779  10.190  1.00  0.00     0.296 HD
ENDBRANCH  28  30
ENDBRANCH  13  28
ENDBRANCH  11  13
ENDBRANCH   8  11
ENDBRANCH   6   7
BRANCH   6  32
ATOM     32  C   UNL     1       6.076  -3.329   4.923  1.00  0.00     0.037 C 
BRANCH  32  33
ATOM     33  C   UNL     1       5.421  -4.687   4.635  1.00  0.00     0.026 C 
BRANCH  33  34
ATOM     34  C   UNL     1       6.448  -5.778   4.327  1.00  0.00     0.146 C 
BRANCH  34  35
ATOM     35  N   UNL     1       5.912  -6.649   3.290  1.00  0.00    -0.254 NA
ATOM     36  C   UNL     1       5.417  -7.780   3.633  1.00  0.00     0.185 C 
ATOM     37  N   UNL     1       4.916  -8.588   2.686  1.00  0.00    -0.370 N 
ATOM     38  N   UNL     1       5.313  -8.319   4.861  1.00  0.00    -0.370 N 
ATOM     39  H   UNL     1       4.949  -8.247   1.734  1.00  0.00     0.159 HD
ATOM     40  H   UNL     1       4.361  -9.402   2.887  1.00  0.00     0.159 HD
ATOM     41  H   UNL     1       5.031  -9.278   4.986  1.00  0.00     0.159 HD
ATOM     42  H   UNL     1       5.664  -7.828   5.668  1.00  0.00     0.159 HD
ENDBRANCH  34  35
ENDBRANCH  33  34
ENDBRANCH  32  33
ENDBRANCH   6  32
ENDBRANCH   4   6
ENDBRANCH   1   2
BRANCH   1  43
ATOM     43  C   UNL     1       6.359   1.648   6.393  1.00  0.00     0.102 C 
ATOM     44  C   UNL     1       7.691   1.963   7.095  1.00  0.00     0.020 C 
BRANCH  43  45
ATOM     45  C   UNL     1       5.720   2.856   5.701  1.00  0.00     0.225 C 
ATOM     46  O   UNL     1       4.630   2.809   5.138  1.00  0.00    -0.275 OA
ATOM     47  N   UNL     1       6.493   3.994   5.663  1.00  0.00    -0.342 N 
ATOM     48  H   UNL     1       7.310   4.064   6.254  1.00  0.00     0.164 HD
BRANCH  47  49
ATOM     49  C   UNL     1       5.998   5.238   5.065  1.00  0.00     0.192 C 
BRANCH  49  50
ATOM     50  C   UNL     1       7.172   6.036   4.492  1.00  0.00     0.047 C 
BRANCH  50  51
ATOM     51  C   UNL     1       7.801   5.351   3.271  1.00  0.00     0.103 C 
BRANCH  51  52
ATOM     52  C   UNL     1       7.197   5.851   1.959  1.00  0.00     0.226 C 
ATOM     53  O   UNL     1       7.369   7.022   1.615  1.00  0.00    -0.275 OA
BRANCH  52  54
ATOM     54  N   UNL     1       6.529   4.895   1.172  1.00  0.00    -0.311 N 
ATOM     55  C   UNL     1       7.274   3.851   0.455  1.00  0.00     0.153 C 
BRANCH  54  56
ATOM     56  C   UNL     1       5.130   4.897   1.048  1.00  0.00     0.102 C 
ATOM     57  C   UNL     1       4.286   4.226   1.849  1.00  0.00     0.043 C 
BRANCH  56  58
ATOM     58  C   UNL     1       4.448   5.727  -0.015  1.00  0.00     0.268 C 
ATOM     59  O   UNL     1       3.235   5.744  -0.175  1.00  0.00    -0.268 OA
ATOM     60  N   UNL     1       5.321   6.506  -0.735  1.00  0.00    -0.339 N 
ATOM     61  H   UNL     1       6.314   6.426  -0.548  1.00  0.00     0.164 HD
BRANCH  60  62
ATOM     62  C   UNL     1       4.866   7.432  -1.771  1.00  0.00     0.168 CG0
ATOM     63  C   UNL     1       6.037   7.937  -2.605  1.00  0.00     0.041 C 
ATOM     64  G   UNL     1       4.114   8.610  -1.117  1.00  0.00     0.000 G0
ENDBRANCH  60  62
ENDBRANCH  56  58
ENDBRANCH  54  56
ENDBRANCH  52  54
ENDBRANCH  51  52
ENDBRANCH  50  51
ENDBRANCH  49  50
BRANCH  49  65
ATOM     65  C   UNL     1       5.248   6.101   6.091  1.00  0.00     0.326 C 
ATOM     66  O   UNL     1       4.035   6.141   6.234  1.00  0.00    -0.250 OA
BRANCH  65  67
ATOM     67  O   UNL     1       6.038   6.906   6.835  1.00  0.00    -0.480 OA
ATOM     68  H   UNL     1       5.827   6.647   7.759  1.00  0.00     0.296 HD
ENDBRANCH  65  67
ENDBRANCH  49  65
ENDBRANCH  47  49
ENDBRANCH  43  45
ENDBRANCH   1  43
BRANCH   1  69
ATOM     69  C   UNL     1       5.291   1.276   8.787  1.00  0.00    -0.001 C 
ATOM     70  C   UNL     1       4.752   2.371   9.350  1.00  0.00     0.001 C 
BRANCH  70  71
ATOM     71  C   UNL     1       4.699   2.690  10.779  1.00  0.00    -0.055 C 
ATOM     72  C   UNL     1       3.956   1.891  11.573  1.00  0.00    -0.018 C 
ATOM     73  C   UNL     1       5.484   3.881  11.262  1.00  0.00     0.044 C 
BRANCH  72  74
ATOM     74  C   UNL     1       3.721   1.975  13.074  1.00  0.00     0.038 C 
ATOM     75  C   UNL     1       3.099   3.347  13.359  1.00  0.00     0.015 C 
BRANCH  74  76
ATOM     76  C   UNL     1       5.068   1.703  13.808  1.00  0.00     0.128 C 
BRANCH  76  77
ATOM     77  O   UNL     1       4.924   1.972  15.213  1.00  0.00    -0.381 OA
ATOM     78  C   UNL     1       5.337   0.896  16.045  1.00  0.00     0.195 C 
ENDBRANCH  76  77
BRANCH  76  79
ATOM     79  C   UNL     1       5.669   0.304  13.523  1.00  0.00     0.068 C 
BRANCH  79  80
ATOM     80  C   UNL     1       6.679   0.182  12.408  1.00  0.00    -0.045 A 
ATOM     81  C   UNL     1       7.662   1.161  12.214  1.00  0.00     0.004 A 
ATOM     82  C   UNL     1       6.630  -0.908  11.526  1.00  0.00     0.004 A 
ATOM     83  C   UNL     1       8.584   1.048  11.172  1.00  0.00     0.000 A 
ATOM     84  C   UNL     1       7.553  -1.020  10.483  1.00  0.00     0.000 A 
ATOM     85  C   UNL     1       8.530  -0.043  10.308  1.00  0.00     0.000 A 
ENDBRANCH  79  80
ENDBRANCH  76  79
ENDBRANCH  74  76
ENDBRANCH  72  74
ENDBRANCH  70  71
ENDBRANCH   1  69
TORSDOF 17
ENDMDL
MODEL 49
REMARK VINA RESULT:    -5.902      4.536     10.184
REMARK INTER + INTRA:         -23.549
REMARK INTER:                 -17.339
REMARK INTRA:                  -6.210
REMARK UNBOUND:                -5.916
REMARK SMILES C=C1C(=O)N[C@H](C)C(=O)N[C@@H](CC(C)C)C(=O)N[C@@H](C(=O)O)[C@H](C)C(=O)N[C@@H](CCCN=C(N)N)C(=O)N[C@@H](/C=C/C(C)=C/[C@H](C)[C@H](Cc2ccccc2)OC)[C@H](C)C(=O)N[C@@H](C(=O)O)CCC(=O)N1C
REMARK SMILES IDX 39 1 38 2 37 3 36 4 28 6 27 7 25 8 26 9 23 11 24 12 19 13
REMARK SMILES IDX 18 14 16 15 17 16 11 18 10 19 8 20 9 21 12 24 13 25 14 26
REMARK SMILES IDX 15 27 20 28 21 29 22 30 29 32 30 33 31 34 32 35 33 36 34 37
REMARK SMILES IDX 35 38 57 43 58 44 59 45 60 46 61 47 62 49 66 50 67 51 68 52
REMARK SMILES IDX 69 53 70 54 71 55 2 56 1 57 3 58 4 59 5 60 6 62 7 63 63 65
REMARK SMILES IDX 64 66 65 67 40 69 41 70 42 71 44 72 43 73 45 74 46 75 47 76
REMARK SMILES IDX 55 77 56 78 48 79 49 80 50 81 54 82 51 83 53 84 52 85
REMARK H PARENT 38 5 27 10 18 17 10 22 22 31 34 39 34 40 35 41 35 42 61 48
REMARK H PARENT 5 61 65 68
REMARK Flexibility Score:  369.900
ROOT
ATOM      1  C   UNL     1       4.915  -2.589   7.659  1.00  0.00     0.117 C 
ENDROOT
BRANCH   1   2
ATOM      2  N   UNL     1       3.736  -3.455   7.612  1.00  0.00    -0.347 N 
ATOM      3  O   UNL     1       3.115  -3.258   9.813  1.00  0.00    -0.273 OA
ATOM      4  C   UNL     1       2.875  -3.647   8.675  1.00  0.00     0.243 C 
ATOM      5  H   UNL     1       3.491  -3.909   6.746  1.00  0.00     0.164 HD
BRANCH   4   6
ATOM      6  C   UNL     1       1.657  -4.543   8.336  1.00  0.00     0.171 C 
BRANCH   6   7
ATOM      7  N   UNL     1       0.868  -4.819   9.547  1.00  0.00    -0.344 N 
ATOM      8  C   UNL     1       0.337  -6.071   9.769  1.00  0.00     0.226 C 
ATOM      9  O   UNL     1       0.471  -6.995   8.976  1.00  0.00    -0.275 OA
ATOM     10  H   UNL     1       0.680  -4.063  10.193  1.00  0.00     0.164 HD
BRANCH   8  11
ATOM     11  C   UNL     1      -0.403  -6.212  11.088  1.00  0.00     0.109 C 
ATOM     12  C   UNL     1       0.476  -5.721  12.239  1.00  0.00     0.021 C 
BRANCH  11  13
ATOM     13  C   UNL     1      -1.781  -5.530  10.988  1.00  0.00     0.204 C 
BRANCH  13  14
ATOM     14  N   UNL     1      -2.864  -6.402  11.453  1.00  0.00    -0.340 N 
ATOM     15  C   UNL     1      -3.498  -7.310  10.632  1.00  0.00     0.243 C 
ATOM     16  O   UNL     1      -3.158  -7.495   9.465  1.00  0.00    -0.273 OA
ATOM     17  H   UNL     1      -3.293  -6.195  12.359  1.00  0.00     0.164 HD
BRANCH  15  18
ATOM     18  C   UNL     1      -4.741  -7.968  11.281  1.00  0.00     0.171 C 
BRANCH  18  19
ATOM     19  N   UNL     1      -4.722  -7.594  12.694  1.00  0.00    -0.343 N 
ATOM     20  C   UNL     1      -4.703  -8.543  13.698  1.00  0.00     0.242 CG0
ATOM     21  O   UNL     1      -4.835  -9.740  13.455  1.00  0.00    -0.273 OA
ATOM     22  H   UNL     1      -4.730  -6.613  12.949  1.00  0.00     0.164 HD
ATOM     23  G   UNL     1      -4.605  -7.960  15.123  1.00  0.00     0.000 G0
ENDBRANCH  18  19
BRANCH  18  24
ATOM     24  C   UNL     1      -6.026  -7.494  10.591  1.00  0.00     0.038 C 
BRANCH  24  25
ATOM     25  C   UNL     1      -6.706  -8.553   9.698  1.00  0.00    -0.015 C 
ATOM     26  C   UNL     1      -6.120  -9.951   9.899  1.00  0.00     0.007 C 
ATOM     27  C   UNL     1      -6.578  -8.147   8.228  1.00  0.00     0.007 C 
ENDBRANCH  24  25
ENDBRANCH  18  24
ENDBRANCH  15  18
ENDBRANCH  13  14
BRANCH  13  28
ATOM     28  C   UNL     1      -1.871  -4.229  11.791  1.00  0.00     0.327 C 
ATOM     29  O   UNL     1      -2.473  -4.068  12.842  1.00  0.00    -0.250 OA
BRANCH  28  30
ATOM     30  O   UNL     1      -1.298  -3.180  11.166  1.00  0.00    -0.480 OA
ATOM     31  H   UNL     1      -1.185  -2.510  11.872  1.00  0.00     0.296 HD
ENDBRANCH  28  30
ENDBRANCH  13  28
ENDBRANCH  11  13
ENDBRANCH   8  11
ENDBRANCH   6   7
BRANCH   6  32
ATOM     32  C   UNL     1       0.800  -3.846   7.273  1.00  0.00     0.037 C 
BRANCH  32  33
ATOM     33  C   UNL     1       0.454  -4.779   6.105  1.00  0.00     0.026 C 
BRANCH  33  34
ATOM     34  C   UNL     1       1.480  -5.898   5.926  1.00  0.00     0.146 C 
BRANCH  34  35
ATOM     35  N   UNL     1       0.792  -7.100   5.474  1.00  0.00    -0.254 NA
ATOM     36  C   UNL     1       1.365  -7.847   4.606  1.00  0.00     0.185 C 
ATOM     37  N   UNL     1       0.742  -8.959   4.186  1.00  0.00    -0.370 N 
ATOM     38  N   UNL     1       2.562  -7.688   4.013  1.00  0.00    -0.370 N 
ATOM     39  H   UNL     1      -0.163  -9.154   4.596  1.00  0.00     0.159 HD
ATOM     40  H   UNL     1       1.192  -9.679   3.648  1.00  0.00     0.159 HD
ATOM     41  H   UNL     1       2.842  -8.271   3.242  1.00  0.00     0.159 HD
ATOM     42  H   UNL     1       3.135  -6.885   4.222  1.00  0.00     0.159 HD
ENDBRANCH  34  35
ENDBRANCH  33  34
ENDBRANCH  32  33
ENDBRANCH   6  32
ENDBRANCH   4   6
ENDBRANCH   1   2
BRANCH   1  43
ATOM     43  C   UNL     1       4.927  -1.699   6.383  1.00  0.00     0.102 C 
ATOM     44  C   UNL     1       5.931  -2.171   5.318  1.00  0.00     0.020 C 
BRANCH  43  45
ATOM     45  C   UNL     1       5.059  -0.217   6.747  1.00  0.00     0.225 C 
ATOM     46  O   UNL     1       5.129   0.676   5.908  1.00  0.00    -0.275 OA
ATOM     47  N   UNL     1       5.189   0.054   8.090  1.00  0.00    -0.342 N 
ATOM     48  H   UNL     1       4.979  -0.665   8.768  1.00  0.00     0.164 HD
BRANCH  47  49
ATOM     49  C   UNL     1       5.287   1.429   8.589  1.00  0.00     0.192 C 
BRANCH  49  50
ATOM     50  C   UNL     1       6.760   1.803   8.780  1.00  0.00     0.047 C 
BRANCH  50  51
ATOM     51  C   UNL     1       7.156   3.042   7.966  1.00  0.00     0.103 C 
BRANCH  51  52
ATOM     52  C   UNL     1       6.312   4.262   8.331  1.00  0.00     0.226 C 
ATOM     53  O   UNL     1       6.286   4.659   9.498  1.00  0.00    -0.275 OA
BRANCH  52  54
ATOM     54  N   UNL     1       5.662   4.914   7.268  1.00  0.00    -0.311 N 
ATOM     55  C   UNL     1       4.691   4.204   6.425  1.00  0.00     0.153 C 
BRANCH  54  56
ATOM     56  C   UNL     1       5.910   6.266   6.976  1.00  0.00     0.102 C 
ATOM     57  C   UNL     1       5.061   7.275   7.229  1.00  0.00     0.043 C 
BRANCH  56  58
ATOM     58  C   UNL     1       7.226   6.700   6.374  1.00  0.00     0.268 C 
ATOM     59  O   UNL     1       8.244   6.859   7.034  1.00  0.00    -0.268 OA
ATOM     60  N   UNL     1       7.176   6.832   5.007  1.00  0.00    -0.339 N 
ATOM     61  H   UNL     1       6.291   6.693   4.535  1.00  0.00     0.164 HD
BRANCH  60  62
ATOM     62  C   UNL     1       8.355   7.183   4.215  1.00  0.00     0.168 CG0
ATOM     63  C   UNL     1       8.413   8.684   3.957  1.00  0.00     0.041 C 
ATOM     64  G   UNL     1       8.336   6.401   2.885  1.00  0.00     0.000 G0
ENDBRANCH  60  62
ENDBRANCH  56  58
ENDBRANCH  54  56
ENDBRANCH  52  54
ENDBRANCH  51  52
ENDBRANCH  50  51
ENDBRANCH  49  50
BRANCH  49  65
ATOM     65  C   UNL     1       4.540   1.604   9.920  1.00  0.00     0.326 C 
ATOM     66  O   UNL     1       4.855   1.091  10.984  1.00  0.00    -0.250 OA
BRANCH  65  67
ATOM     67  O   UNL     1       3.418   2.352   9.843  1.00  0.00    -0.480 OA
ATOM     68  H   UNL     1       3.028   2.278  10.741  1.00  0.00     0.296 HD
ENDBRANCH  65  67
ENDBRANCH  49  65
ENDBRANCH  47  49
ENDBRANCH  43  45
ENDBRANCH   1  43
BRANCH   1  69
ATOM     69  C   UNL     1       6.099  -3.499   7.930  1.00  0.00    -0.001 C 
ATOM     70  C   UNL     1       7.149  -3.257   8.734  1.00  0.00     0.001 C 
BRANCH  70  71
ATOM     71  C   UNL     1       8.276  -4.153   9.004  1.00  0.00    -0.055 C 
ATOM     72  C   UNL     1       9.048  -4.521   7.960  1.00  0.00    -0.018 C 
ATOM     73  C   UNL     1       8.498  -4.592  10.427  1.00  0.00     0.044 C 
BRANCH  72  74
ATOM     74  C   UNL     1      10.271  -5.427   7.940  1.00  0.00     0.038 C 
ATOM     75  C   UNL     1      11.414  -4.631   7.299  1.00  0.00     0.015 C 
BRANCH  74  76
ATOM     76  C   UNL     1       9.903  -6.749   7.204  1.00  0.00     0.128 C 
BRANCH  76  77
ATOM     77  O   UNL     1      10.916  -7.741   7.440  1.00  0.00    -0.381 OA
ATOM     78  C   UNL     1      10.514  -8.764   8.342  1.00  0.00     0.195 C 
ENDBRANCH  76  77
BRANCH  76  79
ATOM     79  C   UNL     1       8.475  -7.265   7.512  1.00  0.00     0.068 C 
BRANCH  79  80
ATOM     80  C   UNL     1       7.353  -6.825   6.604  1.00  0.00    -0.045 A 
ATOM     81  C   UNL     1       7.618  -6.275   5.342  1.00  0.00     0.004 A 
ATOM     82  C   UNL     1       6.019  -6.935   7.024  1.00  0.00     0.004 A 
ATOM     83  C   UNL     1       6.575  -5.858   4.514  1.00  0.00     0.000 A 
ATOM     84  C   UNL     1       4.976  -6.516   6.194  1.00  0.00     0.000 A 
ATOM     85  C   UNL     1       5.254  -5.979   4.939  1.00  0.00     0.000 A 
ENDBRANCH  79  80
ENDBRANCH  76  79
ENDBRANCH  74  76
ENDBRANCH  72  74
ENDBRANCH  70  71
ENDBRANCH   1  69
TORSDOF 17
ENDMDL
MODEL 50
REMARK VINA RESULT:    -5.865      4.611     11.639
REMARK INTER + INTRA:         -23.437
REMARK INTER:                 -16.254
REMARK INTRA:                  -7.184
REMARK UNBOUND:                -5.916
REMARK SMILES C=C1C(=O)N[C@H](C)C(=O)N[C@@H](CC(C)C)C(=O)N[C@@H](C(=O)O)[C@H](C)C(=O)N[C@@H](CCCN=C(N)N)C(=O)N[C@@H](/C=C/C(C)=C/[C@H](C)[C@H](Cc2ccccc2)OC)[C@H](C)C(=O)N[C@@H](C(=O)O)CCC(=O)N1C
REMARK SMILES IDX 39 1 38 2 37 3 36 4 28 6 27 7 25 8 26 9 23 11 24 12 19 13
REMARK SMILES IDX 18 14 16 15 17 16 11 18 10 19 8 20 9 21 12 24 13 25 14 26
REMARK SMILES IDX 15 27 20 28 21 29 22 30 29 32 30 33 31 34 32 35 33 36 34 37
REMARK SMILES IDX 35 38 57 43 58 44 59 45 60 46 61 47 62 49 66 50 67 51 68 52
REMARK SMILES IDX 69 53 70 54 71 55 2 56 1 57 3 58 4 59 5 60 6 62 7 63 63 65
REMARK SMILES IDX 64 66 65 67 40 69 41 70 42 71 44 72 43 73 45 74 46 75 47 76
REMARK SMILES IDX 55 77 56 78 48 79 49 80 50 81 54 82 51 83 53 84 52 85
REMARK H PARENT 38 5 27 10 18 17 10 22 22 31 34 39 34 40 35 41 35 42 61 48
REMARK H PARENT 5 61 65 68
REMARK Flexibility Score:  369.900
ROOT
ATOM      1  C   UNL     1       5.284   0.374   8.439  1.00  0.00     0.117 C 
ENDROOT
BRANCH   1   2
ATOM      2  N   UNL     1       6.130   0.113   9.603  1.00  0.00    -0.347 N 
ATOM      3  O   UNL     1       4.464  -0.432  11.086  1.00  0.00    -0.273 OA
ATOM      4  C   UNL     1       5.658  -0.359  10.813  1.00  0.00     0.243 C 
ATOM      5  H   UNL     1       7.129   0.231   9.525  1.00  0.00     0.164 HD
BRANCH   4   6
ATOM      6  C   UNL     1       6.773  -0.634  11.853  1.00  0.00     0.171 C 
BRANCH   6   7
ATOM      7  N   UNL     1       6.212  -0.662  13.213  1.00  0.00    -0.344 N 
ATOM      8  C   UNL     1       6.334   0.429  14.047  1.00  0.00     0.226 C 
ATOM      9  O   UNL     1       6.924   1.450  13.715  1.00  0.00    -0.275 OA
ATOM     10  H   UNL     1       5.777  -1.513  13.547  1.00  0.00     0.164 HD
BRANCH   8  11
ATOM     11  C   UNL     1       5.656   0.265  15.396  1.00  0.00     0.109 C 
ATOM     12  C   UNL     1       6.648  -0.289  16.419  1.00  0.00     0.021 C 
BRANCH  11  13
ATOM     13  C   UNL     1       4.976   1.587  15.802  1.00  0.00     0.204 C 
BRANCH  13  14
ATOM     14  N   UNL     1       3.903   1.963  14.877  1.00  0.00    -0.340 N 
ATOM     15  C   UNL     1       3.513   3.269  14.674  1.00  0.00     0.243 C 
ATOM     16  O   UNL     1       4.080   4.219  15.211  1.00  0.00    -0.273 OA
ATOM     17  H   UNL     1       3.296   1.221  14.518  1.00  0.00     0.164 HD
BRANCH  15  18
ATOM     18  C   UNL     1       2.230   3.405  13.817  1.00  0.00     0.171 C 
BRANCH  18  19
ATOM     19  N   UNL     1       1.252   4.116  14.639  1.00  0.00    -0.343 N 
ATOM     20  C   UNL     1       0.765   3.583  15.817  1.00  0.00     0.242 CG0
ATOM     21  O   UNL     1       1.030   2.433  16.161  1.00  0.00    -0.273 OA
ATOM     22  H   UNL     1       0.913   5.022  14.337  1.00  0.00     0.164 HD
ATOM     23  G   UNL     1      -0.198   4.511  16.586  1.00  0.00     0.000 G0
ENDBRANCH  18  19
BRANCH  18  24
ATOM     24  C   UNL     1       2.525   4.161  12.516  1.00  0.00     0.038 C 
BRANCH  24  25
ATOM     25  C   UNL     1       3.256   3.329  11.440  1.00  0.00    -0.015 C 
ATOM     26  C   UNL     1       4.750   3.182  11.729  1.00  0.00     0.007 C 
ATOM     27  C   UNL     1       3.059   3.977  10.067  1.00  0.00     0.007 C 
ENDBRANCH  24  25
ENDBRANCH  18  24
ENDBRANCH  15  18
ENDBRANCH  13  14
BRANCH  13  28
ATOM     28  C   UNL     1       4.370   1.547  17.208  1.00  0.00     0.327 C 
ATOM     29  O   UNL     1       3.563   0.730  17.624  1.00  0.00    -0.250 OA
BRANCH  28  30
ATOM     30  O   UNL     1       4.724   2.604  17.967  1.00  0.00    -0.480 OA
ATOM     31  H   UNL     1       5.581   2.894  17.591  1.00  0.00     0.296 HD
ENDBRANCH  28  30
ENDBRANCH  13  28
ENDBRANCH  11  13
ENDBRANCH   8  11
ENDBRANCH   6   7
BRANCH   6  32
ATOM     32  C   UNL     1       7.460  -1.962  11.517  1.00  0.00     0.037 C 
BRANCH  32  33
ATOM     33  C   UNL     1       8.879  -1.758  10.969  1.00  0.00     0.026 C 
BRANCH  33  34
ATOM     34  C   UNL     1       9.532  -0.481  11.497  1.00  0.00     0.146 C 
BRANCH  34  35
ATOM     35  N   UNL     1       9.816   0.402  10.374  1.00  0.00    -0.254 NA
ATOM     36  C   UNL     1       9.425   1.620  10.435  1.00  0.00     0.185 C 
ATOM     37  N   UNL     1       9.685   2.443   9.407  1.00  0.00    -0.370 N 
ATOM     38  N   UNL     1       8.757   2.244  11.421  1.00  0.00    -0.370 N 
ATOM     39  H   UNL     1      10.196   2.048   8.628  1.00  0.00     0.159 HD
ATOM     40  H   UNL     1       9.569   3.441   9.451  1.00  0.00     0.159 HD
ATOM     41  H   UNL     1       8.383   3.170  11.292  1.00  0.00     0.159 HD
ATOM     42  H   UNL     1       8.480   1.742  12.251  1.00  0.00     0.159 HD
ENDBRANCH  34  35
ENDBRANCH  33  34
ENDBRANCH  32  33
ENDBRANCH   6  32
ENDBRANCH   4   6
ENDBRANCH   1   2
BRANCH   1  43
ATOM     43  C   UNL     1       5.602  -0.688   7.347  1.00  0.00     0.102 C 
ATOM     44  C   UNL     1       5.040  -0.329   5.961  1.00  0.00     0.020 C 
BRANCH  43  45
ATOM     45  C   UNL     1       5.228  -2.095   7.823  1.00  0.00     0.225 C 
ATOM     46  O   UNL     1       6.034  -2.866   8.336  1.00  0.00    -0.275 OA
ATOM     47  N   UNL     1       3.937  -2.488   7.554  1.00  0.00    -0.342 N 
ATOM     48  H   UNL     1       3.253  -1.800   7.274  1.00  0.00     0.164 HD
BRANCH  47  49
ATOM     49  C   UNL     1       3.429  -3.795   7.982  1.00  0.00     0.192 C 
BRANCH  49  50
ATOM     50  C   UNL     1       2.806  -4.522   6.788  1.00  0.00     0.047 C 
BRANCH  50  51
ATOM     51  C   UNL     1       3.805  -4.715   5.639  1.00  0.00     0.103 C 
BRANCH  51  52
ATOM     52  C   UNL     1       3.629  -6.066   4.947  1.00  0.00     0.226 C 
ATOM     53  O   UNL     1       2.496  -6.511   4.758  1.00  0.00    -0.275 OA
BRANCH  52  54
ATOM     54  N   UNL     1       4.803  -6.694   4.492  1.00  0.00    -0.311 N 
ATOM     55  C   UNL     1       5.639  -6.074   3.456  1.00  0.00     0.153 C 
BRANCH  54  56
ATOM     56  C   UNL     1       5.222  -7.930   5.013  1.00  0.00     0.102 C 
ATOM     57  C   UNL     1       5.851  -8.095   6.188  1.00  0.00     0.043 C 
BRANCH  56  58
ATOM     58  C   UNL     1       4.940  -9.217   4.275  1.00  0.00     0.268 C 
ATOM     59  O   UNL     1       4.563  -9.253   3.111  1.00  0.00    -0.268 OA
ATOM     60  N   UNL     1       5.213 -10.339   5.022  1.00  0.00    -0.339 N 
ATOM     61  H   UNL     1       5.512 -10.223   5.983  1.00  0.00     0.164 HD
BRANCH  60  62
ATOM     62  C   UNL     1       5.070 -11.689   4.480  1.00  0.00     0.168 CG0
ATOM     63  C   UNL     1       6.422 -12.261   4.073  1.00  0.00     0.041 C 
ATOM     64  G   UNL     1       4.103 -11.664   3.277  1.00  0.00     0.000 G0
ENDBRANCH  60  62
ENDBRANCH  56  58
ENDBRANCH  54  56
ENDBRANCH  52  54
ENDBRANCH  51  52
ENDBRANCH  50  51
ENDBRANCH  49  50
BRANCH  49  65
ATOM     65  C   UNL     1       2.380  -3.657   9.097  1.00  0.00     0.326 C 
ATOM     66  O   UNL     1       1.475  -4.447   9.323  1.00  0.00    -0.250 OA
BRANCH  65  67
ATOM     67  O   UNL     1       2.477  -2.523   9.826  1.00  0.00    -0.480 OA
ATOM     68  H   UNL     1       3.140  -2.746  10.515  1.00  0.00     0.296 HD
ENDBRANCH  65  67
ENDBRANCH  49  65
ENDBRANCH  47  49
ENDBRANCH  43  45
ENDBRANCH   1  43
BRANCH   1  69
ATOM     69  C   UNL     1       5.462   1.844   8.106  1.00  0.00    -0.001 C 
ATOM     70  C   UNL     1       6.188   2.752   8.781  1.00  0.00     0.001 C 
BRANCH  70  71
ATOM     71  C   UNL     1       6.370   4.164   8.438  1.00  0.00    -0.055 C 
ATOM     72  C   UNL     1       5.730   4.632   7.345  1.00  0.00    -0.018 C 
ATOM     73  C   UNL     1       7.251   4.996   9.332  1.00  0.00     0.044 C 
BRANCH  72  74
ATOM     74  C   UNL     1       5.730   6.035   6.756  1.00  0.00     0.038 C 
ATOM     75  C   UNL     1       4.267   6.486   6.661  1.00  0.00     0.015 C 
BRANCH  74  76
ATOM     76  C   UNL     1       6.495   6.010   5.401  1.00  0.00     0.128 C 
BRANCH  76  77
ATOM     77  O   UNL     1       7.858   6.421   5.599  1.00  0.00    -0.381 OA
ATOM     78  C   UNL     1       8.238   7.540   4.809  1.00  0.00     0.195 C 
ENDBRANCH  76  77
BRANCH  76  79
ATOM     79  C   UNL     1       6.379   4.666   4.637  1.00  0.00     0.068 C 
BRANCH  79  80
ATOM     80  C   UNL     1       5.563   4.643   3.368  1.00  0.00    -0.045 A 
ATOM     81  C   UNL     1       4.215   4.260   3.382  1.00  0.00     0.004 A 
ATOM     82  C   UNL     1       6.154   4.980   2.141  1.00  0.00     0.004 A 
ATOM     83  C   UNL     1       3.471   4.227   2.201  1.00  0.00     0.000 A 
ATOM     84  C   UNL     1       5.409   4.946   0.960  1.00  0.00     0.000 A 
ATOM     85  C   UNL     1       4.068   4.571   0.991  1.00  0.00     0.000 A 
ENDBRANCH  79  80
ENDBRANCH  76  79
ENDBRANCH  74  76
ENDBRANCH  72  74
ENDBRANCH  70  71
ENDBRANCH   1  69
TORSDOF 17
ENDMDL
