MODEL 1
REMARK VINA RESULT:    -7.332      0.000      0.000
REMARK INTER + INTRA:         -18.401
REMARK INTER:                 -14.833
REMARK INTRA:                  -3.568
REMARK UNBOUND:                -3.568
REMARK SMILES CC[C@@H](C)[C@@H](NC(=O)[C@@H](O)Cc1ccc(O)c(Cl)c1)C(=O)N1[C@H](C(=O)NCCCCN=C(N)N)C[C@H]2CC[C@H](OS(=O)(=O)O)C[C@@H]21
REMARK SMILES IDX 22 1 36 2 46 3 35 4 23 5 45 6 37 7 39 8 38 9 20 10 21 11
REMARK SMILES IDX 5 12 6 13 7 14 8 15 9 17 11 18 12 19 17 20 19 21 15 22 14 23
REMARK SMILES IDX 13 24 18 25 16 26 10 28 3 30 4 31 2 32 1 33 24 34 25 35
REMARK SMILES IDX 26 36 27 38 28 39 29 40 30 41 31 42 32 43 33 44 34 45 40 50
REMARK SMILES IDX 41 51 42 52 43 53 44 54
REMARK H PARENT 6 16 16 27 10 29 26 37 33 46 33 47 34 48 34 49 44 55
ROOT
ATOM      1  N   UNL     1       6.174   0.259  -4.104  1.00  0.00    -0.326 N 
ATOM      2  C   UNL     1       4.689  -0.557  -2.470  1.00  0.00     0.014 C 
ATOM      3  C   UNL     1       5.974  -0.900  -3.229  1.00  0.00     0.091 C 
ATOM      4  C   UNL     1       3.879   0.202  -3.510  1.00  0.00     0.041 C 
ATOM      5  C   UNL     1       4.969   1.124  -4.085  1.00  0.00     0.175 C 
ATOM      6  C   UNL     1       7.062  -1.235  -2.210  1.00  0.00     0.059 C 
ATOM      7  C   UNL     1       4.095  -1.793  -1.823  1.00  0.00     0.008 C 
ATOM      8  C   UNL     1       6.524  -1.891  -0.920  1.00  0.00     0.143 C 
ATOM      9  C   UNL     1       5.200  -2.645  -1.162  1.00  0.00     0.034 C 
ENDROOT
BRANCH   1  10
ATOM     10  C   UNL     1       7.168   0.506  -5.036  1.00  0.00     0.246 C 
ATOM     11  O   UNL     1       8.149   1.179  -4.705  1.00  0.00    -0.272 OA
BRANCH  10  12
ATOM     12  C   UNL     1       7.049  -0.103  -6.463  1.00  0.00     0.174 C 
BRANCH  12  13
ATOM     13  N   UNL     1       6.084   0.661  -7.253  1.00  0.00    -0.342 N 
ATOM     14  C   UNL     1       6.361   1.833  -7.921  1.00  0.00     0.249 C 
ATOM     15  O   UNL     1       7.468   2.356  -7.950  1.00  0.00    -0.272 OA
ATOM     16  H   UNL     1       5.094   0.437  -7.193  1.00  0.00     0.164 HD
BRANCH  14  17
ATOM     17  C   UNL     1       5.129   2.409  -8.650  1.00  0.00     0.207 C 
BRANCH  17  18
ATOM     18  C   UNL     1       5.038   3.923  -8.434  1.00  0.00     0.077 C 
BRANCH  18  19
ATOM     19  C   UNL     1       4.036   4.278  -7.358  1.00  0.00    -0.043 A 
ATOM     20  C   UNL     1       1.747   4.699  -6.672  1.00  0.00     0.083 A 
ATOM     21  C   UNL     1       2.664   4.323  -7.654  1.00  0.00     0.028 A 
ATOM     22  C   UNL     1       2.192   5.033  -5.393  1.00  0.00     0.134 A 
ATOM     23  C   UNL     1       3.547   4.993  -5.086  1.00  0.00     0.048 A 
ATOM     24  C   UNL     1       4.468   4.619  -6.067  1.00  0.00     0.008 A 
ATOM     25  Cl  UNL     1       0.067   4.748  -7.055  1.00  0.00    -0.080 Cl
BRANCH  22  26
ATOM     26  O   UNL     1       1.332   5.418  -4.400  1.00  0.00    -0.506 OA
ATOM     27  H   UNL     1       0.722   6.069  -4.795  1.00  0.00     0.293 HD
ENDBRANCH  22  26
ENDBRANCH  18  19
ENDBRANCH  17  18
BRANCH  17  28
ATOM     28  O   UNL     1       3.918   1.788  -8.188  1.00  0.00    -0.383 OA
ATOM     29  H   UNL     1       3.565   1.279  -8.953  1.00  0.00     0.211 HD
ENDBRANCH  17  28
ENDBRANCH  14  17
ENDBRANCH  12  13
BRANCH  12  30
ATOM     30  C   UNL     1       6.727  -1.622  -6.443  1.00  0.00     0.018 C 
ATOM     31  C   UNL     1       7.765  -2.412  -7.255  1.00  0.00     0.010 C 
BRANCH  30  32
ATOM     32  C   UNL     1       5.298  -1.961  -6.933  1.00  0.00     0.002 C 
ATOM     33  C   UNL     1       4.389  -2.606  -5.894  1.00  0.00     0.004 C 
ENDBRANCH  30  32
ENDBRANCH  12  30
ENDBRANCH  10  12
ENDBRANCH   1  10
BRANCH   5  34
ATOM     34  C   UNL     1       5.199   2.368  -3.186  1.00  0.00     0.242 C 
ATOM     35  O   UNL     1       4.277   2.942  -2.608  1.00  0.00    -0.273 OA
ATOM     36  N   UNL     1       6.501   2.814  -3.125  1.00  0.00    -0.354 N 
ATOM     37  H   UNL     1       7.201   2.370  -3.720  1.00  0.00     0.163 HD
BRANCH  36  38
ATOM     38  C   UNL     1       6.930   3.819  -2.174  1.00  0.00     0.116 C 
BRANCH  38  39
ATOM     39  C   UNL     1       6.387   5.186  -2.584  1.00  0.00     0.023 C 
BRANCH  39  40
ATOM     40  C   UNL     1       5.732   5.925  -1.422  1.00  0.00     0.026 C 
BRANCH  40  41
ATOM     41  C   UNL     1       6.608   5.854  -0.172  1.00  0.00     0.146 C 
BRANCH  41  42
ATOM     42  N   UNL     1       5.930   5.082   0.861  1.00  0.00    -0.254 NA
ATOM     43  C   UNL     1       6.556   4.141   1.462  1.00  0.00     0.185 C 
ATOM     44  N   UNL     1       7.818   3.702   1.304  1.00  0.00    -0.370 N 
ATOM     45  N   UNL     1       5.912   3.438   2.408  1.00  0.00    -0.370 N 
ATOM     46  H   UNL     1       8.098   2.806   1.663  1.00  0.00     0.159 HD
ATOM     47  H   UNL     1       8.452   4.132   0.637  1.00  0.00     0.159 HD
ATOM     48  H   UNL     1       4.956   3.711   2.596  1.00  0.00     0.159 HD
ATOM     49  H   UNL     1       6.389   2.860   3.076  1.00  0.00     0.159 HD
ENDBRANCH  41  42
ENDBRANCH  40  41
ENDBRANCH  39  40
ENDBRANCH  38  39
ENDBRANCH  36  38
ENDBRANCH   5  34
BRANCH   8  50
ATOM     50  O   UNL     1       6.303  -0.897   0.080  1.00  0.00    -0.245 OA
BRANCH  50  51
ATOM     51  S   UNL     1       7.528   0.073   0.532  1.00  0.00     0.397 S 
ATOM     52  O   UNL     1       7.571   1.193  -0.380  1.00  0.00    -0.169 OA
ATOM     53  O   UNL     1       8.704  -0.726   0.810  1.00  0.00    -0.169 OA
BRANCH  51  54
ATOM     54  O   UNL     1       6.991   0.665   1.928  1.00  0.00    -0.264 OA
ATOM     55  H   UNL     1       6.464  -0.035   2.365  1.00  0.00     0.236 HD
ENDBRANCH  51  54
ENDBRANCH  50  51
ENDBRANCH   8  50
TORSDOF 19
ENDMDL
MODEL 2
REMARK VINA RESULT:    -6.984      3.472      7.728
REMARK INTER + INTRA:         -17.696
REMARK INTER:                 -14.027
REMARK INTRA:                  -3.670
REMARK UNBOUND:                -3.568
REMARK SMILES CC[C@@H](C)[C@@H](NC(=O)[C@@H](O)Cc1ccc(O)c(Cl)c1)C(=O)N1[C@H](C(=O)NCCCCN=C(N)N)C[C@H]2CC[C@H](OS(=O)(=O)O)C[C@@H]21
REMARK SMILES IDX 22 1 36 2 46 3 35 4 23 5 45 6 37 7 39 8 38 9 20 10 21 11
REMARK SMILES IDX 5 12 6 13 7 14 8 15 9 17 11 18 12 19 17 20 19 21 15 22 14 23
REMARK SMILES IDX 13 24 18 25 16 26 10 28 3 30 4 31 2 32 1 33 24 34 25 35
REMARK SMILES IDX 26 36 27 38 28 39 29 40 30 41 31 42 32 43 33 44 34 45 40 50
REMARK SMILES IDX 41 51 42 52 43 53 44 54
REMARK H PARENT 6 16 16 27 10 29 26 37 33 46 33 47 34 48 34 49 44 55
ROOT
ATOM      1  N   UNL     1       5.699   0.234  -5.496  1.00  0.00    -0.326 N 
ATOM      2  C   UNL     1       7.044  -1.175  -6.818  1.00  0.00     0.014 C 
ATOM      3  C   UNL     1       5.632  -1.025  -6.243  1.00  0.00     0.091 C 
ATOM      4  C   UNL     1       7.916  -0.578  -5.724  1.00  0.00     0.041 C 
ATOM      5  C   UNL     1       7.107   0.689  -5.392  1.00  0.00     0.175 C 
ATOM      6  C   UNL     1       4.630  -1.135  -7.390  1.00  0.00     0.059 C 
ATOM      7  C   UNL     1       7.295  -2.599  -7.275  1.00  0.00     0.008 C 
ATOM      8  C   UNL     1       5.090  -2.068  -8.531  1.00  0.00     0.143 C 
ATOM      9  C   UNL     1       6.070  -3.150  -8.034  1.00  0.00     0.034 C 
ENDROOT
BRANCH   1  10
ATOM     10  C   UNL     1       4.725   0.875  -4.748  1.00  0.00     0.246 C 
ATOM     11  O   UNL     1       3.853   1.528  -5.330  1.00  0.00    -0.272 OA
BRANCH  10  12
ATOM     12  C   UNL     1       4.725   0.724  -3.199  1.00  0.00     0.174 C 
BRANCH  12  13
ATOM     13  N   UNL     1       5.580   1.747  -2.598  1.00  0.00    -0.342 N 
ATOM     14  C   UNL     1       5.253   3.079  -2.478  1.00  0.00     0.249 C 
ATOM     15  O   UNL     1       4.185   3.555  -2.842  1.00  0.00    -0.272 OA
ATOM     16  H   UNL     1       6.553   1.534  -2.395  1.00  0.00     0.164 HD
BRANCH  14  17
ATOM     17  C   UNL     1       6.373   3.909  -1.815  1.00  0.00     0.207 C 
BRANCH  17  18
ATOM     18  C   UNL     1       5.853   4.591  -0.546  1.00  0.00     0.077 C 
BRANCH  18  19
ATOM     19  C   UNL     1       6.357   3.909   0.706  1.00  0.00    -0.043 A 
ATOM     20  C   UNL     1       7.340   1.978   1.797  1.00  0.00     0.083 A 
ATOM     21  C   UNL     1       6.921   2.625   0.634  1.00  0.00     0.028 A 
ATOM     22  C   UNL     1       7.197   2.605   3.035  1.00  0.00     0.134 A 
ATOM     23  C   UNL     1       6.640   3.876   3.121  1.00  0.00     0.048 A 
ATOM     24  C   UNL     1       6.219   4.526   1.959  1.00  0.00     0.008 A 
ATOM     25  Cl  UNL     1       8.030   0.401   1.689  1.00  0.00    -0.080 Cl
BRANCH  22  26
ATOM     26  O   UNL     1       7.583   2.006   4.204  1.00  0.00    -0.506 OA
ATOM     27  H   UNL     1       8.272   1.356   3.971  1.00  0.00     0.293 HD
ENDBRANCH  22  26
ENDBRANCH  18  19
ENDBRANCH  17  18
BRANCH  17  28
ATOM     28  O   UNL     1       6.882   4.905  -2.717  1.00  0.00    -0.383 OA
ATOM     29  H   UNL     1       6.101   5.258  -3.201  1.00  0.00     0.211 HD
ENDBRANCH  17  28
ENDBRANCH  14  17
ENDBRANCH  12  13
BRANCH  12  30
ATOM     30  C   UNL     1       5.101  -0.710  -2.736  1.00  0.00     0.018 C 
ATOM     31  C   UNL     1       3.857  -1.473  -2.255  1.00  0.00     0.010 C 
BRANCH  30  32
ATOM     32  C   UNL     1       6.199  -0.742  -1.645  1.00  0.00     0.002 C 
ATOM     33  C   UNL     1       7.551  -1.280  -2.098  1.00  0.00     0.004 C 
ENDBRANCH  30  32
ENDBRANCH  12  30
ENDBRANCH  10  12
ENDBRANCH   1  10
BRANCH   5  34
ATOM     34  C   UNL     1       7.392   1.831  -6.404  1.00  0.00     0.242 C 
ATOM     35  O   UNL     1       8.448   1.906  -7.032  1.00  0.00    -0.273 OA
ATOM     36  N   UNL     1       6.402   2.783  -6.508  1.00  0.00    -0.354 N 
ATOM     37  H   UNL     1       5.603   2.732  -5.874  1.00  0.00     0.163 HD
BRANCH  36  38
ATOM     38  C   UNL     1       6.403   3.790  -7.549  1.00  0.00     0.116 C 
BRANCH  38  39
ATOM     39  C   UNL     1       5.514   3.340  -8.706  1.00  0.00     0.023 C 
BRANCH  39  40
ATOM     40  C   UNL     1       4.130   2.902  -8.241  1.00  0.00     0.026 C 
BRANCH  40  41
ATOM     41  C   UNL     1       3.188   4.102  -8.134  1.00  0.00     0.146 C 
BRANCH  41  42
ATOM     42  N   UNL     1       2.271   3.910  -7.018  1.00  0.00    -0.254 NA
ATOM     43  C   UNL     1       2.617   4.282  -5.843  1.00  0.00     0.185 C 
ATOM     44  N   UNL     1       3.755   4.861  -5.418  1.00  0.00    -0.370 N 
ATOM     45  N   UNL     1       1.759   4.093  -4.827  1.00  0.00    -0.370 N 
ATOM     46  H   UNL     1       3.990   4.874  -4.441  1.00  0.00     0.159 HD
ATOM     47  H   UNL     1       4.509   5.088  -6.060  1.00  0.00     0.159 HD
ATOM     48  H   UNL     1       0.872   3.669  -5.063  1.00  0.00     0.159 HD
ATOM     49  H   UNL     1       1.851   4.560  -3.943  1.00  0.00     0.159 HD
ENDBRANCH  41  42
ENDBRANCH  40  41
ENDBRANCH  39  40
ENDBRANCH  38  39
ENDBRANCH  36  38
ENDBRANCH   5  34
BRANCH   8  50
ATOM     50  O   UNL     1       5.734  -1.310  -9.555  1.00  0.00    -0.245 OA
BRANCH  50  51
ATOM     51  S   UNL     1       5.519  -1.721 -11.114  1.00  0.00     0.397 S 
ATOM     52  O   UNL     1       6.304  -2.906 -11.375  1.00  0.00    -0.169 OA
ATOM     53  O   UNL     1       5.624  -0.541 -11.947  1.00  0.00    -0.169 OA
BRANCH  51  54
ATOM     54  O   UNL     1       3.984  -2.201 -11.126  1.00  0.00    -0.264 OA
ATOM     55  H   UNL     1       3.908  -2.973 -10.530  1.00  0.00     0.236 HD
ENDBRANCH  51  54
ENDBRANCH  50  51
ENDBRANCH   8  50
TORSDOF 19
ENDMDL
MODEL 3
REMARK VINA RESULT:    -6.682      4.764      7.264
REMARK INTER + INTRA:         -17.085
REMARK INTER:                 -13.952
REMARK INTRA:                  -3.134
REMARK UNBOUND:                -3.568
REMARK SMILES CC[C@@H](C)[C@@H](NC(=O)[C@@H](O)Cc1ccc(O)c(Cl)c1)C(=O)N1[C@H](C(=O)NCCCCN=C(N)N)C[C@H]2CC[C@H](OS(=O)(=O)O)C[C@@H]21
REMARK SMILES IDX 22 1 36 2 46 3 35 4 23 5 45 6 37 7 39 8 38 9 20 10 21 11
REMARK SMILES IDX 5 12 6 13 7 14 8 15 9 17 11 18 12 19 17 20 19 21 15 22 14 23
REMARK SMILES IDX 13 24 18 25 16 26 10 28 3 30 4 31 2 32 1 33 24 34 25 35
REMARK SMILES IDX 26 36 27 38 28 39 29 40 30 41 31 42 32 43 33 44 34 45 40 50
REMARK SMILES IDX 41 51 42 52 43 53 44 54
REMARK H PARENT 6 16 16 27 10 29 26 37 33 46 33 47 34 48 34 49 44 55
ROOT
ATOM      1  N   UNL     1       6.803  -0.585  -8.053  1.00  0.00    -0.326 N 
ATOM      2  C   UNL     1       5.097  -1.039  -6.495  1.00  0.00     0.014 C 
ATOM      3  C   UNL     1       6.530  -1.420  -6.880  1.00  0.00     0.091 C 
ATOM      4  C   UNL     1       4.447  -0.774  -7.844  1.00  0.00     0.041 C 
ATOM      5  C   UNL     1       5.551   0.061  -8.519  1.00  0.00     0.175 C 
ATOM      6  C   UNL     1       7.421  -1.255  -5.650  1.00  0.00     0.059 C 
ATOM      7  C   UNL     1       4.491  -2.075  -5.569  1.00  0.00     0.008 C 
ATOM      8  C   UNL     1       6.696  -1.535  -4.316  1.00  0.00     0.143 C 
ATOM      9  C   UNL     1       5.511  -2.505  -4.493  1.00  0.00     0.034 C 
ENDROOT
BRANCH   1  10
ATOM     10  C   UNL     1       7.936  -0.510  -8.845  1.00  0.00     0.246 C 
ATOM     11  O   UNL     1       8.787   0.351  -8.597  1.00  0.00    -0.272 OA
BRANCH  10  12
ATOM     12  C   UNL     1       8.134  -1.534 -10.000  1.00  0.00     0.174 C 
BRANCH  12  13
ATOM     13  N   UNL     1       6.902  -2.293 -10.210  1.00  0.00    -0.342 N 
ATOM     14  C   UNL     1       6.107  -2.216 -11.331  1.00  0.00     0.249 C 
ATOM     15  O   UNL     1       6.363  -1.514 -12.302  1.00  0.00    -0.272 OA
ATOM     16  H   UNL     1       6.481  -2.796  -9.432  1.00  0.00     0.164 HD
BRANCH  14  17
ATOM     17  C   UNL     1       4.865  -3.129 -11.245  1.00  0.00     0.207 C 
BRANCH  17  18
ATOM     18  C   UNL     1       3.797  -2.675 -12.245  1.00  0.00     0.077 C 
BRANCH  18  19
ATOM     19  C   UNL     1       3.560  -3.709 -13.323  1.00  0.00    -0.043 A 
ATOM     20  C   UNL     1       3.264  -4.277 -15.662  1.00  0.00     0.083 A 
ATOM     21  C   UNL     1       3.531  -3.329 -14.674  1.00  0.00     0.028 A 
ATOM     22  C   UNL     1       3.023  -5.605 -15.309  1.00  0.00     0.134 A 
ATOM     23  C   UNL     1       3.049  -5.995 -13.975  1.00  0.00     0.048 A 
ATOM     24  C   UNL     1       3.314  -5.048 -12.983  1.00  0.00     0.008 A 
ATOM     25  Cl  UNL     1       3.232  -3.792 -17.317  1.00  0.00    -0.080 Cl
BRANCH  22  26
ATOM     26  O   UNL     1       2.746  -6.568 -16.242  1.00  0.00    -0.506 OA
ATOM     27  H   UNL     1       1.796  -6.773 -16.159  1.00  0.00     0.293 HD
ENDBRANCH  22  26
ENDBRANCH  18  19
ENDBRANCH  17  18
BRANCH  17  28
ATOM     28  O   UNL     1       4.310  -3.123  -9.920  1.00  0.00    -0.383 OA
ATOM     29  H   UNL     1       4.499  -4.012  -9.543  1.00  0.00     0.211 HD
ENDBRANCH  17  28
ENDBRANCH  14  17
ENDBRANCH  12  13
BRANCH  12  30
ATOM     30  C   UNL     1       9.366  -2.452  -9.782  1.00  0.00     0.018 C 
ATOM     31  C   UNL     1       9.365  -3.615 -10.787  1.00  0.00     0.010 C 
BRANCH  30  32
ATOM     32  C   UNL     1       9.488  -2.997  -8.338  1.00  0.00     0.002 C 
ATOM     33  C   UNL     1       8.778  -4.320  -8.079  1.00  0.00     0.004 C 
ENDBRANCH  30  32
ENDBRANCH  12  30
ENDBRANCH  10  12
ENDBRANCH   1  10
BRANCH   5  34
ATOM     34  C   UNL     1       5.498   1.546  -8.071  1.00  0.00     0.242 C 
ATOM     35  O   UNL     1       6.186   1.979  -7.147  1.00  0.00    -0.273 OA
ATOM     36  N   UNL     1       4.588   2.329  -8.746  1.00  0.00    -0.354 N 
ATOM     37  H   UNL     1       3.962   1.886  -9.419  1.00  0.00     0.163 HD
BRANCH  36  38
ATOM     38  C   UNL     1       4.558   3.771  -8.609  1.00  0.00     0.116 C 
BRANCH  38  39
ATOM     39  C   UNL     1       3.144   4.229  -8.260  1.00  0.00     0.023 C 
BRANCH  39  40
ATOM     40  C   UNL     1       3.119   5.199  -7.084  1.00  0.00     0.026 C 
BRANCH  40  41
ATOM     41  C   UNL     1       2.309   4.622  -5.923  1.00  0.00     0.146 C 
BRANCH  41  42
ATOM     42  N   UNL     1       2.673   3.227  -5.713  1.00  0.00    -0.254 NA
ATOM     43  C   UNL     1       3.466   2.916  -4.758  1.00  0.00     0.185 C 
ATOM     44  N   UNL     1       4.069   3.699  -3.844  1.00  0.00    -0.370 N 
ATOM     45  N   UNL     1       3.793   1.625  -4.584  1.00  0.00    -0.370 N 
ATOM     46  H   UNL     1       4.851   3.357  -3.311  1.00  0.00     0.159 HD
ATOM     47  H   UNL     1       3.921   4.703  -3.822  1.00  0.00     0.159 HD
ATOM     48  H   UNL     1       3.374   0.966  -5.227  1.00  0.00     0.159 HD
ATOM     49  H   UNL     1       4.205   1.278  -3.737  1.00  0.00     0.159 HD
ENDBRANCH  41  42
ENDBRANCH  40  41
ENDBRANCH  39  40
ENDBRANCH  38  39
ENDBRANCH  36  38
ENDBRANCH   5  34
BRANCH   8  50
ATOM     50  O   UNL     1       6.203  -0.315  -3.760  1.00  0.00    -0.245 OA
BRANCH  50  51
ATOM     51  S   UNL     1       5.620  -0.302  -2.242  1.00  0.00     0.397 S 
ATOM     52  O   UNL     1       6.419  -1.208  -1.449  1.00  0.00    -0.169 OA
ATOM     53  O   UNL     1       4.175  -0.393  -2.276  1.00  0.00    -0.169 OA
BRANCH  51  54
ATOM     54  O   UNL     1       6.012   1.177  -1.745  1.00  0.00    -0.264 OA
ATOM     55  H   UNL     1       6.985   1.264  -1.806  1.00  0.00     0.236 HD
ENDBRANCH  51  54
ENDBRANCH  50  51
ENDBRANCH   8  50
TORSDOF 19
ENDMDL
MODEL 4
REMARK VINA RESULT:    -6.647      3.925      7.211
REMARK INTER + INTRA:         -17.015
REMARK INTER:                 -12.690
REMARK INTRA:                  -4.326
REMARK UNBOUND:                -3.568
REMARK SMILES CC[C@@H](C)[C@@H](NC(=O)[C@@H](O)Cc1ccc(O)c(Cl)c1)C(=O)N1[C@H](C(=O)NCCCCN=C(N)N)C[C@H]2CC[C@H](OS(=O)(=O)O)C[C@@H]21
REMARK SMILES IDX 22 1 36 2 46 3 35 4 23 5 45 6 37 7 39 8 38 9 20 10 21 11
REMARK SMILES IDX 5 12 6 13 7 14 8 15 9 17 11 18 12 19 17 20 19 21 15 22 14 23
REMARK SMILES IDX 13 24 18 25 16 26 10 28 3 30 4 31 2 32 1 33 24 34 25 35
REMARK SMILES IDX 26 36 27 38 28 39 29 40 30 41 31 42 32 43 33 44 34 45 40 50
REMARK SMILES IDX 41 51 42 52 43 53 44 54
REMARK H PARENT 6 16 16 27 10 29 26 37 33 46 33 47 34 48 34 49 44 55
ROOT
ATOM      1  N   UNL     1       6.763  -1.070  -2.068  1.00  0.00    -0.326 N 
ATOM      2  C   UNL     1       4.951  -1.795  -3.385  1.00  0.00     0.014 C 
ATOM      3  C   UNL     1       6.283  -1.043  -3.453  1.00  0.00     0.091 C 
ATOM      4  C   UNL     1       4.414  -1.403  -2.017  1.00  0.00     0.041 C 
ATOM      5  C   UNL     1       5.690  -1.561  -1.168  1.00  0.00     0.175 C 
ATOM      6  C   UNL     1       7.149  -1.691  -4.532  1.00  0.00     0.059 C 
ATOM      7  C   UNL     1       4.112  -1.524  -4.618  1.00  0.00     0.008 C 
ATOM      8  C   UNL     1       6.339  -2.285  -5.704  1.00  0.00     0.143 C 
ATOM      9  C   UNL     1       4.983  -1.575  -5.891  1.00  0.00     0.034 C 
ENDROOT
BRANCH   1  10
ATOM     10  C   UNL     1       7.911  -0.529  -1.516  1.00  0.00     0.246 C 
ATOM     11  O   UNL     1       8.903  -1.250  -1.365  1.00  0.00    -0.272 OA
BRANCH  10  12
ATOM     12  C   UNL     1       7.943   0.980  -1.137  1.00  0.00     0.174 C 
BRANCH  12  13
ATOM     13  N   UNL     1       7.002   1.724  -1.974  1.00  0.00    -0.342 N 
ATOM     14  C   UNL     1       6.236   2.786  -1.549  1.00  0.00     0.249 C 
ATOM     15  O   UNL     1       6.280   3.249  -0.416  1.00  0.00    -0.272 OA
ATOM     16  H   UNL     1       6.744   1.360  -2.888  1.00  0.00     0.164 HD
BRANCH  14  17
ATOM     17  C   UNL     1       5.328   3.349  -2.663  1.00  0.00     0.207 C 
BRANCH  17  18
ATOM     18  C   UNL     1       4.634   2.208  -3.415  1.00  0.00     0.077 C 
BRANCH  18  19
ATOM     19  C   UNL     1       4.228   2.621  -4.812  1.00  0.00    -0.043 A 
ATOM     20  C   UNL     1       2.806   3.914  -6.293  1.00  0.00     0.083 A 
ATOM     21  C   UNL     1       3.212   3.571  -5.003  1.00  0.00     0.028 A 
ATOM     22  C   UNL     1       3.409   3.311  -7.398  1.00  0.00     0.134 A 
ATOM     23  C   UNL     1       4.416   2.369  -7.224  1.00  0.00     0.048 A 
ATOM     24  C   UNL     1       4.823   2.023  -5.933  1.00  0.00     0.008 A 
ATOM     25  Cl  UNL     1       1.557   5.082  -6.507  1.00  0.00    -0.080 Cl
BRANCH  22  26
ATOM     26  O   UNL     1       3.037   3.606  -8.682  1.00  0.00    -0.506 OA
ATOM     27  H   UNL     1       3.632   4.315  -8.989  1.00  0.00     0.293 HD
ENDBRANCH  22  26
ENDBRANCH  18  19
ENDBRANCH  17  18
BRANCH  17  28
ATOM     28  O   UNL     1       6.081   4.144  -3.593  1.00  0.00    -0.383 OA
ATOM     29  H   UNL     1       6.238   3.570  -4.377  1.00  0.00     0.211 HD
ENDBRANCH  17  28
ENDBRANCH  14  17
ENDBRANCH  12  13
BRANCH  12  30
ATOM     30  C   UNL     1       9.375   1.579  -1.179  1.00  0.00     0.018 C 
ATOM     31  C   UNL     1       9.621   2.491   0.033  1.00  0.00     0.010 C 
BRANCH  30  32
ATOM     32  C   UNL     1       9.692   2.340  -2.490  1.00  0.00     0.002 C 
ATOM     33  C   UNL     1      10.214   1.478  -3.632  1.00  0.00     0.004 C 
ENDBRANCH  30  32
ENDBRANCH  12  30
ENDBRANCH  10  12
ENDBRANCH   1  10
BRANCH   5  34
ATOM     34  C   UNL     1       5.935  -3.042  -0.776  1.00  0.00     0.242 C 
ATOM     35  O   UNL     1       5.013  -3.840  -0.606  1.00  0.00    -0.273 OA
ATOM     36  N   UNL     1       7.254  -3.385  -0.578  1.00  0.00    -0.354 N 
ATOM     37  H   UNL     1       7.964  -2.651  -0.616  1.00  0.00     0.163 HD
BRANCH  36  38
ATOM     38  C   UNL     1       7.681  -4.760  -0.421  1.00  0.00     0.116 C 
BRANCH  38  39
ATOM     39  C   UNL     1       9.190  -4.861  -0.628  1.00  0.00     0.023 C 
BRANCH  39  40
ATOM     40  C   UNL     1       9.637  -6.276  -0.981  1.00  0.00     0.026 C 
BRANCH  40  41
ATOM     41  C   UNL     1       8.430  -7.171  -1.261  1.00  0.00     0.146 C 
BRANCH  41  42
ATOM     42  N   UNL     1       8.527  -7.722  -2.607  1.00  0.00    -0.254 NA
ATOM     43  C   UNL     1       7.846  -7.198  -3.556  1.00  0.00     0.185 C 
ATOM     44  N   UNL     1       6.995  -6.156  -3.538  1.00  0.00    -0.370 N 
ATOM     45  N   UNL     1       7.946  -7.724  -4.788  1.00  0.00    -0.370 N 
ATOM     46  H   UNL     1       6.348  -6.009  -4.294  1.00  0.00     0.159 HD
ATOM     47  H   UNL     1       6.811  -5.633  -2.687  1.00  0.00     0.159 HD
ATOM     48  H   UNL     1       8.575  -8.509  -4.891  1.00  0.00     0.159 HD
ATOM     49  H   UNL     1       7.641  -7.238  -5.613  1.00  0.00     0.159 HD
ENDBRANCH  41  42
ENDBRANCH  40  41
ENDBRANCH  39  40
ENDBRANCH  38  39
ENDBRANCH  36  38
ENDBRANCH   5  34
BRANCH   8  50
ATOM     50  O   UNL     1       6.096  -3.674  -5.479  1.00  0.00    -0.245 OA
BRANCH  50  51
ATOM     51  S   UNL     1       6.493  -4.756  -6.627  1.00  0.00     0.397 S 
ATOM     52  O   UNL     1       7.853  -5.183  -6.386  1.00  0.00    -0.169 OA
ATOM     53  O   UNL     1       6.068  -4.268  -7.922  1.00  0.00    -0.169 OA
BRANCH  51  54
ATOM     54  O   UNL     1       5.565  -6.011  -6.241  1.00  0.00    -0.264 OA
ATOM     55  H   UNL     1       6.151  -6.730  -5.928  1.00  0.00     0.236 HD
ENDBRANCH  51  54
ENDBRANCH  50  51
ENDBRANCH   8  50
TORSDOF 19
ENDMDL
MODEL 5
REMARK VINA RESULT:    -6.639      4.328      6.608
REMARK INTER + INTRA:         -16.998
REMARK INTER:                 -14.546
REMARK INTRA:                  -2.453
REMARK UNBOUND:                -3.568
REMARK SMILES CC[C@@H](C)[C@@H](NC(=O)[C@@H](O)Cc1ccc(O)c(Cl)c1)C(=O)N1[C@H](C(=O)NCCCCN=C(N)N)C[C@H]2CC[C@H](OS(=O)(=O)O)C[C@@H]21
REMARK SMILES IDX 22 1 36 2 46 3 35 4 23 5 45 6 37 7 39 8 38 9 20 10 21 11
REMARK SMILES IDX 5 12 6 13 7 14 8 15 9 17 11 18 12 19 17 20 19 21 15 22 14 23
REMARK SMILES IDX 13 24 18 25 16 26 10 28 3 30 4 31 2 32 1 33 24 34 25 35
REMARK SMILES IDX 26 36 27 38 28 39 29 40 30 41 31 42 32 43 33 44 34 45 40 50
REMARK SMILES IDX 41 51 42 52 43 53 44 54
REMARK H PARENT 6 16 16 27 10 29 26 37 33 46 33 47 34 48 34 49 44 55
ROOT
ATOM      1  N   UNL     1       4.819  -1.812  -4.446  1.00  0.00    -0.326 N 
ATOM      2  C   UNL     1       4.883  -1.663  -2.097  1.00  0.00     0.014 C 
ATOM      3  C   UNL     1       5.336  -2.529  -3.276  1.00  0.00     0.091 C 
ATOM      4  C   UNL     1       3.537  -1.133  -2.569  1.00  0.00     0.041 C 
ATOM      5  C   UNL     1       3.892  -0.738  -4.014  1.00  0.00     0.175 C 
ATOM      6  C   UNL     1       6.844  -2.743  -3.166  1.00  0.00     0.059 C 
ATOM      7  C   UNL     1       4.962  -2.436  -0.795  1.00  0.00     0.008 C 
ATOM      8  C   UNL     1       7.362  -2.783  -1.712  1.00  0.00     0.143 C 
ATOM      9  C   UNL     1       6.274  -3.246  -0.722  1.00  0.00     0.034 C 
ENDROOT
BRANCH   1  10
ATOM     10  C   UNL     1       4.904  -2.131  -5.791  1.00  0.00     0.246 C 
ATOM     11  O   UNL     1       4.197  -3.040  -6.239  1.00  0.00    -0.272 OA
BRANCH  10  12
ATOM     12  C   UNL     1       5.852  -1.312  -6.714  1.00  0.00     0.174 C 
BRANCH  12  13
ATOM     13  N   UNL     1       5.778  -1.823  -8.083  1.00  0.00    -0.342 N 
ATOM     14  C   UNL     1       5.801  -1.046  -9.219  1.00  0.00     0.249 C 
ATOM     15  O   UNL     1       5.915   0.173  -9.209  1.00  0.00    -0.272 OA
ATOM     16  H   UNL     1       5.525  -2.795  -8.244  1.00  0.00     0.164 HD
BRANCH  14  17
ATOM     17  C   UNL     1       5.689  -1.880 -10.513  1.00  0.00     0.207 C 
BRANCH  17  18
ATOM     18  C   UNL     1       4.338  -2.600 -10.571  1.00  0.00     0.077 C 
BRANCH  18  19
ATOM     19  C   UNL     1       3.965  -2.981 -11.986  1.00  0.00    -0.043 A 
ATOM     20  C   UNL     1       3.234  -4.646 -13.591  1.00  0.00     0.083 A 
ATOM     21  C   UNL     1       3.530  -4.284 -12.277  1.00  0.00     0.028 A 
ATOM     22  C   UNL     1       3.371  -3.714 -14.620  1.00  0.00     0.134 A 
ATOM     23  C   UNL     1       3.800  -2.421 -14.346  1.00  0.00     0.048 A 
ATOM     24  C   UNL     1       4.099  -2.055 -13.032  1.00  0.00     0.008 A 
ATOM     25  Cl  UNL     1       2.702  -6.252 -13.929  1.00  0.00    -0.080 Cl
BRANCH  22  26
ATOM     26  O   UNL     1       3.102  -4.026 -15.926  1.00  0.00    -0.506 OA
ATOM     27  H   UNL     1       2.177  -4.335 -15.955  1.00  0.00     0.293 HD
ENDBRANCH  22  26
ENDBRANCH  18  19
ENDBRANCH  17  18
BRANCH  17  28
ATOM     28  O   UNL     1       6.749  -2.846 -10.599  1.00  0.00    -0.383 OA
ATOM     29  H   UNL     1       7.201  -2.833  -9.725  1.00  0.00     0.211 HD
ENDBRANCH  17  28
ENDBRANCH  14  17
ENDBRANCH  12  13
BRANCH  12  30
ATOM     30  C   UNL     1       7.308  -1.256  -6.180  1.00  0.00     0.018 C 
ATOM     31  C   UNL     1       7.859   0.177  -6.245  1.00  0.00     0.010 C 
BRANCH  30  32
ATOM     32  C   UNL     1       8.272  -2.230  -6.901  1.00  0.00     0.002 C 
ATOM     33  C   UNL     1       8.248  -3.665  -6.393  1.00  0.00     0.004 C 
ENDBRANCH  30  32
ENDBRANCH  12  30
ENDBRANCH  10  12
ENDBRANCH   1  10
BRANCH   5  34
ATOM     34  C   UNL     1       4.590   0.648  -4.073  1.00  0.00     0.242 C 
ATOM     35  O   UNL     1       5.721   0.834  -3.626  1.00  0.00    -0.273 OA
ATOM     36  N   UNL     1       3.832   1.663  -4.612  1.00  0.00    -0.354 N 
ATOM     37  H   UNL     1       2.859   1.473  -4.855  1.00  0.00     0.163 HD
BRANCH  36  38
ATOM     38  C   UNL     1       4.393   2.957  -4.941  1.00  0.00     0.116 C 
BRANCH  38  39
ATOM     39  C   UNL     1       5.130   2.878  -6.276  1.00  0.00     0.023 C 
BRANCH  39  40
ATOM     40  C   UNL     1       4.181   2.920  -7.469  1.00  0.00     0.026 C 
BRANCH  40  41
ATOM     41  C   UNL     1       3.471   4.271  -7.549  1.00  0.00     0.146 C 
BRANCH  41  42
ATOM     42  N   UNL     1       2.067   4.071  -7.885  1.00  0.00    -0.254 NA
ATOM     43  C   UNL     1       1.165   4.721  -7.251  1.00  0.00     0.185 C 
ATOM     44  N   UNL     1       1.284   5.623  -6.260  1.00  0.00    -0.370 N 
ATOM     45  N   UNL     1      -0.123   4.519  -7.573  1.00  0.00    -0.370 N 
ATOM     46  H   UNL     1       0.491   5.869  -5.693  1.00  0.00     0.159 HD
ATOM     47  H   UNL     1       2.192   5.905  -5.902  1.00  0.00     0.159 HD
ATOM     48  H   UNL     1      -0.300   3.860  -8.319  1.00  0.00     0.159 HD
ATOM     49  H   UNL     1      -0.857   5.147  -7.300  1.00  0.00     0.159 HD
ENDBRANCH  41  42
ENDBRANCH  40  41
ENDBRANCH  39  40
ENDBRANCH  38  39
ENDBRANCH  36  38
ENDBRANCH   5  34
BRANCH   8  50
ATOM     50  O   UNL     1       7.813  -1.487  -1.317  1.00  0.00    -0.245 OA
BRANCH  50  51
ATOM     51  S   UNL     1       9.051  -1.352  -0.270  1.00  0.00     0.397 S 
ATOM     52  O   UNL     1       9.628  -2.665  -0.090  1.00  0.00    -0.169 OA
ATOM     53  O   UNL     1       8.648  -0.538   0.857  1.00  0.00    -0.169 OA
BRANCH  51  54
ATOM     54  O   UNL     1      10.125  -0.516  -1.127  1.00  0.00    -0.264 OA
ATOM     55  H   UNL     1      10.896  -1.098  -1.288  1.00  0.00     0.236 HD
ENDBRANCH  51  54
ENDBRANCH  50  51
ENDBRANCH   8  50
TORSDOF 19
ENDMDL
MODEL 6
REMARK VINA RESULT:    -6.624      3.419      6.087
REMARK INTER + INTRA:         -16.968
REMARK INTER:                 -12.651
REMARK INTRA:                  -4.317
REMARK UNBOUND:                -3.568
REMARK SMILES CC[C@@H](C)[C@@H](NC(=O)[C@@H](O)Cc1ccc(O)c(Cl)c1)C(=O)N1[C@H](C(=O)NCCCCN=C(N)N)C[C@H]2CC[C@H](OS(=O)(=O)O)C[C@@H]21
REMARK SMILES IDX 22 1 36 2 46 3 35 4 23 5 45 6 37 7 39 8 38 9 20 10 21 11
REMARK SMILES IDX 5 12 6 13 7 14 8 15 9 17 11 18 12 19 17 20 19 21 15 22 14 23
REMARK SMILES IDX 13 24 18 25 16 26 10 28 3 30 4 31 2 32 1 33 24 34 25 35
REMARK SMILES IDX 26 36 27 38 28 39 29 40 30 41 31 42 32 43 33 44 34 45 40 50
REMARK SMILES IDX 41 51 42 52 43 53 44 54
REMARK H PARENT 6 16 16 27 10 29 26 37 33 46 33 47 34 48 34 49 44 55
ROOT
ATOM      1  N   UNL     1       6.466  -0.649  -6.591  1.00  0.00    -0.326 N 
ATOM      2  C   UNL     1       5.091  -1.984  -7.957  1.00  0.00     0.014 C 
ATOM      3  C   UNL     1       6.539  -1.526  -7.763  1.00  0.00     0.091 C 
ATOM      4  C   UNL     1       4.292  -0.761  -7.534  1.00  0.00     0.041 C 
ATOM      5  C   UNL     1       5.049  -0.373  -6.250  1.00  0.00     0.175 C 
ATOM      6  C   UNL     1       7.432  -2.763  -7.688  1.00  0.00     0.059 C 
ATOM      7  C   UNL     1       4.886  -2.562  -9.344  1.00  0.00     0.008 C 
ATOM      8  C   UNL     1       6.923  -3.949  -8.536  1.00  0.00     0.143 C 
ATOM      9  C   UNL     1       6.065  -3.482  -9.729  1.00  0.00     0.034 C 
ENDROOT
BRANCH   1  10
ATOM     10  C   UNL     1       7.465   0.071  -5.958  1.00  0.00     0.246 C 
ATOM     11  O   UNL     1       8.321  -0.534  -5.304  1.00  0.00    -0.272 OA
BRANCH  10  12
ATOM     12  C   UNL     1       7.513   1.619  -6.117  1.00  0.00     0.174 C 
BRANCH  12  13
ATOM     13  N   UNL     1       6.341   2.222  -5.484  1.00  0.00    -0.342 N 
ATOM     14  C   UNL     1       6.238   2.536  -4.148  1.00  0.00     0.249 C 
ATOM     15  O   UNL     1       7.140   2.368  -3.336  1.00  0.00    -0.272 OA
ATOM     16  H   UNL     1       5.464   2.275  -5.996  1.00  0.00     0.164 HD
BRANCH  14  17
ATOM     17  C   UNL     1       4.868   3.145  -3.783  1.00  0.00     0.207 C 
BRANCH  17  18
ATOM     18  C   UNL     1       4.666   4.482  -4.504  1.00  0.00     0.077 C 
BRANCH  18  19
ATOM     19  C   UNL     1       3.424   4.473  -5.366  1.00  0.00    -0.043 A 
ATOM     20  C   UNL     1       2.382   4.603  -7.553  1.00  0.00     0.083 A 
ATOM     21  C   UNL     1       3.531   4.561  -6.763  1.00  0.00     0.028 A 
ATOM     22  C   UNL     1       1.122   4.559  -6.955  1.00  0.00     0.134 A 
ATOM     23  C   UNL     1       1.001   4.472  -5.573  1.00  0.00     0.048 A 
ATOM     24  C   UNL     1       2.150   4.432  -4.779  1.00  0.00     0.008 A 
ATOM     25  Cl  UNL     1       2.533   4.711  -9.267  1.00  0.00    -0.080 Cl
BRANCH  22  26
ATOM     26  O   UNL     1      -0.034   4.607  -7.687  1.00  0.00    -0.506 OA
ATOM     27  H   UNL     1      -0.768   4.459  -7.062  1.00  0.00     0.293 HD
ENDBRANCH  22  26
ENDBRANCH  18  19
ENDBRANCH  17  18
BRANCH  17  28
ATOM     28  O   UNL     1       4.752   3.347  -2.365  1.00  0.00    -0.383 OA
ATOM     29  H   UNL     1       5.323   2.663  -1.946  1.00  0.00     0.211 HD
ENDBRANCH  17  28
ENDBRANCH  14  17
ENDBRANCH  12  13
BRANCH  12  30
ATOM     30  C   UNL     1       7.684   2.065  -7.594  1.00  0.00     0.018 C 
ATOM     31  C   UNL     1       9.085   2.651  -7.829  1.00  0.00     0.010 C 
BRANCH  30  32
ATOM     32  C   UNL     1       6.603   3.065  -8.071  1.00  0.00     0.002 C 
ATOM     33  C   UNL     1       5.497   2.467  -8.930  1.00  0.00     0.004 C 
ENDBRANCH  30  32
ENDBRANCH  12  30
ENDBRANCH  10  12
ENDBRANCH   1  10
BRANCH   5  34
ATOM     34  C   UNL     1       4.597  -1.231  -5.039  1.00  0.00     0.242 C 
ATOM     35  O   UNL     1       4.706  -2.457  -5.023  1.00  0.00    -0.273 OA
ATOM     36  N   UNL     1       4.016  -0.527  -4.007  1.00  0.00    -0.354 N 
ATOM     37  H   UNL     1       3.844   0.471  -4.129  1.00  0.00     0.163 HD
BRANCH  36  38
ATOM     38  C   UNL     1       3.735  -1.132  -2.721  1.00  0.00     0.116 C 
BRANCH  38  39
ATOM     39  C   UNL     1       4.938  -0.962  -1.795  1.00  0.00     0.023 C 
BRANCH  39  40
ATOM     40  C   UNL     1       5.174  -2.186  -0.917  1.00  0.00     0.026 C 
BRANCH  40  41
ATOM     41  C   UNL     1       6.640  -2.617  -0.971  1.00  0.00     0.146 C 
BRANCH  41  42
ATOM     42  N   UNL     1       7.145  -2.475  -2.330  1.00  0.00    -0.254 NA
ATOM     43  C   UNL     1       7.277  -3.513  -3.069  1.00  0.00     0.185 C 
ATOM     44  N   UNL     1       7.014  -4.805  -2.800  1.00  0.00    -0.370 N 
ATOM     45  N   UNL     1       7.749  -3.361  -4.317  1.00  0.00    -0.370 N 
ATOM     46  H   UNL     1       7.391  -5.536  -3.379  1.00  0.00     0.159 HD
ATOM     47  H   UNL     1       6.637  -5.097  -1.904  1.00  0.00     0.159 HD
ATOM     48  H   UNL     1       7.964  -2.415  -4.603  1.00  0.00     0.159 HD
ATOM     49  H   UNL     1       7.658  -4.070  -5.023  1.00  0.00     0.159 HD
ENDBRANCH  41  42
ENDBRANCH  40  41
ENDBRANCH  39  40
ENDBRANCH  38  39
ENDBRANCH  36  38
ENDBRANCH   5  34
BRANCH   8  50
ATOM     50  O   UNL     1       6.137  -4.827  -7.729  1.00  0.00    -0.245 OA
BRANCH  50  51
ATOM     51  S   UNL     1       6.871  -5.989  -6.858  1.00  0.00     0.397 S 
ATOM     52  O   UNL     1       6.395  -5.893  -5.497  1.00  0.00    -0.169 OA
ATOM     53  O   UNL     1       8.285  -6.009  -7.170  1.00  0.00    -0.169 OA
BRANCH  51  54
ATOM     54  O   UNL     1       6.211  -7.326  -7.460  1.00  0.00    -0.264 OA
ATOM     55  H   UNL     1       5.892  -7.121  -8.363  1.00  0.00     0.236 HD
ENDBRANCH  51  54
ENDBRANCH  50  51
ENDBRANCH   8  50
TORSDOF 19
ENDMDL
MODEL 7
REMARK VINA RESULT:    -6.509      3.096      7.169
REMARK INTER + INTRA:         -16.736
REMARK INTER:                 -12.237
REMARK INTRA:                  -4.500
REMARK UNBOUND:                -3.568
REMARK SMILES CC[C@@H](C)[C@@H](NC(=O)[C@@H](O)Cc1ccc(O)c(Cl)c1)C(=O)N1[C@H](C(=O)NCCCCN=C(N)N)C[C@H]2CC[C@H](OS(=O)(=O)O)C[C@@H]21
REMARK SMILES IDX 22 1 36 2 46 3 35 4 23 5 45 6 37 7 39 8 38 9 20 10 21 11
REMARK SMILES IDX 5 12 6 13 7 14 8 15 9 17 11 18 12 19 17 20 19 21 15 22 14 23
REMARK SMILES IDX 13 24 18 25 16 26 10 28 3 30 4 31 2 32 1 33 24 34 25 35
REMARK SMILES IDX 26 36 27 38 28 39 29 40 30 41 31 42 32 43 33 44 34 45 40 50
REMARK SMILES IDX 41 51 42 52 43 53 44 54
REMARK H PARENT 6 16 16 27 10 29 26 37 33 46 33 47 34 48 34 49 44 55
ROOT
ATOM      1  N   UNL     1       6.771  -0.024  -0.912  1.00  0.00    -0.326 N 
ATOM      2  C   UNL     1       5.117  -1.387  -1.887  1.00  0.00     0.014 C 
ATOM      3  C   UNL     1       5.648   0.050  -1.851  1.00  0.00     0.091 C 
ATOM      4  C   UNL     1       5.341  -1.863  -0.460  1.00  0.00     0.041 C 
ATOM      5  C   UNL     1       6.767  -1.335  -0.218  1.00  0.00     0.175 C 
ATOM      6  C   UNL     1       5.930   0.497  -3.284  1.00  0.00     0.059 C 
ATOM      7  C   UNL     1       3.721  -1.434  -2.477  1.00  0.00     0.008 C 
ATOM      8  C   UNL     1       4.986  -0.134  -4.330  1.00  0.00     0.143 C 
ATOM      9  C   UNL     1       3.624  -0.524  -3.720  1.00  0.00     0.034 C 
ENDROOT
BRANCH   1  10
ATOM     10  C   UNL     1       7.622   0.973  -0.466  1.00  0.00     0.246 C 
ATOM     11  O   UNL     1       8.843   0.800  -0.543  1.00  0.00    -0.272 OA
BRANCH  10  12
ATOM     12  C   UNL     1       7.026   2.303   0.080  1.00  0.00     0.174 C 
BRANCH  12  13
ATOM     13  N   UNL     1       6.762   3.223  -1.026  1.00  0.00    -0.342 N 
ATOM     14  C   UNL     1       5.746   4.151  -1.057  1.00  0.00     0.249 C 
ATOM     15  O   UNL     1       4.958   4.330  -0.137  1.00  0.00    -0.272 OA
ATOM     16  H   UNL     1       7.232   3.086  -1.918  1.00  0.00     0.164 HD
BRANCH  14  17
ATOM     17  C   UNL     1       5.718   4.961  -2.371  1.00  0.00     0.207 C 
BRANCH  17  18
ATOM     18  C   UNL     1       6.212   4.102  -3.540  1.00  0.00     0.077 C 
BRANCH  18  19
ATOM     19  C   UNL     1       5.191   4.029  -4.653  1.00  0.00    -0.043 A 
ATOM     20  C   UNL     1       2.997   4.572  -5.534  1.00  0.00     0.083 A 
ATOM     21  C   UNL     1       3.955   4.682  -4.525  1.00  0.00     0.028 A 
ATOM     22  C   UNL     1       3.265   3.810  -6.671  1.00  0.00     0.134 A 
ATOM     23  C   UNL     1       4.485   3.158  -6.811  1.00  0.00     0.048 A 
ATOM     24  C   UNL     1       5.445   3.265  -5.803  1.00  0.00     0.008 A 
ATOM     25  Cl  UNL     1       1.484   5.381  -5.358  1.00  0.00    -0.080 Cl
BRANCH  22  26
ATOM     26  O   UNL     1       2.352   3.664  -7.681  1.00  0.00    -0.506 OA
ATOM     27  H   UNL     1       2.553   4.353  -8.341  1.00  0.00     0.293 HD
ENDBRANCH  22  26
ENDBRANCH  18  19
ENDBRANCH  17  18
BRANCH  17  28
ATOM     28  O   UNL     1       6.533   6.140  -2.269  1.00  0.00    -0.383 OA
ATOM     29  H   UNL     1       6.276   6.576  -1.425  1.00  0.00     0.211 HD
ENDBRANCH  17  28
ENDBRANCH  14  17
ENDBRANCH  12  13
BRANCH  12  30
ATOM     30  C   UNL     1       7.905   2.945   1.187  1.00  0.00     0.018 C 
ATOM     31  C   UNL     1       7.073   3.235   2.446  1.00  0.00     0.010 C 
BRANCH  30  32
ATOM     32  C   UNL     1       8.643   4.227   0.729  1.00  0.00     0.002 C 
ATOM     33  C   UNL     1       8.213   5.510   1.429  1.00  0.00     0.004 C 
ENDBRANCH  30  32
ENDBRANCH  12  30
ENDBRANCH  10  12
ENDBRANCH   1  10
BRANCH   5  34
ATOM     34  C   UNL     1       7.838  -2.281  -0.825  1.00  0.00     0.242 C 
ATOM     35  O   UNL     1       8.584  -1.930  -1.739  1.00  0.00    -0.273 OA
ATOM     36  N   UNL     1       7.856  -3.556  -0.304  1.00  0.00    -0.354 N 
ATOM     37  H   UNL     1       7.134  -3.823   0.367  1.00  0.00     0.163 HD
BRANCH  36  38
ATOM     38  C   UNL     1       8.918  -4.496  -0.596  1.00  0.00     0.116 C 
BRANCH  38  39
ATOM     39  C   UNL     1       8.323  -5.840  -1.008  1.00  0.00     0.023 C 
BRANCH  39  40
ATOM     40  C   UNL     1       9.071  -6.474  -2.176  1.00  0.00     0.026 C 
BRANCH  40  41
ATOM     41  C   UNL     1       8.343  -6.209  -3.494  1.00  0.00     0.146 C 
BRANCH  41  42
ATOM     42  N   UNL     1       8.739  -4.910  -4.022  1.00  0.00    -0.254 NA
ATOM     43  C   UNL     1       7.851  -4.009  -4.218  1.00  0.00     0.185 C 
ATOM     44  N   UNL     1       6.522  -4.044  -4.011  1.00  0.00    -0.370 N 
ATOM     45  N   UNL     1       8.236  -2.819  -4.710  1.00  0.00    -0.370 N 
ATOM     46  H   UNL     1       5.919  -3.360  -4.435  1.00  0.00     0.159 HD
ATOM     47  H   UNL     1       6.064  -4.865  -3.629  1.00  0.00     0.159 HD
ATOM     48  H   UNL     1       9.225  -2.706  -4.887  1.00  0.00     0.159 HD
ATOM     49  H   UNL     1       7.656  -2.000  -4.668  1.00  0.00     0.159 HD
ENDBRANCH  41  42
ENDBRANCH  40  41
ENDBRANCH  39  40
ENDBRANCH  38  39
ENDBRANCH  36  38
ENDBRANCH   5  34
BRANCH   8  50
ATOM     50  O   UNL     1       5.584  -1.305  -4.888  1.00  0.00    -0.245 OA
BRANCH  50  51
ATOM     51  S   UNL     1       5.050  -1.878  -6.313  1.00  0.00     0.397 S 
ATOM     52  O   UNL     1       4.655  -0.750  -7.128  1.00  0.00    -0.169 OA
ATOM     53  O   UNL     1       4.161  -2.998  -6.085  1.00  0.00    -0.169 OA
BRANCH  51  54
ATOM     54  O   UNL     1       6.401  -2.444  -6.975  1.00  0.00    -0.264 OA
ATOM     55  H   UNL     1       7.157  -2.039  -6.503  1.00  0.00     0.236 HD
ENDBRANCH  51  54
ENDBRANCH  50  51
ENDBRANCH   8  50
TORSDOF 19
ENDMDL
MODEL 8
REMARK VINA RESULT:    -6.504      4.735      7.541
REMARK INTER + INTRA:         -16.725
REMARK INTER:                 -13.693
REMARK INTRA:                  -3.033
REMARK UNBOUND:                -3.568
REMARK SMILES CC[C@@H](C)[C@@H](NC(=O)[C@@H](O)Cc1ccc(O)c(Cl)c1)C(=O)N1[C@H](C(=O)NCCCCN=C(N)N)C[C@H]2CC[C@H](OS(=O)(=O)O)C[C@@H]21
REMARK SMILES IDX 22 1 36 2 46 3 35 4 23 5 45 6 37 7 39 8 38 9 20 10 21 11
REMARK SMILES IDX 5 12 6 13 7 14 8 15 9 17 11 18 12 19 17 20 19 21 15 22 14 23
REMARK SMILES IDX 13 24 18 25 16 26 10 28 3 30 4 31 2 32 1 33 24 34 25 35
REMARK SMILES IDX 26 36 27 38 28 39 29 40 30 41 31 42 32 43 33 44 34 45 40 50
REMARK SMILES IDX 41 51 42 52 43 53 44 54
REMARK H PARENT 6 16 16 27 10 29 26 37 33 46 33 47 34 48 34 49 44 55
ROOT
ATOM      1  N   UNL     1       5.680  -1.016  -6.487  1.00  0.00    -0.326 N 
ATOM      2  C   UNL     1       6.256   1.231  -6.082  1.00  0.00     0.014 C 
ATOM      3  C   UNL     1       5.650   0.298  -7.135  1.00  0.00     0.091 C 
ATOM      4  C   UNL     1       7.297   0.347  -5.412  1.00  0.00     0.041 C 
ATOM      5  C   UNL     1       6.484  -0.950  -5.242  1.00  0.00     0.175 C 
ATOM      6  C   UNL     1       4.297   0.865  -7.561  1.00  0.00     0.059 C 
ATOM      7  C   UNL     1       6.685   2.545  -6.704  1.00  0.00     0.008 C 
ATOM      8  C   UNL     1       4.226   2.407  -7.512  1.00  0.00     0.143 C 
ATOM      9  C   UNL     1       5.613   3.056  -7.690  1.00  0.00     0.034 C 
ENDROOT
BRANCH   1  10
ATOM     10  C   UNL     1       5.277  -2.251  -6.965  1.00  0.00     0.246 C 
ATOM     11  O   UNL     1       4.106  -2.608  -6.800  1.00  0.00    -0.272 OA
BRANCH  10  12
ATOM     12  C   UNL     1       6.293  -3.143  -7.736  1.00  0.00     0.174 C 
BRANCH  12  13
ATOM     13  N   UNL     1       5.917  -3.223  -9.147  1.00  0.00    -0.342 N 
ATOM     14  C   UNL     1       6.280  -2.313 -10.115  1.00  0.00     0.249 C 
ATOM     15  O   UNL     1       6.990  -1.338  -9.902  1.00  0.00    -0.272 OA
ATOM     16  H   UNL     1       5.204  -3.885  -9.441  1.00  0.00     0.164 HD
BRANCH  14  17
ATOM     17  C   UNL     1       5.711  -2.664 -11.506  1.00  0.00     0.207 C 
BRANCH  17  18
ATOM     18  C   UNL     1       4.356  -3.366 -11.369  1.00  0.00     0.077 C 
BRANCH  18  19
ATOM     19  C   UNL     1       3.941  -4.042 -12.656  1.00  0.00    -0.043 A 
ATOM     20  C   UNL     1       3.237  -3.901 -14.973  1.00  0.00     0.083 A 
ATOM     21  C   UNL     1       3.667  -3.278 -13.801  1.00  0.00     0.028 A 
ATOM     22  C   UNL     1       3.075  -5.287 -15.009  1.00  0.00     0.134 A 
ATOM     23  C   UNL     1       3.343  -6.055 -13.882  1.00  0.00     0.048 A 
ATOM     24  C   UNL     1       3.772  -5.435 -12.707  1.00  0.00     0.008 A 
ATOM     25  Cl  UNL     1       2.905  -2.945 -16.370  1.00  0.00    -0.080 Cl
BRANCH  22  26
ATOM     26  O   UNL     1       2.645  -5.941 -16.131  1.00  0.00    -0.506 OA
ATOM     27  H   UNL     1       1.821  -5.503 -16.412  1.00  0.00     0.293 HD
ENDBRANCH  22  26
ENDBRANCH  18  19
ENDBRANCH  17  18
BRANCH  17  28
ATOM     28  O   UNL     1       6.614  -3.509 -12.236  1.00  0.00    -0.383 OA
ATOM     29  H   UNL     1       6.269  -3.545 -13.157  1.00  0.00     0.211 HD
ENDBRANCH  17  28
ENDBRANCH  14  17
ENDBRANCH  12  13
BRANCH  12  30
ATOM     30  C   UNL     1       6.472  -4.544  -7.091  1.00  0.00     0.018 C 
ATOM     31  C   UNL     1       6.939  -4.417  -5.632  1.00  0.00     0.010 C 
BRANCH  30  32
ATOM     32  C   UNL     1       7.429  -5.472  -7.877  1.00  0.00     0.002 C 
ATOM     33  C   UNL     1       6.872  -6.850  -8.210  1.00  0.00     0.004 C 
ENDBRANCH  30  32
ENDBRANCH  12  30
ENDBRANCH  10  12
ENDBRANCH   1  10
BRANCH   5  34
ATOM     34  C   UNL     1       5.564  -0.889  -3.994  1.00  0.00     0.242 C 
ATOM     35  O   UNL     1       4.339  -0.799  -4.084  1.00  0.00    -0.273 OA
ATOM     36  N   UNL     1       6.218  -0.887  -2.783  1.00  0.00    -0.354 N 
ATOM     37  H   UNL     1       7.238  -0.841  -2.775  1.00  0.00     0.163 HD
BRANCH  36  38
ATOM     38  C   UNL     1       5.518  -1.050  -1.525  1.00  0.00     0.116 C 
BRANCH  38  39
ATOM     39  C   UNL     1       6.298  -0.366  -0.405  1.00  0.00     0.023 C 
BRANCH  39  40
ATOM     40  C   UNL     1       7.331   0.623  -0.934  1.00  0.00     0.026 C 
BRANCH  40  41
ATOM     41  C   UNL     1       6.773   2.046  -0.926  1.00  0.00     0.146 C 
BRANCH  41  42
ATOM     42  N   UNL     1       5.956   2.261  -2.113  1.00  0.00    -0.254 NA
ATOM     43  C   UNL     1       5.360   3.382  -2.277  1.00  0.00     0.185 C 
ATOM     44  N   UNL     1       5.348   4.478  -1.497  1.00  0.00    -0.370 N 
ATOM     45  N   UNL     1       4.607   3.559  -3.375  1.00  0.00    -0.370 N 
ATOM     46  H   UNL     1       4.648   5.189  -1.621  1.00  0.00     0.159 HD
ATOM     47  H   UNL     1       5.877   4.521  -0.631  1.00  0.00     0.159 HD
ATOM     48  H   UNL     1       4.569   2.782  -4.022  1.00  0.00     0.159 HD
ATOM     49  H   UNL     1       4.309   4.465  -3.690  1.00  0.00     0.159 HD
ENDBRANCH  41  42
ENDBRANCH  40  41
ENDBRANCH  39  40
ENDBRANCH  38  39
ENDBRANCH  36  38
ENDBRANCH   5  34
BRANCH   8  50
ATOM     50  O   UNL     1       3.682   2.834  -6.263  1.00  0.00    -0.245 OA
BRANCH  50  51
ATOM     51  S   UNL     1       2.740   4.159  -6.208  1.00  0.00     0.397 S 
ATOM     52  O   UNL     1       3.585   5.315  -6.406  1.00  0.00    -0.169 OA
ATOM     53  O   UNL     1       1.833   4.064  -5.083  1.00  0.00    -0.169 OA
BRANCH  51  54
ATOM     54  O   UNL     1       1.875   4.012  -7.556  1.00  0.00    -0.264 OA
ATOM     55  H   UNL     1       1.790   3.057  -7.753  1.00  0.00     0.236 HD
ENDBRANCH  51  54
ENDBRANCH  50  51
ENDBRANCH   8  50
TORSDOF 19
ENDMDL
MODEL 9
REMARK VINA RESULT:    -6.500      3.885      8.600
REMARK INTER + INTRA:         -16.717
REMARK INTER:                 -12.814
REMARK INTRA:                  -3.902
REMARK UNBOUND:                -3.568
REMARK SMILES CC[C@@H](C)[C@@H](NC(=O)[C@@H](O)Cc1ccc(O)c(Cl)c1)C(=O)N1[C@H](C(=O)NCCCCN=C(N)N)C[C@H]2CC[C@H](OS(=O)(=O)O)C[C@@H]21
REMARK SMILES IDX 22 1 36 2 46 3 35 4 23 5 45 6 37 7 39 8 38 9 20 10 21 11
REMARK SMILES IDX 5 12 6 13 7 14 8 15 9 17 11 18 12 19 17 20 19 21 15 22 14 23
REMARK SMILES IDX 13 24 18 25 16 26 10 28 3 30 4 31 2 32 1 33 24 34 25 35
REMARK SMILES IDX 26 36 27 38 28 39 29 40 30 41 31 42 32 43 33 44 34 45 40 50
REMARK SMILES IDX 41 51 42 52 43 53 44 54
REMARK H PARENT 6 16 16 27 10 29 26 37 33 46 33 47 34 48 34 49 44 55
ROOT
ATOM      1  N   UNL     1       6.350   1.774  -2.601  1.00  0.00    -0.326 N 
ATOM      2  C   UNL     1       4.516   1.509  -4.053  1.00  0.00     0.014 C 
ATOM      3  C   UNL     1       5.447   2.562  -3.445  1.00  0.00     0.091 C 
ATOM      4  C   UNL     1       4.380   0.493  -2.930  1.00  0.00     0.041 C 
ATOM      5  C   UNL     1       5.850   0.382  -2.484  1.00  0.00     0.175 C 
ATOM      6  C   UNL     1       6.052   3.385  -4.581  1.00  0.00     0.059 C 
ATOM      7  C   UNL     1       3.269   2.154  -4.627  1.00  0.00     0.008 C 
ATOM      8  C   UNL     1       5.118   3.542  -5.800  1.00  0.00     0.143 C 
ATOM      9  C   UNL     1       3.630   3.435  -5.408  1.00  0.00     0.034 C 
ENDROOT
BRANCH   1  10
ATOM     10  C   UNL     1       7.392   2.187  -1.789  1.00  0.00     0.246 C 
ATOM     11  O   UNL     1       8.542   2.186  -2.240  1.00  0.00    -0.272 OA
BRANCH  10  12
ATOM     12  C   UNL     1       7.089   2.683  -0.345  1.00  0.00     0.174 C 
BRANCH  12  13
ATOM     13  N   UNL     1       7.014   4.143  -0.325  1.00  0.00    -0.342 N 
ATOM     14  C   UNL     1       5.871   4.879  -0.543  1.00  0.00     0.249 C 
ATOM     15  O   UNL     1       4.771   4.383  -0.754  1.00  0.00    -0.272 OA
ATOM     16  H   UNL     1       7.870   4.691  -0.318  1.00  0.00     0.164 HD
BRANCH  14  17
ATOM     17  C   UNL     1       6.119   6.400  -0.473  1.00  0.00     0.207 C 
BRANCH  17  18
ATOM     18  C   UNL     1       7.085   6.733   0.669  1.00  0.00     0.077 C 
BRANCH  18  19
ATOM     19  C   UNL     1       7.709   8.100   0.498  1.00  0.00    -0.043 A 
ATOM     20  C   UNL     1       8.908   9.995   1.422  1.00  0.00     0.083 A 
ATOM     21  C   UNL     1       8.377   8.713   1.569  1.00  0.00     0.028 A 
ATOM     22  C   UNL     1       8.775  10.671   0.209  1.00  0.00     0.134 A 
ATOM     23  C   UNL     1       8.116  10.076  -0.860  1.00  0.00     0.048 A 
ATOM     24  C   UNL     1       7.581   8.794  -0.716  1.00  0.00     0.008 A 
ATOM     25  Cl  UNL     1       9.725  10.732   2.750  1.00  0.00    -0.080 Cl
BRANCH  22  26
ATOM     26  O   UNL     1       9.270  11.933   0.021  1.00  0.00    -0.506 OA
ATOM     27  H   UNL     1      10.231  11.883   0.175  1.00  0.00     0.293 HD
ENDBRANCH  22  26
ENDBRANCH  18  19
ENDBRANCH  17  18
BRANCH  17  28
ATOM     28  O   UNL     1       4.889   7.117  -0.281  1.00  0.00    -0.383 OA
ATOM     29  H   UNL     1       4.492   7.220  -1.176  1.00  0.00     0.211 HD
ENDBRANCH  17  28
ENDBRANCH  14  17
ENDBRANCH  12  13
BRANCH  12  30
ATOM     30  C   UNL     1       8.090   2.126   0.703  1.00  0.00     0.018 C 
ATOM     31  C   UNL     1       7.624   0.762   1.234  1.00  0.00     0.010 C 
BRANCH  30  32
ATOM     32  C   UNL     1       8.357   3.093   1.882  1.00  0.00     0.002 C 
ATOM     33  C   UNL     1       9.685   3.837   1.827  1.00  0.00     0.004 C 
ENDBRANCH  30  32
ENDBRANCH  12  30
ENDBRANCH  10  12
ENDBRANCH   1  10
BRANCH   5  34
ATOM     34  C   UNL     1       6.656  -0.572  -3.406  1.00  0.00     0.242 C 
ATOM     35  O   UNL     1       7.425  -0.155  -4.272  1.00  0.00    -0.273 OA
ATOM     36  N   UNL     1       6.409  -1.914  -3.221  1.00  0.00    -0.354 N 
ATOM     37  H   UNL     1       5.673  -2.192  -2.571  1.00  0.00     0.163 HD
BRANCH  36  38
ATOM     38  C   UNL     1       7.222  -2.942  -3.836  1.00  0.00     0.116 C 
BRANCH  38  39
ATOM     39  C   UNL     1       6.331  -4.079  -4.333  1.00  0.00     0.023 C 
BRANCH  39  40
ATOM     40  C   UNL     1       5.275  -3.601  -5.323  1.00  0.00     0.026 C 
BRANCH  40  41
ATOM     41  C   UNL     1       5.922  -3.162  -6.637  1.00  0.00     0.146 C 
BRANCH  41  42
ATOM     42  N   UNL     1       4.991  -2.334  -7.392  1.00  0.00    -0.254 NA
ATOM     43  C   UNL     1       5.155  -1.065  -7.424  1.00  0.00     0.185 C 
ATOM     44  N   UNL     1       6.099  -0.300  -6.847  1.00  0.00    -0.370 N 
ATOM     45  N   UNL     1       4.283  -0.319  -8.122  1.00  0.00    -0.370 N 
ATOM     46  H   UNL     1       5.967   0.693  -6.753  1.00  0.00     0.159 HD
ATOM     47  H   UNL     1       6.846  -0.704  -6.292  1.00  0.00     0.159 HD
ATOM     48  H   UNL     1       3.543  -0.820  -8.596  1.00  0.00     0.159 HD
ATOM     49  H   UNL     1       4.471   0.630  -8.390  1.00  0.00     0.159 HD
ENDBRANCH  41  42
ENDBRANCH  40  41
ENDBRANCH  39  40
ENDBRANCH  38  39
ENDBRANCH  36  38
ENDBRANCH   5  34
BRANCH   8  50
ATOM     50  O   UNL     1       5.404   2.535  -6.771  1.00  0.00    -0.245 OA
BRANCH  50  51
ATOM     51  S   UNL     1       5.458   2.931  -8.347  1.00  0.00     0.397 S 
ATOM     52  O   UNL     1       6.233   1.923  -9.035  1.00  0.00    -0.169 OA
ATOM     53  O   UNL     1       5.756   4.342  -8.484  1.00  0.00    -0.169 OA
BRANCH  51  54
ATOM     54  O   UNL     1       3.934   2.700  -8.804  1.00  0.00    -0.264 OA
ATOM     55  H   UNL     1       3.357   3.160  -8.161  1.00  0.00     0.236 HD
ENDBRANCH  51  54
ENDBRANCH  50  51
ENDBRANCH   8  50
TORSDOF 19
ENDMDL
MODEL 10
REMARK VINA RESULT:    -6.258      3.578      6.455
REMARK INTER + INTRA:         -16.227
REMARK INTER:                 -11.987
REMARK INTRA:                  -4.241
REMARK UNBOUND:                -3.568
REMARK SMILES CC[C@@H](C)[C@@H](NC(=O)[C@@H](O)Cc1ccc(O)c(Cl)c1)C(=O)N1[C@H](C(=O)NCCCCN=C(N)N)C[C@H]2CC[C@H](OS(=O)(=O)O)C[C@@H]21
REMARK SMILES IDX 22 1 36 2 46 3 35 4 23 5 45 6 37 7 39 8 38 9 20 10 21 11
REMARK SMILES IDX 5 12 6 13 7 14 8 15 9 17 11 18 12 19 17 20 19 21 15 22 14 23
REMARK SMILES IDX 13 24 18 25 16 26 10 28 3 30 4 31 2 32 1 33 24 34 25 35
REMARK SMILES IDX 26 36 27 38 28 39 29 40 30 41 31 42 32 43 33 44 34 45 40 50
REMARK SMILES IDX 41 51 42 52 43 53 44 54
REMARK H PARENT 6 16 16 27 10 29 26 37 33 46 33 47 34 48 34 49 44 55
ROOT
ATOM      1  N   UNL     1       6.527  -1.036  -6.386  1.00  0.00    -0.326 N 
ATOM      2  C   UNL     1       5.281  -2.252  -7.971  1.00  0.00     0.014 C 
ATOM      3  C   UNL     1       6.444  -1.265  -7.831  1.00  0.00     0.091 C 
ATOM      4  C   UNL     1       4.338  -1.817  -6.860  1.00  0.00     0.041 C 
ATOM      5  C   UNL     1       5.342  -1.621  -5.710  1.00  0.00     0.175 C 
ATOM      6  C   UNL     1       7.663  -1.851  -8.543  1.00  0.00     0.059 C 
ATOM      7  C   UNL     1       4.777  -2.296  -9.400  1.00  0.00     0.008 C 
ATOM      8  C   UNL     1       7.308  -2.725  -9.765  1.00  0.00     0.143 C 
ATOM      9  C   UNL     1       5.958  -2.322 -10.393  1.00  0.00     0.034 C 
ENDROOT
BRANCH   1  10
ATOM     10  C   UNL     1       7.381  -0.219  -5.664  1.00  0.00     0.246 C 
ATOM     11  O   UNL     1       8.160  -0.731  -4.853  1.00  0.00    -0.272 OA
BRANCH  10  12
ATOM     12  C   UNL     1       7.371   1.316  -5.918  1.00  0.00     0.174 C 
BRANCH  12  13
ATOM     13  N   UNL     1       6.070   1.874  -5.550  1.00  0.00    -0.342 N 
ATOM     14  C   UNL     1       5.819   2.610  -4.414  1.00  0.00     0.249 C 
ATOM     15  O   UNL     1       6.675   2.906  -3.590  1.00  0.00    -0.272 OA
ATOM     16  H   UNL     1       5.236   1.581  -6.053  1.00  0.00     0.164 HD
BRANCH  14  17
ATOM     17  C   UNL     1       4.342   3.043  -4.300  1.00  0.00     0.207 C 
BRANCH  17  18
ATOM     18  C   UNL     1       4.174   4.500  -4.743  1.00  0.00     0.077 C 
BRANCH  18  19
ATOM     19  C   UNL     1       3.464   4.605  -6.074  1.00  0.00    -0.043 A 
ATOM     20  C   UNL     1       1.417   4.563  -7.373  1.00  0.00     0.083 A 
ATOM     21  C   UNL     1       2.065   4.515  -6.139  1.00  0.00     0.028 A 
ATOM     22  C   UNL     1       2.159   4.698  -8.547  1.00  0.00     0.134 A 
ATOM     23  C   UNL     1       3.545   4.787  -8.497  1.00  0.00     0.048 A 
ATOM     24  C   UNL     1       4.197   4.739  -7.263  1.00  0.00     0.008 A 
ATOM     25  Cl  UNL     1      -0.303   4.451  -7.433  1.00  0.00    -0.080 Cl
BRANCH  22  26
ATOM     26  O   UNL     1       1.568   4.738  -9.781  1.00  0.00    -0.506 OA
ATOM     27  H   UNL     1       0.946   3.988  -9.819  1.00  0.00     0.293 HD
ENDBRANCH  22  26
ENDBRANCH  18  19
ENDBRANCH  17  18
BRANCH  17  28
ATOM     28  O   UNL     1       3.863   2.897  -2.953  1.00  0.00    -0.383 OA
ATOM     29  H   UNL     1       2.881   2.928  -3.009  1.00  0.00     0.211 HD
ENDBRANCH  17  28
ENDBRANCH  14  17
ENDBRANCH  12  13
BRANCH  12  30
ATOM     30  C   UNL     1       7.785   1.686  -7.368  1.00  0.00     0.018 C 
ATOM     31  C   UNL     1       9.186   2.318  -7.391  1.00  0.00     0.010 C 
BRANCH  30  32
ATOM     32  C   UNL     1       6.773   2.611  -8.087  1.00  0.00     0.002 C 
ATOM     33  C   UNL     1       5.805   1.908  -9.030  1.00  0.00     0.004 C 
ENDBRANCH  30  32
ENDBRANCH  12  30
ENDBRANCH  10  12
ENDBRANCH   1  10
BRANCH   5  34
ATOM     34  C   UNL     1       5.705  -2.969  -5.032  1.00  0.00     0.242 C 
ATOM     35  O   UNL     1       5.421  -4.056  -5.535  1.00  0.00    -0.273 OA
ATOM     36  N   UNL     1       6.319  -2.861  -3.804  1.00  0.00    -0.354 N 
ATOM     37  H   UNL     1       6.420  -1.936  -3.385  1.00  0.00     0.163 HD
BRANCH  36  38
ATOM     38  C   UNL     1       6.916  -3.998  -3.135  1.00  0.00     0.116 C 
BRANCH  38  39
ATOM     39  C   UNL     1       6.570  -3.965  -1.648  1.00  0.00     0.023 C 
BRANCH  39  40
ATOM     40  C   UNL     1       5.390  -3.049  -1.345  1.00  0.00     0.026 C 
BRANCH  40  41
ATOM     41  C   UNL     1       5.794  -1.952  -0.361  1.00  0.00     0.146 C 
BRANCH  41  42
ATOM     42  N   UNL     1       6.909  -1.188  -0.906  1.00  0.00    -0.254 NA
ATOM     43  C   UNL     1       6.676  -0.154  -1.625  1.00  0.00     0.185 C 
ATOM     44  N   UNL     1       5.506   0.398  -1.995  1.00  0.00    -0.370 N 
ATOM     45  N   UNL     1       7.717   0.534  -2.122  1.00  0.00    -0.370 N 
ATOM     46  H   UNL     1       5.467   1.056  -2.754  1.00  0.00     0.159 HD
ATOM     47  H   UNL     1       4.616   0.011  -1.694  1.00  0.00     0.159 HD
ATOM     48  H   UNL     1       8.637   0.190  -1.883  1.00  0.00     0.159 HD
ATOM     49  H   UNL     1       7.630   1.467  -2.483  1.00  0.00     0.159 HD
ENDBRANCH  41  42
ENDBRANCH  40  41
ENDBRANCH  39  40
ENDBRANCH  38  39
ENDBRANCH  36  38
ENDBRANCH   5  34
BRANCH   8  50
ATOM     50  O   UNL     1       7.237  -4.098  -9.382  1.00  0.00    -0.245 OA
BRANCH  50  51
ATOM     51  S   UNL     1       7.581  -5.255 -10.473  1.00  0.00     0.397 S 
ATOM     52  O   UNL     1       8.516  -4.704 -11.428  1.00  0.00    -0.169 OA
ATOM     53  O   UNL     1       6.357  -5.903 -10.896  1.00  0.00    -0.169 OA
BRANCH  51  54
ATOM     54  O   UNL     1       8.421  -6.307  -9.594  1.00  0.00    -0.264 OA
ATOM     55  H   UNL     1       8.484  -5.952  -8.684  1.00  0.00     0.236 HD
ENDBRANCH  51  54
ENDBRANCH  50  51
ENDBRANCH   8  50
TORSDOF 19
ENDMDL
