MODEL 1
REMARK VINA RESULT:    -4.396      0.000      0.000
REMARK INTER + INTRA:          -9.515
REMARK INTER:                  -7.479
REMARK INTRA:                  -2.035
REMARK UNBOUND:                -2.035
REMARK SMILES CC[C@H](C)[C@@H]1NC(=O)[C@H]2CSC(=N2)[C@@H]([C@@H](C)CC)NC(=O)c2csc(n2)CNC(=O)[C@H]2N=C1O[C@@H]2C
REMARK SMILES IDX 27 1 25 2 22 3 26 4 23 5 24 6 20 7 19 8 21 9 14 11 12 12
REMARK SMILES IDX 11 13 10 14 13 15 9 16 15 18 16 19 17 20 18 21 28 22 29 23
REMARK SMILES IDX 30 24 31 26 32 27 35 28 33 29 34 30 36 31 5 32 6 33 7 34
REMARK SMILES IDX 8 35 3 38 4 39 2 40 1 41
REMARK H PARENT 19 10 28 25 6 36
REMARK Flexibility Score:   91.900
ROOT
ATOM      1  C   UNL     1       5.714   6.559   4.344  1.00  0.00     0.183 C 
ENDROOT
BRANCH   1   2
ATOM      2  C   UNL     1       4.666   6.049   3.398  1.00  0.00     0.113 A 
ATOM      3  C   UNL     1       2.959   6.078   1.965  1.00  0.00     0.139 A 
ATOM      4  N   UNL     1       3.913   6.834   2.649  1.00  0.00    -0.234 NA
ATOM      5  C   UNL     1       3.053   4.716   2.172  1.00  0.00     0.101 A 
ATOM      6  S   UNL     1       4.336   4.370   3.258  1.00  0.00    -0.125 S 
BRANCH   3   7
ATOM      7  C   UNL     1       1.945   6.745   1.145  1.00  0.00     0.271 C 
ATOM      8  N   UNL     1       2.116   8.107   1.140  1.00  0.00    -0.341 N 
ATOM      9  O   UNL     1       1.041   6.155   0.568  1.00  0.00    -0.267 OA
ATOM     10  H   UNL     1       2.929   8.452   1.648  1.00  0.00     0.164 HD
BRANCH   8  11
ATOM     11  C   UNL     1       1.163   9.048   0.572  1.00  0.00     0.140 C 
BRANCH  11  12
ATOM     12  C   UNL     1       1.041  10.232   1.535  1.00  0.00     0.091 C 
ATOM     13  S   UNL     1       2.430  11.233   1.891  1.00  0.00    -0.106 SA
ATOM     14  C   UNL     1       1.364  12.447   2.697  1.00  0.00     0.113 C 
ATOM     15  N   UNL     1      -0.058  10.490   2.171  1.00  0.00    -0.267 NA
ATOM     16  C   UNL     1       0.151  11.632   3.117  1.00  0.00     0.205 CG0
ATOM     17  G   UNL     1       0.308  11.127   4.560  1.00  0.00     0.000 G0
ENDBRANCH  11  12
BRANCH  11  18
ATOM     18  C   UNL     1       1.429   9.394  -0.915  1.00  0.00     0.015 C 
ATOM     19  C   UNL     1       2.926   9.278  -1.233  1.00  0.00     0.010 C 
BRANCH  18  20
ATOM     20  C   UNL     1       0.576   8.599  -1.925  1.00  0.00     0.002 C 
ATOM     21  C   UNL     1      -0.415   9.473  -2.685  1.00  0.00     0.004 C 
ENDBRANCH  18  20
ENDBRANCH  11  18
ENDBRANCH   8  11
ENDBRANCH   3   7
ENDBRANCH   1   2
BRANCH   1  22
ATOM     22  N   UNL     1       5.071   7.492   5.241  1.00  0.00    -0.348 N 
ATOM     23  C   UNL     1       5.484   8.779   5.455  1.00  0.00     0.249 C 
ATOM     24  O   UNL     1       6.403   9.302   4.834  1.00  0.00    -0.272 OA
ATOM     25  H   UNL     1       4.307   7.154   5.826  1.00  0.00     0.163 HD
BRANCH  23  26
ATOM     26  C   UNL     1       4.635   9.510   6.506  1.00  0.00     0.238 C 
ATOM     27  N   UNL     1       3.385  10.008   5.867  1.00  0.00    -0.236 NA
ATOM     28  C   UNL     1       4.182   8.580   7.618  1.00  0.00     0.206 C 
ATOM     29  C   UNL     1       2.462   9.266   6.403  1.00  0.00     0.208 C 
ATOM     30  O   UNL     1       2.807   8.334   7.325  1.00  0.00    -0.474 OA
ATOM     31  C   UNL     1       4.278   9.225   8.994  1.00  0.00     0.056 C 
BRANCH  29  32
ATOM     32  C   UNL     1       0.974   9.287   6.063  1.00  0.00     0.171 C 
BRANCH  32  33
ATOM     33  N   UNL     1       0.749   9.880   4.754  1.00  0.00    -0.342 N 
ATOM     34  C   UNL     1       0.285  11.164   4.592  1.00  0.00     0.246 CG0
ATOM     35  O   UNL     1       0.001  11.897   5.536  1.00  0.00    -0.273 OA
ATOM     36  H   UNL     1       0.893   9.345   3.904  1.00  0.00     0.164 HD
ATOM     37  G   UNL     1       0.171  11.620   3.129  1.00  0.00     0.000 G0
ENDBRANCH  32  33
BRANCH  32  38
ATOM     38  C   UNL     1       0.370   7.863   6.182  1.00  0.00     0.017 C 
ATOM     39  C   UNL     1      -1.161   7.942   6.227  1.00  0.00     0.010 C 
BRANCH  38  40
ATOM     40  C   UNL     1       0.858   6.906   5.070  1.00  0.00     0.002 C 
ATOM     41  C   UNL     1       1.280   5.536   5.586  1.00  0.00     0.004 C 
ENDBRANCH  38  40
ENDBRANCH  32  38
ENDBRANCH  29  32
ENDBRANCH  23  26
ENDBRANCH   1  22
TORSDOF 4
ENDMDL
MODEL 2
REMARK VINA RESULT:    -4.396      8.037     10.372
REMARK INTER + INTRA:          -9.515
REMARK INTER:                  -8.384
REMARK INTRA:                  -1.131
REMARK UNBOUND:                -2.035
REMARK SMILES CC[C@H](C)[C@@H]1NC(=O)[C@H]2CSC(=N2)[C@@H]([C@@H](C)CC)NC(=O)c2csc(n2)CNC(=O)[C@H]2N=C1O[C@@H]2C
REMARK SMILES IDX 27 1 25 2 22 3 26 4 23 5 24 6 20 7 19 8 21 9 14 11 12 12
REMARK SMILES IDX 11 13 10 14 13 15 9 16 15 18 16 19 17 20 18 21 28 22 29 23
REMARK SMILES IDX 30 24 31 26 32 27 35 28 33 29 34 30 36 31 5 32 6 33 7 34
REMARK SMILES IDX 8 35 3 38 4 39 2 40 1 41
REMARK H PARENT 19 10 28 25 6 36
REMARK Flexibility Score:   91.900
ROOT
ATOM      1  C   UNL     1       0.714  -0.653  10.611  1.00  0.00     0.183 C 
ENDROOT
BRANCH   1   2
ATOM      2  C   UNL     1       1.099   0.658   9.987  1.00  0.00     0.113 A 
ATOM      3  C   UNL     1       0.898   2.741   9.221  1.00  0.00     0.139 A 
ATOM      4  N   UNL     1       0.311   1.717   9.967  1.00  0.00    -0.234 NA
ATOM      5  C   UNL     1       2.158   2.446   8.738  1.00  0.00     0.101 A 
ATOM      6  S   UNL     1       2.611   0.856   9.200  1.00  0.00    -0.125 S 
BRANCH   3   7
ATOM      7  C   UNL     1       0.162   3.983   8.974  1.00  0.00     0.271 C 
ATOM      8  N   UNL     1      -0.633   3.887   7.859  1.00  0.00    -0.341 N 
ATOM      9  O   UNL     1       0.276   4.989   9.664  1.00  0.00    -0.267 OA
ATOM     10  H   UNL     1      -0.642   2.977   7.401  1.00  0.00     0.164 HD
BRANCH   8  11
ATOM     11  C   UNL     1      -1.336   5.009   7.258  1.00  0.00     0.140 C 
BRANCH  11  12
ATOM     12  C   UNL     1      -2.429   5.456   8.232  1.00  0.00     0.091 C 
ATOM     13  S   UNL     1      -2.285   6.971   9.092  1.00  0.00    -0.106 SA
ATOM     14  C   UNL     1      -4.006   6.847   9.624  1.00  0.00     0.113 C 
ATOM     15  N   UNL     1      -3.450   4.708   8.510  1.00  0.00    -0.267 NA
ATOM     16  C   UNL     1      -4.289   5.354   9.568  1.00  0.00     0.205 CG0
ATOM     17  G   UNL     1      -4.041   4.702  10.938  1.00  0.00     0.000 G0
ENDBRANCH  11  12
BRANCH  11  18
ATOM     18  C   UNL     1      -0.400   6.119   6.714  1.00  0.00     0.015 C 
ATOM     19  C   UNL     1       0.891   5.506   6.156  1.00  0.00     0.010 C 
BRANCH  18  20
ATOM     20  C   UNL     1      -1.057   7.074   5.696  1.00  0.00     0.002 C 
ATOM     21  C   UNL     1      -0.047   7.951   4.965  1.00  0.00     0.004 C 
ENDBRANCH  18  20
ENDBRANCH  11  18
ENDBRANCH   8  11
ENDBRANCH   3   7
ENDBRANCH   1   2
BRANCH   1  22
ATOM     22  N   UNL     1      -0.716  -0.628  10.824  1.00  0.00    -0.348 N 
ATOM     23  C   UNL     1      -1.321  -0.629  12.051  1.00  0.00     0.249 C 
ATOM     24  O   UNL     1      -0.700  -0.565  13.107  1.00  0.00    -0.272 OA
ATOM     25  H   UNL     1      -1.328  -0.701  10.012  1.00  0.00     0.163 HD
BRANCH  23  26
ATOM     26  C   UNL     1      -2.854  -0.656  11.959  1.00  0.00     0.238 C 
ATOM     27  N   UNL     1      -3.416   0.429  12.811  1.00  0.00    -0.236 NA
ATOM     28  C   UNL     1      -3.344  -0.363  10.552  1.00  0.00     0.206 C 
ATOM     29  C   UNL     1      -3.903   1.266  11.944  1.00  0.00     0.208 C 
ATOM     30  O   UNL     1      -3.815   0.982  10.622  1.00  0.00    -0.474 OA
ATOM     31  C   UNL     1      -4.501  -1.262  10.137  1.00  0.00     0.056 C 
BRANCH  29  32
ATOM     32  C   UNL     1      -4.546   2.615  12.252  1.00  0.00     0.171 C 
BRANCH  32  33
ATOM     33  N   UNL     1      -4.646   3.429  11.051  1.00  0.00    -0.342 N 
ATOM     34  C   UNL     1      -4.082   4.678  10.953  1.00  0.00     0.246 CG0
ATOM     35  O   UNL     1      -3.473   5.213  11.876  1.00  0.00    -0.273 OA
ATOM     36  H   UNL     1      -5.176   3.112  10.246  1.00  0.00     0.164 HD
ATOM     37  G   UNL     1      -4.251   5.348   9.579  1.00  0.00     0.000 G0
ENDBRANCH  32  33
BRANCH  32  38
ATOM     38  C   UNL     1      -5.916   2.416  12.952  1.00  0.00     0.017 C 
ATOM     39  C   UNL     1      -5.833   2.876  14.413  1.00  0.00     0.010 C 
BRANCH  38  40
ATOM     40  C   UNL     1      -7.081   3.106  12.204  1.00  0.00     0.002 C 
ATOM     41  C   UNL     1      -7.693   4.270  12.971  1.00  0.00     0.004 C 
ENDBRANCH  38  40
ENDBRANCH  32  38
ENDBRANCH  29  32
ENDBRANCH  23  26
ENDBRANCH   1  22
TORSDOF 4
ENDMDL
MODEL 3
REMARK VINA RESULT:    -4.394      6.106      9.890
REMARK INTER + INTRA:          -9.513
REMARK INTER:                  -8.047
REMARK INTRA:                  -1.465
REMARK UNBOUND:                -2.035
REMARK SMILES CC[C@H](C)[C@@H]1NC(=O)[C@H]2CSC(=N2)[C@@H]([C@@H](C)CC)NC(=O)c2csc(n2)CNC(=O)[C@H]2N=C1O[C@@H]2C
REMARK SMILES IDX 27 1 25 2 22 3 26 4 23 5 24 6 20 7 19 8 21 9 14 11 12 12
REMARK SMILES IDX 11 13 10 14 13 15 9 16 15 18 16 19 17 20 18 21 28 22 29 23
REMARK SMILES IDX 30 24 31 26 32 27 35 28 33 29 34 30 36 31 5 32 6 33 7 34
REMARK SMILES IDX 8 35 3 38 4 39 2 40 1 41
REMARK H PARENT 19 10 28 25 6 36
REMARK Flexibility Score:   91.900
ROOT
ATOM      1  C   UNL     1      -6.301  10.527   4.187  1.00  0.00     0.183 C 
ENDROOT
BRANCH   1   2
ATOM      2  C   UNL     1      -6.858  10.724   5.568  1.00  0.00     0.113 A 
ATOM      3  C   UNL     1      -6.902  11.003   7.779  1.00  0.00     0.139 A 
ATOM      4  N   UNL     1      -6.114  10.989   6.626  1.00  0.00    -0.234 NA
ATOM      5  C   UNL     1      -8.250  10.804   7.553  1.00  0.00     0.101 A 
ATOM      6  S   UNL     1      -8.540  10.569   5.877  1.00  0.00    -0.125 S 
BRANCH   3   7
ATOM      7  C   UNL     1      -6.277  11.179   9.091  1.00  0.00     0.271 C 
ATOM      8  N   UNL     1      -5.645  12.394   9.192  1.00  0.00    -0.341 N 
ATOM      9  O   UNL     1      -6.292  10.328   9.971  1.00  0.00    -0.267 OA
ATOM     10  H   UNL     1      -5.739  13.008   8.384  1.00  0.00     0.164 HD
BRANCH   8  11
ATOM     11  C   UNL     1      -4.783  12.777  10.299  1.00  0.00     0.140 C 
BRANCH  11  12
ATOM     12  C   UNL     1      -3.371  12.984   9.744  1.00  0.00     0.091 C 
ATOM     13  S   UNL     1      -3.128  13.792   8.213  1.00  0.00    -0.106 SA
ATOM     14  C   UNL     1      -1.357  13.910   8.541  1.00  0.00     0.113 C 
ATOM     15  N   UNL     1      -2.322  12.511  10.341  1.00  0.00    -0.267 NA
ATOM     16  C   UNL     1      -1.100  12.773   9.518  1.00  0.00     0.205 CG0
ATOM     17  G   UNL     1      -0.660  11.504   8.770  1.00  0.00     0.000 G0
ENDBRANCH  11  12
BRANCH  11  18
ATOM     18  C   UNL     1      -5.354  13.922  11.175  1.00  0.00     0.015 C 
ATOM     19  C   UNL     1      -5.771  13.385  12.551  1.00  0.00     0.010 C 
BRANCH  18  20
ATOM     20  C   UNL     1      -4.435  15.153  11.305  1.00  0.00     0.002 C 
ATOM     21  C   UNL     1      -5.010  16.399  10.640  1.00  0.00     0.004 C 
ENDBRANCH  18  20
ENDBRANCH  11  18
ENDBRANCH   8  11
ENDBRANCH   3   7
ENDBRANCH   1   2
BRANCH   1  22
ATOM     22  N   UNL     1      -4.892  10.846   4.240  1.00  0.00    -0.348 N 
ATOM     23  C   UNL     1      -3.961  10.414   3.334  1.00  0.00     0.249 C 
ATOM     24  O   UNL     1      -4.247   9.774   2.329  1.00  0.00    -0.272 OA
ATOM     25  H   UNL     1      -4.540  11.356   5.049  1.00  0.00     0.163 HD
BRANCH  23  26
ATOM     26  C   UNL     1      -2.536  10.868   3.684  1.00  0.00     0.238 C 
ATOM     27  N   UNL     1      -2.447  11.126   5.148  1.00  0.00    -0.236 NA
ATOM     28  C   UNL     1      -1.508   9.786   3.398  1.00  0.00     0.206 C 
ATOM     29  C   UNL     1      -1.682  10.166   5.573  1.00  0.00     0.208 C 
ATOM     30  O   UNL     1      -1.183   9.269   4.688  1.00  0.00    -0.474 OA
ATOM     31  C   UNL     1      -0.240  10.338   2.762  1.00  0.00     0.056 C 
BRANCH  29  32
ATOM     32  C   UNL     1      -1.303   9.887   7.025  1.00  0.00     0.171 C 
BRANCH  32  33
ATOM     33  N   UNL     1      -1.574  11.043   7.864  1.00  0.00    -0.342 N 
ATOM     34  C   UNL     1      -0.670  11.522   8.782  1.00  0.00     0.246 CG0
ATOM     35  O   UNL     1       0.422  10.997   8.983  1.00  0.00    -0.273 OA
ATOM     36  H   UNL     1      -2.468  11.521   7.825  1.00  0.00     0.164 HD
ATOM     37  G   UNL     1      -1.126  12.788   9.525  1.00  0.00     0.000 G0
ENDBRANCH  32  33
BRANCH  32  38
ATOM     38  C   UNL     1      -2.011   8.604   7.534  1.00  0.00     0.017 C 
ATOM     39  C   UNL     1      -1.058   7.794   8.423  1.00  0.00     0.010 C 
BRANCH  38  40
ATOM     40  C   UNL     1      -3.348   8.898   8.253  1.00  0.00     0.002 C 
ATOM     41  C   UNL     1      -3.629   7.963   9.422  1.00  0.00     0.004 C 
ENDBRANCH  38  40
ENDBRANCH  32  38
ENDBRANCH  29  32
ENDBRANCH  23  26
ENDBRANCH   1  22
TORSDOF 4
ENDMDL
MODEL 4
REMARK VINA RESULT:    -4.244      7.089     11.017
REMARK INTER + INTRA:          -9.256
REMARK INTER:                  -7.964
REMARK INTRA:                  -1.292
REMARK UNBOUND:                -2.035
REMARK SMILES CC[C@H](C)[C@@H]1NC(=O)[C@H]2CSC(=N2)[C@@H]([C@@H](C)CC)NC(=O)c2csc(n2)CNC(=O)[C@H]2N=C1O[C@@H]2C
REMARK SMILES IDX 27 1 25 2 22 3 26 4 23 5 24 6 20 7 19 8 21 9 14 11 12 12
REMARK SMILES IDX 11 13 10 14 13 15 9 16 15 18 16 19 17 20 18 21 28 22 29 23
REMARK SMILES IDX 30 24 31 26 32 27 35 28 33 29 34 30 36 31 5 32 6 33 7 34
REMARK SMILES IDX 8 35 3 38 4 39 2 40 1 41
REMARK H PARENT 19 10 28 25 6 36
REMARK Flexibility Score:   91.900
ROOT
ATOM      1  C   UNL     1      -6.079  13.766  12.569  1.00  0.00     0.183 C 
ENDROOT
BRANCH   1   2
ATOM      2  C   UNL     1      -4.656  13.598  12.120  1.00  0.00     0.113 A 
ATOM      3  C   UNL     1      -2.756  12.584  11.546  1.00  0.00     0.139 A 
ATOM      4  N   UNL     1      -4.118  12.432  11.814  1.00  0.00    -0.234 NA
ATOM      5  C   UNL     1      -2.305  13.889  11.599  1.00  0.00     0.101 A 
ATOM      6  S   UNL     1      -3.594  14.943  12.016  1.00  0.00    -0.125 S 
BRANCH   3   7
ATOM      7  C   UNL     1      -1.925  11.408  11.278  1.00  0.00     0.271 C 
ATOM      8  N   UNL     1      -1.202  11.552  10.120  1.00  0.00    -0.341 N 
ATOM      9  O   UNL     1      -1.911  10.410  11.987  1.00  0.00    -0.267 OA
ATOM     10  H   UNL     1      -1.299  12.451   9.649  1.00  0.00     0.164 HD
BRANCH   8  11
ATOM     11  C   UNL     1      -0.434  10.486   9.498  1.00  0.00     0.140 C 
BRANCH  11  12
ATOM     12  C   UNL     1      -1.210  10.003   8.270  1.00  0.00     0.091 C 
ATOM     13  S   UNL     1      -0.641  10.372   6.659  1.00  0.00    -0.106 SA
ATOM     14  C   UNL     1      -1.825   9.203   5.959  1.00  0.00     0.113 C 
ATOM     15  N   UNL     1      -2.341   9.378   8.374  1.00  0.00    -0.267 NA
ATOM     16  C   UNL     1      -2.917   9.128   7.015  1.00  0.00     0.205 CG0
ATOM     17  G   UNL     1      -4.043  10.127   6.704  1.00  0.00     0.000 G0
ENDBRANCH  11  12
BRANCH  11  18
ATOM     18  C   UNL     1       1.061  10.832   9.277  1.00  0.00     0.015 C 
ATOM     19  C   UNL     1       1.324  12.306   9.611  1.00  0.00     0.010 C 
BRANCH  18  20
ATOM     20  C   UNL     1       2.052   9.903  10.006  1.00  0.00     0.002 C 
ATOM     21  C   UNL     1       1.364   8.905  10.930  1.00  0.00     0.004 C 
ENDBRANCH  18  20
ENDBRANCH  11  18
ENDBRANCH   8  11
ENDBRANCH   3   7
ENDBRANCH   1   2
BRANCH   1  22
ATOM     22  N   UNL     1      -6.918  13.080  11.612  1.00  0.00    -0.348 N 
ATOM     23  C   UNL     1      -7.411  11.814  11.773  1.00  0.00     0.249 C 
ATOM     24  O   UNL     1      -7.257  11.158  12.797  1.00  0.00    -0.272 OA
ATOM     25  H   UNL     1      -7.092  13.527  10.712  1.00  0.00     0.163 HD
BRANCH  23  26
ATOM     26  C   UNL     1      -8.225  11.333  10.562  1.00  0.00     0.238 C 
ATOM     27  N   UNL     1      -7.643  11.910   9.319  1.00  0.00    -0.236 NA
ATOM     28  C   UNL     1      -8.146   9.826  10.387  1.00  0.00     0.206 C 
ATOM     29  C   UNL     1      -7.131  10.876   8.722  1.00  0.00     0.208 C 
ATOM     30  O   UNL     1      -7.248   9.651   9.292  1.00  0.00    -0.474 OA
ATOM     31  C   UNL     1      -9.489   9.210  10.017  1.00  0.00     0.056 C 
BRANCH  29  32
ATOM     32  C   UNL     1      -6.332  10.885   7.421  1.00  0.00     0.171 C 
BRANCH  32  33
ATOM     33  N   UNL     1      -5.178  10.006   7.514  1.00  0.00    -0.342 N 
ATOM     34  C   UNL     1      -4.079  10.136   6.698  1.00  0.00     0.246 CG0
ATOM     35  O   UNL     1      -3.998  10.985   5.814  1.00  0.00    -0.273 OA
ATOM     36  H   UNL     1      -5.160   9.231   8.169  1.00  0.00     0.164 HD
ATOM     37  G   UNL     1      -2.942   9.145   6.997  1.00  0.00     0.000 G0
ENDBRANCH  32  33
BRANCH  32  38
ATOM     38  C   UNL     1      -7.249  10.538   6.219  1.00  0.00     0.017 C 
ATOM     39  C   UNL     1      -8.602  10.018   6.721  1.00  0.00     0.010 C 
BRANCH  38  40
ATOM     40  C   UNL     1      -7.422  11.716   5.233  1.00  0.00     0.002 C 
ATOM     41  C   UNL     1      -7.252  11.319   3.773  1.00  0.00     0.004 C 
ENDBRANCH  38  40
ENDBRANCH  32  38
ENDBRANCH  29  32
ENDBRANCH  23  26
ENDBRANCH   1  22
TORSDOF 4
ENDMDL
MODEL 5
REMARK VINA RESULT:    -4.177      8.664     11.488
REMARK INTER + INTRA:          -9.143
REMARK INTER:                  -8.266
REMARK INTRA:                  -0.876
REMARK UNBOUND:                -2.035
REMARK SMILES CC[C@H](C)[C@@H]1NC(=O)[C@H]2CSC(=N2)[C@@H]([C@@H](C)CC)NC(=O)c2csc(n2)CNC(=O)[C@H]2N=C1O[C@@H]2C
REMARK SMILES IDX 27 1 25 2 22 3 26 4 23 5 24 6 20 7 19 8 21 9 14 11 12 12
REMARK SMILES IDX 11 13 10 14 13 15 9 16 15 18 16 19 17 20 18 21 28 22 29 23
REMARK SMILES IDX 30 24 31 26 32 27 35 28 33 29 34 30 36 31 5 32 6 33 7 34
REMARK SMILES IDX 8 35 3 38 4 39 2 40 1 41
REMARK H PARENT 19 10 28 25 6 36
REMARK Flexibility Score:   91.900
ROOT
ATOM      1  C   UNL     1       1.498  -2.210  12.309  1.00  0.00     0.183 C 
ENDROOT
BRANCH   1   2
ATOM      2  C   UNL     1       2.570  -1.223  11.943  1.00  0.00     0.113 A 
ATOM      3  C   UNL     1       3.556   0.740  11.567  1.00  0.00     0.139 A 
ATOM      4  N   UNL     1       2.447   0.082  12.102  1.00  0.00    -0.234 NA
ATOM      5  C   UNL     1       4.530  -0.100  11.062  1.00  0.00     0.101 A 
ATOM      6  S   UNL     1       4.046  -1.737  11.234  1.00  0.00    -0.125 S 
BRANCH   3   7
ATOM      7  C   UNL     1       3.597   2.203  11.539  1.00  0.00     0.271 C 
ATOM      8  N   UNL     1       2.943   2.707  10.441  1.00  0.00    -0.341 N 
ATOM      9  O   UNL     1       4.176   2.884  12.376  1.00  0.00    -0.267 OA
ATOM     10  H   UNL     1       2.488   2.017   9.844  1.00  0.00     0.164 HD
BRANCH   8  11
ATOM     11  C   UNL     1       2.972   4.104  10.042  1.00  0.00     0.140 C 
BRANCH  11  12
ATOM     12  C   UNL     1       1.992   4.869  10.937  1.00  0.00     0.091 C 
ATOM     13  S   UNL     1       2.577   5.829  12.275  1.00  0.00    -0.106 SA
ATOM     14  C   UNL     1       0.944   6.576  12.469  1.00  0.00     0.113 C 
ATOM     15  N   UNL     1       0.709   4.776  10.785  1.00  0.00    -0.267 NA
ATOM     16  C   UNL     1       0.007   5.542  11.863  1.00  0.00     0.205 CG0
ATOM     17  G   UNL     1      -0.532   4.595  12.947  1.00  0.00     0.000 G0
ENDBRANCH  11  12
BRANCH  11  18
ATOM     18  C   UNL     1       4.400   4.695   9.922  1.00  0.00     0.015 C 
ATOM     19  C   UNL     1       5.344   3.683   9.259  1.00  0.00     0.010 C 
BRANCH  18  20
ATOM     20  C   UNL     1       4.472   6.070   9.227  1.00  0.00     0.002 C 
ATOM     21  C   UNL     1       5.639   6.923   9.715  1.00  0.00     0.004 C 
ENDBRANCH  18  20
ENDBRANCH  11  18
ENDBRANCH   8  11
ENDBRANCH   3   7
ENDBRANCH   1   2
BRANCH   1  22
ATOM     22  N   UNL     1       0.224  -1.549  12.136  1.00  0.00    -0.348 N 
ATOM     23  C   UNL     1      -0.571  -1.109  13.159  1.00  0.00     0.249 C 
ATOM     24  O   UNL     1      -0.237  -1.156  14.338  1.00  0.00    -0.272 OA
ATOM     25  H   UNL     1      -0.160  -1.476  11.195  1.00  0.00     0.163 HD
BRANCH  23  26
ATOM     26  C   UNL     1      -1.891  -0.497  12.667  1.00  0.00     0.238 C 
ATOM     27  N   UNL     1      -2.338   0.546  13.631  1.00  0.00    -0.236 NA
ATOM     28  C   UNL     1      -1.724   0.222  11.339  1.00  0.00     0.206 C 
ATOM     29  C   UNL     1      -2.186   1.652  12.965  1.00  0.00     0.208 C 
ATOM     30  O   UNL     1      -1.728   1.605  11.690  1.00  0.00    -0.474 OA
ATOM     31  C   UNL     1      -2.880  -0.040  10.383  1.00  0.00     0.056 C 
BRANCH  29  32
ATOM     32  C   UNL     1      -2.425   3.064  13.492  1.00  0.00     0.171 C 
BRANCH  32  33
ATOM     33  N   UNL     1      -1.774   4.051  12.644  1.00  0.00    -0.342 N 
ATOM     34  C   UNL     1      -0.543   4.586  12.941  1.00  0.00     0.246 CG0
ATOM     35  O   UNL     1       0.089   4.292  13.952  1.00  0.00    -0.273 OA
ATOM     36  H   UNL     1      -2.231   4.411  11.813  1.00  0.00     0.164 HD
ATOM     37  G   UNL     1      -0.005   5.567  11.887  1.00  0.00     0.000 G0
ENDBRANCH  32  33
BRANCH  32  38
ATOM     38  C   UNL     1      -3.944   3.332  13.657  1.00  0.00     0.017 C 
ATOM     39  C   UNL     1      -4.286   3.528  15.140  1.00  0.00     0.010 C 
BRANCH  38  40
ATOM     40  C   UNL     1      -4.445   4.515  12.796  1.00  0.00     0.002 C 
ATOM     41  C   UNL     1      -5.922   4.424  12.437  1.00  0.00     0.004 C 
ENDBRANCH  38  40
ENDBRANCH  32  38
ENDBRANCH  29  32
ENDBRANCH  23  26
ENDBRANCH   1  22
TORSDOF 4
ENDMDL
MODEL 6
REMARK VINA RESULT:    -4.130      9.861     13.314
REMARK INTER + INTRA:          -9.062
REMARK INTER:                  -7.419
REMARK INTRA:                  -1.643
REMARK UNBOUND:                -2.035
REMARK SMILES CC[C@H](C)[C@@H]1NC(=O)[C@H]2CSC(=N2)[C@@H]([C@@H](C)CC)NC(=O)c2csc(n2)CNC(=O)[C@H]2N=C1O[C@@H]2C
REMARK SMILES IDX 27 1 25 2 22 3 26 4 23 5 24 6 20 7 19 8 21 9 14 11 12 12
REMARK SMILES IDX 11 13 10 14 13 15 9 16 15 18 16 19 17 20 18 21 28 22 29 23
REMARK SMILES IDX 30 24 31 26 32 27 35 28 33 29 34 30 36 31 5 32 6 33 7 34
REMARK SMILES IDX 8 35 3 38 4 39 2 40 1 41
REMARK H PARENT 19 10 28 25 6 36
REMARK Flexibility Score:   91.900
ROOT
ATOM      1  C   UNL     1      -6.198   0.568  12.890  1.00  0.00     0.183 C 
ENDROOT
BRANCH   1   2
ATOM      2  C   UNL     1      -5.225   1.594  13.396  1.00  0.00     0.113 A 
ATOM      3  C   UNL     1      -3.329   2.746  13.601  1.00  0.00     0.139 A 
ATOM      4  N   UNL     1      -4.049   1.822  12.842  1.00  0.00    -0.234 NA
ATOM      5  C   UNL     1      -4.011   3.244  14.693  1.00  0.00     0.101 A 
ATOM      6  S   UNL     1      -5.569   2.531  14.793  1.00  0.00    -0.125 S 
BRANCH   3   7
ATOM      7  C   UNL     1      -1.951   3.081  13.234  1.00  0.00     0.271 C 
ATOM      8  N   UNL     1      -1.840   3.373  11.897  1.00  0.00    -0.341 N 
ATOM      9  O   UNL     1      -1.014   3.067  14.023  1.00  0.00    -0.267 OA
ATOM     10  H   UNL     1      -2.713   3.367  11.371  1.00  0.00     0.164 HD
BRANCH   8  11
ATOM     11  C   UNL     1      -0.576   3.559  11.203  1.00  0.00     0.140 C 
BRANCH  11  12
ATOM     12  C   UNL     1      -0.704   2.926   9.815  1.00  0.00     0.091 C 
ATOM     13  S   UNL     1      -2.189   3.076   8.905  1.00  0.00    -0.106 SA
ATOM     14  C   UNL     1      -1.363   2.442   7.430  1.00  0.00     0.113 C 
ATOM     15  N   UNL     1       0.240   2.203   9.301  1.00  0.00    -0.267 NA
ATOM     16  C   UNL     1      -0.206   1.631   7.991  1.00  0.00     0.205 CG0
ATOM     17  G   UNL     1      -0.602   0.153   8.145  1.00  0.00     0.000 G0
ENDBRANCH  11  12
BRANCH  11  18
ATOM     18  C   UNL     1      -0.040   5.013  11.251  1.00  0.00     0.015 C 
ATOM     19  C   UNL     1      -1.127   5.968  11.761  1.00  0.00     0.010 C 
BRANCH  18  20
ATOM     20  C   UNL     1       1.277   5.189  12.033  1.00  0.00     0.002 C 
ATOM     21  C   UNL     1       1.105   5.994  13.316  1.00  0.00     0.004 C 
ENDBRANCH  18  20
ENDBRANCH  11  18
ENDBRANCH   8  11
ENDBRANCH   3   7
ENDBRANCH   1   2
BRANCH   1  22
ATOM     22  N   UNL     1      -5.692   0.077  11.628  1.00  0.00    -0.348 N 
ATOM     23  C   UNL     1      -5.430  -1.237  11.351  1.00  0.00     0.249 C 
ATOM     24  O   UNL     1      -5.680  -2.151  12.128  1.00  0.00    -0.272 OA
ATOM     25  H   UNL     1      -5.429   0.756  10.915  1.00  0.00     0.163 HD
BRANCH  23  26
ATOM     26  C   UNL     1      -4.848  -1.444   9.944  1.00  0.00     0.238 C 
ATOM     27  N   UNL     1      -3.524  -0.768   9.856  1.00  0.00    -0.236 NA
ATOM     28  C   UNL     1      -4.576  -2.910   9.651  1.00  0.00     0.206 C 
ATOM     29  C   UNL     1      -2.688  -1.759   9.777  1.00  0.00     0.208 C 
ATOM     30  O   UNL     1      -3.159  -3.030   9.773  1.00  0.00    -0.474 OA
ATOM     31  C   UNL     1      -4.979  -3.308   8.238  1.00  0.00     0.056 C 
BRANCH  29  32
ATOM     32  C   UNL     1      -1.165  -1.658   9.737  1.00  0.00     0.171 C 
BRANCH  32  33
ATOM     33  N   UNL     1      -0.744  -0.304   9.412  1.00  0.00    -0.342 N 
ATOM     34  C   UNL     1      -0.602   0.137   8.118  1.00  0.00     0.246 CG0
ATOM     35  O   UNL     1      -0.794  -0.581   7.140  1.00  0.00    -0.273 OA
ATOM     36  H   UNL     1      -0.501   0.359  10.140  1.00  0.00     0.164 HD
ATOM     37  G   UNL     1      -0.204   1.617   7.989  1.00  0.00     0.000 G0
ENDBRANCH  32  33
BRANCH  32  38
ATOM     38  C   UNL     1      -0.553  -2.168  11.068  1.00  0.00     0.017 C 
ATOM     39  C   UNL     1       0.650  -3.075  10.780  1.00  0.00     0.010 C 
BRANCH  38  40
ATOM     40  C   UNL     1      -0.183  -1.023  12.039  1.00  0.00     0.002 C 
ATOM     41  C   UNL     1       0.083  -1.494  13.463  1.00  0.00     0.004 C 
ENDBRANCH  38  40
ENDBRANCH  32  38
ENDBRANCH  29  32
ENDBRANCH  23  26
ENDBRANCH   1  22
TORSDOF 4
ENDMDL
MODEL 7
REMARK VINA RESULT:    -3.849      8.648     11.709
REMARK INTER + INTRA:          -8.585
REMARK INTER:                  -7.040
REMARK INTRA:                  -1.544
REMARK UNBOUND:                -2.035
REMARK SMILES CC[C@H](C)[C@@H]1NC(=O)[C@H]2CSC(=N2)[C@@H]([C@@H](C)CC)NC(=O)c2csc(n2)CNC(=O)[C@H]2N=C1O[C@@H]2C
REMARK SMILES IDX 27 1 25 2 22 3 26 4 23 5 24 6 20 7 19 8 21 9 14 11 12 12
REMARK SMILES IDX 11 13 10 14 13 15 9 16 15 18 16 19 17 20 18 21 28 22 29 23
REMARK SMILES IDX 30 24 31 26 32 27 35 28 33 29 34 30 36 31 5 32 6 33 7 34
REMARK SMILES IDX 8 35 3 38 4 39 2 40 1 41
REMARK H PARENT 19 10 28 25 6 36
REMARK Flexibility Score:   91.900
ROOT
ATOM      1  C   UNL     1       1.608   7.169  12.378  1.00  0.00     0.183 C 
ENDROOT
BRANCH   1   2
ATOM      2  C   UNL     1       0.243   7.057  11.762  1.00  0.00     0.113 A 
ATOM      3  C   UNL     1      -1.805   6.274  11.359  1.00  0.00     0.139 A 
ATOM      4  N   UNL     1      -0.692   6.234  12.202  1.00  0.00    -0.234 NA
ATOM      5  C   UNL     1      -1.705   7.182  10.322  1.00  0.00     0.101 A 
ATOM      6  S   UNL     1      -0.188   7.982  10.382  1.00  0.00    -0.125 S 
BRANCH   3   7
ATOM      7  C   UNL     1      -2.933   5.370  11.590  1.00  0.00     0.271 C 
ATOM      8  N   UNL     1      -2.520   4.170  12.114  1.00  0.00    -0.341 N 
ATOM      9  O   UNL     1      -4.094   5.646  11.316  1.00  0.00    -0.267 OA
ATOM     10  H   UNL     1      -1.522   4.095  12.312  1.00  0.00     0.164 HD
BRANCH   8  11
ATOM     11  C   UNL     1      -3.380   3.009  12.276  1.00  0.00     0.140 C 
BRANCH  11  12
ATOM     12  C   UNL     1      -2.653   1.799  11.682  1.00  0.00     0.091 C 
ATOM     13  S   UNL     1      -3.031   0.181  12.227  1.00  0.00    -0.106 SA
ATOM     14  C   UNL     1      -2.087  -0.515  10.855  1.00  0.00     0.113 C 
ATOM     15  N   UNL     1      -1.693   1.929  10.821  1.00  0.00    -0.267 NA
ATOM     16  C   UNL     1      -1.103   0.590  10.503  1.00  0.00     0.205 CG0
ATOM     17  G   UNL     1       0.229   0.388  11.243  1.00  0.00     0.000 G0
ENDBRANCH  11  12
BRANCH  11  18
ATOM     18  C   UNL     1      -3.945   2.838  13.710  1.00  0.00     0.015 C 
ATOM     19  C   UNL     1      -3.152   3.698  14.703  1.00  0.00     0.010 C 
BRANCH  18  20
ATOM     20  C   UNL     1      -5.462   3.084  13.838  1.00  0.00     0.002 C 
ATOM     21  C   UNL     1      -6.294   2.124  12.995  1.00  0.00     0.004 C 
ENDBRANCH  18  20
ENDBRANCH  11  18
ENDBRANCH   8  11
ENDBRANCH   3   7
ENDBRANCH   1   2
BRANCH   1  22
ATOM     22  N   UNL     1       2.435   6.141  11.786  1.00  0.00    -0.348 N 
ATOM     23  C   UNL     1       3.338   5.376  12.473  1.00  0.00     0.249 C 
ATOM     24  O   UNL     1       3.477   5.429  13.690  1.00  0.00    -0.272 OA
ATOM     25  H   UNL     1       2.416   6.027  10.773  1.00  0.00     0.163 HD
BRANCH  23  26
ATOM     26  C   UNL     1       4.110   4.407  11.564  1.00  0.00     0.238 C 
ATOM     27  N   UNL     1       3.928   3.016  12.063  1.00  0.00    -0.236 NA
ATOM     28  C   UNL     1       3.568   4.404  10.145  1.00  0.00     0.206 C 
ATOM     29  C   UNL     1       3.194   2.463  11.144  1.00  0.00     0.208 C 
ATOM     30  O   UNL     1       2.824   3.190  10.061  1.00  0.00    -0.474 OA
ATOM     31  C   UNL     1       4.673   4.371   9.097  1.00  0.00     0.056 C 
BRANCH  29  32
ATOM     32  C   UNL     1       2.632   1.045  11.167  1.00  0.00     0.171 C 
BRANCH  32  33
ATOM     33  N   UNL     1       1.294   1.007  10.599  1.00  0.00    -0.342 N 
ATOM     34  C   UNL     1       0.229   0.428  11.248  1.00  0.00     0.246 CG0
ATOM     35  O   UNL     1       0.330  -0.122  12.341  1.00  0.00    -0.273 OA
ATOM     36  H   UNL     1       1.106   1.379   9.674  1.00  0.00     0.164 HD
ATOM     37  G   UNL     1      -1.111   0.546  10.503  1.00  0.00     0.000 G0
ENDBRANCH  32  33
BRANCH  32  38
ATOM     38  C   UNL     1       3.606   0.064  10.462  1.00  0.00     0.017 C 
ATOM     39  C   UNL     1       2.858  -0.743   9.393  1.00  0.00     0.010 C 
BRANCH  38  40
ATOM     40  C   UNL     1       4.851   0.768   9.876  1.00  0.00     0.002 C 
ATOM     41  C   UNL     1       5.144   0.387   8.431  1.00  0.00     0.004 C 
ENDBRANCH  38  40
ENDBRANCH  32  38
ENDBRANCH  29  32
ENDBRANCH  23  26
ENDBRANCH   1  22
TORSDOF 4
ENDMDL
MODEL 8
REMARK VINA RESULT:    -3.779     10.753     14.035
REMARK INTER + INTRA:          -8.465
REMARK INTER:                  -7.040
REMARK INTRA:                  -1.425
REMARK UNBOUND:                -2.035
REMARK SMILES CC[C@H](C)[C@@H]1NC(=O)[C@H]2CSC(=N2)[C@@H]([C@@H](C)CC)NC(=O)c2csc(n2)CNC(=O)[C@H]2N=C1O[C@@H]2C
REMARK SMILES IDX 27 1 25 2 22 3 26 4 23 5 24 6 20 7 19 8 21 9 14 11 12 12
REMARK SMILES IDX 11 13 10 14 13 15 9 16 15 18 16 19 17 20 18 21 28 22 29 23
REMARK SMILES IDX 30 24 31 26 32 27 35 28 33 29 34 30 36 31 5 32 6 33 7 34
REMARK SMILES IDX 8 35 3 38 4 39 2 40 1 41
REMARK H PARENT 19 10 28 25 6 36
REMARK Flexibility Score:   91.900
ROOT
ATOM      1  C   UNL     1      -9.597   9.090   9.844  1.00  0.00     0.183 C 
ENDROOT
BRANCH   1   2
ATOM      2  C   UNL     1      -8.632   9.719   8.880  1.00  0.00     0.113 A 
ATOM      3  C   UNL     1      -6.996  11.031   8.125  1.00  0.00     0.139 A 
ATOM      4  N   UNL     1      -7.644  10.514   9.249  1.00  0.00    -0.234 NA
ATOM      5  C   UNL     1      -7.479  10.561   6.920  1.00  0.00     0.101 A 
ATOM      6  S   UNL     1      -8.781   9.475   7.188  1.00  0.00    -0.125 S 
BRANCH   3   7
ATOM      7  C   UNL     1      -5.927  12.018   8.286  1.00  0.00     0.271 C 
ATOM      8  N   UNL     1      -5.102  11.706   9.338  1.00  0.00    -0.341 N 
ATOM      9  O   UNL     1      -5.811  13.016   7.584  1.00  0.00    -0.267 OA
ATOM     10  H   UNL     1      -5.310  10.829   9.815  1.00  0.00     0.164 HD
BRANCH   8  11
ATOM     11  C   UNL     1      -4.070  12.587   9.858  1.00  0.00     0.140 C 
BRANCH  11  12
ATOM     12  C   UNL     1      -4.639  13.305  11.085  1.00  0.00     0.091 C 
ATOM     13  S   UNL     1      -3.722  13.387  12.571  1.00  0.00    -0.106 SA
ATOM     14  C   UNL     1      -4.875  14.609  13.231  1.00  0.00     0.113 C 
ATOM     15  N   UNL     1      -5.834  13.806  11.094  1.00  0.00    -0.267 NA
ATOM     16  C   UNL     1      -6.155  14.345  12.453  1.00  0.00     0.205 CG0
ATOM     17  G   UNL     1      -7.070  13.379  13.224  1.00  0.00     0.000 G0
ENDBRANCH  11  12
BRANCH  11  18
ATOM     18  C   UNL     1      -2.690  11.905  10.038  1.00  0.00     0.015 C 
ATOM     19  C   UNL     1      -2.830  10.380   9.943  1.00  0.00     0.010 C 
BRANCH  18  20
ATOM     20  C   UNL     1      -1.585  12.428   9.098  1.00  0.00     0.002 C 
ATOM     21  C   UNL     1      -2.105  13.416   8.059  1.00  0.00     0.004 C 
ENDBRANCH  18  20
ENDBRANCH  11  18
ENDBRANCH   8  11
ENDBRANCH   3   7
ENDBRANCH   1   2
BRANCH   1  22
ATOM     22  N   UNL     1     -10.254  10.161  10.559  1.00  0.00    -0.348 N 
ATOM     23  C   UNL     1     -11.596  10.214  10.823  1.00  0.00     0.249 C 
ATOM     24  O   UNL     1     -12.371   9.304  10.548  1.00  0.00    -0.272 OA
ATOM     25  H   UNL     1      -9.705  10.980  10.816  1.00  0.00     0.163 HD
BRANCH  23  26
ATOM     26  C   UNL     1     -12.010  11.501  11.551  1.00  0.00     0.238 C 
ATOM     27  N   UNL     1     -11.342  11.550  12.881  1.00  0.00    -0.236 NA
ATOM     28  C   UNL     1     -11.541  12.746  10.815  1.00  0.00     0.206 C 
ATOM     29  C   UNL     1     -10.489  12.521  12.751  1.00  0.00     0.208 C 
ATOM     30  O   UNL     1     -10.425  13.200  11.579  1.00  0.00    -0.474 OA
ATOM     31  C   UNL     1     -12.596  13.844  10.795  1.00  0.00     0.056 C 
BRANCH  29  32
ATOM     32  C   UNL     1      -9.469  12.975  13.792  1.00  0.00     0.171 C 
BRANCH  32  33
ATOM     33  N   UNL     1      -8.409  13.757  13.175  1.00  0.00    -0.342 N 
ATOM     34  C   UNL     1      -7.087  13.386  13.229  1.00  0.00     0.246 CG0
ATOM     35  O   UNL     1      -6.696  12.383  13.822  1.00  0.00    -0.273 OA
ATOM     36  H   UNL     1      -8.610  14.635  12.708  1.00  0.00     0.164 HD
ATOM     37  G   UNL     1      -6.132  14.316  12.463  1.00  0.00     0.000 G0
ENDBRANCH  32  33
BRANCH  32  38
ATOM     38  C   UNL     1     -10.174  13.735  14.946  1.00  0.00     0.017 C 
ATOM     39  C   UNL     1     -10.488  12.771  16.097  1.00  0.00     0.010 C 
BRANCH  38  40
ATOM     40  C   UNL     1      -9.373  14.964  15.436  1.00  0.00     0.002 C 
ATOM     41  C   UNL     1      -8.242  14.613  16.393  1.00  0.00     0.004 C 
ENDBRANCH  38  40
ENDBRANCH  32  38
ENDBRANCH  29  32
ENDBRANCH  23  26
ENDBRANCH   1  22
TORSDOF 4
ENDMDL
MODEL 9
REMARK VINA RESULT:    -3.729     16.001     19.241
REMARK INTER + INTRA:          -8.380
REMARK INTER:                  -6.711
REMARK INTRA:                  -1.669
REMARK UNBOUND:                -2.035
REMARK SMILES CC[C@H](C)[C@@H]1NC(=O)[C@H]2CSC(=N2)[C@@H]([C@@H](C)CC)NC(=O)c2csc(n2)CNC(=O)[C@H]2N=C1O[C@@H]2C
REMARK SMILES IDX 27 1 25 2 22 3 26 4 23 5 24 6 20 7 19 8 21 9 14 11 12 12
REMARK SMILES IDX 11 13 10 14 13 15 9 16 15 18 16 19 17 20 18 21 28 22 29 23
REMARK SMILES IDX 30 24 31 26 32 27 35 28 33 29 34 30 36 31 5 32 6 33 7 34
REMARK SMILES IDX 8 35 3 38 4 39 2 40 1 41
REMARK H PARENT 19 10 28 25 6 36
REMARK Flexibility Score:   91.900
ROOT
ATOM      1  C   UNL     1     -15.564   8.968  14.556  1.00  0.00     0.183 C 
ENDROOT
BRANCH   1   2
ATOM      2  C   UNL     1     -15.252   9.554  13.209  1.00  0.00     0.113 A 
ATOM      3  C   UNL     1     -14.060  10.431  11.542  1.00  0.00     0.139 A 
ATOM      4  N   UNL     1     -14.025   9.777  12.775  1.00  0.00    -0.234 NA
ATOM      5  C   UNL     1     -15.330  10.637  11.040  1.00  0.00     0.101 A 
ATOM      6  S   UNL     1     -16.504  10.028  12.135  1.00  0.00    -0.125 S 
BRANCH   3   7
ATOM      7  C   UNL     1     -12.815  10.872  10.910  1.00  0.00     0.271 C 
ATOM      8  N   UNL     1     -11.808  11.027  11.830  1.00  0.00    -0.341 N 
ATOM      9  O   UNL     1     -12.704  11.103   9.713  1.00  0.00    -0.267 OA
ATOM     10  H   UNL     1     -12.044  10.773  12.789  1.00  0.00     0.164 HD
BRANCH   8  11
ATOM     11  C   UNL     1     -10.517  11.629  11.536  1.00  0.00     0.140 C 
BRANCH  11  12
ATOM     12  C   UNL     1     -10.083  12.434  12.764  1.00  0.00     0.091 C 
ATOM     13  S   UNL     1      -8.427  12.382  13.320  1.00  0.00    -0.106 SA
ATOM     14  C   UNL     1      -8.741  13.773  14.427  1.00  0.00     0.113 C 
ATOM     15  N   UNL     1     -10.928  13.116  13.472  1.00  0.00    -0.267 NA
ATOM     16  C   UNL     1     -10.242  13.707  14.663  1.00  0.00     0.205 CG0
ATOM     17  G   UNL     1     -10.557  12.901  15.934  1.00  0.00     0.000 G0
ENDBRANCH  11  12
BRANCH  11  18
ATOM     18  C   UNL     1      -9.476  10.635  10.960  1.00  0.00     0.015 C 
ATOM     19  C   UNL     1      -9.774   9.209  11.440  1.00  0.00     0.010 C 
BRANCH  18  20
ATOM     20  C   UNL     1      -9.310  10.691   9.428  1.00  0.00     0.002 C 
ATOM     21  C   UNL     1      -8.685   9.426   8.850  1.00  0.00     0.004 C 
ENDBRANCH  18  20
ENDBRANCH  11  18
ENDBRANCH   8  11
ENDBRANCH   3   7
ENDBRANCH   1   2
BRANCH   1  22
ATOM     22  N   UNL     1     -15.480  10.038  15.524  1.00  0.00    -0.348 N 
ATOM     23  C   UNL     1     -15.573   9.872  16.879  1.00  0.00     0.249 C 
ATOM     24  O   UNL     1     -15.653   8.774  17.418  1.00  0.00    -0.272 OA
ATOM     25  H   UNL     1     -15.435  10.998  15.183  1.00  0.00     0.163 HD
BRANCH  23  26
ATOM     26  C   UNL     1     -15.504  11.201  17.647  1.00  0.00     0.238 C 
ATOM     27  N   UNL     1     -14.177  11.314  18.313  1.00  0.00    -0.236 NA
ATOM     28  C   UNL     1     -15.597  12.400  16.719  1.00  0.00     0.206 C 
ATOM     29  C   UNL     1     -13.593  12.270  17.654  1.00  0.00     0.208 C 
ATOM     30  O   UNL     1     -14.257  12.885  16.644  1.00  0.00    -0.474 OA
ATOM     31  C   UNL     1     -16.483  13.505  17.279  1.00  0.00     0.056 C 
BRANCH  29  32
ATOM     32  C   UNL     1     -12.166  12.771  17.859  1.00  0.00     0.171 C 
BRANCH  32  33
ATOM     33  N   UNL     1     -11.659  13.403  16.651  1.00  0.00    -0.342 N 
ATOM     34  C   UNL     1     -10.576  12.917  15.959  1.00  0.00     0.246 CG0
ATOM     35  O   UNL     1      -9.939  11.930  16.318  1.00  0.00    -0.273 OA
ATOM     36  H   UNL     1     -12.071  14.259  16.295  1.00  0.00     0.164 HD
ATOM     37  G   UNL     1     -10.237  13.695  14.677  1.00  0.00     0.000 G0
ENDBRANCH  32  33
BRANCH  32  38
ATOM     38  C   UNL     1     -12.091  13.704  19.096  1.00  0.00     0.017 C 
ATOM     39  C   UNL     1     -13.314  14.629  19.133  1.00  0.00     0.010 C 
BRANCH  38  40
ATOM     40  C   UNL     1     -11.920  12.932  20.424  1.00  0.00     0.002 C 
ATOM     41  C   UNL     1     -11.180  11.610  20.270  1.00  0.00     0.004 C 
ENDBRANCH  38  40
ENDBRANCH  32  38
ENDBRANCH  29  32
ENDBRANCH  23  26
ENDBRANCH   1  22
TORSDOF 4
ENDMDL
MODEL 10
REMARK VINA RESULT:    -3.513     10.172     13.398
REMARK INTER + INTRA:          -8.013
REMARK INTER:                  -6.471
REMARK INTRA:                  -1.542
REMARK UNBOUND:                -2.035
REMARK SMILES CC[C@H](C)[C@@H]1NC(=O)[C@H]2CSC(=N2)[C@@H]([C@@H](C)CC)NC(=O)c2csc(n2)CNC(=O)[C@H]2N=C1O[C@@H]2C
REMARK SMILES IDX 27 1 25 2 22 3 26 4 23 5 24 6 20 7 19 8 21 9 14 11 12 12
REMARK SMILES IDX 11 13 10 14 13 15 9 16 15 18 16 19 17 20 18 21 28 22 29 23
REMARK SMILES IDX 30 24 31 26 32 27 35 28 33 29 34 30 36 31 5 32 6 33 7 34
REMARK SMILES IDX 8 35 3 38 4 39 2 40 1 41
REMARK H PARENT 19 10 28 25 6 36
REMARK Flexibility Score:   91.900
ROOT
ATOM      1  C   UNL     1      -7.917  12.622  15.124  1.00  0.00     0.183 C 
ENDROOT
BRANCH   1   2
ATOM      2  C   UNL     1      -8.871  12.362  13.994  1.00  0.00     0.113 A 
ATOM      3  C   UNL     1      -9.601  12.041  11.913  1.00  0.00     0.139 A 
ATOM      4  N   UNL     1      -8.488  12.132  12.752  1.00  0.00    -0.234 NA
ATOM      5  C   UNL     1     -10.816  12.148  12.561  1.00  0.00     0.101 A 
ATOM      6  S   UNL     1     -10.569  12.391  14.242  1.00  0.00    -0.125 S 
BRANCH   3   7
ATOM      7  C   UNL     1      -9.419  11.888  10.468  1.00  0.00     0.271 C 
ATOM      8  N   UNL     1      -8.240  11.249  10.172  1.00  0.00    -0.341 N 
ATOM      9  O   UNL     1     -10.209  12.311   9.634  1.00  0.00    -0.267 OA
ATOM     10  H   UNL     1      -7.695  10.934  10.974  1.00  0.00     0.164 HD
BRANCH   8  11
ATOM     11  C   UNL     1      -7.696  11.119   8.830  1.00  0.00     0.140 C 
BRANCH  11  12
ATOM     12  C   UNL     1      -6.185  11.358   8.909  1.00  0.00     0.091 C 
ATOM     13  S   UNL     1      -5.071  10.011   8.890  1.00  0.00    -0.106 SA
ATOM     14  C   UNL     1      -3.686  11.144   8.649  1.00  0.00     0.113 C 
ATOM     15  N   UNL     1      -5.685  12.543   9.067  1.00  0.00    -0.267 NA
ATOM     16  C   UNL     1      -4.198  12.457   9.218  1.00  0.00     0.205 CG0
ATOM     17  G   UNL     1      -3.788  12.608  10.692  1.00  0.00     0.000 G0
ENDBRANCH  11  12
BRANCH  11  18
ATOM     18  C   UNL     1      -8.152   9.837   8.087  1.00  0.00     0.015 C 
ATOM     19  C   UNL     1      -8.944   8.924   9.032  1.00  0.00     0.010 C 
BRANCH  18  20
ATOM     20  C   UNL     1      -8.921  10.092   6.774  1.00  0.00     0.002 C 
ATOM     21  C   UNL     1      -8.017  10.541   5.632  1.00  0.00     0.004 C 
ENDBRANCH  18  20
ENDBRANCH  11  18
ENDBRANCH   8  11
ENDBRANCH   3   7
ENDBRANCH   1   2
BRANCH   1  22
ATOM     22  N   UNL     1      -7.051  13.707  14.718  1.00  0.00    -0.348 N 
ATOM     23  C   UNL     1      -7.197  15.010  15.111  1.00  0.00     0.249 C 
ATOM     24  O   UNL     1      -8.038  15.377  15.924  1.00  0.00    -0.272 OA
ATOM     25  H   UNL     1      -6.330  13.517  14.023  1.00  0.00     0.163 HD
BRANCH  23  26
ATOM     26  C   UNL     1      -6.159  15.944  14.471  1.00  0.00     0.238 C 
ATOM     27  N   UNL     1      -4.841  15.252  14.419  1.00  0.00    -0.236 NA
ATOM     28  C   UNL     1      -6.503  16.273  13.028  1.00  0.00     0.206 C 
ATOM     29  C   UNL     1      -4.664  15.045  13.149  1.00  0.00     0.208 C 
ATOM     30  O   UNL     1      -5.599  15.474  12.266  1.00  0.00    -0.474 OA
ATOM     31  C   UNL     1      -6.261  17.738  12.689  1.00  0.00     0.056 C 
BRANCH  29  32
ATOM     32  C   UNL     1      -3.498  14.297  12.508  1.00  0.00     0.171 C 
BRANCH  32  33
ATOM     33  N   UNL     1      -3.808  13.928  11.136  1.00  0.00    -0.342 N 
ATOM     34  C   UNL     1      -3.784  12.626  10.696  1.00  0.00     0.246 CG0
ATOM     35  O   UNL     1      -3.475  11.680  11.416  1.00  0.00    -0.273 OA
ATOM     36  H   UNL     1      -4.020  14.633  10.439  1.00  0.00     0.164 HD
ATOM     37  G   UNL     1      -4.201  12.443   9.227  1.00  0.00     0.000 G0
ENDBRANCH  32  33
BRANCH  32  38
ATOM     38  C   UNL     1      -2.193  15.128  12.620  1.00  0.00     0.017 C 
ATOM     39  C   UNL     1      -0.982  14.195  12.744  1.00  0.00     0.010 C 
BRANCH  38  40
ATOM     40  C   UNL     1      -2.018  16.135  11.459  1.00  0.00     0.002 C 
ATOM     41  C   UNL     1      -0.775  15.884  10.616  1.00  0.00     0.004 C 
ENDBRANCH  38  40
ENDBRANCH  32  38
ENDBRANCH  29  32
ENDBRANCH  23  26
ENDBRANCH   1  22
TORSDOF 4
ENDMDL
