MODEL 1
REMARK VINA RESULT:    -6.551      0.000      0.000
REMARK INTER + INTRA:         -27.162
REMARK INTER:                 -19.571
REMARK INTRA:                  -7.591
REMARK UNBOUND:                -7.591
REMARK SMILES C=C1C(=O)N[C@H](C)C(=O)N[C@@H](CC(C)C)C(=O)N[C@@H](C(=O)O)[C@H](C)C(=O)N[C@@H](CCCN=C(N)N)C(=O)N[C@@H](/C=C/C(C)=C/[C@H](C)[C@H](Cc2ccccc2)OC)[C@H](C)C(=O)N[C@@H](C(=O)O)CCC(=O)N1C
REMARK SMILES IDX 39 1 38 2 37 3 36 4 28 6 27 7 25 8 26 9 23 11 24 12 19 13
REMARK SMILES IDX 18 14 16 15 17 16 11 18 10 19 8 20 9 21 12 24 13 25 14 26
REMARK SMILES IDX 15 27 20 28 21 29 22 30 29 32 30 33 31 34 32 35 33 36 34 37
REMARK SMILES IDX 35 38 57 43 58 44 59 45 60 46 61 47 62 49 66 50 67 51 68 52
REMARK SMILES IDX 69 53 70 54 71 55 2 56 1 57 3 58 4 59 5 60 6 62 7 63 63 65
REMARK SMILES IDX 64 66 65 67 40 69 41 70 42 71 44 72 43 73 45 74 46 75 47 76
REMARK SMILES IDX 55 77 56 78 48 79 49 80 50 81 54 82 51 83 53 84 52 85
REMARK H PARENT 38 5 27 10 18 17 10 22 22 31 34 39 34 40 35 41 35 42 61 48
REMARK H PARENT 5 61 65 68
REMARK Flexibility Score:  369.900
ROOT
ATOM      1  C   UNL     1       3.108   0.520  -1.568  1.00  0.00     0.117 C 
ENDROOT
BRANCH   1   2
ATOM      2  N   UNL     1       4.090   1.302  -2.319  1.00  0.00    -0.347 N 
ATOM      3  O   UNL     1       5.982   0.471  -1.319  1.00  0.00    -0.273 OA
ATOM      4  C   UNL     1       5.458   1.147  -2.197  1.00  0.00     0.243 C 
ATOM      5  H   UNL     1       3.772   1.965  -3.009  1.00  0.00     0.164 HD
BRANCH   4   6
ATOM      6  C   UNL     1       6.275   2.037  -3.169  1.00  0.00     0.171 C 
BRANCH   6   7
ATOM      7  N   UNL     1       7.671   1.576  -3.238  1.00  0.00    -0.344 N 
ATOM      8  C   UNL     1       8.711   2.452  -3.017  1.00  0.00     0.226 C 
ATOM      9  O   UNL     1       8.534   3.641  -2.780  1.00  0.00    -0.275 OA
ATOM     10  H   UNL     1       7.858   0.616  -3.498  1.00  0.00     0.164 HD
BRANCH   8  11
ATOM     11  C   UNL     1      10.088   1.814  -3.069  1.00  0.00     0.109 C 
ATOM     12  C   UNL     1      11.032   2.667  -3.917  1.00  0.00     0.021 C 
BRANCH  11  13
ATOM     13  C   UNL     1      10.584   1.527  -1.638  1.00  0.00     0.204 C 
BRANCH  13  14
ATOM     14  N   UNL     1      10.052   2.487  -0.666  1.00  0.00    -0.340 N 
ATOM     15  C   UNL     1      10.838   3.427  -0.035  1.00  0.00     0.243 C 
ATOM     16  O   UNL     1      12.034   3.565  -0.289  1.00  0.00    -0.273 OA
ATOM     17  H   UNL     1       9.109   2.329  -0.301  1.00  0.00     0.164 HD
BRANCH  15  18
ATOM     18  C   UNL     1      10.105   4.189   1.096  1.00  0.00     0.171 C 
BRANCH  18  19
ATOM     19  N   UNL     1      10.835   3.909   2.331  1.00  0.00    -0.343 N 
ATOM     20  C   UNL     1      10.226   3.315   3.419  1.00  0.00     0.242 CG0
ATOM     21  O   UNL     1       9.013   3.118   3.449  1.00  0.00    -0.273 OA
ATOM     22  H   UNL     1      11.815   4.160   2.397  1.00  0.00     0.164 HD
ATOM     23  G   UNL     1      11.174   3.027   4.601  1.00  0.00     0.000 G0
ENDBRANCH  18  19
BRANCH  18  24
ATOM     24  C   UNL     1      10.062   5.692   0.797  1.00  0.00     0.038 C 
BRANCH  24  25
ATOM     25  C   UNL     1       8.655   6.322   0.863  1.00  0.00    -0.015 C 
ATOM     26  C   UNL     1       8.640   7.772   0.379  1.00  0.00     0.007 C 
ATOM     27  C   UNL     1       8.126   6.253   2.298  1.00  0.00     0.007 C 
ENDBRANCH  24  25
ENDBRANCH  18  24
ENDBRANCH  15  18
ENDBRANCH  13  14
BRANCH  13  28
ATOM     28  C   UNL     1      10.213   0.126  -1.140  1.00  0.00     0.327 C 
ATOM     29  O   UNL     1       9.341  -0.596  -1.598  1.00  0.00    -0.250 OA
BRANCH  28  30
ATOM     30  O   UNL     1      10.880  -0.232  -0.024  1.00  0.00    -0.480 OA
ATOM     31  H   UNL     1      10.547  -1.132   0.177  1.00  0.00     0.296 HD
ENDBRANCH  28  30
ENDBRANCH  13  28
ENDBRANCH  11  13
ENDBRANCH   8  11
ENDBRANCH   6   7
BRANCH   6  32
ATOM     32  C   UNL     1       5.619   2.004  -4.554  1.00  0.00     0.037 C 
BRANCH  32  33
ATOM     33  C   UNL     1       6.484   1.269  -5.587  1.00  0.00     0.026 C 
BRANCH  33  34
ATOM     34  C   UNL     1       5.650   0.444  -6.568  1.00  0.00     0.146 C 
BRANCH  34  35
ATOM     35  N   UNL     1       5.524  -0.913  -6.053  1.00  0.00    -0.254 NA
ATOM     36  C   UNL     1       6.112  -1.864  -6.679  1.00  0.00     0.185 C 
ATOM     37  N   UNL     1       6.007  -3.117  -6.211  1.00  0.00    -0.370 N 
ATOM     38  N   UNL     1       6.860  -1.805  -7.795  1.00  0.00    -0.370 N 
ATOM     39  H   UNL     1       5.466  -3.242  -5.365  1.00  0.00     0.159 HD
ATOM     40  H   UNL     1       6.572  -3.882  -6.538  1.00  0.00     0.159 HD
ATOM     41  H   UNL     1       7.153  -2.643  -8.270  1.00  0.00     0.159 HD
ATOM     42  H   UNL     1       7.011  -0.927  -8.266  1.00  0.00     0.159 HD
ENDBRANCH  34  35
ENDBRANCH  33  34
ENDBRANCH  32  33
ENDBRANCH   6  32
ENDBRANCH   4   6
ENDBRANCH   1   2
BRANCH   1  43
ATOM     43  C   UNL     1       1.848   0.319  -2.460  1.00  0.00     0.102 C 
ATOM     44  C   UNL     1       0.768  -0.559  -1.806  1.00  0.00     0.020 C 
BRANCH  43  45
ATOM     45  C   UNL     1       2.240  -0.126  -3.872  1.00  0.00     0.225 C 
ATOM     46  O   UNL     1       2.734   0.632  -4.702  1.00  0.00    -0.275 OA
ATOM     47  N   UNL     1       1.915  -1.424  -4.195  1.00  0.00    -0.342 N 
ATOM     48  H   UNL     1       1.654  -2.071  -3.465  1.00  0.00     0.164 HD
BRANCH  47  49
ATOM     49  C   UNL     1       2.261  -1.998  -5.499  1.00  0.00     0.192 C 
BRANCH  49  50
ATOM     50  C   UNL     1       1.076  -1.852  -6.457  1.00  0.00     0.047 C 
BRANCH  50  51
ATOM     51  C   UNL     1      -0.270  -1.836  -5.719  1.00  0.00     0.103 C 
BRANCH  51  52
ATOM     52  C   UNL     1      -1.035  -3.146  -5.894  1.00  0.00     0.226 C 
ATOM     53  O   UNL     1      -0.587  -4.020  -6.638  1.00  0.00    -0.275 OA
BRANCH  52  54
ATOM     54  N   UNL     1      -2.196  -3.303  -5.114  1.00  0.00    -0.311 N 
ATOM     55  C   UNL     1      -2.128  -3.294  -3.646  1.00  0.00     0.153 C 
BRANCH  54  56
ATOM     56  C   UNL     1      -3.459  -3.467  -5.706  1.00  0.00     0.102 C 
ATOM     57  C   UNL     1      -4.382  -2.498  -5.828  1.00  0.00     0.043 C 
BRANCH  56  58
ATOM     58  C   UNL     1      -3.866  -4.790  -6.311  1.00  0.00     0.268 C 
ATOM     59  O   UNL     1      -4.081  -4.941  -7.506  1.00  0.00    -0.268 OA
ATOM     60  N   UNL     1      -3.904  -5.814  -5.396  1.00  0.00    -0.339 N 
ATOM     61  H   UNL     1      -3.722  -5.604  -4.421  1.00  0.00     0.164 HD
BRANCH  60  62
ATOM     62  C   UNL     1      -4.213  -7.191  -5.779  1.00  0.00     0.168 CG0
ATOM     63  C   UNL     1      -3.018  -8.106  -5.542  1.00  0.00     0.041 C 
ATOM     64  G   UNL     1      -4.645  -7.230  -7.260  1.00  0.00     0.000 G0
ENDBRANCH  60  62
ENDBRANCH  56  58
ENDBRANCH  54  56
ENDBRANCH  52  54
ENDBRANCH  51  52
ENDBRANCH  50  51
ENDBRANCH  49  50
BRANCH  49  65
ATOM     65  C   UNL     1       2.640  -3.483  -5.382  1.00  0.00     0.326 C 
ATOM     66  O   UNL     1       3.220  -4.138  -6.235  1.00  0.00    -0.250 OA
BRANCH  65  67
ATOM     67  O   UNL     1       2.226  -4.082  -4.243  1.00  0.00    -0.480 OA
ATOM     68  H   UNL     1       1.740  -4.873  -4.562  1.00  0.00     0.296 HD
ENDBRANCH  65  67
ENDBRANCH  49  65
ENDBRANCH  47  49
ENDBRANCH  43  45
ENDBRANCH   1  43
BRANCH   1  69
ATOM     69  C   UNL     1       2.953   1.210  -0.226  1.00  0.00    -0.001 C 
ATOM     70  C   UNL     1       1.892   1.908   0.217  1.00  0.00     0.001 C 
BRANCH  70  71
ATOM     71  C   UNL     1       1.746   2.552   1.524  1.00  0.00    -0.055 C 
ATOM     72  C   UNL     1       1.922   3.889   1.588  1.00  0.00    -0.018 C 
ATOM     73  C   UNL     1       1.401   1.680   2.702  1.00  0.00     0.044 C 
BRANCH  72  74
ATOM     74  C   UNL     1       1.831   4.816   2.791  1.00  0.00     0.038 C 
ATOM     75  C   UNL     1       0.482   5.540   2.704  1.00  0.00     0.015 C 
BRANCH  74  76
ATOM     76  C   UNL     1       3.076   5.752   2.798  1.00  0.00     0.128 C 
BRANCH  76  77
ATOM     77  O   UNL     1       3.265   6.307   4.111  1.00  0.00    -0.381 OA
ATOM     78  C   UNL     1       2.280   7.266   4.472  1.00  0.00     0.195 C 
ENDBRANCH  76  77
BRANCH  76  79
ATOM     79  C   UNL     1       4.360   5.094   2.235  1.00  0.00     0.068 C 
BRANCH  79  80
ATOM     80  C   UNL     1       4.830   5.520   0.865  1.00  0.00    -0.045 A 
ATOM     81  C   UNL     1       4.886   6.874   0.509  1.00  0.00     0.004 A 
ATOM     82  C   UNL     1       5.193   4.557  -0.089  1.00  0.00     0.004 A 
ATOM     83  C   UNL     1       5.308   7.259  -0.765  1.00  0.00     0.000 A 
ATOM     84  C   UNL     1       5.615   4.944  -1.364  1.00  0.00     0.000 A 
ATOM     85  C   UNL     1       5.673   6.294  -1.700  1.00  0.00     0.000 A 
ENDBRANCH  79  80
ENDBRANCH  76  79
ENDBRANCH  74  76
ENDBRANCH  72  74
ENDBRANCH  70  71
ENDBRANCH   1  69
TORSDOF 17
ENDMDL
MODEL 2
REMARK VINA RESULT:    -6.458      2.881      4.837
REMARK INTER + INTRA:         -26.885
REMARK INTER:                 -20.015
REMARK INTRA:                  -6.870
REMARK UNBOUND:                -7.591
REMARK SMILES C=C1C(=O)N[C@H](C)C(=O)N[C@@H](CC(C)C)C(=O)N[C@@H](C(=O)O)[C@H](C)C(=O)N[C@@H](CCCN=C(N)N)C(=O)N[C@@H](/C=C/C(C)=C/[C@H](C)[C@H](Cc2ccccc2)OC)[C@H](C)C(=O)N[C@@H](C(=O)O)CCC(=O)N1C
REMARK SMILES IDX 39 1 38 2 37 3 36 4 28 6 27 7 25 8 26 9 23 11 24 12 19 13
REMARK SMILES IDX 18 14 16 15 17 16 11 18 10 19 8 20 9 21 12 24 13 25 14 26
REMARK SMILES IDX 15 27 20 28 21 29 22 30 29 32 30 33 31 34 32 35 33 36 34 37
REMARK SMILES IDX 35 38 57 43 58 44 59 45 60 46 61 47 62 49 66 50 67 51 68 52
REMARK SMILES IDX 69 53 70 54 71 55 2 56 1 57 3 58 4 59 5 60 6 62 7 63 63 65
REMARK SMILES IDX 64 66 65 67 40 69 41 70 42 71 44 72 43 73 45 74 46 75 47 76
REMARK SMILES IDX 55 77 56 78 48 79 49 80 50 81 54 82 51 83 53 84 52 85
REMARK H PARENT 38 5 27 10 18 17 10 22 22 31 34 39 34 40 35 41 35 42 61 48
REMARK H PARENT 5 61 65 68
REMARK Flexibility Score:  369.900
ROOT
ATOM      1  C   UNL     1       1.640   1.359  -0.886  1.00  0.00     0.117 C 
ENDROOT
BRANCH   1   2
ATOM      2  N   UNL     1       2.939   2.021  -0.763  1.00  0.00    -0.347 N 
ATOM      3  O   UNL     1       4.240   0.135  -0.633  1.00  0.00    -0.273 OA
ATOM      4  C   UNL     1       4.148   1.353  -0.738  1.00  0.00     0.243 C 
ATOM      5  H   UNL     1       2.980   3.029  -0.743  1.00  0.00     0.164 HD
BRANCH   4   6
ATOM      6  C   UNL     1       5.379   2.294  -0.689  1.00  0.00     0.171 C 
BRANCH   6   7
ATOM      7  N   UNL     1       6.511   1.698  -1.416  1.00  0.00    -0.344 N 
ATOM      8  C   UNL     1       7.451   0.940  -0.753  1.00  0.00     0.226 C 
ATOM      9  O   UNL     1       7.408   0.744   0.456  1.00  0.00    -0.275 OA
ATOM     10  H   UNL     1       6.617   1.893  -2.404  1.00  0.00     0.164 HD
BRANCH   8  11
ATOM     11  C   UNL     1       8.525   0.350  -1.650  1.00  0.00     0.109 C 
ATOM     12  C   UNL     1       7.979   0.154  -3.065  1.00  0.00     0.021 C 
BRANCH  11  13
ATOM     13  C   UNL     1       9.805   1.204  -1.562  1.00  0.00     0.204 C 
BRANCH  13  14
ATOM     14  N   UNL     1       9.799   2.088  -0.392  1.00  0.00    -0.340 N 
ATOM     15  C   UNL     1       9.439   3.416  -0.459  1.00  0.00     0.243 C 
ATOM     16  O   UNL     1       9.038   3.940  -1.497  1.00  0.00    -0.273 OA
ATOM     17  H   UNL     1      10.262   1.760   0.460  1.00  0.00     0.164 HD
BRANCH  15  18
ATOM     18  C   UNL     1       9.708   4.197   0.850  1.00  0.00     0.171 C 
BRANCH  18  19
ATOM     19  N   UNL     1      10.095   3.209   1.855  1.00  0.00    -0.343 N 
ATOM     20  C   UNL     1       9.476   3.143   3.088  1.00  0.00     0.242 CG0
ATOM     21  O   UNL     1       8.666   3.994   3.448  1.00  0.00    -0.273 OA
ATOM     22  H   UNL     1      10.842   2.556   1.648  1.00  0.00     0.164 HD
ATOM     23  G   UNL     1       9.964   1.987   3.985  1.00  0.00     0.000 G0
ENDBRANCH  18  19
BRANCH  18  24
ATOM     24  C   UNL     1      10.809   5.245   0.639  1.00  0.00     0.038 C 
BRANCH  24  25
ATOM     25  C   UNL     1      10.315   6.707   0.641  1.00  0.00    -0.015 C 
ATOM     26  C   UNL     1       8.868   6.836   1.118  1.00  0.00     0.007 C 
ATOM     27  C   UNL     1      10.449   7.298  -0.765  1.00  0.00     0.007 C 
ENDBRANCH  24  25
ENDBRANCH  18  24
ENDBRANCH  15  18
ENDBRANCH  13  14
BRANCH  13  28
ATOM     28  C   UNL     1      11.086   0.367  -1.491  1.00  0.00     0.327 C 
ATOM     29  O   UNL     1      11.853   0.140  -2.415  1.00  0.00    -0.250 OA
BRANCH  28  30
ATOM     30  O   UNL     1      11.261  -0.232  -0.296  1.00  0.00    -0.480 OA
ATOM     31  H   UNL     1      11.947  -0.912  -0.464  1.00  0.00     0.296 HD
ENDBRANCH  28  30
ENDBRANCH  13  28
ENDBRANCH  11  13
ENDBRANCH   8  11
ENDBRANCH   6   7
BRANCH   6  32
ATOM     32  C   UNL     1       4.998   3.652  -1.288  1.00  0.00     0.037 C 
BRANCH  32  33
ATOM     33  C   UNL     1       5.509   4.824  -0.438  1.00  0.00     0.026 C 
BRANCH  33  34
ATOM     34  C   UNL     1       5.874   4.398   0.985  1.00  0.00     0.146 C 
BRANCH  34  35
ATOM     35  N   UNL     1       4.796   4.788   1.883  1.00  0.00    -0.254 NA
ATOM     36  C   UNL     1       5.093   5.396   2.972  1.00  0.00     0.185 C 
ATOM     37  N   UNL     1       4.107   5.764   3.804  1.00  0.00    -0.370 N 
ATOM     38  N   UNL     1       6.303   5.746   3.441  1.00  0.00    -0.370 N 
ATOM     39  H   UNL     1       3.162   5.545   3.515  1.00  0.00     0.159 HD
ATOM     40  H   UNL     1       4.239   6.390   4.580  1.00  0.00     0.159 HD
ATOM     41  H   UNL     1       6.417   6.097   4.378  1.00  0.00     0.159 HD
ATOM     42  H   UNL     1       7.139   5.517   2.925  1.00  0.00     0.159 HD
ENDBRANCH  34  35
ENDBRANCH  33  34
ENDBRANCH  32  33
ENDBRANCH   6  32
ENDBRANCH   4   6
ENDBRANCH   1   2
BRANCH   1  43
ATOM     43  C   UNL     1       1.264   1.282  -2.394  1.00  0.00     0.102 C 
ATOM     44  C   UNL     1      -0.214   1.604  -2.674  1.00  0.00     0.020 C 
BRANCH  43  45
ATOM     45  C   UNL     1       1.741  -0.035  -3.014  1.00  0.00     0.225 C 
ATOM     46  O   UNL     1       2.669  -0.102  -3.815  1.00  0.00    -0.275 OA
ATOM     47  N   UNL     1       0.998  -1.146  -2.687  1.00  0.00    -0.342 N 
ATOM     48  H   UNL     1       0.343  -1.102  -1.919  1.00  0.00     0.164 HD
BRANCH  47  49
ATOM     49  C   UNL     1       1.359  -2.480  -3.178  1.00  0.00     0.192 C 
BRANCH  49  50
ATOM     50  C   UNL     1       0.530  -2.812  -4.421  1.00  0.00     0.047 C 
BRANCH  50  51
ATOM     51  C   UNL     1      -0.881  -2.212  -4.357  1.00  0.00     0.103 C 
BRANCH  51  52
ATOM     52  C   UNL     1      -1.952  -3.283  -4.156  1.00  0.00     0.226 C 
ATOM     53  O   UNL     1      -1.938  -3.975  -3.137  1.00  0.00    -0.275 OA
BRANCH  52  54
ATOM     54  N   UNL     1      -2.954  -3.359  -5.141  1.00  0.00    -0.311 N 
ATOM     55  C   UNL     1      -4.131  -2.481  -5.092  1.00  0.00     0.153 C 
BRANCH  54  56
ATOM     56  C   UNL     1      -2.866  -4.270  -6.207  1.00  0.00     0.102 C 
ATOM     57  C   UNL     1      -2.376  -3.983  -7.424  1.00  0.00     0.043 C 
BRANCH  56  58
ATOM     58  C   UNL     1      -3.293  -5.708  -6.035  1.00  0.00     0.268 C 
ATOM     59  O   UNL     1      -2.855  -6.436  -5.155  1.00  0.00    -0.268 OA
ATOM     60  N   UNL     1      -4.269  -6.092  -6.924  1.00  0.00    -0.339 N 
ATOM     61  H   UNL     1      -4.571  -5.432  -7.630  1.00  0.00     0.164 HD
BRANCH  60  62
ATOM     62  C   UNL     1      -4.871  -7.424  -6.892  1.00  0.00     0.168 CG0
ATOM     63  C   UNL     1      -6.298  -7.392  -7.423  1.00  0.00     0.041 C 
ATOM     64  G   UNL     1      -4.836  -7.974  -5.451  1.00  0.00     0.000 G0
ENDBRANCH  60  62
ENDBRANCH  56  58
ENDBRANCH  54  56
ENDBRANCH  52  54
ENDBRANCH  51  52
ENDBRANCH  50  51
ENDBRANCH  49  50
BRANCH  49  65
ATOM     65  C   UNL     1       1.127  -3.559  -2.108  1.00  0.00     0.326 C 
ATOM     66  O   UNL     1       1.511  -4.718  -2.173  1.00  0.00    -0.250 OA
BRANCH  65  67
ATOM     67  O   UNL     1       0.385  -3.156  -1.053  1.00  0.00    -0.480 OA
ATOM     68  H   UNL     1       1.030  -3.131  -0.313  1.00  0.00     0.296 HD
ENDBRANCH  65  67
ENDBRANCH  49  65
ENDBRANCH  47  49
ENDBRANCH  43  45
ENDBRANCH   1  43
BRANCH   1  69
ATOM     69  C   UNL     1       0.704   2.080   0.067  1.00  0.00    -0.001 C 
ATOM     70  C   UNL     1       1.034   2.746   1.188  1.00  0.00     0.001 C 
BRANCH  70  71
ATOM     71  C   UNL     1       0.124   3.457   2.089  1.00  0.00    -0.055 C 
ATOM     72  C   UNL     1      -1.087   2.908   2.319  1.00  0.00    -0.018 C 
ATOM     73  C   UNL     1       0.607   4.746   2.701  1.00  0.00     0.044 C 
BRANCH  72  74
ATOM     74  C   UNL     1      -2.221   3.412   3.199  1.00  0.00     0.038 C 
ATOM     75  C   UNL     1      -2.534   2.305   4.214  1.00  0.00     0.015 C 
BRANCH  74  76
ATOM     76  C   UNL     1      -3.417   3.821   2.289  1.00  0.00     0.128 C 
BRANCH  76  77
ATOM     77  O   UNL     1      -4.659   3.495   2.936  1.00  0.00    -0.381 OA
ATOM     78  C   UNL     1      -5.793   4.111   2.338  1.00  0.00     0.195 C 
ENDBRANCH  76  77
BRANCH  76  79
ATOM     79  C   UNL     1      -3.363   5.290   1.801  1.00  0.00     0.068 C 
BRANCH  79  80
ATOM     80  C   UNL     1      -2.840   5.554   0.409  1.00  0.00    -0.045 A 
ATOM     81  C   UNL     1      -2.464   4.498  -0.432  1.00  0.00     0.004 A 
ATOM     82  C   UNL     1      -2.696   6.870  -0.055  1.00  0.00     0.004 A 
ATOM     83  C   UNL     1      -1.968   4.751  -1.713  1.00  0.00     0.000 A 
ATOM     84  C   UNL     1      -2.200   7.122  -1.336  1.00  0.00     0.000 A 
ATOM     85  C   UNL     1      -1.838   6.063  -2.165  1.00  0.00     0.000 A 
ENDBRANCH  79  80
ENDBRANCH  76  79
ENDBRANCH  74  76
ENDBRANCH  72  74
ENDBRANCH  70  71
ENDBRANCH   1  69
TORSDOF 17
ENDMDL
MODEL 3
REMARK VINA RESULT:    -6.340      2.148      4.182
REMARK INTER + INTRA:         -26.533
REMARK INTER:                 -20.288
REMARK INTRA:                  -6.244
REMARK UNBOUND:                -7.591
REMARK SMILES C=C1C(=O)N[C@H](C)C(=O)N[C@@H](CC(C)C)C(=O)N[C@@H](C(=O)O)[C@H](C)C(=O)N[C@@H](CCCN=C(N)N)C(=O)N[C@@H](/C=C/C(C)=C/[C@H](C)[C@H](Cc2ccccc2)OC)[C@H](C)C(=O)N[C@@H](C(=O)O)CCC(=O)N1C
REMARK SMILES IDX 39 1 38 2 37 3 36 4 28 6 27 7 25 8 26 9 23 11 24 12 19 13
REMARK SMILES IDX 18 14 16 15 17 16 11 18 10 19 8 20 9 21 12 24 13 25 14 26
REMARK SMILES IDX 15 27 20 28 21 29 22 30 29 32 30 33 31 34 32 35 33 36 34 37
REMARK SMILES IDX 35 38 57 43 58 44 59 45 60 46 61 47 62 49 66 50 67 51 68 52
REMARK SMILES IDX 69 53 70 54 71 55 2 56 1 57 3 58 4 59 5 60 6 62 7 63 63 65
REMARK SMILES IDX 64 66 65 67 40 69 41 70 42 71 44 72 43 73 45 74 46 75 47 76
REMARK SMILES IDX 55 77 56 78 48 79 49 80 50 81 54 82 51 83 53 84 52 85
REMARK H PARENT 38 5 27 10 18 17 10 22 22 31 34 39 34 40 35 41 35 42 61 48
REMARK H PARENT 5 61 65 68
REMARK Flexibility Score:  369.900
ROOT
ATOM      1  C   UNL     1       2.645   0.693  -2.841  1.00  0.00     0.117 C 
ENDROOT
BRANCH   1   2
ATOM      2  N   UNL     1       3.725   1.423  -2.175  1.00  0.00    -0.347 N 
ATOM      3  O   UNL     1       3.841   0.143  -0.273  1.00  0.00    -0.273 OA
ATOM      4  C   UNL     1       4.300   1.033  -0.981  1.00  0.00     0.243 C 
ATOM      5  H   UNL     1       4.121   2.235  -2.622  1.00  0.00     0.164 HD
BRANCH   4   6
ATOM      6  C   UNL     1       5.482   1.931  -0.536  1.00  0.00     0.171 C 
BRANCH   6   7
ATOM      7  N   UNL     1       6.615   1.787  -1.464  1.00  0.00    -0.344 N 
ATOM      8  C   UNL     1       7.663   0.941  -1.168  1.00  0.00     0.226 C 
ATOM      9  O   UNL     1       7.717   0.296  -0.128  1.00  0.00    -0.275 OA
ATOM     10  H   UNL     1       6.639   2.354  -2.302  1.00  0.00     0.164 HD
BRANCH   8  11
ATOM     11  C   UNL     1       8.727   0.861  -2.249  1.00  0.00     0.109 C 
ATOM     12  C   UNL     1       8.248   1.577  -3.512  1.00  0.00     0.021 C 
BRANCH  11  13
ATOM     13  C   UNL     1      10.075   1.361  -1.692  1.00  0.00     0.204 C 
BRANCH  13  14
ATOM     14  N   UNL     1       9.901   2.231  -0.525  1.00  0.00    -0.340 N 
ATOM     15  C   UNL     1      10.593   3.411  -0.361  1.00  0.00     0.243 C 
ATOM     16  O   UNL     1      11.363   3.849  -1.215  1.00  0.00    -0.273 OA
ATOM     17  H   UNL     1       9.397   1.856   0.283  1.00  0.00     0.164 HD
BRANCH  15  18
ATOM     18  C   UNL     1      10.403   4.052   1.036  1.00  0.00     0.171 C 
BRANCH  18  19
ATOM     19  N   UNL     1      10.124   2.957   1.963  1.00  0.00    -0.343 N 
ATOM     20  C   UNL     1       9.359   3.142   3.099  1.00  0.00     0.242 CG0
ATOM     21  O   UNL     1       8.991   4.260   3.452  1.00  0.00    -0.273 OA
ATOM     22  H   UNL     1      10.504   2.037   1.775  1.00  0.00     0.164 HD
ATOM     23  G   UNL     1       9.107   1.856   3.913  1.00  0.00     0.000 G0
ENDBRANCH  18  19
BRANCH  18  24
ATOM     24  C   UNL     1      11.658   4.832   1.449  1.00  0.00     0.038 C 
BRANCH  24  25
ATOM     25  C   UNL     1      11.408   6.313   1.802  1.00  0.00    -0.015 C 
ATOM     26  C   UNL     1      12.222   7.269   0.929  1.00  0.00     0.007 C 
ATOM     27  C   UNL     1      11.740   6.554   3.277  1.00  0.00     0.007 C 
ENDBRANCH  24  25
ENDBRANCH  18  24
ENDBRANCH  15  18
ENDBRANCH  13  14
BRANCH  13  28
ATOM     28  C   UNL     1      11.014   0.225  -1.275  1.00  0.00     0.327 C 
ATOM     29  O   UNL     1      10.887  -0.496  -0.298  1.00  0.00    -0.250 OA
BRANCH  28  30
ATOM     30  O   UNL     1      12.118   0.143  -2.045  1.00  0.00    -0.480 OA
ATOM     31  H   UNL     1      12.724  -0.435  -1.536  1.00  0.00     0.296 HD
ENDBRANCH  28  30
ENDBRANCH  13  28
ENDBRANCH  11  13
ENDBRANCH   8  11
ENDBRANCH   6   7
BRANCH   6  32
ATOM     32  C   UNL     1       5.011   3.388  -0.471  1.00  0.00     0.037 C 
BRANCH  32  33
ATOM     33  C   UNL     1       6.090   4.368  -0.951  1.00  0.00     0.026 C 
BRANCH  33  34
ATOM     34  C   UNL     1       5.860   5.790  -0.437  1.00  0.00     0.146 C 
BRANCH  34  35
ATOM     35  N   UNL     1       5.711   5.747   1.011  1.00  0.00    -0.254 NA
ATOM     36  C   UNL     1       6.699   6.113   1.741  1.00  0.00     0.185 C 
ATOM     37  N   UNL     1       6.571   6.082   3.077  1.00  0.00    -0.370 N 
ATOM     38  N   UNL     1       7.913   6.549   1.363  1.00  0.00    -0.370 N 
ATOM     39  H   UNL     1       5.678   5.774   3.441  1.00  0.00     0.159 HD
ATOM     40  H   UNL     1       7.226   6.512   3.708  1.00  0.00     0.159 HD
ATOM     41  H   UNL     1       8.654   6.674   2.033  1.00  0.00     0.159 HD
ATOM     42  H   UNL     1       8.155   6.608   0.386  1.00  0.00     0.159 HD
ENDBRANCH  34  35
ENDBRANCH  33  34
ENDBRANCH  32  33
ENDBRANCH   6  32
ENDBRANCH   4   6
ENDBRANCH   1   2
BRANCH   1  43
ATOM     43  C   UNL     1       2.820   0.846  -4.379  1.00  0.00     0.102 C 
ATOM     44  C   UNL     1       2.401   2.228  -4.909  1.00  0.00     0.020 C 
BRANCH  43  45
ATOM     45  C   UNL     1       2.176  -0.327  -5.125  1.00  0.00     0.225 C 
ATOM     46  O   UNL     1       1.701  -0.226  -6.253  1.00  0.00    -0.275 OA
ATOM     47  N   UNL     1       2.073  -1.499  -4.410  1.00  0.00    -0.342 N 
ATOM     48  H   UNL     1       2.597  -1.610  -3.554  1.00  0.00     0.164 HD
BRANCH  47  49
ATOM     49  C   UNL     1       1.511  -2.714  -5.008  1.00  0.00     0.192 C 
BRANCH  49  50
ATOM     50  C   UNL     1       0.020  -2.809  -4.674  1.00  0.00     0.047 C 
BRANCH  50  51
ATOM     51  C   UNL     1      -0.867  -2.640  -5.915  1.00  0.00     0.103 C 
BRANCH  51  52
ATOM     52  C   UNL     1      -1.389  -3.978  -6.434  1.00  0.00     0.226 C 
ATOM     53  O   UNL     1      -0.631  -4.732  -7.048  1.00  0.00    -0.275 OA
BRANCH  52  54
ATOM     54  N   UNL     1      -2.716  -4.305  -6.102  1.00  0.00    -0.311 N 
ATOM     55  C   UNL     1      -3.157  -4.346  -4.701  1.00  0.00     0.153 C 
BRANCH  54  56
ATOM     56  C   UNL     1      -3.668  -4.597  -7.092  1.00  0.00     0.102 C 
ATOM     57  C   UNL     1      -3.752  -3.982  -8.283  1.00  0.00     0.043 C 
BRANCH  56  58
ATOM     58  C   UNL     1      -4.678  -5.703  -6.895  1.00  0.00     0.268 C 
ATOM     59  O   UNL     1      -5.882  -5.502  -6.803  1.00  0.00    -0.268 OA
ATOM     60  N   UNL     1      -4.114  -6.956  -6.894  1.00  0.00    -0.339 N 
ATOM     61  H   UNL     1      -3.107  -7.037  -6.964  1.00  0.00     0.164 HD
BRANCH  60  62
ATOM     62  C   UNL     1      -4.918  -8.173  -6.779  1.00  0.00     0.168 CG0
ATOM     63  C   UNL     1      -5.236  -8.482  -5.322  1.00  0.00     0.041 C 
ATOM     64  G   UNL     1      -4.170  -9.351  -7.437  1.00  0.00     0.000 G0
ENDBRANCH  60  62
ENDBRANCH  56  58
ENDBRANCH  54  56
ENDBRANCH  52  54
ENDBRANCH  51  52
ENDBRANCH  50  51
ENDBRANCH  49  50
BRANCH  49  65
ATOM     65  C   UNL     1       2.227  -3.976  -4.504  1.00  0.00     0.326 C 
ATOM     66  O   UNL     1       3.010  -4.655  -5.152  1.00  0.00    -0.250 OA
BRANCH  65  67
ATOM     67  O   UNL     1       1.886  -4.357  -3.253  1.00  0.00    -0.480 OA
ATOM     68  H   UNL     1       2.739  -4.351  -2.769  1.00  0.00     0.296 HD
ENDBRANCH  65  67
ENDBRANCH  49  65
ENDBRANCH  47  49
ENDBRANCH  43  45
ENDBRANCH   1  43
BRANCH   1  69
ATOM     69  C   UNL     1       1.354   1.167  -2.199  1.00  0.00    -0.001 C 
ATOM     70  C   UNL     1       0.444   0.422  -1.547  1.00  0.00     0.001 C 
BRANCH  70  71
ATOM     71  C   UNL     1      -0.788   0.894  -0.912  1.00  0.00    -0.055 C 
ATOM     72  C   UNL     1      -0.706   1.978  -0.113  1.00  0.00    -0.018 C 
ATOM     73  C   UNL     1      -2.060   0.142  -1.203  1.00  0.00     0.044 C 
BRANCH  72  74
ATOM     74  C   UNL     1      -1.806   2.686   0.666  1.00  0.00     0.038 C 
ATOM     75  C   UNL     1      -2.373   3.781  -0.246  1.00  0.00     0.015 C 
BRANCH  74  76
ATOM     76  C   UNL     1      -1.217   3.198   2.013  1.00  0.00     0.128 C 
BRANCH  76  77
ATOM     77  O   UNL     1      -2.048   2.772   3.106  1.00  0.00    -0.381 OA
ATOM     78  C   UNL     1      -3.034   3.725   3.478  1.00  0.00     0.195 C 
ENDBRANCH  76  77
BRANCH  76  79
ATOM     79  C   UNL     1       0.277   2.843   2.222  1.00  0.00     0.068 C 
BRANCH  79  80
ATOM     80  C   UNL     1       1.206   3.940   2.684  1.00  0.00    -0.045 A 
ATOM     81  C   UNL     1       0.792   5.278   2.702  1.00  0.00     0.004 A 
ATOM     82  C   UNL     1       2.517   3.635   3.080  1.00  0.00     0.004 A 
ATOM     83  C   UNL     1       1.662   6.288   3.118  1.00  0.00     0.000 A 
ATOM     84  C   UNL     1       3.387   4.646   3.495  1.00  0.00     0.000 A 
ATOM     85  C   UNL     1       2.959   5.971   3.516  1.00  0.00     0.000 A 
ENDBRANCH  79  80
ENDBRANCH  76  79
ENDBRANCH  74  76
ENDBRANCH  72  74
ENDBRANCH  70  71
ENDBRANCH   1  69
TORSDOF 17
ENDMDL
MODEL 4
REMARK VINA RESULT:    -6.268      2.443      3.901
REMARK INTER + INTRA:         -26.317
REMARK INTER:                 -18.563
REMARK INTRA:                  -7.754
REMARK UNBOUND:                -7.591
REMARK SMILES C=C1C(=O)N[C@H](C)C(=O)N[C@@H](CC(C)C)C(=O)N[C@@H](C(=O)O)[C@H](C)C(=O)N[C@@H](CCCN=C(N)N)C(=O)N[C@@H](/C=C/C(C)=C/[C@H](C)[C@H](Cc2ccccc2)OC)[C@H](C)C(=O)N[C@@H](C(=O)O)CCC(=O)N1C
REMARK SMILES IDX 39 1 38 2 37 3 36 4 28 6 27 7 25 8 26 9 23 11 24 12 19 13
REMARK SMILES IDX 18 14 16 15 17 16 11 18 10 19 8 20 9 21 12 24 13 25 14 26
REMARK SMILES IDX 15 27 20 28 21 29 22 30 29 32 30 33 31 34 32 35 33 36 34 37
REMARK SMILES IDX 35 38 57 43 58 44 59 45 60 46 61 47 62 49 66 50 67 51 68 52
REMARK SMILES IDX 69 53 70 54 71 55 2 56 1 57 3 58 4 59 5 60 6 62 7 63 63 65
REMARK SMILES IDX 64 66 65 67 40 69 41 70 42 71 44 72 43 73 45 74 46 75 47 76
REMARK SMILES IDX 55 77 56 78 48 79 49 80 50 81 54 82 51 83 53 84 52 85
REMARK H PARENT 38 5 27 10 18 17 10 22 22 31 34 39 34 40 35 41 35 42 61 48
REMARK H PARENT 5 61 65 68
REMARK Flexibility Score:  369.900
ROOT
ATOM      1  C   UNL     1       2.636   0.527  -3.095  1.00  0.00     0.117 C 
ENDROOT
BRANCH   1   2
ATOM      2  N   UNL     1       3.745   1.090  -2.323  1.00  0.00    -0.347 N 
ATOM      3  O   UNL     1       3.091   0.348  -0.251  1.00  0.00    -0.273 OA
ATOM      4  C   UNL     1       3.932   0.876  -0.971  1.00  0.00     0.243 C 
ATOM      5  H   UNL     1       4.454   1.629  -2.796  1.00  0.00     0.164 HD
BRANCH   4   6
ATOM      6  C   UNL     1       5.231   1.513  -0.413  1.00  0.00     0.171 C 
BRANCH   6   7
ATOM      7  N   UNL     1       6.374   1.193  -1.282  1.00  0.00    -0.344 N 
ATOM      8  C   UNL     1       7.466   0.514  -0.785  1.00  0.00     0.226 C 
ATOM      9  O   UNL     1       7.551   0.168   0.387  1.00  0.00    -0.275 OA
ATOM     10  H   UNL     1       6.370   1.521  -2.240  1.00  0.00     0.164 HD
BRANCH   8  11
ATOM     11  C   UNL     1       8.538   0.211  -1.818  1.00  0.00     0.109 C 
ATOM     12  C   UNL     1       7.947   0.287  -3.226  1.00  0.00     0.021 C 
BRANCH  11  13
ATOM     13  C   UNL     1       9.762   1.117  -1.579  1.00  0.00     0.204 C 
BRANCH  13  14
ATOM     14  N   UNL     1       9.502   2.141  -0.562  1.00  0.00    -0.340 N 
ATOM     15  C   UNL     1       9.974   3.431  -0.662  1.00  0.00     0.243 C 
ATOM     16  O   UNL     1      10.598   3.833  -1.642  1.00  0.00    -0.273 OA
ATOM     17  H   UNL     1       9.124   1.837   0.339  1.00  0.00     0.164 HD
BRANCH  15  18
ATOM     18  C   UNL     1       9.754   4.271   0.621  1.00  0.00     0.171 C 
BRANCH  18  19
ATOM     19  N   UNL     1       9.585   5.657   0.189  1.00  0.00    -0.343 N 
ATOM     20  C   UNL     1      10.349   6.682   0.713  1.00  0.00     0.242 CG0
ATOM     21  O   UNL     1      11.112   6.497   1.658  1.00  0.00    -0.273 OA
ATOM     22  H   UNL     1       8.884   5.879  -0.510  1.00  0.00     0.164 HD
ATOM     23  G   UNL     1      10.084   8.063   0.079  1.00  0.00     0.000 G0
ENDBRANCH  18  19
BRANCH  18  24
ATOM     24  C   UNL     1       8.527   3.770   1.392  1.00  0.00     0.038 C 
BRANCH  24  25
ATOM     25  C   UNL     1       8.645   3.872   2.928  1.00  0.00    -0.015 C 
ATOM     26  C   UNL     1       8.276   5.260   3.451  1.00  0.00     0.007 C 
ATOM     27  C   UNL     1      10.071   3.521   3.359  1.00  0.00     0.007 C 
ENDBRANCH  24  25
ENDBRANCH  18  24
ENDBRANCH  15  18
ENDBRANCH  13  14
BRANCH  13  28
ATOM     28  C   UNL     1      11.008   0.343  -1.135  1.00  0.00     0.327 C 
ATOM     29  O   UNL     1      12.010   0.143  -1.803  1.00  0.00    -0.250 OA
BRANCH  28  30
ATOM     30  O   UNL     1      10.868  -0.232   0.077  1.00  0.00    -0.480 OA
ATOM     31  H   UNL     1      11.763  -0.571   0.287  1.00  0.00     0.296 HD
ENDBRANCH  28  30
ENDBRANCH  13  28
ENDBRANCH  11  13
ENDBRANCH   8  11
ENDBRANCH   6   7
BRANCH   6  32
ATOM     32  C   UNL     1       5.039   3.029  -0.298  1.00  0.00     0.037 C 
BRANCH  32  33
ATOM     33  C   UNL     1       6.013   3.806  -1.195  1.00  0.00     0.026 C 
BRANCH  33  34
ATOM     34  C   UNL     1       5.326   4.407  -2.422  1.00  0.00     0.146 C 
BRANCH  34  35
ATOM     35  N   UNL     1       5.254   3.391  -3.464  1.00  0.00    -0.254 NA
ATOM     36  C   UNL     1       6.091   3.444  -4.432  1.00  0.00     0.185 C 
ATOM     37  N   UNL     1       6.036   2.510  -5.394  1.00  0.00    -0.370 N 
ATOM     38  N   UNL     1       7.074   4.335  -4.652  1.00  0.00    -0.370 N 
ATOM     39  H   UNL     1       5.327   1.795  -5.294  1.00  0.00     0.159 HD
ATOM     40  H   UNL     1       6.756   2.380  -6.084  1.00  0.00     0.159 HD
ATOM     41  H   UNL     1       7.577   4.351  -5.524  1.00  0.00     0.159 HD
ATOM     42  H   UNL     1       7.221   5.103  -4.016  1.00  0.00     0.159 HD
ENDBRANCH  34  35
ENDBRANCH  33  34
ENDBRANCH  32  33
ENDBRANCH   6  32
ENDBRANCH   4   6
ENDBRANCH   1   2
BRANCH   1  43
ATOM     43  C   UNL     1       2.892   0.806  -4.604  1.00  0.00     0.102 C 
ATOM     44  C   UNL     1       2.331   2.157  -5.080  1.00  0.00     0.020 C 
BRANCH  43  45
ATOM     45  C   UNL     1       2.460  -0.385  -5.465  1.00  0.00     0.225 C 
ATOM     46  O   UNL     1       1.989  -0.262  -6.592  1.00  0.00    -0.275 OA
ATOM     47  N   UNL     1       2.544  -1.616  -4.857  1.00  0.00    -0.342 N 
ATOM     48  H   UNL     1       3.069  -1.716  -4.000  1.00  0.00     0.164 HD
BRANCH  47  49
ATOM     49  C   UNL     1       2.198  -2.849  -5.572  1.00  0.00     0.192 C 
BRANCH  49  50
ATOM     50  C   UNL     1       0.962  -3.486  -4.930  1.00  0.00     0.047 C 
BRANCH  50  51
ATOM     51  C   UNL     1      -0.201  -2.493  -4.795  1.00  0.00     0.103 C 
BRANCH  51  52
ATOM     52  C   UNL     1      -1.123  -2.846  -3.630  1.00  0.00     0.226 C 
ATOM     53  O   UNL     1      -0.640  -3.103  -2.526  1.00  0.00    -0.275 OA
BRANCH  52  54
ATOM     54  N   UNL     1      -2.506  -2.778  -3.883  1.00  0.00    -0.311 N 
ATOM     55  C   UNL     1      -3.127  -1.537  -4.364  1.00  0.00     0.153 C 
BRANCH  54  56
ATOM     56  C   UNL     1      -3.341  -3.892  -3.690  1.00  0.00     0.102 C 
ATOM     57  C   UNL     1      -4.298  -3.982  -2.752  1.00  0.00     0.043 C 
BRANCH  56  58
ATOM     58  C   UNL     1      -3.244  -5.098  -4.594  1.00  0.00     0.268 C 
ATOM     59  O   UNL     1      -2.578  -5.114  -5.621  1.00  0.00    -0.268 OA
ATOM     60  N   UNL     1      -3.924  -6.191  -4.112  1.00  0.00    -0.339 N 
ATOM     61  H   UNL     1      -4.461  -6.092  -3.258  1.00  0.00     0.164 HD
BRANCH  60  62
ATOM     62  C   UNL     1      -3.911  -7.482  -4.798  1.00  0.00     0.168 CG0
ATOM     63  C   UNL     1      -5.132  -7.636  -5.696  1.00  0.00     0.041 C 
ATOM     64  G   UNL     1      -3.852  -8.619  -3.758  1.00  0.00     0.000 G0
ENDBRANCH  60  62
ENDBRANCH  56  58
ENDBRANCH  54  56
ENDBRANCH  52  54
ENDBRANCH  51  52
ENDBRANCH  50  51
ENDBRANCH  49  50
BRANCH  49  65
ATOM     65  C   UNL     1       3.357  -3.857  -5.556  1.00  0.00     0.326 C 
ATOM     66  O   UNL     1       4.506  -3.624  -5.900  1.00  0.00    -0.250 OA
BRANCH  65  67
ATOM     67  O   UNL     1       3.011  -5.107  -5.175  1.00  0.00    -0.480 OA
ATOM     68  H   UNL     1       2.215  -5.302  -5.714  1.00  0.00     0.296 HD
ENDBRANCH  65  67
ENDBRANCH  49  65
ENDBRANCH  47  49
ENDBRANCH  43  45
ENDBRANCH   1  43
BRANCH   1  69
ATOM     69  C   UNL     1       1.364   1.055  -2.457  1.00  0.00    -0.001 C 
ATOM     70  C   UNL     1       0.183   0.422  -2.344  1.00  0.00     0.001 C 
BRANCH  70  71
ATOM     71  C   UNL     1      -1.032   0.934  -1.707  1.00  0.00    -0.055 C 
ATOM     72  C   UNL     1      -1.232   2.268  -1.719  1.00  0.00    -0.018 C 
ATOM     73  C   UNL     1      -1.976  -0.066  -1.091  1.00  0.00     0.044 C 
BRANCH  72  74
ATOM     74  C   UNL     1      -2.390   3.073  -1.145  1.00  0.00     0.038 C 
ATOM     75  C   UNL     1      -3.170   3.652  -2.332  1.00  0.00     0.015 C 
BRANCH  74  76
ATOM     76  C   UNL     1      -1.821   4.134  -0.158  1.00  0.00     0.128 C 
BRANCH  76  77
ATOM     77  O   UNL     1      -2.637   5.317  -0.184  1.00  0.00    -0.381 OA
ATOM     78  C   UNL     1      -1.893   6.523  -0.294  1.00  0.00     0.195 C 
ENDBRANCH  76  77
BRANCH  76  79
ATOM     79  C   UNL     1      -1.588   3.598   1.277  1.00  0.00     0.068 C 
BRANCH  79  80
ATOM     80  C   UNL     1      -0.176   3.595   1.811  1.00  0.00    -0.045 A 
ATOM     81  C   UNL     1       0.442   4.783   2.222  1.00  0.00     0.004 A 
ATOM     82  C   UNL     1       0.552   2.398   1.878  1.00  0.00     0.004 A 
ATOM     83  C   UNL     1       1.754   4.774   2.702  1.00  0.00     0.000 A 
ATOM     84  C   UNL     1       1.864   2.390   2.357  1.00  0.00     0.000 A 
ATOM     85  C   UNL     1       2.464   3.577   2.770  1.00  0.00     0.000 A 
ENDBRANCH  79  80
ENDBRANCH  76  79
ENDBRANCH  74  76
ENDBRANCH  72  74
ENDBRANCH  70  71
ENDBRANCH   1  69
TORSDOF 17
ENDMDL
MODEL 5
REMARK VINA RESULT:    -6.214      2.326     11.813
REMARK INTER + INTRA:         -26.157
REMARK INTER:                 -19.156
REMARK INTRA:                  -7.001
REMARK UNBOUND:                -7.591
REMARK SMILES C=C1C(=O)N[C@H](C)C(=O)N[C@@H](CC(C)C)C(=O)N[C@@H](C(=O)O)[C@H](C)C(=O)N[C@@H](CCCN=C(N)N)C(=O)N[C@@H](/C=C/C(C)=C/[C@H](C)[C@H](Cc2ccccc2)OC)[C@H](C)C(=O)N[C@@H](C(=O)O)CCC(=O)N1C
REMARK SMILES IDX 39 1 38 2 37 3 36 4 28 6 27 7 25 8 26 9 23 11 24 12 19 13
REMARK SMILES IDX 18 14 16 15 17 16 11 18 10 19 8 20 9 21 12 24 13 25 14 26
REMARK SMILES IDX 15 27 20 28 21 29 22 30 29 32 30 33 31 34 32 35 33 36 34 37
REMARK SMILES IDX 35 38 57 43 58 44 59 45 60 46 61 47 62 49 66 50 67 51 68 52
REMARK SMILES IDX 69 53 70 54 71 55 2 56 1 57 3 58 4 59 5 60 6 62 7 63 63 65
REMARK SMILES IDX 64 66 65 67 40 69 41 70 42 71 44 72 43 73 45 74 46 75 47 76
REMARK SMILES IDX 55 77 56 78 48 79 49 80 50 81 54 82 51 83 53 84 52 85
REMARK H PARENT 38 5 27 10 18 17 10 22 22 31 34 39 34 40 35 41 35 42 61 48
REMARK H PARENT 5 61 65 68
REMARK Flexibility Score:  369.900
ROOT
ATOM      1  C   UNL     1       6.237   2.400  -4.224  1.00  0.00     0.117 C 
ENDROOT
BRANCH   1   2
ATOM      2  N   UNL     1       5.031   1.589  -4.050  1.00  0.00    -0.347 N 
ATOM      3  O   UNL     1       3.693   2.689  -5.556  1.00  0.00    -0.273 OA
ATOM      4  C   UNL     1       3.881   1.742  -4.800  1.00  0.00     0.243 C 
ATOM      5  H   UNL     1       5.036   0.834  -3.381  1.00  0.00     0.164 HD
BRANCH   4   6
ATOM      6  C   UNL     1       2.781   0.699  -4.474  1.00  0.00     0.171 C 
BRANCH   6   7
ATOM      7  N   UNL     1       3.087  -0.588  -5.119  1.00  0.00    -0.344 N 
ATOM      8  C   UNL     1       2.503  -0.929  -6.320  1.00  0.00     0.226 C 
ATOM      9  O   UNL     1       1.698  -0.204  -6.892  1.00  0.00    -0.275 OA
ATOM     10  H   UNL     1       3.695  -1.243  -4.643  1.00  0.00     0.164 HD
BRANCH   8  11
ATOM     11  C   UNL     1       2.961  -2.263  -6.882  1.00  0.00     0.109 C 
ATOM     12  C   UNL     1       4.472  -2.417  -6.706  1.00  0.00     0.021 C 
BRANCH  11  13
ATOM     13  C   UNL     1       2.118  -3.402  -6.274  1.00  0.00     0.204 C 
BRANCH  13  14
ATOM     14  N   UNL     1       0.695  -3.059  -6.206  1.00  0.00    -0.340 N 
ATOM     15  C   UNL     1      -0.041  -3.142  -5.043  1.00  0.00     0.243 C 
ATOM     16  O   UNL     1       0.462  -3.453  -3.965  1.00  0.00    -0.273 OA
ATOM     17  H   UNL     1       0.186  -2.942  -7.086  1.00  0.00     0.164 HD
BRANCH  15  18
ATOM     18  C   UNL     1      -1.560  -2.933  -5.256  1.00  0.00     0.171 C 
BRANCH  18  19
ATOM     19  N   UNL     1      -2.222  -3.413  -4.044  1.00  0.00    -0.343 N 
ATOM     20  C   UNL     1      -3.118  -4.464  -4.071  1.00  0.00     0.242 CG0
ATOM     21  O   UNL     1      -3.500  -4.957  -5.129  1.00  0.00    -0.273 OA
ATOM     22  H   UNL     1      -2.027  -2.960  -3.158  1.00  0.00     0.164 HD
ATOM     23  G   UNL     1      -3.654  -4.879  -2.685  1.00  0.00     0.000 G0
ENDBRANCH  18  19
BRANCH  18  24
ATOM     24  C   UNL     1      -1.872  -1.455  -5.519  1.00  0.00     0.038 C 
BRANCH  24  25
ATOM     25  C   UNL     1      -1.546  -0.509  -4.344  1.00  0.00    -0.015 C 
ATOM     26  C   UNL     1      -2.780  -0.171  -3.506  1.00  0.00     0.007 C 
ATOM     27  C   UNL     1      -0.919   0.781  -4.880  1.00  0.00     0.007 C 
ENDBRANCH  24  25
ENDBRANCH  18  24
ENDBRANCH  15  18
ENDBRANCH  13  14
BRANCH  13  28
ATOM     28  C   UNL     1       2.231  -4.718  -7.051  1.00  0.00     0.327 C 
ATOM     29  O   UNL     1       1.857  -4.915  -8.196  1.00  0.00    -0.250 OA
BRANCH  28  30
ATOM     30  O   UNL     1       2.699  -5.736  -6.300  1.00  0.00    -0.480 OA
ATOM     31  H   UNL     1       2.085  -5.776  -5.538  1.00  0.00     0.296 HD
ENDBRANCH  28  30
ENDBRANCH  13  28
ENDBRANCH  11  13
ENDBRANCH   8  11
ENDBRANCH   6   7
BRANCH   6  32
ATOM     32  C   UNL     1       2.674   0.538  -2.954  1.00  0.00     0.037 C 
BRANCH  32  33
ATOM     33  C   UNL     1       1.661  -0.544  -2.556  1.00  0.00     0.026 C 
BRANCH  33  34
ATOM     34  C   UNL     1       0.782  -0.118  -1.379  1.00  0.00     0.146 C 
BRANCH  34  35
ATOM     35  N   UNL     1       0.523   1.312  -1.480  1.00  0.00    -0.254 NA
ATOM     36  C   UNL     1      -0.562   1.776  -0.981  1.00  0.00     0.185 C 
ATOM     37  N   UNL     1      -0.809   3.093  -1.063  1.00  0.00    -0.370 N 
ATOM     38  N   UNL     1      -1.551   1.118  -0.350  1.00  0.00    -0.370 N 
ATOM     39  H   UNL     1      -0.103   3.659  -1.517  1.00  0.00     0.159 HD
ATOM     40  H   UNL     1      -1.541   3.554  -0.551  1.00  0.00     0.159 HD
ATOM     41  H   UNL     1      -2.420   1.575  -0.125  1.00  0.00     0.159 HD
ATOM     42  H   UNL     1      -1.506   0.118  -0.229  1.00  0.00     0.159 HD
ENDBRANCH  34  35
ENDBRANCH  33  34
ENDBRANCH  32  33
ENDBRANCH   6  32
ENDBRANCH   4   6
ENDBRANCH   1   2
BRANCH   1  43
ATOM     43  C   UNL     1       7.464   1.448  -4.318  1.00  0.00     0.102 C 
ATOM     44  C   UNL     1       7.339   0.394  -5.431  1.00  0.00     0.020 C 
BRANCH  43  45
ATOM     45  C   UNL     1       7.813   0.864  -2.946  1.00  0.00     0.225 C 
ATOM     46  O   UNL     1       7.158  -0.025  -2.409  1.00  0.00    -0.275 OA
ATOM     47  N   UNL     1       8.867   1.466  -2.296  1.00  0.00    -0.342 N 
ATOM     48  H   UNL     1       9.483   2.082  -2.807  1.00  0.00     0.164 HD
BRANCH  47  49
ATOM     49  C   UNL     1       9.335   0.989  -0.991  1.00  0.00     0.192 C 
BRANCH  49  50
ATOM     50  C   UNL     1       9.472   2.172  -0.030  1.00  0.00     0.047 C 
BRANCH  50  51
ATOM     51  C   UNL     1      10.014   3.428  -0.725  1.00  0.00     0.103 C 
BRANCH  51  52
ATOM     52  C   UNL     1      10.691   4.381   0.258  1.00  0.00     0.226 C 
ATOM     53  O   UNL     1      11.892   4.253   0.502  1.00  0.00    -0.275 OA
BRANCH  52  54
ATOM     54  N   UNL     1       9.893   5.417   0.776  1.00  0.00    -0.311 N 
ATOM     55  C   UNL     1       8.963   6.159  -0.086  1.00  0.00     0.153 C 
BRANCH  54  56
ATOM     56  C   UNL     1       9.950   5.777   2.133  1.00  0.00     0.102 C 
ATOM     57  C   UNL     1       9.868   4.916   3.160  1.00  0.00     0.043 C 
BRANCH  56  58
ATOM     58  C   UNL     1      10.161   7.215   2.545  1.00  0.00     0.268 C 
ATOM     59  O   UNL     1      11.117   7.884   2.176  1.00  0.00    -0.268 OA
ATOM     60  N   UNL     1       9.140   7.710   3.321  1.00  0.00    -0.339 N 
ATOM     61  H   UNL     1       8.389   7.087   3.592  1.00  0.00     0.164 HD
BRANCH  60  62
ATOM     62  C   UNL     1       9.112   9.098   3.778  1.00  0.00     0.168 CG0
ATOM     63  C   UNL     1       8.367   9.986   2.789  1.00  0.00     0.041 C 
ATOM     64  G   UNL     1      10.555   9.603   3.985  1.00  0.00     0.000 G0
ENDBRANCH  60  62
ENDBRANCH  56  58
ENDBRANCH  54  56
ENDBRANCH  52  54
ENDBRANCH  51  52
ENDBRANCH  50  51
ENDBRANCH  49  50
BRANCH  49  65
ATOM     65  C   UNL     1      10.687   0.266  -1.104  1.00  0.00     0.326 C 
ATOM     66  O   UNL     1      11.308   0.079  -2.140  1.00  0.00    -0.250 OA
BRANCH  65  67
ATOM     67  O   UNL     1      11.158  -0.233   0.059  1.00  0.00    -0.480 OA
ATOM     68  H   UNL     1      12.120  -0.337  -0.106  1.00  0.00     0.296 HD
ENDBRANCH  65  67
ENDBRANCH  49  65
ENDBRANCH  47  49
ENDBRANCH  43  45
ENDBRANCH   1  43
BRANCH   1  69
ATOM     69  C   UNL     1       6.204   3.449  -3.128  1.00  0.00    -0.001 C 
ATOM     70  C   UNL     1       5.260   3.616  -2.185  1.00  0.00     0.001 C 
BRANCH  70  71
ATOM     71  C   UNL     1       5.250   4.620  -1.119  1.00  0.00    -0.055 C 
ATOM     72  C   UNL     1       4.900   4.215   0.120  1.00  0.00    -0.018 C 
ATOM     73  C   UNL     1       5.638   6.030  -1.478  1.00  0.00     0.044 C 
BRANCH  72  74
ATOM     74  C   UNL     1       4.804   5.024   1.406  1.00  0.00     0.038 C 
ATOM     75  C   UNL     1       6.204   5.046   2.032  1.00  0.00     0.015 C 
BRANCH  74  76
ATOM     76  C   UNL     1       3.695   4.404   2.307  1.00  0.00     0.128 C 
BRANCH  76  77
ATOM     77  O   UNL     1       3.077   5.430   3.100  1.00  0.00    -0.381 OA
ATOM     78  C   UNL     1       3.368   5.332   4.488  1.00  0.00     0.195 C 
ENDBRANCH  76  77
BRANCH  76  79
ATOM     79  C   UNL     1       2.666   3.541   1.534  1.00  0.00     0.068 C 
BRANCH  79  80
ATOM     80  C   UNL     1       1.232   3.562   2.003  1.00  0.00    -0.045 A 
ATOM     81  C   UNL     1       0.599   2.392   2.443  1.00  0.00     0.004 A 
ATOM     82  C   UNL     1       0.497   4.757   1.980  1.00  0.00     0.004 A 
ATOM     83  C   UNL     1      -0.733   2.416   2.862  1.00  0.00     0.000 A 
ATOM     84  C   UNL     1      -0.835   4.781   2.400  1.00  0.00     0.000 A 
ATOM     85  C   UNL     1      -1.449   3.611   2.842  1.00  0.00     0.000 A 
ENDBRANCH  79  80
ENDBRANCH  76  79
ENDBRANCH  74  76
ENDBRANCH  72  74
ENDBRANCH  70  71
ENDBRANCH   1  69
TORSDOF 17
ENDMDL
MODEL 6
REMARK VINA RESULT:    -6.102      2.407      4.693
REMARK INTER + INTRA:         -25.823
REMARK INTER:                 -19.138
REMARK INTRA:                  -6.685
REMARK UNBOUND:                -7.591
REMARK SMILES C=C1C(=O)N[C@H](C)C(=O)N[C@@H](CC(C)C)C(=O)N[C@@H](C(=O)O)[C@H](C)C(=O)N[C@@H](CCCN=C(N)N)C(=O)N[C@@H](/C=C/C(C)=C/[C@H](C)[C@H](Cc2ccccc2)OC)[C@H](C)C(=O)N[C@@H](C(=O)O)CCC(=O)N1C
REMARK SMILES IDX 39 1 38 2 37 3 36 4 28 6 27 7 25 8 26 9 23 11 24 12 19 13
REMARK SMILES IDX 18 14 16 15 17 16 11 18 10 19 8 20 9 21 12 24 13 25 14 26
REMARK SMILES IDX 15 27 20 28 21 29 22 30 29 32 30 33 31 34 32 35 33 36 34 37
REMARK SMILES IDX 35 38 57 43 58 44 59 45 60 46 61 47 62 49 66 50 67 51 68 52
REMARK SMILES IDX 69 53 70 54 71 55 2 56 1 57 3 58 4 59 5 60 6 62 7 63 63 65
REMARK SMILES IDX 64 66 65 67 40 69 41 70 42 71 44 72 43 73 45 74 46 75 47 76
REMARK SMILES IDX 55 77 56 78 48 79 49 80 50 81 54 82 51 83 53 84 52 85
REMARK H PARENT 38 5 27 10 18 17 10 22 22 31 34 39 34 40 35 41 35 42 61 48
REMARK H PARENT 5 61 65 68
REMARK Flexibility Score:  369.900
ROOT
ATOM      1  C   UNL     1       1.433   0.768  -1.842  1.00  0.00     0.117 C 
ENDROOT
BRANCH   1   2
ATOM      2  N   UNL     1       2.604   1.611  -1.603  1.00  0.00    -0.347 N 
ATOM      3  O   UNL     1       3.788   0.141  -0.297  1.00  0.00    -0.273 OA
ATOM      4  C   UNL     1       3.732   1.194  -0.923  1.00  0.00     0.243 C 
ATOM      5  H   UNL     1       2.631   2.541  -1.993  1.00  0.00     0.164 HD
BRANCH   4   6
ATOM      6  C   UNL     1       4.864   2.252  -0.885  1.00  0.00     0.171 C 
BRANCH   6   7
ATOM      7  N   UNL     1       4.633   3.213   0.204  1.00  0.00    -0.344 N 
ATOM      8  C   UNL     1       5.241   4.450   0.191  1.00  0.00     0.226 C 
ATOM      9  O   UNL     1       6.008   4.799  -0.699  1.00  0.00    -0.275 OA
ATOM     10  H   UNL     1       4.059   2.936   0.990  1.00  0.00     0.164 HD
BRANCH   8  11
ATOM     11  C   UNL     1       4.859   5.347   1.355  1.00  0.00     0.109 C 
ATOM     12  C   UNL     1       3.740   4.702   2.172  1.00  0.00     0.021 C 
BRANCH  11  13
ATOM     13  C   UNL     1       6.119   5.719   2.162  1.00  0.00     0.204 C 
BRANCH  13  14
ATOM     14  N   UNL     1       7.253   4.844   1.848  1.00  0.00    -0.340 N 
ATOM     15  C   UNL     1       8.316   4.659   2.706  1.00  0.00     0.243 C 
ATOM     16  O   UNL     1       8.358   5.169   3.824  1.00  0.00    -0.273 OA
ATOM     17  H   UNL     1       7.353   4.515   0.884  1.00  0.00     0.164 HD
BRANCH  15  18
ATOM     18  C   UNL     1       9.486   3.863   2.078  1.00  0.00     0.171 C 
BRANCH  18  19
ATOM     19  N   UNL     1       9.787   2.767   2.997  1.00  0.00    -0.343 N 
ATOM     20  C   UNL     1      10.887   2.797   3.832  1.00  0.00     0.242 CG0
ATOM     21  O   UNL     1      11.735   3.682   3.747  1.00  0.00    -0.273 OA
ATOM     22  H   UNL     1       9.178   1.957   3.021  1.00  0.00     0.164 HD
ATOM     23  G   UNL     1      10.996   1.589   4.785  1.00  0.00     0.000 G0
ENDBRANCH  18  19
BRANCH  18  24
ATOM     24  C   UNL     1       9.103   3.342   0.688  1.00  0.00     0.038 C 
BRANCH  24  25
ATOM     25  C   UNL     1      10.103   3.698  -0.432  1.00  0.00    -0.015 C 
ATOM     26  C   UNL     1      11.275   4.538   0.075  1.00  0.00     0.007 C 
ATOM     27  C   UNL     1       9.377   4.449  -1.552  1.00  0.00     0.007 C 
ENDBRANCH  24  25
ENDBRANCH  18  24
ENDBRANCH  15  18
ENDBRANCH  13  14
BRANCH  13  28
ATOM     28  C   UNL     1       6.581   7.161   1.930  1.00  0.00     0.327 C 
ATOM     29  O   UNL     1       6.874   7.662   0.856  1.00  0.00    -0.250 OA
BRANCH  28  30
ATOM     30  O   UNL     1       6.760   7.849   3.076  1.00  0.00    -0.480 OA
ATOM     31  H   UNL     1       7.732   7.869   3.196  1.00  0.00     0.296 HD
ENDBRANCH  28  30
ENDBRANCH  13  28
ENDBRANCH  11  13
ENDBRANCH   8  11
ENDBRANCH   6   7
BRANCH   6  32
ATOM     32  C   UNL     1       6.211   1.541  -0.712  1.00  0.00     0.037 C 
BRANCH  32  33
ATOM     33  C   UNL     1       6.645   0.803  -1.986  1.00  0.00     0.026 C 
BRANCH  33  34
ATOM     34  C   UNL     1       8.136   0.971  -2.280  1.00  0.00     0.146 C 
BRANCH  34  35
ATOM     35  N   UNL     1       8.900   0.391  -1.184  1.00  0.00    -0.254 NA
ATOM     36  C   UNL     1      10.172   0.296  -1.304  1.00  0.00     0.185 C 
ATOM     37  N   UNL     1      10.886  -0.232  -0.298  1.00  0.00    -0.370 N 
ATOM     38  N   UNL     1      10.953   0.664  -2.335  1.00  0.00    -0.370 N 
ATOM     39  H   UNL     1      10.369  -0.524   0.521  1.00  0.00     0.159 HD
ATOM     40  H   UNL     1      11.889  -0.181  -0.241  1.00  0.00     0.159 HD
ATOM     41  H   UNL     1      11.927   0.410  -2.367  1.00  0.00     0.159 HD
ATOM     42  H   UNL     1      10.548   1.062  -3.168  1.00  0.00     0.159 HD
ENDBRANCH  34  35
ENDBRANCH  33  34
ENDBRANCH  32  33
ENDBRANCH   6  32
ENDBRANCH   4   6
ENDBRANCH   1   2
BRANCH   1  43
ATOM     43  C   UNL     1       1.099   0.802  -3.362  1.00  0.00     0.102 C 
ATOM     44  C   UNL     1      -0.393   0.585  -3.666  1.00  0.00     0.020 C 
BRANCH  43  45
ATOM     45  C   UNL     1       2.035  -0.119  -4.151  1.00  0.00     0.225 C 
ATOM     46  O   UNL     1       3.211   0.151  -4.374  1.00  0.00    -0.275 OA
ATOM     47  N   UNL     1       1.447  -1.243  -4.685  1.00  0.00    -0.342 N 
ATOM     48  H   UNL     1       0.530  -1.526  -4.370  1.00  0.00     0.164 HD
BRANCH  47  49
ATOM     49  C   UNL     1       2.228  -2.233  -5.434  1.00  0.00     0.192 C 
BRANCH  49  50
ATOM     50  C   UNL     1       1.694  -2.333  -6.865  1.00  0.00     0.047 C 
BRANCH  50  51
ATOM     51  C   UNL     1       0.221  -1.914  -6.967  1.00  0.00     0.103 C 
BRANCH  51  52
ATOM     52  C   UNL     1      -0.712  -3.118  -7.082  1.00  0.00     0.226 C 
ATOM     53  O   UNL     1      -0.243  -4.258  -7.048  1.00  0.00    -0.275 OA
BRANCH  52  54
ATOM     54  N   UNL     1      -2.090  -2.840  -7.146  1.00  0.00    -0.311 N 
ATOM     55  C   UNL     1      -2.672  -1.724  -6.389  1.00  0.00     0.153 C 
BRANCH  54  56
ATOM     56  C   UNL     1      -2.956  -3.612  -7.938  1.00  0.00     0.102 C 
ATOM     57  C   UNL     1      -2.990  -3.596  -9.281  1.00  0.00     0.043 C 
BRANCH  56  58
ATOM     58  C   UNL     1      -3.920  -4.588  -7.306  1.00  0.00     0.268 C 
ATOM     59  O   UNL     1      -5.125  -4.574  -7.520  1.00  0.00    -0.268 OA
ATOM     60  N   UNL     1      -3.299  -5.531  -6.522  1.00  0.00    -0.339 N 
ATOM     61  H   UNL     1      -2.297  -5.467  -6.386  1.00  0.00     0.164 HD
BRANCH  60  62
ATOM     62  C   UNL     1      -4.037  -6.608  -5.865  1.00  0.00     0.168 CG0
ATOM     63  C   UNL     1      -4.455  -6.206  -4.456  1.00  0.00     0.041 C 
ATOM     64  G   UNL     1      -3.172  -7.885  -5.835  1.00  0.00     0.000 G0
ENDBRANCH  60  62
ENDBRANCH  56  58
ENDBRANCH  54  56
ENDBRANCH  52  54
ENDBRANCH  51  52
ENDBRANCH  50  51
ENDBRANCH  49  50
BRANCH  49  65
ATOM     65  C   UNL     1       2.171  -3.618  -4.771  1.00  0.00     0.326 C 
ATOM     66  O   UNL     1       1.884  -3.836  -3.603  1.00  0.00    -0.250 OA
BRANCH  65  67
ATOM     67  O   UNL     1       2.530  -4.643  -5.576  1.00  0.00    -0.480 OA
ATOM     68  H   UNL     1       1.877  -4.602  -6.308  1.00  0.00     0.296 HD
ENDBRANCH  65  67
ENDBRANCH  49  65
ENDBRANCH  47  49
ENDBRANCH  43  45
ENDBRANCH   1  43
BRANCH   1  69
ATOM     69  C   UNL     1       0.377   1.218  -0.849  1.00  0.00    -0.001 C 
ATOM     70  C   UNL     1       0.538   2.053   0.192  1.00  0.00     0.001 C 
BRANCH  70  71
ATOM     71  C   UNL     1      -0.494   2.497   1.131  1.00  0.00    -0.055 C 
ATOM     72  C   UNL     1      -1.651   2.966   0.617  1.00  0.00    -0.018 C 
ATOM     73  C   UNL     1      -0.196   2.393   2.604  1.00  0.00     0.044 C 
BRANCH  72  74
ATOM     74  C   UNL     1      -2.885   3.486   1.340  1.00  0.00     0.038 C 
ATOM     75  C   UNL     1      -4.084   3.257   0.411  1.00  0.00     0.015 C 
BRANCH  74  76
ATOM     76  C   UNL     1      -2.643   4.972   1.739  1.00  0.00     0.128 C 
BRANCH  76  77
ATOM     77  O   UNL     1      -3.765   5.777   1.339  1.00  0.00    -0.381 OA
ATOM     78  C   UNL     1      -3.409   6.894   0.536  1.00  0.00     0.195 C 
ENDBRANCH  76  77
BRANCH  76  79
ATOM     79  C   UNL     1      -2.263   5.170   3.228  1.00  0.00     0.068 C 
BRANCH  79  80
ATOM     80  C   UNL     1      -1.178   6.167   3.555  1.00  0.00    -0.045 A 
ATOM     81  C   UNL     1       0.119   6.016   3.044  1.00  0.00     0.004 A 
ATOM     82  C   UNL     1      -1.446   7.252   4.403  1.00  0.00     0.004 A 
ATOM     83  C   UNL     1       1.120   6.936   3.363  1.00  0.00     0.000 A 
ATOM     84  C   UNL     1      -0.443   8.170   4.721  1.00  0.00     0.000 A 
ATOM     85  C   UNL     1       0.839   8.013   4.200  1.00  0.00     0.000 A 
ENDBRANCH  79  80
ENDBRANCH  76  79
ENDBRANCH  74  76
ENDBRANCH  72  74
ENDBRANCH  70  71
ENDBRANCH   1  69
TORSDOF 17
ENDMDL
MODEL 7
REMARK VINA RESULT:    -6.076      4.679      7.296
REMARK INTER + INTRA:         -25.744
REMARK INTER:                 -19.230
REMARK INTRA:                  -6.514
REMARK UNBOUND:                -7.591
REMARK SMILES C=C1C(=O)N[C@H](C)C(=O)N[C@@H](CC(C)C)C(=O)N[C@@H](C(=O)O)[C@H](C)C(=O)N[C@@H](CCCN=C(N)N)C(=O)N[C@@H](/C=C/C(C)=C/[C@H](C)[C@H](Cc2ccccc2)OC)[C@H](C)C(=O)N[C@@H](C(=O)O)CCC(=O)N1C
REMARK SMILES IDX 39 1 38 2 37 3 36 4 28 6 27 7 25 8 26 9 23 11 24 12 19 13
REMARK SMILES IDX 18 14 16 15 17 16 11 18 10 19 8 20 9 21 12 24 13 25 14 26
REMARK SMILES IDX 15 27 20 28 21 29 22 30 29 32 30 33 31 34 32 35 33 36 34 37
REMARK SMILES IDX 35 38 57 43 58 44 59 45 60 46 61 47 62 49 66 50 67 51 68 52
REMARK SMILES IDX 69 53 70 54 71 55 2 56 1 57 3 58 4 59 5 60 6 62 7 63 63 65
REMARK SMILES IDX 64 66 65 67 40 69 41 70 42 71 44 72 43 73 45 74 46 75 47 76
REMARK SMILES IDX 55 77 56 78 48 79 49 80 50 81 54 82 51 83 53 84 52 85
REMARK H PARENT 38 5 27 10 18 17 10 22 22 31 34 39 34 40 35 41 35 42 61 48
REMARK H PARENT 5 61 65 68
REMARK Flexibility Score:  369.900
ROOT
ATOM      1  C   UNL     1       3.591   1.385  -0.985  1.00  0.00     0.117 C 
ENDROOT
BRANCH   1   2
ATOM      2  N   UNL     1       4.884   2.040  -0.782  1.00  0.00    -0.347 N 
ATOM      3  O   UNL     1       6.161   0.146  -0.554  1.00  0.00    -0.273 OA
ATOM      4  C   UNL     1       6.084   1.364  -0.674  1.00  0.00     0.243 C 
ATOM      5  H   UNL     1       4.931   3.047  -0.767  1.00  0.00     0.164 HD
BRANCH   4   6
ATOM      6  C   UNL     1       7.316   2.297  -0.551  1.00  0.00     0.171 C 
BRANCH   6   7
ATOM      7  N   UNL     1       6.912   3.619  -0.046  1.00  0.00    -0.344 N 
ATOM      8  C   UNL     1       7.303   4.769  -0.696  1.00  0.00     0.226 C 
ATOM      9  O   UNL     1       8.012   4.754  -1.695  1.00  0.00    -0.275 OA
ATOM     10  H   UNL     1       6.382   3.674   0.815  1.00  0.00     0.164 HD
BRANCH   8  11
ATOM     11  C   UNL     1       6.760   6.049  -0.083  1.00  0.00     0.109 C 
ATOM     12  C   UNL     1       5.263   5.907   0.190  1.00  0.00     0.021 C 
BRANCH  11  13
ATOM     13  C   UNL     1       7.609   6.441   1.142  1.00  0.00     0.204 C 
BRANCH  13  14
ATOM     14  N   UNL     1       7.968   7.863   1.133  1.00  0.00    -0.340 N 
ATOM     15  C   UNL     1       9.270   8.307   1.211  1.00  0.00     0.243 C 
ATOM     16  O   UNL     1      10.229   7.538   1.233  1.00  0.00    -0.273 OA
ATOM     17  H   UNL     1       7.219   8.547   1.269  1.00  0.00     0.164 HD
BRANCH  15  18
ATOM     18  C   UNL     1       9.391   9.840   1.395  1.00  0.00     0.171 C 
BRANCH  18  19
ATOM     19  N   UNL     1       9.696  10.069   2.806  1.00  0.00    -0.343 N 
ATOM     20  C   UNL     1       8.716  10.033   3.779  1.00  0.00     0.242 CG0
ATOM     21  O   UNL     1       7.526   9.938   3.490  1.00  0.00    -0.273 OA
ATOM     22  H   UNL     1      10.651  10.267   3.082  1.00  0.00     0.164 HD
ATOM     23  G   UNL     1       9.240  10.220   5.218  1.00  0.00     0.000 G0
ENDBRANCH  18  19
BRANCH  18  24
ATOM     24  C   UNL     1      10.484  10.410   0.483  1.00  0.00     0.038 C 
BRANCH  24  25
ATOM     25  C   UNL     1       9.976  11.386  -0.599  1.00  0.00    -0.015 C 
ATOM     26  C   UNL     1       9.027  12.443  -0.035  1.00  0.00     0.007 C 
ATOM     27  C   UNL     1       9.272  10.602  -1.710  1.00  0.00     0.007 C 
ENDBRANCH  24  25
ENDBRANCH  18  24
ENDBRANCH  15  18
ENDBRANCH  13  14
BRANCH  13  28
ATOM     28  C   UNL     1       6.911   6.157   2.476  1.00  0.00     0.327 C 
ATOM     29  O   UNL     1       6.700   5.056   2.961  1.00  0.00    -0.250 OA
BRANCH  28  30
ATOM     30  O   UNL     1       6.417   7.267   3.060  1.00  0.00    -0.480 OA
ATOM     31  H   UNL     1       6.418   7.057   4.017  1.00  0.00     0.296 HD
ENDBRANCH  28  30
ENDBRANCH  13  28
ENDBRANCH  11  13
ENDBRANCH   8  11
ENDBRANCH   6   7
BRANCH   6  32
ATOM     32  C   UNL     1       8.348   1.648   0.377  1.00  0.00     0.037 C 
BRANCH  32  33
ATOM     33  C   UNL     1       9.788   2.004  -0.019  1.00  0.00     0.026 C 
BRANCH  33  34
ATOM     34  C   UNL     1      10.463   0.898  -0.830  1.00  0.00     0.146 C 
BRANCH  34  35
ATOM     35  N   UNL     1      10.175   1.109  -2.242  1.00  0.00    -0.254 NA
ATOM     36  C   UNL     1      10.932   0.554  -3.113  1.00  0.00     0.185 C 
ATOM     37  N   UNL     1      10.673   0.737  -4.417  1.00  0.00    -0.370 N 
ATOM     38  N   UNL     1      12.008  -0.230  -2.921  1.00  0.00    -0.370 N 
ATOM     39  H   UNL     1       9.869   1.309  -4.644  1.00  0.00     0.159 HD
ATOM     40  H   UNL     1      11.106   0.203  -5.151  1.00  0.00     0.159 HD
ATOM     41  H   UNL     1      12.605  -0.492  -3.688  1.00  0.00     0.159 HD
ATOM     42  H   UNL     1      12.329  -0.440  -1.988  1.00  0.00     0.159 HD
ENDBRANCH  34  35
ENDBRANCH  33  34
ENDBRANCH  32  33
ENDBRANCH   6  32
ENDBRANCH   4   6
ENDBRANCH   1   2
BRANCH   1  43
ATOM     43  C   UNL     1       3.120   1.660  -2.442  1.00  0.00     0.102 C 
ATOM     44  C   UNL     1       2.126   0.613  -2.972  1.00  0.00     0.020 C 
BRANCH  43  45
ATOM     45  C   UNL     1       4.315   1.906  -3.369  1.00  0.00     0.225 C 
ATOM     46  O   UNL     1       4.876   2.994  -3.465  1.00  0.00    -0.275 OA
ATOM     47  N   UNL     1       4.671   0.846  -4.171  1.00  0.00    -0.342 N 
ATOM     48  H   UNL     1       4.305  -0.075  -3.975  1.00  0.00     0.164 HD
BRANCH  47  49
ATOM     49  C   UNL     1       5.817   0.926  -5.082  1.00  0.00     0.192 C 
BRANCH  49  50
ATOM     50  C   UNL     1       5.692  -0.153  -6.161  1.00  0.00     0.047 C 
BRANCH  50  51
ATOM     51  C   UNL     1       6.460   0.211  -7.439  1.00  0.00     0.103 C 
BRANCH  51  52
ATOM     52  C   UNL     1       7.609  -0.758  -7.713  1.00  0.00     0.226 C 
ATOM     53  O   UNL     1       8.686  -0.607  -7.133  1.00  0.00    -0.275 OA
BRANCH  52  54
ATOM     54  N   UNL     1       7.330  -1.832  -8.578  1.00  0.00    -0.311 N 
ATOM     55  C   UNL     1       8.136  -3.060  -8.543  1.00  0.00     0.153 C 
BRANCH  54  56
ATOM     56  C   UNL     1       6.270  -1.776  -9.499  1.00  0.00     0.102 C 
ATOM     57  C   UNL     1       4.997  -2.103  -9.226  1.00  0.00     0.043 C 
BRANCH  56  58
ATOM     58  C   UNL     1       6.494  -1.278 -10.907  1.00  0.00     0.268 C 
ATOM     59  O   UNL     1       6.920  -0.159 -11.162  1.00  0.00    -0.268 OA
ATOM     60  N   UNL     1       6.234  -2.229 -11.864  1.00  0.00    -0.339 N 
ATOM     61  H   UNL     1       5.874  -3.130 -11.571  1.00  0.00     0.164 HD
BRANCH  60  62
ATOM     62  C   UNL     1       6.444  -1.979 -13.289  1.00  0.00     0.168 CG0
ATOM     63  C   UNL     1       7.719  -2.653 -13.781  1.00  0.00     0.041 C 
ATOM     64  G   UNL     1       6.498  -0.458 -13.544  1.00  0.00     0.000 G0
ENDBRANCH  60  62
ENDBRANCH  56  58
ENDBRANCH  54  56
ENDBRANCH  52  54
ENDBRANCH  51  52
ENDBRANCH  50  51
ENDBRANCH  49  50
BRANCH  49  65
ATOM     65  C   UNL     1       7.148   0.747  -4.335  1.00  0.00     0.326 C 
ATOM     66  O   UNL     1       7.611  -0.318  -3.954  1.00  0.00    -0.250 OA
BRANCH  65  67
ATOM     67  O   UNL     1       7.795   1.899  -4.053  1.00  0.00    -0.480 OA
ATOM     68  H   UNL     1       8.053   1.795  -3.112  1.00  0.00     0.296 HD
ENDBRANCH  65  67
ENDBRANCH  49  65
ENDBRANCH  47  49
ENDBRANCH  43  45
ENDBRANCH   1  43
BRANCH   1  69
ATOM     69  C   UNL     1       2.707   1.827   0.167  1.00  0.00    -0.001 C 
ATOM     70  C   UNL     1       2.795   2.968   0.873  1.00  0.00     0.001 C 
BRANCH  70  71
ATOM     71  C   UNL     1       1.922   3.393   1.969  1.00  0.00    -0.055 C 
ATOM     72  C   UNL     1       0.589   3.357   1.760  1.00  0.00    -0.018 C 
ATOM     73  C   UNL     1       2.573   3.833   3.255  1.00  0.00     0.044 C 
BRANCH  72  74
ATOM     74  C   UNL     1      -0.544   3.732   2.704  1.00  0.00     0.038 C 
ATOM     75  C   UNL     1      -1.716   2.789   2.402  1.00  0.00     0.015 C 
BRANCH  74  76
ATOM     76  C   UNL     1      -0.862   5.246   2.529  1.00  0.00     0.128 C 
BRANCH  76  77
ATOM     77  O   UNL     1      -0.672   5.632   1.158  1.00  0.00    -0.381 OA
ATOM     78  C   UNL     1      -1.846   6.143   0.540  1.00  0.00     0.195 C 
ENDBRANCH  76  77
BRANCH  76  79
ATOM     79  C   UNL     1      -2.247   5.667   3.084  1.00  0.00     0.068 C 
BRANCH  79  80
ATOM     80  C   UNL     1      -2.385   5.850   4.576  1.00  0.00    -0.045 A 
ATOM     81  C   UNL     1      -1.926   7.014   5.206  1.00  0.00     0.004 A 
ATOM     82  C   UNL     1      -2.954   4.837   5.363  1.00  0.00     0.004 A 
ATOM     83  C   UNL     1      -2.044   7.169   6.589  1.00  0.00     0.000 A 
ATOM     84  C   UNL     1      -3.071   4.993   6.746  1.00  0.00     0.000 A 
ATOM     85  C   UNL     1      -2.618   6.159   7.358  1.00  0.00     0.000 A 
ENDBRANCH  79  80
ENDBRANCH  76  79
ENDBRANCH  74  76
ENDBRANCH  72  74
ENDBRANCH  70  71
ENDBRANCH   1  69
TORSDOF 17
ENDMDL
MODEL 8
REMARK VINA RESULT:    -6.037      4.967      8.907
REMARK INTER + INTRA:         -25.626
REMARK INTER:                 -17.965
REMARK INTRA:                  -7.662
REMARK UNBOUND:                -7.591
REMARK SMILES C=C1C(=O)N[C@H](C)C(=O)N[C@@H](CC(C)C)C(=O)N[C@@H](C(=O)O)[C@H](C)C(=O)N[C@@H](CCCN=C(N)N)C(=O)N[C@@H](/C=C/C(C)=C/[C@H](C)[C@H](Cc2ccccc2)OC)[C@H](C)C(=O)N[C@@H](C(=O)O)CCC(=O)N1C
REMARK SMILES IDX 39 1 38 2 37 3 36 4 28 6 27 7 25 8 26 9 23 11 24 12 19 13
REMARK SMILES IDX 18 14 16 15 17 16 11 18 10 19 8 20 9 21 12 24 13 25 14 26
REMARK SMILES IDX 15 27 20 28 21 29 22 30 29 32 30 33 31 34 32 35 33 36 34 37
REMARK SMILES IDX 35 38 57 43 58 44 59 45 60 46 61 47 62 49 66 50 67 51 68 52
REMARK SMILES IDX 69 53 70 54 71 55 2 56 1 57 3 58 4 59 5 60 6 62 7 63 63 65
REMARK SMILES IDX 64 66 65 67 40 69 41 70 42 71 44 72 43 73 45 74 46 75 47 76
REMARK SMILES IDX 55 77 56 78 48 79 49 80 50 81 54 82 51 83 53 84 52 85
REMARK H PARENT 38 5 27 10 18 17 10 22 22 31 34 39 34 40 35 41 35 42 61 48
REMARK H PARENT 5 61 65 68
REMARK Flexibility Score:  369.900
ROOT
ATOM      1  C   UNL     1       6.766   0.537  -5.961  1.00  0.00     0.117 C 
ENDROOT
BRANCH   1   2
ATOM      2  N   UNL     1       7.595   1.575  -5.347  1.00  0.00    -0.347 N 
ATOM      3  O   UNL     1       9.396   0.258  -4.807  1.00  0.00    -0.273 OA
ATOM      4  C   UNL     1       8.886   1.369  -4.900  1.00  0.00     0.243 C 
ATOM      5  H   UNL     1       7.240   2.517  -5.280  1.00  0.00     0.164 HD
BRANCH   4   6
ATOM      6  C   UNL     1       9.574   2.653  -4.370  1.00  0.00     0.171 C 
BRANCH   6   7
ATOM      7  N   UNL     1       9.055   3.002  -3.038  1.00  0.00    -0.344 N 
ATOM      8  C   UNL     1       7.940   3.801  -2.905  1.00  0.00     0.226 C 
ATOM      9  O   UNL     1       7.347   4.272  -3.868  1.00  0.00    -0.275 OA
ATOM     10  H   UNL     1       9.558   2.688  -2.218  1.00  0.00     0.164 HD
BRANCH   8  11
ATOM     11  C   UNL     1       7.499   4.025  -1.470  1.00  0.00     0.109 C 
ATOM     12  C   UNL     1       6.182   3.295  -1.204  1.00  0.00     0.021 C 
BRANCH  11  13
ATOM     13  C   UNL     1       8.647   3.660  -0.508  1.00  0.00     0.204 C 
BRANCH  13  14
ATOM     14  N   UNL     1       9.613   4.754  -0.363  1.00  0.00    -0.340 N 
ATOM     15  C   UNL     1      10.839   4.593   0.245  1.00  0.00     0.243 C 
ATOM     16  O   UNL     1      11.235   3.504   0.656  1.00  0.00    -0.273 OA
ATOM     17  H   UNL     1       9.289   5.708  -0.543  1.00  0.00     0.164 HD
BRANCH  15  18
ATOM     18  C   UNL     1      11.598   5.925   0.469  1.00  0.00     0.171 C 
BRANCH  18  19
ATOM     19  N   UNL     1      12.357   5.770   1.709  1.00  0.00    -0.343 N 
ATOM     20  C   UNL     1      12.074   6.520   2.834  1.00  0.00     0.242 CG0
ATOM     21  O   UNL     1      11.263   7.443   2.806  1.00  0.00    -0.273 OA
ATOM     22  H   UNL     1      13.116   5.100   1.747  1.00  0.00     0.164 HD
ATOM     23  G   UNL     1      12.928   6.163   4.069  1.00  0.00     0.000 G0
ENDBRANCH  18  19
BRANCH  18  24
ATOM     24  C   UNL     1      12.518   6.230  -0.719  1.00  0.00     0.038 C 
BRANCH  24  25
ATOM     25  C   UNL     1      12.007   7.341  -1.661  1.00  0.00    -0.015 C 
ATOM     26  C   UNL     1      10.983   8.255  -0.987  1.00  0.00     0.007 C 
ATOM     27  C   UNL     1      11.389   6.710  -2.912  1.00  0.00     0.007 C 
ENDBRANCH  24  25
ENDBRANCH  18  24
ENDBRANCH  15  18
ENDBRANCH  13  14
BRANCH  13  28
ATOM     28  C   UNL     1       8.163   3.292   0.898  1.00  0.00     0.327 C 
ATOM     29  O   UNL     1       7.649   4.050   1.707  1.00  0.00    -0.250 OA
BRANCH  28  30
ATOM     30  O   UNL     1       8.463   2.024   1.245  1.00  0.00    -0.480 OA
ATOM     31  H   UNL     1       9.133   2.120   1.954  1.00  0.00     0.296 HD
ENDBRANCH  28  30
ENDBRANCH  13  28
ENDBRANCH  11  13
ENDBRANCH   8  11
ENDBRANCH   6   7
BRANCH   6  32
ATOM     32  C   UNL     1      11.090   2.430  -4.327  1.00  0.00     0.037 C 
BRANCH  32  33
ATOM     33  C   UNL     1      11.721   2.990  -3.044  1.00  0.00     0.026 C 
BRANCH  33  34
ATOM     34  C   UNL     1      12.270   1.891  -2.134  1.00  0.00     0.146 C 
BRANCH  34  35
ATOM     35  N   UNL     1      11.567   0.648  -2.421  1.00  0.00    -0.254 NA
ATOM     36  C   UNL     1      10.792   0.159  -1.525  1.00  0.00     0.185 C 
ATOM     37  N   UNL     1      10.136  -0.983  -1.782  1.00  0.00    -0.370 N 
ATOM     38  N   UNL     1      10.515   0.634  -0.298  1.00  0.00    -0.370 N 
ATOM     39  H   UNL     1      10.285  -1.398  -2.692  1.00  0.00     0.159 HD
ATOM     40  H   UNL     1       9.387  -1.334  -1.210  1.00  0.00     0.159 HD
ATOM     41  H   UNL     1       9.997   0.084   0.368  1.00  0.00     0.159 HD
ATOM     42  H   UNL     1      10.951   1.479   0.035  1.00  0.00     0.159 HD
ENDBRANCH  34  35
ENDBRANCH  33  34
ENDBRANCH  32  33
ENDBRANCH   6  32
ENDBRANCH   4   6
ENDBRANCH   1   2
BRANCH   1  43
ATOM     43  C   UNL     1       6.850   0.688  -7.508  1.00  0.00     0.102 C 
ATOM     44  C   UNL     1       5.476   0.673  -8.200  1.00  0.00     0.020 C 
BRANCH  43  45
ATOM     45  C   UNL     1       7.855  -0.302  -8.103  1.00  0.00     0.225 C 
ATOM     46  O   UNL     1       9.048  -0.046  -8.242  1.00  0.00    -0.275 OA
ATOM     47  N   UNL     1       7.321  -1.483  -8.567  1.00  0.00    -0.342 N 
ATOM     48  H   UNL     1       6.378  -1.740  -8.310  1.00  0.00     0.164 HD
BRANCH  47  49
ATOM     49  C   UNL     1       8.168  -2.539  -9.129  1.00  0.00     0.192 C 
BRANCH  49  50
ATOM     50  C   UNL     1       8.084  -2.506 -10.657  1.00  0.00     0.047 C 
BRANCH  50  51
ATOM     51  C   UNL     1       9.362  -1.948 -11.299  1.00  0.00     0.103 C 
BRANCH  51  52
ATOM     52  C   UNL     1       9.992  -2.937 -12.277  1.00  0.00     0.226 C 
ATOM     53  O   UNL     1      11.183  -3.232 -12.163  1.00  0.00    -0.275 OA
BRANCH  52  54
ATOM     54  N   UNL     1       9.129  -3.520 -13.223  1.00  0.00    -0.311 N 
ATOM     55  C   UNL     1       8.638  -4.894 -13.054  1.00  0.00     0.153 C 
BRANCH  54  56
ATOM     56  C   UNL     1       8.700  -2.811 -14.357  1.00  0.00     0.102 C 
ATOM     57  C   UNL     1       7.439  -2.406 -14.579  1.00  0.00     0.043 C 
BRANCH  56  58
ATOM     58  C   UNL     1       9.680  -2.400 -15.431  1.00  0.00     0.268 C 
ATOM     59  O   UNL     1       9.829  -1.241 -15.793  1.00  0.00    -0.268 OA
ATOM     60  N   UNL     1      10.431  -3.448 -15.907  1.00  0.00    -0.339 N 
ATOM     61  H   UNL     1      10.239  -4.381 -15.562  1.00  0.00     0.164 HD
BRANCH  60  62
ATOM     62  C   UNL     1      11.483  -3.263 -16.906  1.00  0.00     0.168 CG0
ATOM     63  C   UNL     1      12.541  -4.353 -16.795  1.00  0.00     0.041 C 
ATOM     64  G   UNL     1      12.117  -1.867 -16.735  1.00  0.00     0.000 G0
ENDBRANCH  60  62
ENDBRANCH  56  58
ENDBRANCH  54  56
ENDBRANCH  52  54
ENDBRANCH  51  52
ENDBRANCH  50  51
ENDBRANCH  49  50
BRANCH  49  65
ATOM     65  C   UNL     1       7.750  -3.929  -8.625  1.00  0.00     0.326 C 
ATOM     66  O   UNL     1       7.886  -4.977  -9.239  1.00  0.00    -0.250 OA
BRANCH  65  67
ATOM     67  O   UNL     1       7.136  -3.931  -7.422  1.00  0.00    -0.480 OA
ATOM     68  H   UNL     1       6.504  -4.679  -7.486  1.00  0.00     0.296 HD
ENDBRANCH  65  67
ENDBRANCH  49  65
ENDBRANCH  47  49
ENDBRANCH  43  45
ENDBRANCH   1  43
BRANCH   1  69
ATOM     69  C   UNL     1       5.408   0.626  -5.289  1.00  0.00    -0.001 C 
ATOM     70  C   UNL     1       4.971   1.585  -4.454  1.00  0.00     0.001 C 
BRANCH  70  71
ATOM     71  C   UNL     1       3.650   1.671  -3.827  1.00  0.00    -0.055 C 
ATOM     72  C   UNL     1       3.405   0.871  -2.768  1.00  0.00    -0.018 C 
ATOM     73  C   UNL     1       2.662   2.652  -4.403  1.00  0.00     0.044 C 
BRANCH  72  74
ATOM     74  C   UNL     1       2.142   0.748  -1.927  1.00  0.00     0.038 C 
ATOM     75  C   UNL     1       2.560   0.903  -0.459  1.00  0.00     0.015 C 
BRANCH  74  76
ATOM     76  C   UNL     1       1.443  -0.601  -2.268  1.00  0.00     0.128 C 
BRANCH  76  77
ATOM     77  O   UNL     1       0.404  -0.871  -1.312  1.00  0.00    -0.381 OA
ATOM     78  C   UNL     1      -0.741  -0.043  -1.465  1.00  0.00     0.195 C 
ENDBRANCH  76  77
BRANCH  76  79
ATOM     79  C   UNL     1       0.951  -0.702  -3.733  1.00  0.00     0.068 C 
BRANCH  79  80
ATOM     80  C   UNL     1       1.725  -1.587  -4.680  1.00  0.00    -0.045 A 
ATOM     81  C   UNL     1       1.886  -2.954  -4.422  1.00  0.00     0.004 A 
ATOM     82  C   UNL     1       2.323  -1.043  -5.827  1.00  0.00     0.004 A 
ATOM     83  C   UNL     1       2.615  -3.763  -5.296  1.00  0.00     0.000 A 
ATOM     84  C   UNL     1       3.053  -1.852  -6.700  1.00  0.00     0.000 A 
ATOM     85  C   UNL     1       3.198  -3.212  -6.435  1.00  0.00     0.000 A 
ENDBRANCH  79  80
ENDBRANCH  76  79
ENDBRANCH  74  76
ENDBRANCH  72  74
ENDBRANCH  70  71
ENDBRANCH   1  69
TORSDOF 17
ENDMDL
MODEL 9
REMARK VINA RESULT:    -6.033      3.986      8.285
REMARK INTER + INTRA:         -25.615
REMARK INTER:                 -18.396
REMARK INTRA:                  -7.219
REMARK UNBOUND:                -7.591
REMARK SMILES C=C1C(=O)N[C@H](C)C(=O)N[C@@H](CC(C)C)C(=O)N[C@@H](C(=O)O)[C@H](C)C(=O)N[C@@H](CCCN=C(N)N)C(=O)N[C@@H](/C=C/C(C)=C/[C@H](C)[C@H](Cc2ccccc2)OC)[C@H](C)C(=O)N[C@@H](C(=O)O)CCC(=O)N1C
REMARK SMILES IDX 39 1 38 2 37 3 36 4 28 6 27 7 25 8 26 9 23 11 24 12 19 13
REMARK SMILES IDX 18 14 16 15 17 16 11 18 10 19 8 20 9 21 12 24 13 25 14 26
REMARK SMILES IDX 15 27 20 28 21 29 22 30 29 32 30 33 31 34 32 35 33 36 34 37
REMARK SMILES IDX 35 38 57 43 58 44 59 45 60 46 61 47 62 49 66 50 67 51 68 52
REMARK SMILES IDX 69 53 70 54 71 55 2 56 1 57 3 58 4 59 5 60 6 62 7 63 63 65
REMARK SMILES IDX 64 66 65 67 40 69 41 70 42 71 44 72 43 73 45 74 46 75 47 76
REMARK SMILES IDX 55 77 56 78 48 79 49 80 50 81 54 82 51 83 53 84 52 85
REMARK H PARENT 38 5 27 10 18 17 10 22 22 31 34 39 34 40 35 41 35 42 61 48
REMARK H PARENT 5 61 65 68
REMARK Flexibility Score:  369.900
ROOT
ATOM      1  C   UNL     1       6.492   0.890  -4.575  1.00  0.00     0.117 C 
ENDROOT
BRANCH   1   2
ATOM      2  N   UNL     1       7.040   1.710  -3.493  1.00  0.00    -0.347 N 
ATOM      3  O   UNL     1       7.728   0.001  -2.124  1.00  0.00    -0.273 OA
ATOM      4  C   UNL     1       7.699   1.197  -2.392  1.00  0.00     0.243 C 
ATOM      5  H   UNL     1       6.987   2.715  -3.559  1.00  0.00     0.164 HD
BRANCH   4   6
ATOM      6  C   UNL     1       8.257   2.284  -1.438  1.00  0.00     0.171 C 
BRANCH   6   7
ATOM      7  N   UNL     1       7.166   2.903  -0.670  1.00  0.00    -0.344 N 
ATOM      8  C   UNL     1       7.170   4.256  -0.408  1.00  0.00     0.226 C 
ATOM      9  O   UNL     1       8.075   4.996  -0.775  1.00  0.00    -0.275 OA
ATOM     10  H   UNL     1       6.435   2.313  -0.292  1.00  0.00     0.164 HD
BRANCH   8  11
ATOM     11  C   UNL     1       5.949   4.751   0.347  1.00  0.00     0.109 C 
ATOM     12  C   UNL     1       4.766   3.815   0.106  1.00  0.00     0.021 C 
BRANCH  11  13
ATOM     13  C   UNL     1       6.309   4.973   1.830  1.00  0.00     0.204 C 
BRANCH  13  14
ATOM     14  N   UNL     1       7.458   5.869   1.991  1.00  0.00    -0.340 N 
ATOM     15  C   UNL     1       8.480   5.623   2.883  1.00  0.00     0.243 C 
ATOM     16  O   UNL     1       8.530   4.601   3.564  1.00  0.00    -0.273 OA
ATOM     17  H   UNL     1       7.403   6.801   1.571  1.00  0.00     0.164 HD
BRANCH  15  18
ATOM     18  C   UNL     1       9.471   6.804   3.028  1.00  0.00     0.171 C 
BRANCH  18  19
ATOM     19  N   UNL     1       8.671   7.987   3.334  1.00  0.00    -0.343 N 
ATOM     20  C   UNL     1       9.048   9.250   2.918  1.00  0.00     0.242 CG0
ATOM     21  O   UNL     1      10.138   9.454   2.389  1.00  0.00    -0.273 OA
ATOM     22  H   UNL     1       7.817   7.886   3.871  1.00  0.00     0.164 HD
ATOM     23  G   UNL     1       8.038  10.363   3.265  1.00  0.00     0.000 G0
ENDBRANCH  18  19
BRANCH  18  24
ATOM     24  C   UNL     1      10.495   6.517   4.134  1.00  0.00     0.038 C 
BRANCH  24  25
ATOM     25  C   UNL     1      11.902   6.137   3.626  1.00  0.00    -0.015 C 
ATOM     26  C   UNL     1      12.097   6.462   2.145  1.00  0.00     0.007 C 
ATOM     27  C   UNL     1      12.149   4.644   3.862  1.00  0.00     0.007 C 
ENDBRANCH  24  25
ENDBRANCH  18  24
ENDBRANCH  15  18
ENDBRANCH  13  14
BRANCH  13  28
ATOM     28  C   UNL     1       5.156   5.562   2.649  1.00  0.00     0.327 C 
ATOM     29  O   UNL     1       4.161   4.964   3.031  1.00  0.00    -0.250 OA
BRANCH  28  30
ATOM     30  O   UNL     1       5.266   6.893   2.836  1.00  0.00    -0.480 OA
ATOM     31  H   UNL     1       5.770   7.205   2.056  1.00  0.00     0.296 HD
ENDBRANCH  28  30
ENDBRANCH  13  28
ENDBRANCH  11  13
ENDBRANCH   8  11
ENDBRANCH   6   7
BRANCH   6  32
ATOM     32  C   UNL     1       9.293   1.649  -0.504  1.00  0.00     0.037 C 
BRANCH  32  33
ATOM     33  C   UNL     1      10.696   2.237  -0.709  1.00  0.00     0.026 C 
BRANCH  33  34
ATOM     34  C   UNL     1      11.549   1.397  -1.660  1.00  0.00     0.146 C 
BRANCH  34  35
ATOM     35  N   UNL     1      11.462   1.967  -2.998  1.00  0.00    -0.254 NA
ATOM     36  C   UNL     1      10.977   1.250  -3.941  1.00  0.00     0.185 C 
ATOM     37  N   UNL     1      10.887   1.768  -5.176  1.00  0.00    -0.370 N 
ATOM     38  N   UNL     1      10.513  -0.011  -3.891  1.00  0.00    -0.370 N 
ATOM     39  H   UNL     1      11.208   2.720  -5.294  1.00  0.00     0.159 HD
ATOM     40  H   UNL     1      10.365   1.340  -5.922  1.00  0.00     0.159 HD
ATOM     41  H   UNL     1      10.285  -0.517  -4.731  1.00  0.00     0.159 HD
ATOM     42  H   UNL     1      10.534  -0.531  -3.027  1.00  0.00     0.159 HD
ENDBRANCH  34  35
ENDBRANCH  33  34
ENDBRANCH  32  33
ENDBRANCH   6  32
ENDBRANCH   4   6
ENDBRANCH   1   2
BRANCH   1  43
ATOM     43  C   UNL     1       7.146   1.337  -5.914  1.00  0.00     0.102 C 
ATOM     44  C   UNL     1       6.188   2.113  -6.834  1.00  0.00     0.020 C 
BRANCH  43  45
ATOM     45  C   UNL     1       7.851   0.163  -6.600  1.00  0.00     0.225 C 
ATOM     46  O   UNL     1       9.004  -0.170  -6.343  1.00  0.00    -0.275 OA
ATOM     47  N   UNL     1       7.139  -0.450  -7.606  1.00  0.00    -0.342 N 
ATOM     48  H   UNL     1       6.149  -0.268  -7.701  1.00  0.00     0.164 HD
BRANCH  47  49
ATOM     49  C   UNL     1       7.673  -1.610  -8.326  1.00  0.00     0.192 C 
BRANCH  49  50
ATOM     50  C   UNL     1       7.819  -1.270  -9.811  1.00  0.00     0.047 C 
BRANCH  50  51
ATOM     51  C   UNL     1       9.284  -1.065 -10.220  1.00  0.00     0.103 C 
BRANCH  51  52
ATOM     52  C   UNL     1       9.871  -2.304 -10.894  1.00  0.00     0.226 C 
ATOM     53  O   UNL     1      10.293  -3.232 -10.202  1.00  0.00    -0.275 OA
BRANCH  52  54
ATOM     54  N   UNL     1       9.820  -2.336 -12.300  1.00  0.00    -0.311 N 
ATOM     55  C   UNL     1      10.043  -1.120 -13.092  1.00  0.00     0.153 C 
BRANCH  54  56
ATOM     56  C   UNL     1       9.561  -3.528 -12.996  1.00  0.00     0.102 C 
ATOM     57  C   UNL     1      10.394  -4.096 -13.884  1.00  0.00     0.043 C 
BRANCH  56  58
ATOM     58  C   UNL     1       8.293  -4.311 -12.748  1.00  0.00     0.268 C 
ATOM     59  O   UNL     1       8.261  -5.346 -12.097  1.00  0.00    -0.268 OA
ATOM     60  N   UNL     1       7.175  -3.707 -13.272  1.00  0.00    -0.339 N 
ATOM     61  H   UNL     1       7.287  -2.855 -13.809  1.00  0.00     0.164 HD
BRANCH  60  62
ATOM     62  C   UNL     1       5.834  -4.263 -13.094  1.00  0.00     0.168 CG0
ATOM     63  C   UNL     1       5.121  -3.605 -11.919  1.00  0.00     0.041 C 
ATOM     64  G   UNL     1       5.930  -5.789 -12.890  1.00  0.00     0.000 G0
ENDBRANCH  60  62
ENDBRANCH  56  58
ENDBRANCH  54  56
ENDBRANCH  52  54
ENDBRANCH  51  52
ENDBRANCH  50  51
ENDBRANCH  49  50
BRANCH  49  65
ATOM     65  C   UNL     1       6.765  -2.840  -8.172  1.00  0.00     0.326 C 
ATOM     66  O   UNL     1       5.551  -2.850  -8.318  1.00  0.00    -0.250 OA
BRANCH  65  67
ATOM     67  O   UNL     1       7.403  -3.968  -7.789  1.00  0.00    -0.480 OA
ATOM     68  H   UNL     1       7.080  -4.117  -6.875  1.00  0.00     0.296 HD
ENDBRANCH  65  67
ENDBRANCH  49  65
ENDBRANCH  47  49
ENDBRANCH  43  45
ENDBRANCH   1  43
BRANCH   1  69
ATOM     69  C   UNL     1       4.982   0.960  -4.437  1.00  0.00    -0.001 C 
ATOM     70  C   UNL     1       4.276   1.653  -3.525  1.00  0.00     0.001 C 
BRANCH  70  71
ATOM     71  C   UNL     1       2.818   1.730  -3.415  1.00  0.00    -0.055 C 
ATOM     72  C   UNL     1       2.235   1.113  -2.366  1.00  0.00    -0.018 C 
ATOM     73  C   UNL     1       2.073   2.499  -4.475  1.00  0.00     0.044 C 
BRANCH  72  74
ATOM     74  C   UNL     1       0.760   1.028  -1.997  1.00  0.00     0.038 C 
ATOM     75  C   UNL     1       0.630   1.499  -0.544  1.00  0.00     0.015 C 
BRANCH  74  76
ATOM     76  C   UNL     1       0.261  -0.423  -2.260  1.00  0.00     0.128 C 
BRANCH  76  77
ATOM     77  O   UNL     1      -0.869  -0.714  -1.420  1.00  0.00    -0.381 OA
ATOM     78  C   UNL     1      -2.025  -1.123  -2.138  1.00  0.00     0.195 C 
ENDBRANCH  76  77
BRANCH  76  79
ATOM     79  C   UNL     1      -0.007  -0.736  -3.754  1.00  0.00     0.068 C 
BRANCH  79  80
ATOM     80  C   UNL     1       1.025  -1.542  -4.504  1.00  0.00    -0.045 A 
ATOM     81  C   UNL     1       1.688  -1.009  -5.617  1.00  0.00     0.004 A 
ATOM     82  C   UNL     1       1.318  -2.857  -4.111  1.00  0.00     0.004 A 
ATOM     83  C   UNL     1       2.632  -1.767  -6.314  1.00  0.00     0.000 A 
ATOM     84  C   UNL     1       2.261  -3.614  -4.810  1.00  0.00     0.000 A 
ATOM     85  C   UNL     1       2.919  -3.069  -5.909  1.00  0.00     0.000 A 
ENDBRANCH  79  80
ENDBRANCH  76  79
ENDBRANCH  74  76
ENDBRANCH  72  74
ENDBRANCH  70  71
ENDBRANCH   1  69
TORSDOF 17
ENDMDL
MODEL 10
REMARK VINA RESULT:    -5.870      4.745      7.974
REMARK INTER + INTRA:         -25.128
REMARK INTER:                 -16.312
REMARK INTRA:                  -8.815
REMARK UNBOUND:                -7.591
REMARK SMILES C=C1C(=O)N[C@H](C)C(=O)N[C@@H](CC(C)C)C(=O)N[C@@H](C(=O)O)[C@H](C)C(=O)N[C@@H](CCCN=C(N)N)C(=O)N[C@@H](/C=C/C(C)=C/[C@H](C)[C@H](Cc2ccccc2)OC)[C@H](C)C(=O)N[C@@H](C(=O)O)CCC(=O)N1C
REMARK SMILES IDX 39 1 38 2 37 3 36 4 28 6 27 7 25 8 26 9 23 11 24 12 19 13
REMARK SMILES IDX 18 14 16 15 17 16 11 18 10 19 8 20 9 21 12 24 13 25 14 26
REMARK SMILES IDX 15 27 20 28 21 29 22 30 29 32 30 33 31 34 32 35 33 36 34 37
REMARK SMILES IDX 35 38 57 43 58 44 59 45 60 46 61 47 62 49 66 50 67 51 68 52
REMARK SMILES IDX 69 53 70 54 71 55 2 56 1 57 3 58 4 59 5 60 6 62 7 63 63 65
REMARK SMILES IDX 64 66 65 67 40 69 41 70 42 71 44 72 43 73 45 74 46 75 47 76
REMARK SMILES IDX 55 77 56 78 48 79 49 80 50 81 54 82 51 83 53 84 52 85
REMARK H PARENT 38 5 27 10 18 17 10 22 22 31 34 39 34 40 35 41 35 42 61 48
REMARK H PARENT 5 61 65 68
REMARK Flexibility Score:  369.900
ROOT
ATOM      1  C   UNL     1       8.554   1.333  -4.998  1.00  0.00     0.117 C 
ENDROOT
BRANCH   1   2
ATOM      2  N   UNL     1       9.447   2.348  -4.437  1.00  0.00    -0.347 N 
ATOM      3  O   UNL     1      11.322   1.038  -4.236  1.00  0.00    -0.273 OA
ATOM      4  C   UNL     1      10.790   2.142  -4.186  1.00  0.00     0.243 C 
ATOM      5  H   UNL     1       9.092   3.276  -4.262  1.00  0.00     0.164 HD
BRANCH   4   6
ATOM      6  C   UNL     1      11.528   3.405  -3.673  1.00  0.00     0.171 C 
BRANCH   6   7
ATOM      7  N   UNL     1      10.757   4.617  -3.994  1.00  0.00    -0.344 N 
ATOM      8  C   UNL     1      11.392   5.828  -4.167  1.00  0.00     0.226 C 
ATOM      9  O   UNL     1      12.604   5.962  -4.043  1.00  0.00    -0.275 OA
ATOM     10  H   UNL     1       9.748   4.559  -4.038  1.00  0.00     0.164 HD
BRANCH   8  11
ATOM     11  C   UNL     1      10.467   6.970  -4.547  1.00  0.00     0.109 C 
ATOM     12  C   UNL     1       9.153   6.421  -5.102  1.00  0.00     0.021 C 
BRANCH  11  13
ATOM     13  C   UNL     1      10.313   7.936  -3.354  1.00  0.00     0.204 C 
BRANCH  13  14
ATOM     14  N   UNL     1       9.837   7.251  -2.148  1.00  0.00    -0.340 N 
ATOM     15  C   UNL     1       8.569   7.428  -1.639  1.00  0.00     0.243 C 
ATOM     16  O   UNL     1       7.725   8.129  -2.195  1.00  0.00    -0.273 OA
ATOM     17  H   UNL     1      10.528   6.780  -1.559  1.00  0.00     0.164 HD
BRANCH  15  18
ATOM     18  C   UNL     1       8.362   6.771  -0.252  1.00  0.00     0.171 C 
BRANCH  18  19
ATOM     19  N   UNL     1       8.317   7.858   0.724  1.00  0.00    -0.343 N 
ATOM     20  C   UNL     1       9.466   8.479   1.176  1.00  0.00     0.242 CG0
ATOM     21  O   UNL     1      10.582   8.061   0.881  1.00  0.00    -0.273 OA
ATOM     22  H   UNL     1       7.422   8.163   1.088  1.00  0.00     0.164 HD
ATOM     23  G   UNL     1       9.215   9.655   2.143  1.00  0.00     0.000 G0
ENDBRANCH  18  19
BRANCH  18  24
ATOM     24  C   UNL     1       7.071   5.944  -0.232  1.00  0.00     0.038 C 
BRANCH  24  25
ATOM     25  C   UNL     1       6.969   4.935   0.932  1.00  0.00    -0.015 C 
ATOM     26  C   UNL     1       6.618   3.525   0.455  1.00  0.00     0.007 C 
ATOM     27  C   UNL     1       5.921   5.415   1.939  1.00  0.00     0.007 C 
ENDBRANCH  24  25
ENDBRANCH  18  24
ENDBRANCH  15  18
ENDBRANCH  13  14
BRANCH  13  28
ATOM     28  C   UNL     1      11.616   8.652  -2.985  1.00  0.00     0.327 C 
ATOM     29  O   UNL     1      12.232   9.438  -3.688  1.00  0.00    -0.250 OA
BRANCH  28  30
ATOM     30  O   UNL     1      12.126   8.246  -1.805  1.00  0.00    -0.480 OA
ATOM     31  H   UNL     1      13.081   8.120  -1.986  1.00  0.00     0.296 HD
ENDBRANCH  28  30
ENDBRANCH  13  28
ENDBRANCH  11  13
ENDBRANCH   8  11
ENDBRANCH   6   7
BRANCH   6  32
ATOM     32  C   UNL     1      11.748   3.280  -2.162  1.00  0.00     0.037 C 
BRANCH  32  33
ATOM     33  C   UNL     1      10.570   3.844  -1.356  1.00  0.00     0.026 C 
BRANCH  33  34
ATOM     34  C   UNL     1      10.067   2.867  -0.293  1.00  0.00     0.146 C 
BRANCH  34  35
ATOM     35  N   UNL     1      10.689   1.569  -0.516  1.00  0.00    -0.254 NA
ATOM     36  C   UNL     1       9.949   0.585  -0.870  1.00  0.00     0.185 C 
ATOM     37  N   UNL     1      10.513  -0.614  -1.083  1.00  0.00    -0.370 N 
ATOM     38  N   UNL     1       8.620   0.559  -1.075  1.00  0.00    -0.370 N 
ATOM     39  H   UNL     1      11.515  -0.673  -0.958  1.00  0.00     0.159 HD
ATOM     40  H   UNL     1      10.037  -1.381  -1.525  1.00  0.00     0.159 HD
ATOM     41  H   UNL     1       8.132  -0.310  -1.216  1.00  0.00     0.159 HD
ATOM     42  H   UNL     1       8.063   1.388  -0.936  1.00  0.00     0.159 HD
ENDBRANCH  34  35
ENDBRANCH  33  34
ENDBRANCH  32  33
ENDBRANCH   6  32
ENDBRANCH   4   6
ENDBRANCH   1   2
BRANCH   1  43
ATOM     43  C   UNL     1       8.635   1.406  -6.550  1.00  0.00     0.102 C 
ATOM     44  C   UNL     1       7.934   2.640  -7.142  1.00  0.00     0.020 C 
BRANCH  43  45
ATOM     45  C   UNL     1       8.202   0.081  -7.186  1.00  0.00     0.225 C 
ATOM     46  O   UNL     1       8.984  -0.835  -7.425  1.00  0.00    -0.275 OA
ATOM     47  N   UNL     1       6.882   0.011  -7.568  1.00  0.00    -0.342 N 
ATOM     48  H   UNL     1       6.226   0.702  -7.231  1.00  0.00     0.164 HD
BRANCH  47  49
ATOM     49  C   UNL     1       6.319  -1.208  -8.157  1.00  0.00     0.192 C 
BRANCH  49  50
ATOM     50  C   UNL     1       5.286  -0.834  -9.223  1.00  0.00     0.047 C 
BRANCH  50  51
ATOM     51  C   UNL     1       5.790  -1.115 -10.645  1.00  0.00     0.103 C 
BRANCH  51  52
ATOM     52  C   UNL     1       5.598  -2.577 -11.043  1.00  0.00     0.226 C 
ATOM     53  O   UNL     1       4.690  -3.235 -10.531  1.00  0.00    -0.275 OA
BRANCH  52  54
ATOM     54  N   UNL     1       6.446  -3.069 -12.052  1.00  0.00    -0.311 N 
ATOM     55  C   UNL     1       6.287  -2.642 -13.449  1.00  0.00     0.153 C 
BRANCH  54  56
ATOM     56  C   UNL     1       7.477  -3.978 -11.763  1.00  0.00     0.102 C 
ATOM     57  C   UNL     1       8.160  -4.024 -10.607  1.00  0.00     0.043 C 
BRANCH  56  58
ATOM     58  C   UNL     1       7.876  -5.041 -12.760  1.00  0.00     0.268 C 
ATOM     59  O   UNL     1       7.092  -5.867 -13.207  1.00  0.00    -0.268 OA
ATOM     60  N   UNL     1       9.187  -4.942 -13.161  1.00  0.00    -0.339 N 
ATOM     61  H   UNL     1       9.774  -4.235 -12.735  1.00  0.00     0.164 HD
BRANCH  60  62
ATOM     62  C   UNL     1       9.763  -5.832 -14.167  1.00  0.00     0.168 CG0
ATOM     63  C   UNL     1      11.093  -5.291 -14.679  1.00  0.00     0.041 C 
ATOM     64  G   UNL     1       8.765  -6.014 -15.329  1.00  0.00     0.000 G0
ENDBRANCH  60  62
ENDBRANCH  56  58
ENDBRANCH  54  56
ENDBRANCH  52  54
ENDBRANCH  51  52
ENDBRANCH  50  51
ENDBRANCH  49  50
BRANCH  49  65
ATOM     65  C   UNL     1       5.654  -2.097  -7.094  1.00  0.00     0.326 C 
ATOM     66  O   UNL     1       6.008  -2.196  -5.928  1.00  0.00    -0.250 OA
BRANCH  65  67
ATOM     67  O   UNL     1       4.632  -2.853  -7.550  1.00  0.00    -0.480 OA
ATOM     68  H   UNL     1       4.546  -3.558  -6.873  1.00  0.00     0.296 HD
ENDBRANCH  65  67
ENDBRANCH  49  65
ENDBRANCH  47  49
ENDBRANCH  43  45
ENDBRANCH   1  43
BRANCH   1  69
ATOM     69  C   UNL     1       7.209   1.532  -4.324  1.00  0.00    -0.001 C 
ATOM     70  C   UNL     1       6.834   2.554  -3.534  1.00  0.00     0.001 C 
BRANCH  70  71
ATOM     71  C   UNL     1       5.526   2.747  -2.906  1.00  0.00    -0.055 C 
ATOM     72  C   UNL     1       4.880   1.651  -2.453  1.00  0.00    -0.018 C 
ATOM     73  C   UNL     1       4.997   4.153  -2.802  1.00  0.00     0.044 C 
BRANCH  72  74
ATOM     74  C   UNL     1       3.527   1.547  -1.764  1.00  0.00     0.038 C 
ATOM     75  C   UNL     1       3.792   1.175  -0.300  1.00  0.00     0.015 C 
BRANCH  74  76
ATOM     76  C   UNL     1       2.643   0.532  -2.546  1.00  0.00     0.128 C 
BRANCH  76  77
ATOM     77  O   UNL     1       1.831  -0.221  -1.629  1.00  0.00    -0.381 OA
ATOM     78  C   UNL     1       0.452   0.121  -1.673  1.00  0.00     0.195 C 
ENDBRANCH  76  77
BRANCH  76  79
ATOM     79  C   UNL     1       1.818   1.168  -3.694  1.00  0.00     0.068 C 
BRANCH  79  80
ATOM     80  C   UNL     1       2.570   1.868  -4.800  1.00  0.00    -0.045 A 
ATOM     81  C   UNL     1       2.385   3.235  -5.045  1.00  0.00     0.004 A 
ATOM     82  C   UNL     1       3.449   1.148  -5.624  1.00  0.00     0.004 A 
ATOM     83  C   UNL     1       3.073   3.872  -6.080  1.00  0.00     0.000 A 
ATOM     84  C   UNL     1       4.136   1.786  -6.659  1.00  0.00     0.000 A 
ATOM     85  C   UNL     1       3.949   3.148  -6.885  1.00  0.00     0.000 A 
ENDBRANCH  79  80
ENDBRANCH  76  79
ENDBRANCH  74  76
ENDBRANCH  72  74
ENDBRANCH  70  71
ENDBRANCH   1  69
TORSDOF 17
ENDMDL
