MODEL 1
REMARK VINA RESULT:    -5.809      0.000      0.000
REMARK INTER + INTRA:         -12.637
REMARK INTER:                 -10.393
REMARK INTRA:                  -2.244
REMARK UNBOUND:                -2.244
REMARK SMILES CC[C@H](C)[C@H]1NC(=O)c2coc(n2)[C@H](C(C)C)NC(=O)[C@H]([C@@H](C)O)NC(=O)[C@H](C)NC(=O)c2csc1n2
REMARK SMILES IDX 11 1 13 2 12 3 9 4 10 5 7 6 6 7 8 8 5 10 36 11 35 12 34 13
REMARK SMILES IDX 37 14 33 15 31 16 32 17 30 18 28 20 29 21 3 23 4 24 2 25
REMARK SMILES IDX 1 26 14 27 18 28 19 29 20 30 21 32 25 33 26 34 27 35 22 38
REMARK SMILES IDX 23 39 24 40 15 42 16 43 17 44
REMARK H PARENT 6 9 30 19 18 31 25 36 24 41
REMARK Flexibility Score:   94.900
ROOT
ATOM      1  O   UNL     1      -7.006  -1.945  -5.094  1.00  0.00    -0.446 OA
ATOM      2  N   UNL     1      -5.855  -0.157  -5.844  1.00  0.00    -0.207 NA
ATOM      3  C   UNL     1      -6.713  -0.615  -4.950  1.00  0.00     0.217 A 
ATOM      4  C   UNL     1      -5.542  -1.265  -6.612  1.00  0.00     0.167 A 
ATOM      5  C   UNL     1      -6.246  -2.351  -6.150  1.00  0.00     0.231 A 
ENDROOT
BRANCH   4   6
ATOM      6  C   UNL     1      -4.628  -1.217  -7.740  1.00  0.00     0.273 C 
ATOM      7  N   UNL     1      -3.322  -1.357  -7.344  1.00  0.00    -0.341 N 
ATOM      8  O   UNL     1      -4.990  -1.045  -8.898  1.00  0.00    -0.267 OA
ATOM      9  H   UNL     1      -3.167  -1.399  -6.341  1.00  0.00     0.164 HD
BRANCH   7  10
ATOM     10  C   UNL     1      -2.197  -1.102  -8.222  1.00  0.00     0.145 C 
BRANCH  10  11
ATOM     11  C   UNL     1      -1.701   0.308  -7.936  1.00  0.00     0.116 A 
ATOM     12  S   UNL     1      -1.257   1.340  -9.243  1.00  0.00    -0.124 S 
ATOM     13  C   UNL     1      -0.906   2.588  -8.129  1.00  0.00     0.101 A 
ATOM     14  N   UNL     1      -1.586   0.841  -6.731  1.00  0.00    -0.234 NA
ATOM     15  C   UNL     1      -1.145   2.163  -6.836  1.00  0.00     0.139 A 
BRANCH  15  16
ATOM     16  C   UNL     1      -0.965   3.011  -5.656  1.00  0.00     0.271 C 
ATOM     17  O   UNL     1       0.134   3.237  -5.161  1.00  0.00    -0.267 OA
ATOM     18  N   UNL     1      -2.145   3.526  -5.163  1.00  0.00    -0.339 N 
ATOM     19  H   UNL     1      -2.997   3.176  -5.593  1.00  0.00     0.164 HD
BRANCH  18  20
ATOM     20  C   UNL     1      -2.167   4.337  -3.953  1.00  0.00     0.168 CG0
ATOM     21  C   UNL     1      -1.807   5.794  -4.253  1.00  0.00     0.041 C 
ATOM     22  G   UNL     1      -3.537   4.326  -3.256  1.00  0.00     0.000 G0
ENDBRANCH  18  20
ENDBRANCH  15  16
ENDBRANCH  10  11
BRANCH  10  23
ATOM     23  C   UNL     1      -1.078  -2.166  -8.066  1.00  0.00     0.015 C 
ATOM     24  C   UNL     1      -1.302  -3.114  -6.876  1.00  0.00     0.010 C 
BRANCH  23  25
ATOM     25  C   UNL     1      -0.876  -3.013  -9.343  1.00  0.00     0.002 C 
ATOM     26  C   UNL     1      -0.879  -2.200 -10.631  1.00  0.00     0.004 C 
ENDBRANCH  23  25
ENDBRANCH  10  23
ENDBRANCH   7  10
ENDBRANCH   4   6
BRANCH   3  27
ATOM     27  C   UNL     1      -7.405   0.173  -3.871  1.00  0.00     0.171 C 
BRANCH  27  28
ATOM     28  N   UNL     1      -7.029   1.574  -4.031  1.00  0.00    -0.342 N 
ATOM     29  C   UNL     1      -6.370   2.286  -3.054  1.00  0.00     0.245 C 
ATOM     30  O   UNL     1      -6.036   1.790  -1.979  1.00  0.00    -0.273 OA
ATOM     31  H   UNL     1      -7.171   2.019  -4.936  1.00  0.00     0.164 HD
BRANCH  29  32
ATOM     32  C   UNL     1      -5.943   3.714  -3.454  1.00  0.00     0.200 C 
BRANCH  32  33
ATOM     33  N   UNL     1      -4.554   3.664  -3.927  1.00  0.00    -0.340 N 
ATOM     34  C   UNL     1      -3.548   4.337  -3.265  1.00  0.00     0.243 CG0
ATOM     35  O   UNL     1      -3.776   5.055  -2.294  1.00  0.00    -0.273 OA
ATOM     36  H   UNL     1      -4.340   3.104  -4.744  1.00  0.00     0.164 HD
ATOM     37  G   UNL     1      -2.169   4.311  -3.945  1.00  0.00     0.000 G0
ENDBRANCH  32  33
BRANCH  32  38
ATOM     38  C   UNL     1      -6.912   4.324  -4.493  1.00  0.00     0.143 C 
ATOM     39  C   UNL     1      -8.109   5.044  -3.881  1.00  0.00     0.041 C 
BRANCH  38  40
ATOM     40  O   UNL     1      -6.203   5.241  -5.349  1.00  0.00    -0.391 OA
ATOM     41  H   UNL     1      -6.363   4.947  -6.266  1.00  0.00     0.211 HD
ENDBRANCH  38  40
ENDBRANCH  32  38
ENDBRANCH  29  32
ENDBRANCH  27  28
BRANCH  27  42
ATOM     42  C   UNL     1      -8.939   0.007  -3.739  1.00  0.00     0.015 C 
ATOM     43  C   UNL     1      -9.411  -0.848  -2.557  1.00  0.00     0.010 C 
ATOM     44  C   UNL     1      -9.664   1.356  -3.742  1.00  0.00     0.010 C 
ENDBRANCH  27  42
ENDBRANCH   3  27
TORSDOF 5
ENDMDL
MODEL 2
REMARK VINA RESULT:    -5.491      9.605     13.297
REMARK INTER + INTRA:         -12.070
REMARK INTER:                  -9.853
REMARK INTRA:                  -2.217
REMARK UNBOUND:                -2.244
REMARK SMILES CC[C@H](C)[C@H]1NC(=O)c2coc(n2)[C@H](C(C)C)NC(=O)[C@H]([C@@H](C)O)NC(=O)[C@H](C)NC(=O)c2csc1n2
REMARK SMILES IDX 11 1 13 2 12 3 9 4 10 5 7 6 6 7 8 8 5 10 36 11 35 12 34 13
REMARK SMILES IDX 37 14 33 15 31 16 32 17 30 18 28 20 29 21 3 23 4 24 2 25
REMARK SMILES IDX 1 26 14 27 18 28 19 29 20 30 21 32 25 33 26 34 27 35 22 38
REMARK SMILES IDX 23 39 24 40 15 42 16 43 17 44
REMARK H PARENT 6 9 30 19 18 31 25 36 24 41
REMARK Flexibility Score:   94.900
ROOT
ATOM      1  O   UNL     1     -14.490  -1.872  -3.760  1.00  0.00    -0.446 OA
ATOM      2  N   UNL     1     -13.324  -1.494  -1.869  1.00  0.00    -0.207 NA
ATOM      3  C   UNL     1     -13.285  -1.938  -3.113  1.00  0.00     0.217 A 
ATOM      4  C   UNL     1     -14.634  -1.085  -1.695  1.00  0.00     0.167 A 
ATOM      5  C   UNL     1     -15.339  -1.318  -2.850  1.00  0.00     0.231 A 
ENDROOT
BRANCH   4   6
ATOM      6  C   UNL     1     -15.135  -0.534  -0.448  1.00  0.00     0.273 C 
ATOM      7  N   UNL     1     -14.173   0.190   0.212  1.00  0.00    -0.341 N 
ATOM      8  O   UNL     1     -16.272  -0.720  -0.032  1.00  0.00    -0.267 OA
ATOM      9  H   UNL     1     -13.248   0.180  -0.209  1.00  0.00     0.164 HD
BRANCH   7  10
ATOM     10  C   UNL     1     -14.321   0.638   1.582  1.00  0.00     0.145 C 
BRANCH  10  11
ATOM     11  C   UNL     1     -14.066  -0.558   2.488  1.00  0.00     0.116 A 
ATOM     12  S   UNL     1     -14.845  -0.649   4.023  1.00  0.00    -0.124 S 
ATOM     13  C   UNL     1     -14.102  -2.163   4.302  1.00  0.00     0.101 A 
ATOM     14  N   UNL     1     -13.283  -1.581   2.190  1.00  0.00    -0.234 NA
ATOM     15  C   UNL     1     -13.313  -2.519   3.225  1.00  0.00     0.139 A 
BRANCH  15  16
ATOM     16  C   UNL     1     -12.565  -3.776   3.147  1.00  0.00     0.271 C 
ATOM     17  O   UNL     1     -12.060  -4.311   4.128  1.00  0.00    -0.267 OA
ATOM     18  N   UNL     1     -12.487  -4.293   1.871  1.00  0.00    -0.339 N 
ATOM     19  H   UNL     1     -12.850  -3.700   1.129  1.00  0.00     0.164 HD
BRANCH  18  20
ATOM     20  C   UNL     1     -11.725  -5.502   1.591  1.00  0.00     0.168 CG0
ATOM     21  C   UNL     1     -12.647  -6.705   1.384  1.00  0.00     0.041 C 
ATOM     22  G   UNL     1     -10.837  -5.369   0.343  1.00  0.00     0.000 G0
ENDBRANCH  18  20
ENDBRANCH  15  16
ENDBRANCH  10  11
BRANCH  10  23
ATOM     23  C   UNL     1     -13.391   1.837   1.910  1.00  0.00     0.015 C 
ATOM     24  C   UNL     1     -12.403   2.168   0.779  1.00  0.00     0.010 C 
BRANCH  23  25
ATOM     25  C   UNL     1     -14.174   3.119   2.274  1.00  0.00     0.002 C 
ATOM     26  C   UNL     1     -15.686   2.943   2.269  1.00  0.00     0.004 C 
ENDBRANCH  23  25
ENDBRANCH  10  23
ENDBRANCH   7  10
ENDBRANCH   4   6
BRANCH   3  27
ATOM     27  C   UNL     1     -12.102  -2.531  -3.828  1.00  0.00     0.171 C 
BRANCH  27  28
ATOM     28  N   UNL     1     -11.882  -3.869  -3.291  1.00  0.00    -0.342 N 
ATOM     29  C   UNL     1     -10.682  -4.267  -2.744  1.00  0.00     0.245 C 
ATOM     30  O   UNL     1      -9.712  -3.516  -2.653  1.00  0.00    -0.273 OA
ATOM     31  H   UNL     1     -12.673  -4.509  -3.228  1.00  0.00     0.164 HD
BRANCH  29  32
ATOM     32  C   UNL     1     -10.679  -5.675  -2.112  1.00  0.00     0.200 C 
BRANCH  32  33
ATOM     33  N   UNL     1     -11.451  -5.622  -0.865  1.00  0.00    -0.340 N 
ATOM     34  C   UNL     1     -10.837  -5.386   0.348  1.00  0.00     0.243 CG0
ATOM     35  O   UNL     1      -9.617  -5.274   0.447  1.00  0.00    -0.273 OA
ATOM     36  H   UNL     1     -12.456  -5.741  -0.911  1.00  0.00     0.164 HD
ATOM     37  G   UNL     1     -11.742  -5.494   1.585  1.00  0.00     0.000 G0
ENDBRANCH  32  33
BRANCH  32  38
ATOM     38  C   UNL     1     -11.206  -6.739  -3.103  1.00  0.00     0.143 C 
ATOM     39  C   UNL     1     -10.153  -7.745  -3.553  1.00  0.00     0.041 C 
BRANCH  38  40
ATOM     40  O   UNL     1     -12.313  -7.452  -2.517  1.00  0.00    -0.391 OA
ATOM     41  H   UNL     1     -12.434  -7.090  -1.619  1.00  0.00     0.211 HD
ENDBRANCH  38  40
ENDBRANCH  32  38
ENDBRANCH  29  32
ENDBRANCH  27  28
BRANCH  27  42
ATOM     42  C   UNL     1     -12.134  -2.536  -5.376  1.00  0.00     0.015 C 
ATOM     43  C   UNL     1     -11.316  -1.432  -6.057  1.00  0.00     0.010 C 
ATOM     44  C   UNL     1     -11.761  -3.906  -5.952  1.00  0.00     0.010 C 
ENDBRANCH  27  42
ENDBRANCH   3  27
TORSDOF 5
ENDMDL
MODEL 3
REMARK VINA RESULT:    -5.100      8.826     12.450
REMARK INTER + INTRA:         -11.369
REMARK INTER:                  -9.310
REMARK INTRA:                  -2.059
REMARK UNBOUND:                -2.244
REMARK SMILES CC[C@H](C)[C@H]1NC(=O)c2coc(n2)[C@H](C(C)C)NC(=O)[C@H]([C@@H](C)O)NC(=O)[C@H](C)NC(=O)c2csc1n2
REMARK SMILES IDX 11 1 13 2 12 3 9 4 10 5 7 6 6 7 8 8 5 10 36 11 35 12 34 13
REMARK SMILES IDX 37 14 33 15 31 16 32 17 30 18 28 20 29 21 3 23 4 24 2 25
REMARK SMILES IDX 1 26 14 27 18 28 19 29 20 30 21 32 25 33 26 34 27 35 22 38
REMARK SMILES IDX 23 39 24 40 15 42 16 43 17 44
REMARK H PARENT 6 9 30 19 18 31 25 36 24 41
REMARK Flexibility Score:   94.900
ROOT
ATOM      1  O   UNL     1     -13.615  -2.912   2.369  1.00  0.00    -0.446 OA
ATOM      2  N   UNL     1     -12.613  -2.244   0.463  1.00  0.00    -0.207 NA
ATOM      3  C   UNL     1     -12.572  -3.068   1.495  1.00  0.00     0.217 A 
ATOM      4  C   UNL     1     -13.774  -1.515   0.657  1.00  0.00     0.167 A 
ATOM      5  C   UNL     1     -14.379  -1.927   1.819  1.00  0.00     0.231 A 
ENDROOT
BRANCH   4   6
ATOM      6  C   UNL     1     -14.213  -0.467  -0.247  1.00  0.00     0.273 C 
ATOM      7  N   UNL     1     -15.298  -0.856  -0.991  1.00  0.00    -0.341 N 
ATOM      8  O   UNL     1     -13.658   0.621  -0.344  1.00  0.00    -0.267 OA
ATOM      9  H   UNL     1     -15.593  -1.821  -0.869  1.00  0.00     0.164 HD
BRANCH   7  10
ATOM     10  C   UNL     1     -15.784  -0.109  -2.135  1.00  0.00     0.145 C 
BRANCH  10  11
ATOM     11  C   UNL     1     -14.826  -0.362  -3.290  1.00  0.00     0.116 A 
ATOM     12  S   UNL     1     -14.762   0.749  -4.606  1.00  0.00    -0.124 S 
ATOM     13  C   UNL     1     -13.532  -0.191  -5.330  1.00  0.00     0.101 A 
ATOM     14  N   UNL     1     -13.995  -1.388  -3.375  1.00  0.00    -0.234 NA
ATOM     15  C   UNL     1     -13.233  -1.286  -4.542  1.00  0.00     0.139 A 
BRANCH  15  16
ATOM     16  C   UNL     1     -12.201  -2.269  -4.876  1.00  0.00     0.271 C 
ATOM     17  O   UNL     1     -12.079  -2.751  -5.997  1.00  0.00    -0.267 OA
ATOM     18  N   UNL     1     -11.387  -2.596  -3.812  1.00  0.00    -0.339 N 
ATOM     19  H   UNL     1     -11.659  -2.214  -2.910  1.00  0.00     0.164 HD
BRANCH  18  20
ATOM     20  C   UNL     1     -10.347  -3.608  -3.940  1.00  0.00     0.168 CG0
ATOM     21  C   UNL     1      -9.021  -3.122  -3.351  1.00  0.00     0.041 C 
ATOM     22  G   UNL     1     -10.715  -4.929  -3.245  1.00  0.00     0.000 G0
ENDBRANCH  18  20
ENDBRANCH  15  16
ENDBRANCH  10  11
BRANCH  10  23
ATOM     23  C   UNL     1     -17.250  -0.471  -2.492  1.00  0.00     0.015 C 
ATOM     24  C   UNL     1     -17.672  -1.863  -1.992  1.00  0.00     0.010 C 
BRANCH  23  25
ATOM     25  C   UNL     1     -18.266   0.570  -1.973  1.00  0.00     0.002 C 
ATOM     26  C   UNL     1     -18.470   1.754  -2.908  1.00  0.00     0.004 C 
ENDBRANCH  23  25
ENDBRANCH  10  23
ENDBRANCH   7  10
ENDBRANCH   4   6
BRANCH   3  27
ATOM     27  C   UNL     1     -11.502  -4.077   1.808  1.00  0.00     0.171 C 
BRANCH  27  28
ATOM     28  N   UNL     1     -10.990  -4.592   0.542  1.00  0.00    -0.342 N 
ATOM     29  C   UNL     1     -10.954  -5.935   0.241  1.00  0.00     0.245 C 
ATOM     30  O   UNL     1     -11.365  -6.801   1.012  1.00  0.00    -0.273 OA
ATOM     31  H   UNL     1     -10.739  -3.929  -0.191  1.00  0.00     0.164 HD
BRANCH  29  32
ATOM     32  C   UNL     1     -10.500  -6.278  -1.194  1.00  0.00     0.200 C 
BRANCH  32  33
ATOM     33  N   UNL     1     -10.341  -5.023  -1.939  1.00  0.00    -0.340 N 
ATOM     34  C   UNL     1     -10.699  -4.929  -3.268  1.00  0.00     0.243 CG0
ATOM     35  O   UNL     1     -11.103  -5.902  -3.902  1.00  0.00    -0.273 OA
ATOM     36  H   UNL     1      -9.981  -4.211  -1.451  1.00  0.00     0.164 HD
ATOM     37  G   UNL     1     -10.351  -3.601  -3.959  1.00  0.00     0.000 G0
ENDBRANCH  32  33
BRANCH  32  38
ATOM     38  C   UNL     1      -9.219  -7.143  -1.190  1.00  0.00     0.143 C 
ATOM     39  C   UNL     1      -8.023  -6.487  -1.870  1.00  0.00     0.041 C 
BRANCH  38  40
ATOM     40  O   UNL     1      -8.858  -7.484   0.163  1.00  0.00    -0.391 OA
ATOM     41  H   UNL     1      -7.931  -7.787   0.137  1.00  0.00     0.211 HD
ENDBRANCH  38  40
ENDBRANCH  32  38
ENDBRANCH  29  32
ENDBRANCH  27  28
BRANCH  27  42
ATOM     42  C   UNL     1     -10.354  -3.633   2.747  1.00  0.00     0.015 C 
ATOM     43  C   UNL     1     -10.167  -2.118   2.891  1.00  0.00     0.010 C 
ATOM     44  C   UNL     1     -10.458  -4.289   4.128  1.00  0.00     0.010 C 
ENDBRANCH  27  42
ENDBRANCH   3  27
TORSDOF 5
ENDMDL
MODEL 4
REMARK VINA RESULT:    -5.006      3.088      6.751
REMARK INTER + INTRA:         -11.201
REMARK INTER:                  -9.231
REMARK INTRA:                  -1.970
REMARK UNBOUND:                -2.244
REMARK SMILES CC[C@H](C)[C@H]1NC(=O)c2coc(n2)[C@H](C(C)C)NC(=O)[C@H]([C@@H](C)O)NC(=O)[C@H](C)NC(=O)c2csc1n2
REMARK SMILES IDX 11 1 13 2 12 3 9 4 10 5 7 6 6 7 8 8 5 10 36 11 35 12 34 13
REMARK SMILES IDX 37 14 33 15 31 16 32 17 30 18 28 20 29 21 3 23 4 24 2 25
REMARK SMILES IDX 1 26 14 27 18 28 19 29 20 30 21 32 25 33 26 34 27 35 22 38
REMARK SMILES IDX 23 39 24 40 15 42 16 43 17 44
REMARK H PARENT 6 9 30 19 18 31 25 36 24 41
REMARK Flexibility Score:   94.900
ROOT
ATOM      1  O   UNL     1      -5.259   2.234  -3.581  1.00  0.00    -0.446 OA
ATOM      2  N   UNL     1      -5.455   1.711  -5.765  1.00  0.00    -0.207 NA
ATOM      3  C   UNL     1      -4.792   2.405  -4.857  1.00  0.00     0.217 A 
ATOM      4  C   UNL     1      -6.404   1.017  -5.034  1.00  0.00     0.167 A 
ATOM      5  C   UNL     1      -6.278   1.339  -3.705  1.00  0.00     0.231 A 
ENDROOT
BRANCH   4   6
ATOM      6  C   UNL     1      -7.376   0.124  -5.641  1.00  0.00     0.273 C 
ATOM      7  N   UNL     1      -6.983  -1.188  -5.563  1.00  0.00    -0.341 N 
ATOM      8  O   UNL     1      -8.407   0.510  -6.179  1.00  0.00    -0.267 OA
ATOM      9  H   UNL     1      -6.059  -1.348  -5.171  1.00  0.00     0.164 HD
BRANCH   7  10
ATOM     10  C   UNL     1      -7.634  -2.255  -6.297  1.00  0.00     0.145 C 
BRANCH  10  11
ATOM     11  C   UNL     1      -7.248  -2.107  -7.762  1.00  0.00     0.116 A 
ATOM     12  S   UNL     1      -8.360  -2.579  -8.991  1.00  0.00    -0.124 S 
ATOM     13  C   UNL     1      -7.242  -2.082 -10.184  1.00  0.00     0.101 A 
ATOM     14  N   UNL     1      -6.098  -1.619  -8.198  1.00  0.00    -0.234 NA
ATOM     15  C   UNL     1      -6.095  -1.586  -9.594  1.00  0.00     0.139 A 
BRANCH  15  16
ATOM     16  C   UNL     1      -4.958  -1.055 -10.349  1.00  0.00     0.271 C 
ATOM     17  O   UNL     1      -4.651  -1.464 -11.464  1.00  0.00    -0.267 OA
ATOM     18  N   UNL     1      -4.274  -0.058  -9.686  1.00  0.00    -0.339 N 
ATOM     19  H   UNL     1      -4.558   0.112  -8.725  1.00  0.00     0.164 HD
BRANCH  18  20
ATOM     20  C   UNL     1      -3.074   0.541 -10.255  1.00  0.00     0.168 CG0
ATOM     21  C   UNL     1      -3.358   1.941 -10.803  1.00  0.00     0.041 C 
ATOM     22  G   UNL     1      -1.928   0.658  -9.237  1.00  0.00     0.000 G0
ENDBRANCH  18  20
ENDBRANCH  15  16
ENDBRANCH  10  11
BRANCH  10  23
ATOM     23  C   UNL     1      -7.281  -3.656  -5.731  1.00  0.00     0.015 C 
ATOM     24  C   UNL     1      -7.344  -3.725  -4.196  1.00  0.00     0.010 C 
BRANCH  23  25
ATOM     25  C   UNL     1      -8.171  -4.777  -6.313  1.00  0.00     0.002 C 
ATOM     26  C   UNL     1      -9.242  -5.278  -5.354  1.00  0.00     0.004 C 
ENDBRANCH  23  25
ENDBRANCH  10  23
ENDBRANCH   7  10
ENDBRANCH   4   6
BRANCH   3  27
ATOM     27  C   UNL     1      -3.659   3.364  -5.099  1.00  0.00     0.171 C 
BRANCH  27  28
ATOM     28  N   UNL     1      -2.894   2.873  -6.241  1.00  0.00    -0.342 N 
ATOM     29  C   UNL     1      -1.529   2.697  -6.206  1.00  0.00     0.245 C 
ATOM     30  O   UNL     1      -0.854   2.926  -5.204  1.00  0.00    -0.273 OA
ATOM     31  H   UNL     1      -3.399   2.554  -7.067  1.00  0.00     0.164 HD
BRANCH  29  32
ATOM     32  C   UNL     1      -0.916   2.047  -7.465  1.00  0.00     0.200 C 
BRANCH  32  33
ATOM     33  N   UNL     1      -2.003   1.745  -8.404  1.00  0.00    -0.340 N 
ATOM     34  C   UNL     1      -1.948   0.643  -9.232  1.00  0.00     0.243 CG0
ATOM     35  O   UNL     1      -0.965  -0.094  -9.267  1.00  0.00    -0.273 OA
ATOM     36  H   UNL     1      -2.813   2.353  -8.419  1.00  0.00     0.164 HD
ATOM     37  G   UNL     1      -3.086   0.524 -10.259  1.00  0.00     0.000 G0
ENDBRANCH  32  33
BRANCH  32  38
ATOM     38  C   UNL     1       0.184   2.942  -8.083  1.00  0.00     0.143 C 
ATOM     39  C   UNL     1      -0.239   4.390  -8.298  1.00  0.00     0.041 C 
BRANCH  38  40
ATOM     40  O   UNL     1       1.363   2.917  -7.255  1.00  0.00    -0.391 OA
ATOM     41  H   UNL     1       1.075   2.626  -6.369  1.00  0.00     0.211 HD
ENDBRANCH  38  40
ENDBRANCH  32  38
ENDBRANCH  29  32
ENDBRANCH  27  28
BRANCH  27  42
ATOM     42  C   UNL     1      -4.013   4.863  -5.253  1.00  0.00     0.015 C 
ATOM     43  C   UNL     1      -5.380   5.280  -4.698  1.00  0.00     0.010 C 
ATOM     44  C   UNL     1      -2.913   5.772  -4.695  1.00  0.00     0.010 C 
ENDBRANCH  27  42
ENDBRANCH   3  27
TORSDOF 5
ENDMDL
MODEL 5
REMARK VINA RESULT:    -4.974      7.517     11.289
REMARK INTER + INTRA:         -11.144
REMARK INTER:                  -9.060
REMARK INTRA:                  -2.084
REMARK UNBOUND:                -2.244
REMARK SMILES CC[C@H](C)[C@H]1NC(=O)c2coc(n2)[C@H](C(C)C)NC(=O)[C@H]([C@@H](C)O)NC(=O)[C@H](C)NC(=O)c2csc1n2
REMARK SMILES IDX 11 1 13 2 12 3 9 4 10 5 7 6 6 7 8 8 5 10 36 11 35 12 34 13
REMARK SMILES IDX 37 14 33 15 31 16 32 17 30 18 28 20 29 21 3 23 4 24 2 25
REMARK SMILES IDX 1 26 14 27 18 28 19 29 20 30 21 32 25 33 26 34 27 35 22 38
REMARK SMILES IDX 23 39 24 40 15 42 16 43 17 44
REMARK H PARENT 6 9 30 19 18 31 25 36 24 41
REMARK Flexibility Score:   94.900
ROOT
ATOM      1  O   UNL     1      -9.322   0.267   0.185  1.00  0.00    -0.446 OA
ATOM      2  N   UNL     1     -10.226  -1.631  -0.627  1.00  0.00    -0.207 NA
ATOM      3  C   UNL     1      -9.707  -0.451  -0.915  1.00  0.00     0.217 A 
ATOM      4  C   UNL     1     -10.154  -1.705   0.753  1.00  0.00     0.167 A 
ATOM      5  C   UNL     1      -9.602  -0.546   1.241  1.00  0.00     0.231 A 
ENDROOT
BRANCH   4   6
ATOM      6  C   UNL     1     -10.635  -2.846   1.513  1.00  0.00     0.273 C 
ATOM      7  N   UNL     1      -9.608  -3.529   2.113  1.00  0.00    -0.341 N 
ATOM      8  O   UNL     1     -11.816  -3.165   1.581  1.00  0.00    -0.267 OA
ATOM      9  H   UNL     1      -8.672  -3.201   1.891  1.00  0.00     0.164 HD
BRANCH   7  10
ATOM     10  C   UNL     1      -9.773  -4.835   2.721  1.00  0.00     0.145 C 
BRANCH  10  11
ATOM     11  C   UNL     1      -9.086  -5.852   1.821  1.00  0.00     0.116 A 
ATOM     12  S   UNL     1      -7.916  -6.928   2.486  1.00  0.00    -0.124 S 
ATOM     13  C   UNL     1      -7.724  -7.655   0.951  1.00  0.00     0.101 A 
ATOM     14  N   UNL     1      -9.322  -6.001   0.528  1.00  0.00    -0.234 NA
ATOM     15  C   UNL     1      -8.551  -7.052   0.023  1.00  0.00     0.139 A 
BRANCH  15  16
ATOM     16  C   UNL     1      -8.639  -7.466  -1.379  1.00  0.00     0.271 C 
ATOM     17  O   UNL     1      -8.459  -8.623  -1.743  1.00  0.00    -0.267 OA
ATOM     18  N   UNL     1      -8.942  -6.433  -2.241  1.00  0.00    -0.339 N 
ATOM     19  H   UNL     1      -8.957  -5.503  -1.831  1.00  0.00     0.164 HD
BRANCH  18  20
ATOM     20  C   UNL     1      -9.004  -6.645  -3.680  1.00  0.00     0.168 CG0
ATOM     21  C   UNL     1     -10.337  -7.272  -4.094  1.00  0.00     0.041 C 
ATOM     22  G   UNL     1      -8.828  -5.344  -4.480  1.00  0.00     0.000 G0
ENDBRANCH  18  20
ENDBRANCH  15  16
ENDBRANCH  10  11
BRANCH  10  23
ATOM     23  C   UNL     1      -9.238  -4.876   4.176  1.00  0.00     0.015 C 
ATOM     24  C   UNL     1      -8.521  -3.583   4.598  1.00  0.00     0.010 C 
BRANCH  23  25
ATOM     25  C   UNL     1     -10.342  -5.190   5.211  1.00  0.00     0.002 C 
ATOM     26  C   UNL     1     -10.785  -6.646   5.220  1.00  0.00     0.004 C 
ENDBRANCH  23  25
ENDBRANCH  10  23
ENDBRANCH   7  10
ENDBRANCH   4   6
BRANCH   3  27
ATOM     27  C   UNL     1      -9.558   0.165  -2.279  1.00  0.00     0.171 C 
BRANCH  27  28
ATOM     28  N   UNL     1      -9.827  -0.872  -3.270  1.00  0.00    -0.342 N 
ATOM     29  C   UNL     1      -8.893  -1.815  -3.637  1.00  0.00     0.245 C 
ATOM     30  O   UNL     1      -7.767  -1.862  -3.145  1.00  0.00    -0.273 OA
ATOM     31  H   UNL     1     -10.774  -0.966  -3.636  1.00  0.00     0.164 HD
BRANCH  29  32
ATOM     32  C   UNL     1      -9.403  -2.907  -4.601  1.00  0.00     0.200 C 
BRANCH  32  33
ATOM     33  N   UNL     1      -9.369  -4.195  -3.897  1.00  0.00    -0.340 N 
ATOM     34  C   UNL     1      -8.845  -5.323  -4.494  1.00  0.00     0.243 CG0
ATOM     35  O   UNL     1      -8.443  -5.317  -5.655  1.00  0.00    -0.273 OA
ATOM     36  H   UNL     1      -9.721  -4.239  -2.948  1.00  0.00     0.164 HD
ATOM     37  G   UNL     1      -8.998  -6.630  -3.698  1.00  0.00     0.000 G0
ENDBRANCH  32  33
BRANCH  32  38
ATOM     38  C   UNL     1     -10.803  -2.561  -5.159  1.00  0.00     0.143 C 
ATOM     39  C   UNL     1     -11.060  -3.089  -6.565  1.00  0.00     0.041 C 
BRANCH  38  40
ATOM     40  O   UNL     1     -11.823  -3.066  -4.276  1.00  0.00    -0.391 OA
ATOM     41  H   UNL     1     -11.378  -3.301  -3.440  1.00  0.00     0.211 HD
ENDBRANCH  38  40
ENDBRANCH  32  38
ENDBRANCH  29  32
ENDBRANCH  27  28
BRANCH  27  42
ATOM     42  C   UNL     1     -10.365   1.454  -2.571  1.00  0.00     0.015 C 
ATOM     43  C   UNL     1      -9.865   2.721  -1.866  1.00  0.00     0.010 C 
ATOM     44  C   UNL     1     -10.516   1.707  -4.075  1.00  0.00     0.010 C 
ENDBRANCH  27  42
ENDBRANCH   3  27
TORSDOF 5
ENDMDL
MODEL 6
REMARK VINA RESULT:    -4.946      9.873     12.398
REMARK INTER + INTRA:         -11.095
REMARK INTER:                  -9.881
REMARK INTRA:                  -1.214
REMARK UNBOUND:                -2.244
REMARK SMILES CC[C@H](C)[C@H]1NC(=O)c2coc(n2)[C@H](C(C)C)NC(=O)[C@H]([C@@H](C)O)NC(=O)[C@H](C)NC(=O)c2csc1n2
REMARK SMILES IDX 11 1 13 2 12 3 9 4 10 5 7 6 6 7 8 8 5 10 36 11 35 12 34 13
REMARK SMILES IDX 37 14 33 15 31 16 32 17 30 18 28 20 29 21 3 23 4 24 2 25
REMARK SMILES IDX 1 26 14 27 18 28 19 29 20 30 21 32 25 33 26 34 27 35 22 38
REMARK SMILES IDX 23 39 24 40 15 42 16 43 17 44
REMARK H PARENT 6 9 30 19 18 31 25 36 24 41
REMARK Flexibility Score:   94.900
ROOT
ATOM      1  O   UNL     1     -10.318  -3.874  -4.326  1.00  0.00    -0.446 OA
ATOM      2  N   UNL     1     -12.012  -4.071  -2.851  1.00  0.00    -0.207 NA
ATOM      3  C   UNL     1     -10.767  -4.401  -3.144  1.00  0.00     0.217 A 
ATOM      4  C   UNL     1     -12.400  -3.250  -3.896  1.00  0.00     0.167 A 
ATOM      5  C   UNL     1     -11.364  -3.134  -4.790  1.00  0.00     0.231 A 
ENDROOT
BRANCH   4   6
ATOM      6  C   UNL     1     -13.724  -2.660  -3.992  1.00  0.00     0.273 C 
ATOM      7  N   UNL     1     -13.668  -1.290  -4.050  1.00  0.00    -0.341 N 
ATOM      8  O   UNL     1     -14.759  -3.315  -3.994  1.00  0.00    -0.267 OA
ATOM      9  H   UNL     1     -12.744  -0.882  -3.944  1.00  0.00     0.164 HD
BRANCH   7  10
ATOM     10  C   UNL     1     -14.835  -0.444  -3.901  1.00  0.00     0.145 C 
BRANCH  10  11
ATOM     11  C   UNL     1     -15.090  -0.268  -2.411  1.00  0.00     0.116 A 
ATOM     12  S   UNL     1     -16.660   0.182  -1.859  1.00  0.00    -0.124 S 
ATOM     13  C   UNL     1     -16.104   0.112  -0.244  1.00  0.00     0.101 A 
ATOM     14  N   UNL     1     -14.188  -0.450  -1.461  1.00  0.00    -0.234 NA
ATOM     15  C   UNL     1     -14.771  -0.249  -0.207  1.00  0.00     0.139 A 
BRANCH  15  16
ATOM     16  C   UNL     1     -14.010  -0.421   1.032  1.00  0.00     0.271 C 
ATOM     17  O   UNL     1     -13.793   0.500   1.813  1.00  0.00    -0.267 OA
ATOM     18  N   UNL     1     -13.567  -1.712   1.232  1.00  0.00    -0.339 N 
ATOM     19  H   UNL     1     -13.716  -2.357   0.461  1.00  0.00     0.164 HD
BRANCH  18  20
ATOM     20  C   UNL     1     -12.737  -2.056   2.378  1.00  0.00     0.168 CG0
ATOM     21  C   UNL     1     -13.574  -2.646   3.515  1.00  0.00     0.041 C 
ATOM     22  G   UNL     1     -11.635  -3.069   2.030  1.00  0.00     0.000 G0
ENDBRANCH  18  20
ENDBRANCH  15  16
ENDBRANCH  10  11
BRANCH  10  23
ATOM     23  C   UNL     1     -14.673   0.913  -4.636  1.00  0.00     0.015 C 
ATOM     24  C   UNL     1     -13.688   0.852  -5.816  1.00  0.00     0.010 C 
BRANCH  23  25
ATOM     25  C   UNL     1     -16.017   1.483  -5.143  1.00  0.00     0.002 C 
ATOM     26  C   UNL     1     -16.086   1.652  -6.655  1.00  0.00     0.004 C 
ENDBRANCH  23  25
ENDBRANCH  10  23
ENDBRANCH   7  10
ENDBRANCH   4   6
BRANCH   3  27
ATOM     27  C   UNL     1      -9.860  -5.308  -2.358  1.00  0.00     0.171 C 
BRANCH  27  28
ATOM     28  N   UNL     1     -10.102  -5.061  -0.940  1.00  0.00    -0.342 N 
ATOM     29  C   UNL     1     -11.098  -5.694  -0.231  1.00  0.00     0.245 C 
ATOM     30  O   UNL     1     -11.848  -6.527  -0.737  1.00  0.00    -0.273 OA
ATOM     31  H   UNL     1      -9.448  -4.470  -0.427  1.00  0.00     0.164 HD
BRANCH  29  32
ATOM     32  C   UNL     1     -11.117  -5.401   1.284  1.00  0.00     0.200 C 
BRANCH  32  33
ATOM     33  N   UNL     1     -12.057  -4.300   1.529  1.00  0.00    -0.340 N 
ATOM     34  C   UNL     1     -11.625  -3.086   2.022  1.00  0.00     0.243 CG0
ATOM     35  O   UNL     1     -10.453  -2.893   2.337  1.00  0.00    -0.273 OA
ATOM     36  H   UNL     1     -13.036  -4.440   1.308  1.00  0.00     0.164 HD
ATOM     37  G   UNL     1     -12.731  -2.073   2.360  1.00  0.00     0.000 G0
ENDBRANCH  32  33
BRANCH  32  38
ATOM     38  C   UNL     1     -11.449  -6.671   2.101  1.00  0.00     0.143 C 
ATOM     39  C   UNL     1     -10.966  -6.626   3.546  1.00  0.00     0.041 C 
BRANCH  38  40
ATOM     40  O   UNL     1     -12.871  -6.905   2.091  1.00  0.00    -0.391 OA
ATOM     41  H   UNL     1     -13.052  -7.493   1.334  1.00  0.00     0.211 HD
ENDBRANCH  38  40
ENDBRANCH  32  38
ENDBRANCH  29  32
ENDBRANCH  27  28
BRANCH  27  42
ATOM     42  C   UNL     1      -9.902  -6.820  -2.688  1.00  0.00     0.015 C 
ATOM     43  C   UNL     1      -9.975  -7.169  -4.179  1.00  0.00     0.010 C 
ATOM     44  C   UNL     1      -8.755  -7.584  -2.019  1.00  0.00     0.010 C 
ENDBRANCH  27  42
ENDBRANCH   3  27
TORSDOF 5
ENDMDL
MODEL 7
REMARK VINA RESULT:    -4.564      2.800      5.679
REMARK INTER + INTRA:         -10.411
REMARK INTER:                  -9.214
REMARK INTRA:                  -1.197
REMARK UNBOUND:                -2.244
REMARK SMILES CC[C@H](C)[C@H]1NC(=O)c2coc(n2)[C@H](C(C)C)NC(=O)[C@H]([C@@H](C)O)NC(=O)[C@H](C)NC(=O)c2csc1n2
REMARK SMILES IDX 11 1 13 2 12 3 9 4 10 5 7 6 6 7 8 8 5 10 36 11 35 12 34 13
REMARK SMILES IDX 37 14 33 15 31 16 32 17 30 18 28 20 29 21 3 23 4 24 2 25
REMARK SMILES IDX 1 26 14 27 18 28 19 29 20 30 21 32 25 33 26 34 27 35 22 38
REMARK SMILES IDX 23 39 24 40 15 42 16 43 17 44
REMARK H PARENT 6 9 30 19 18 31 25 36 24 41
REMARK Flexibility Score:   94.900
ROOT
ATOM      1  O   UNL     1      -7.047   3.902  -4.630  1.00  0.00    -0.446 OA
ATOM      2  N   UNL     1      -6.164   1.923  -5.252  1.00  0.00    -0.207 NA
ATOM      3  C   UNL     1      -6.032   2.994  -4.489  1.00  0.00     0.217 A 
ATOM      4  C   UNL     1      -7.359   2.128  -5.919  1.00  0.00     0.167 A 
ATOM      5  C   UNL     1      -7.892   3.334  -5.536  1.00  0.00     0.231 A 
ENDROOT
BRANCH   4   6
ATOM      6  C   UNL     1      -7.897   1.190  -6.889  1.00  0.00     0.273 C 
ATOM      7  N   UNL     1      -7.495  -0.097  -6.631  1.00  0.00    -0.341 N 
ATOM      8  O   UNL     1      -8.602   1.521  -7.834  1.00  0.00    -0.267 OA
ATOM      9  H   UNL     1      -6.835  -0.207  -5.866  1.00  0.00     0.164 HD
BRANCH   7  10
ATOM     10  C   UNL     1      -7.678  -1.187  -7.569  1.00  0.00     0.145 C 
BRANCH  10  11
ATOM     11  C   UNL     1      -6.456  -1.223  -8.476  1.00  0.00     0.116 A 
ATOM     12  S   UNL     1      -6.625  -1.717 -10.118  1.00  0.00    -0.124 S 
ATOM     13  C   UNL     1      -4.956  -1.444 -10.364  1.00  0.00     0.101 A 
ATOM     14  N   UNL     1      -5.230  -0.885  -8.111  1.00  0.00    -0.234 NA
ATOM     15  C   UNL     1      -4.363  -0.994  -9.201  1.00  0.00     0.139 A 
BRANCH  15  16
ATOM     16  C   UNL     1      -2.945  -0.644  -9.094  1.00  0.00     0.271 C 
ATOM     17  O   UNL     1      -2.058  -1.486  -8.999  1.00  0.00    -0.267 OA
ATOM     18  N   UNL     1      -2.710   0.714  -9.112  1.00  0.00    -0.339 N 
ATOM     19  H   UNL     1      -3.534   1.308  -9.082  1.00  0.00     0.164 HD
BRANCH  18  20
ATOM     20  C   UNL     1      -1.365   1.249  -8.948  1.00  0.00     0.168 CG0
ATOM     21  C   UNL     1      -1.061   2.322  -9.997  1.00  0.00     0.041 C 
ATOM     22  G   UNL     1      -1.137   1.871  -7.561  1.00  0.00     0.000 G0
ENDBRANCH  18  20
ENDBRANCH  15  16
ENDBRANCH  10  11
BRANCH  10  23
ATOM     23  C   UNL     1      -7.923  -2.541  -6.853  1.00  0.00     0.015 C 
ATOM     24  C   UNL     1      -8.911  -3.454  -7.599  1.00  0.00     0.010 C 
BRANCH  23  25
ATOM     25  C   UNL     1      -6.618  -3.328  -6.598  1.00  0.00     0.002 C 
ATOM     26  C   UNL     1      -6.630  -4.146  -5.314  1.00  0.00     0.004 C 
ENDBRANCH  23  25
ENDBRANCH  10  23
ENDBRANCH   7  10
ENDBRANCH   4   6
BRANCH   3  27
ATOM     27  C   UNL     1      -4.889   3.313  -3.564  1.00  0.00     0.171 C 
BRANCH  27  28
ATOM     28  N   UNL     1      -3.647   3.108  -4.301  1.00  0.00    -0.342 N 
ATOM     29  C   UNL     1      -3.267   3.901  -5.360  1.00  0.00     0.245 C 
ATOM     30  O   UNL     1      -3.940   4.852  -5.754  1.00  0.00    -0.273 OA
ATOM     31  H   UNL     1      -2.984   2.412  -3.960  1.00  0.00     0.164 HD
BRANCH  29  32
ATOM     32  C   UNL     1      -1.862   3.612  -5.930  1.00  0.00     0.200 C 
BRANCH  32  33
ATOM     33  N   UNL     1      -2.019   2.874  -7.190  1.00  0.00    -0.340 N 
ATOM     34  C   UNL     1      -1.148   1.863  -7.540  1.00  0.00     0.243 CG0
ATOM     35  O   UNL     1      -0.172   1.578  -6.850  1.00  0.00    -0.273 OA
ATOM     36  H   UNL     1      -2.797   3.108  -7.795  1.00  0.00     0.164 HD
ATOM     37  G   UNL     1      -1.346   1.271  -8.945  1.00  0.00     0.000 G0
ENDBRANCH  32  33
BRANCH  32  38
ATOM     38  C   UNL     1      -1.038   4.911  -6.090  1.00  0.00     0.143 C 
ATOM     39  C   UNL     1      -0.663   5.576  -4.771  1.00  0.00     0.041 C 
BRANCH  38  40
ATOM     40  O   UNL     1       0.165   4.643  -6.836  1.00  0.00    -0.391 OA
ATOM     41  H   UNL     1      -0.012   3.848  -7.375  1.00  0.00     0.211 HD
ENDBRANCH  38  40
ENDBRANCH  32  38
ENDBRANCH  29  32
ENDBRANCH  27  28
BRANCH  27  42
ATOM     42  C   UNL     1      -4.909   4.689  -2.854  1.00  0.00     0.015 C 
ATOM     43  C   UNL     1      -5.917   4.826  -1.707  1.00  0.00     0.010 C 
ATOM     44  C   UNL     1      -3.513   5.113  -2.387  1.00  0.00     0.010 C 
ENDBRANCH  27  42
ENDBRANCH   3  27
TORSDOF 5
ENDMDL
MODEL 8
REMARK VINA RESULT:    -4.469      6.731     10.321
REMARK INTER + INTRA:         -10.240
REMARK INTER:                  -8.677
REMARK INTRA:                  -1.563
REMARK UNBOUND:                -2.244
REMARK SMILES CC[C@H](C)[C@H]1NC(=O)c2coc(n2)[C@H](C(C)C)NC(=O)[C@H]([C@@H](C)O)NC(=O)[C@H](C)NC(=O)c2csc1n2
REMARK SMILES IDX 11 1 13 2 12 3 9 4 10 5 7 6 6 7 8 8 5 10 36 11 35 12 34 13
REMARK SMILES IDX 37 14 33 15 31 16 32 17 30 18 28 20 29 21 3 23 4 24 2 25
REMARK SMILES IDX 1 26 14 27 18 28 19 29 20 30 21 32 25 33 26 34 27 35 22 38
REMARK SMILES IDX 23 39 24 40 15 42 16 43 17 44
REMARK H PARENT 6 9 30 19 18 31 25 36 24 41
REMARK Flexibility Score:   94.900
ROOT
ATOM      1  O   UNL     1      -7.907  -3.373  -3.947  1.00  0.00    -0.446 OA
ATOM      2  N   UNL     1      -9.874  -2.773  -3.025  1.00  0.00    -0.207 NA
ATOM      3  C   UNL     1      -8.960  -3.720  -3.144  1.00  0.00     0.217 A 
ATOM      4  C   UNL     1      -9.376  -1.724  -3.778  1.00  0.00     0.167 A 
ATOM      5  C   UNL     1      -8.178  -2.096  -4.337  1.00  0.00     0.231 A 
ENDROOT
BRANCH   4   6
ATOM      6  C   UNL     1     -10.077  -0.462  -3.941  1.00  0.00     0.273 C 
ATOM      7  N   UNL     1      -9.391   0.579  -3.368  1.00  0.00    -0.341 N 
ATOM      8  O   UNL     1     -11.160  -0.356  -4.503  1.00  0.00    -0.267 OA
ATOM      9  H   UNL     1      -8.551   0.325  -2.856  1.00  0.00     0.164 HD
BRANCH   7  10
ATOM     10  C   UNL     1      -9.970   1.892  -3.166  1.00  0.00     0.145 C 
BRANCH  10  11
ATOM     11  C   UNL     1     -10.420   1.980  -1.715  1.00  0.00     0.116 A 
ATOM     12  S   UNL     1     -11.414   3.293  -1.206  1.00  0.00    -0.124 S 
ATOM     13  C   UNL     1     -11.462   2.635   0.371  1.00  0.00     0.101 A 
ATOM     14  N   UNL     1     -10.120   1.100  -0.774  1.00  0.00    -0.234 NA
ATOM     15  C   UNL     1     -10.732   1.464   0.428  1.00  0.00     0.139 A 
BRANCH  15  16
ATOM     16  C   UNL     1     -10.601   0.646   1.637  1.00  0.00     0.271 C 
ATOM     17  O   UNL     1      -9.949   1.002   2.612  1.00  0.00    -0.267 OA
ATOM     18  N   UNL     1     -11.279  -0.552   1.567  1.00  0.00    -0.339 N 
ATOM     19  H   UNL     1     -11.688  -0.779   0.664  1.00  0.00     0.164 HD
BRANCH  18  20
ATOM     20  C   UNL     1     -11.207  -1.524   2.649  1.00  0.00     0.168 CG0
ATOM     21  C   UNL     1     -12.602  -1.892   3.160  1.00  0.00     0.041 C 
ATOM     22  G   UNL     1     -10.501  -2.824   2.234  1.00  0.00     0.000 G0
ENDBRANCH  18  20
ENDBRANCH  15  16
ENDBRANCH  10  11
BRANCH  10  23
ATOM     23  C   UNL     1      -8.988   3.031  -3.551  1.00  0.00     0.015 C 
ATOM     24  C   UNL     1      -7.512   2.605  -3.495  1.00  0.00     0.010 C 
BRANCH  23  25
ATOM     25  C   UNL     1      -9.280   3.626  -4.947  1.00  0.00     0.002 C 
ATOM     26  C   UNL     1     -10.760   3.840  -5.231  1.00  0.00     0.004 C 
ENDBRANCH  23  25
ENDBRANCH  10  23
ENDBRANCH   7  10
ENDBRANCH   4   6
BRANCH   3  27
ATOM     27  C   UNL     1      -9.000  -5.100  -2.547  1.00  0.00     0.171 C 
BRANCH  27  28
ATOM     28  N   UNL     1      -9.301  -4.962  -1.125  1.00  0.00    -0.342 N 
ATOM     29  C   UNL     1     -10.586  -4.950  -0.631  1.00  0.00     0.245 C 
ATOM     30  O   UNL     1     -11.576  -5.070  -1.350  1.00  0.00    -0.273 OA
ATOM     31  H   UNL     1      -8.530  -4.974  -0.458  1.00  0.00     0.164 HD
BRANCH  29  32
ATOM     32  C   UNL     1     -10.700  -4.927   0.908  1.00  0.00     0.200 C 
BRANCH  32  33
ATOM     33  N   UNL     1     -11.192  -3.605   1.314  1.00  0.00    -0.340 N 
ATOM     34  C   UNL     1     -10.500  -2.831   2.222  1.00  0.00     0.243 CG0
ATOM     35  O   UNL     1      -9.480  -3.236   2.777  1.00  0.00    -0.273 OA
ATOM     36  H   UNL     1     -12.047  -3.257   0.896  1.00  0.00     0.164 HD
ATOM     37  G   UNL     1     -11.197  -1.533   2.660  1.00  0.00     0.000 G0
ENDBRANCH  32  33
BRANCH  32  38
ATOM     38  C   UNL     1     -11.584  -6.085   1.427  1.00  0.00     0.143 C 
ATOM     39  C   UNL     1     -11.177  -6.614   2.797  1.00  0.00     0.041 C 
BRANCH  38  40
ATOM     40  O   UNL     1     -12.962  -5.668   1.477  1.00  0.00    -0.391 OA
ATOM     41  H   UNL     1     -13.267  -5.600   0.553  1.00  0.00     0.211 HD
ENDBRANCH  38  40
ENDBRANCH  32  38
ENDBRANCH  29  32
ENDBRANCH  27  28
BRANCH  27  42
ATOM     42  C   UNL     1      -9.921  -6.144  -3.225  1.00  0.00     0.015 C 
ATOM     43  C   UNL     1     -10.078  -6.000  -4.743  1.00  0.00     0.010 C 
ATOM     44  C   UNL     1      -9.521  -7.579  -2.866  1.00  0.00     0.010 C 
ENDBRANCH  27  42
ENDBRANCH   3  27
TORSDOF 5
ENDMDL
MODEL 9
REMARK VINA RESULT:    -4.328     13.607     16.374
REMARK INTER + INTRA:          -9.989
REMARK INTER:                  -7.550
REMARK INTRA:                  -2.439
REMARK UNBOUND:                -2.244
REMARK SMILES CC[C@H](C)[C@H]1NC(=O)c2coc(n2)[C@H](C(C)C)NC(=O)[C@H]([C@@H](C)O)NC(=O)[C@H](C)NC(=O)c2csc1n2
REMARK SMILES IDX 11 1 13 2 12 3 9 4 10 5 7 6 6 7 8 8 5 10 36 11 35 12 34 13
REMARK SMILES IDX 37 14 33 15 31 16 32 17 30 18 28 20 29 21 3 23 4 24 2 25
REMARK SMILES IDX 1 26 14 27 18 28 19 29 20 30 21 32 25 33 26 34 27 35 22 38
REMARK SMILES IDX 23 39 24 40 15 42 16 43 17 44
REMARK H PARENT 6 9 30 19 18 31 25 36 24 41
REMARK Flexibility Score:   94.900
ROOT
ATOM      1  O   UNL     1      -2.920 -10.202   5.916  1.00  0.00    -0.446 OA
ATOM      2  N   UNL     1      -4.162  -8.393   5.400  1.00  0.00    -0.207 NA
ATOM      3  C   UNL     1      -2.954  -8.855   5.667  1.00  0.00     0.217 A 
ATOM      4  C   UNL     1      -4.973  -9.513   5.451  1.00  0.00     0.167 A 
ATOM      5  C   UNL     1      -4.210 -10.612   5.765  1.00  0.00     0.231 A 
ENDROOT
BRANCH   4   6
ATOM      6  C   UNL     1      -6.408  -9.465   5.230  1.00  0.00     0.273 C 
ATOM      7  N   UNL     1      -6.831  -8.202   4.905  1.00  0.00    -0.341 N 
ATOM      8  O   UNL     1      -7.145 -10.437   5.349  1.00  0.00    -0.267 OA
ATOM      9  H   UNL     1      -6.120  -7.477   4.935  1.00  0.00     0.164 HD
BRANCH   7  10
ATOM     10  C   UNL     1      -8.229  -7.818   4.875  1.00  0.00     0.145 C 
BRANCH  10  11
ATOM     11  C   UNL     1      -8.561  -7.180   6.216  1.00  0.00     0.116 A 
ATOM     12  S   UNL     1     -10.205  -7.032   6.709  1.00  0.00    -0.124 S 
ATOM     13  C   UNL     1      -9.693  -6.327   8.180  1.00  0.00     0.101 A 
ATOM     14  N   UNL     1      -7.668  -6.723   7.079  1.00  0.00    -0.234 NA
ATOM     15  C   UNL     1      -8.315  -6.245   8.222  1.00  0.00     0.139 A 
BRANCH  15  16
ATOM     16  C   UNL     1      -7.567  -5.712   9.363  1.00  0.00     0.271 C 
ATOM     17  O   UNL     1      -8.107  -5.135  10.300  1.00  0.00    -0.267 OA
ATOM     18  N   UNL     1      -6.207  -5.924   9.278  1.00  0.00    -0.339 N 
ATOM     19  H   UNL     1      -5.872  -6.314   8.400  1.00  0.00     0.164 HD
BRANCH  18  20
ATOM     20  C   UNL     1      -5.298  -5.403  10.289  1.00  0.00     0.168 CG0
ATOM     21  C   UNL     1      -4.913  -6.485  11.301  1.00  0.00     0.041 C 
ATOM     22  G   UNL     1      -4.000  -4.839   9.688  1.00  0.00     0.000 G0
ENDBRANCH  18  20
ENDBRANCH  15  16
ENDBRANCH  10  11
BRANCH  10  23
ATOM     23  C   UNL     1      -8.555  -6.885   3.679  1.00  0.00     0.015 C 
ATOM     24  C   UNL     1      -8.254  -5.404   3.963  1.00  0.00     0.010 C 
BRANCH  23  25
ATOM     25  C   UNL     1      -7.825  -7.298   2.381  1.00  0.00     0.002 C 
ATOM     26  C   UNL     1      -6.967  -6.195   1.776  1.00  0.00     0.004 C 
ENDBRANCH  23  25
ENDBRANCH  10  23
ENDBRANCH   7  10
ENDBRANCH   4   6
BRANCH   3  27
ATOM     27  C   UNL     1      -1.681  -8.061   5.769  1.00  0.00     0.171 C 
BRANCH  27  28
ATOM     28  N   UNL     1      -1.717  -7.319   7.025  1.00  0.00    -0.342 N 
ATOM     29  C   UNL     1      -1.730  -5.944   7.081  1.00  0.00     0.245 C 
ATOM     30  O   UNL     1      -1.728  -5.237   6.075  1.00  0.00    -0.273 OA
ATOM     31  H   UNL     1      -1.836  -7.836   7.896  1.00  0.00     0.164 HD
BRANCH  29  32
ATOM     32  C   UNL     1      -1.900  -5.342   8.492  1.00  0.00     0.200 C 
BRANCH  32  33
ATOM     33  N   UNL     1      -3.224  -5.724   9.000  1.00  0.00    -0.340 N 
ATOM     34  C   UNL     1      -4.010  -4.829   9.695  1.00  0.00     0.243 CG0
ATOM     35  O   UNL     1      -3.615  -3.699   9.976  1.00  0.00    -0.273 OA
ATOM     36  H   UNL     1      -3.565  -6.659   8.810  1.00  0.00     0.164 HD
ATOM     37  G   UNL     1      -5.309  -5.400  10.286  1.00  0.00     0.000 G0
ENDBRANCH  32  33
BRANCH  32  38
ATOM     38  C   UNL     1      -0.749  -5.770   9.432  1.00  0.00     0.143 C 
ATOM     39  C   UNL     1       0.642  -5.441   8.901  1.00  0.00     0.041 C 
BRANCH  38  40
ATOM     40  O   UNL     1      -0.913  -5.155  10.724  1.00  0.00    -0.391 OA
ATOM     41  H   UNL     1      -1.857  -4.924  10.806  1.00  0.00     0.211 HD
ENDBRANCH  38  40
ENDBRANCH  32  38
ENDBRANCH  29  32
ENDBRANCH  27  28
BRANCH  27  42
ATOM     42  C   UNL     1      -0.346  -8.826   5.598  1.00  0.00     0.015 C 
ATOM     43  C   UNL     1       0.487  -8.436   4.372  1.00  0.00     0.010 C 
ATOM     44  C   UNL     1       0.514  -8.768   6.865  1.00  0.00     0.010 C 
ENDBRANCH  27  42
ENDBRANCH   3  27
TORSDOF 5
ENDMDL
MODEL 10
REMARK VINA RESULT:    -4.161     10.064     15.078
REMARK INTER + INTRA:          -9.690
REMARK INTER:                  -7.714
REMARK INTRA:                  -1.976
REMARK UNBOUND:                -2.244
REMARK SMILES CC[C@H](C)[C@H]1NC(=O)c2coc(n2)[C@H](C(C)C)NC(=O)[C@H]([C@@H](C)O)NC(=O)[C@H](C)NC(=O)c2csc1n2
REMARK SMILES IDX 11 1 13 2 12 3 9 4 10 5 7 6 6 7 8 8 5 10 36 11 35 12 34 13
REMARK SMILES IDX 37 14 33 15 31 16 32 17 30 18 28 20 29 21 3 23 4 24 2 25
REMARK SMILES IDX 1 26 14 27 18 28 19 29 20 30 21 32 25 33 26 34 27 35 22 38
REMARK SMILES IDX 23 39 24 40 15 42 16 43 17 44
REMARK H PARENT 6 9 30 19 18 31 25 36 24 41
REMARK Flexibility Score:   94.900
ROOT
ATOM      1  O   UNL     1     -12.860  -3.496   5.242  1.00  0.00    -0.446 OA
ATOM      2  N   UNL     1     -13.970  -2.452   3.581  1.00  0.00    -0.207 NA
ATOM      3  C   UNL     1     -12.931  -3.200   3.907  1.00  0.00     0.217 A 
ATOM      4  C   UNL     1     -14.643  -2.267   4.776  1.00  0.00     0.167 A 
ATOM      5  C   UNL     1     -13.962  -2.906   5.784  1.00  0.00     0.231 A 
ENDROOT
BRANCH   4   6
ATOM      6  C   UNL     1     -15.858  -1.480   4.889  1.00  0.00     0.273 C 
ATOM      7  N   UNL     1     -16.822  -1.901   4.009  1.00  0.00    -0.341 N 
ATOM      8  O   UNL     1     -15.987  -0.539   5.663  1.00  0.00    -0.267 OA
ATOM      9  H   UNL     1     -16.540  -2.634   3.364  1.00  0.00     0.164 HD
BRANCH   7  10
ATOM     10  C   UNL     1     -18.030  -1.147   3.735  1.00  0.00     0.145 C 
BRANCH  10  11
ATOM     11  C   UNL     1     -17.957  -0.668   2.293  1.00  0.00     0.116 A 
ATOM     12  S   UNL     1     -18.593   0.878   1.872  1.00  0.00    -0.124 S 
ATOM     13  C   UNL     1     -18.100   0.632   0.254  1.00  0.00     0.101 A 
ATOM     14  N   UNL     1     -17.417  -1.348   1.295  1.00  0.00    -0.234 NA
ATOM     15  C   UNL     1     -17.481  -0.596   0.119  1.00  0.00     0.139 A 
BRANCH  15  16
ATOM     16  C   UNL     1     -16.922  -1.089  -1.142  1.00  0.00     0.271 C 
ATOM     17  O   UNL     1     -17.558  -1.788  -1.923  1.00  0.00    -0.267 OA
ATOM     18  N   UNL     1     -15.620  -0.692  -1.360  1.00  0.00    -0.339 N 
ATOM     19  H   UNL     1     -15.167  -0.209  -0.587  1.00  0.00     0.164 HD
BRANCH  18  20
ATOM     20  C   UNL     1     -14.879  -1.143  -2.529  1.00  0.00     0.168 CG0
ATOM     21  C   UNL     1     -14.907  -0.096  -3.645  1.00  0.00     0.041 C 
ATOM     22  G   UNL     1     -13.407  -1.456  -2.216  1.00  0.00     0.000 G0
ENDBRANCH  18  20
ENDBRANCH  15  16
ENDBRANCH  10  11
BRANCH  10  23
ATOM     23  C   UNL     1     -19.313  -1.971   4.021  1.00  0.00     0.015 C 
ATOM     24  C   UNL     1     -19.037  -3.292   4.759  1.00  0.00     0.010 C 
BRANCH  23  25
ATOM     25  C   UNL     1     -20.373  -1.173   4.814  1.00  0.00     0.002 C 
ATOM     26  C   UNL     1     -20.386  -1.477   6.306  1.00  0.00     0.004 C 
ENDBRANCH  23  25
ENDBRANCH  10  23
ENDBRANCH   7  10
ENDBRANCH   4   6
BRANCH   3  27
ATOM     27  C   UNL     1     -11.840  -3.684   2.991  1.00  0.00     0.171 C 
BRANCH  27  28
ATOM     28  N   UNL     1     -11.734  -2.740   1.884  1.00  0.00    -0.342 N 
ATOM     29  C   UNL     1     -11.730  -3.134   0.565  1.00  0.00     0.245 C 
ATOM     30  O   UNL     1     -11.831  -4.310   0.221  1.00  0.00    -0.273 OA
ATOM     31  H   UNL     1     -11.762  -1.742   2.087  1.00  0.00     0.164 HD
BRANCH  29  32
ATOM     32  C   UNL     1     -11.741  -1.985  -0.466  1.00  0.00     0.200 C 
BRANCH  32  33
ATOM     33  N   UNL     1     -13.122  -1.791  -0.925  1.00  0.00    -0.340 N 
ATOM     34  C   UNL     1     -13.401  -1.454  -2.233  1.00  0.00     0.243 CG0
ATOM     35  O   UNL     1     -12.511  -1.238  -3.053  1.00  0.00    -0.273 OA
ATOM     36  H   UNL     1     -13.877  -1.932  -0.264  1.00  0.00     0.164 HD
ATOM     37  G   UNL     1     -14.876  -1.147  -2.542  1.00  0.00     0.000 G0
ENDBRANCH  32  33
BRANCH  32  38
ATOM     38  C   UNL     1     -11.113  -0.697   0.115  1.00  0.00     0.143 C 
ATOM     39  C   UNL     1      -9.599  -0.617  -0.044  1.00  0.00     0.041 C 
BRANCH  38  40
ATOM     40  O   UNL     1     -11.709   0.462  -0.498  1.00  0.00    -0.391 OA
ATOM     41  H   UNL     1     -11.956   1.066   0.229  1.00  0.00     0.211 HD
ENDBRANCH  38  40
ENDBRANCH  32  38
ENDBRANCH  29  32
ENDBRANCH  27  28
BRANCH  27  42
ATOM     42  C   UNL     1     -10.457  -3.979   3.623  1.00  0.00     0.015 C 
ATOM     43  C   UNL     1     -10.220  -5.433   4.047  1.00  0.00     0.010 C 
ATOM     44  C   UNL     1      -9.307  -3.489   2.737  1.00  0.00     0.010 C 
ENDBRANCH  27  42
ENDBRANCH   3  27
TORSDOF 5
ENDMDL
