MODEL 1
REMARK VINA RESULT:    -4.321      0.000      0.000
REMARK INTER + INTRA:         -20.037
REMARK INTER:                 -12.404
REMARK INTRA:                  -7.633
REMARK UNBOUND:                -7.633
REMARK SMILES CCCCCC(=O)N[C@H](CC(=O)O)C(=O)N[C@H]1C(=O)N[C@H](CCCN=C(N)N)C(=O)N[C@@H]2CC[C@H](O)N(C2=O)[C@@H](CC(C)C)C(=O)N(C)[C@@H](Cc2ccccc2)C(=O)N[C@H](C(C)C)C(=O)O[C@@H]1C
REMARK SMILES IDX 30 1 31 2 29 3 32 5 35 6 37 7 34 8 38 9 33 10 39 11 36 12
REMARK SMILES IDX 40 14 41 15 42 16 43 17 44 18 45 19 46 20 47 21 48 22 49 23
REMARK SMILES IDX 50 24 51 25 52 26 56 27 53 28 55 29 54 30 57 31 58 32 59 33
REMARK SMILES IDX 60 35 61 36 62 37 63 38 64 39 65 40 66 41 67 42 68 43 21 45
REMARK SMILES IDX 20 46 18 47 19 48 17 50 16 52 14 53 15 54 9 56 8 57 6 58
REMARK SMILES IDX 7 59 5 61 4 62 3 63 2 64 1 65 10 66 11 67 12 68 13 69 22 71
REMARK SMILES IDX 23 72 24 73 25 74 26 75 27 76 28 77
REMARK H PARENT 31 4 36 13 59 34 20 49 16 55 8 60 13 70 27 78 27 79 28 80
REMARK H PARENT 28 81
REMARK Flexibility Score:  259.900
ROOT
ATOM      1  O   UNL     1      -4.899   0.424  -0.053  1.00  0.00    -0.273 OA
ATOM      2  N   UNL     1      -6.797   0.816   1.161  1.00  0.00    -0.343 N 
ATOM      3  C   UNL     1      -6.127   0.402   0.030  1.00  0.00     0.243 C 
ATOM      4  H   UNL     1      -7.807   0.770   1.199  1.00  0.00     0.164 HD
ENDROOT
BRANCH   2   5
ATOM      5  C   UNL     1      -6.071   1.415   2.276  1.00  0.00     0.171 C 
ATOM      6  C   UNL     1      -6.896   2.288   4.914  1.00  0.00     0.214 C 
ATOM      7  N   UNL     1      -6.917   3.227   3.817  1.00  0.00    -0.303 N 
ATOM      8  C   UNL     1      -5.825   1.218   4.771  1.00  0.00     0.057 C 
ATOM      9  C   UNL     1      -6.584   2.863   2.522  1.00  0.00     0.247 C 
ATOM     10  C   UNL     1      -6.023   0.466   3.472  1.00  0.00     0.040 C 
ATOM     11  O   UNL     1      -6.688   3.650   1.572  1.00  0.00    -0.272 OA
BRANCH   6  12
ATOM     12  O   UNL     1      -8.172   1.699   5.001  1.00  0.00    -0.373 OA
ATOM     13  H   UNL     1      -8.296   1.160   4.191  1.00  0.00     0.213 HD
ENDBRANCH   6  12
BRANCH   7  14
ATOM     14  C   UNL     1      -7.454   4.575   4.098  1.00  0.00     0.177 C 
BRANCH  14  15
ATOM     15  C   UNL     1      -8.834   4.602   4.783  1.00  0.00     0.038 C 
BRANCH  15  16
ATOM     16  C   UNL     1      -8.950   5.095   6.242  1.00  0.00    -0.015 C 
ATOM     17  C   UNL     1     -10.008   4.323   7.037  1.00  0.00     0.007 C 
ATOM     18  C   UNL     1      -9.325   6.582   6.260  1.00  0.00     0.007 C 
ENDBRANCH  15  16
ENDBRANCH  14  15
BRANCH  14  19
ATOM     19  C   UNL     1      -6.283   5.579   4.378  1.00  0.00     0.245 C 
ATOM     20  O   UNL     1      -5.655   5.425   5.439  1.00  0.00    -0.272 OA
BRANCH  19  21
ATOM     21  N   UNL     1      -5.994   6.670   3.577  1.00  0.00    -0.332 N 
ATOM     22  C   UNL     1      -4.662   7.123   3.219  1.00  0.00     0.147 C 
BRANCH  21  23
ATOM     23  C   UNL     1      -7.135   7.460   3.038  1.00  0.00     0.178 C 
BRANCH  23  24
ATOM     24  C   UNL     1      -7.042   8.979   3.285  1.00  0.00     0.070 C 
BRANCH  24  25
ATOM     25  C   UNL     1      -7.756   9.525   4.500  1.00  0.00    -0.045 A 
ATOM     26  C   UNL     1      -7.088   9.663   5.723  1.00  0.00     0.004 A 
ATOM     27  C   UNL     1      -9.106   9.897   4.419  1.00  0.00     0.004 A 
ATOM     28  C   UNL     1      -7.759  10.152   6.845  1.00  0.00     0.000 A 
ATOM     29  C   UNL     1      -9.776  10.386   5.542  1.00  0.00     0.000 A 
ATOM     30  C   UNL     1      -9.102  10.510   6.755  1.00  0.00     0.000 A 
ENDBRANCH  24  25
ENDBRANCH  23  24
BRANCH  23  31
ATOM     31  C   UNL     1      -7.522   7.056   1.595  1.00  0.00     0.243 C 
ATOM     32  O   UNL     1      -6.710   6.890   0.688  1.00  0.00    -0.273 OA
ATOM     33  N   UNL     1      -8.886   7.078   1.361  1.00  0.00    -0.341 N 
ATOM     34  H   UNL     1      -9.512   7.228   2.156  1.00  0.00     0.164 HD
BRANCH  33  35
ATOM     35  C   UNL     1      -9.473   6.847   0.038  1.00  0.00     0.194 C 
BRANCH  35  36
ATOM     36  C   UNL     1     -10.796   7.624  -0.214  1.00  0.00     0.017 C 
ATOM     37  C   UNL     1     -10.624   8.675  -1.324  1.00  0.00     0.010 C 
ATOM     38  C   UNL     1     -11.316   8.352   1.032  1.00  0.00     0.010 C 
ENDBRANCH  35  36
BRANCH  35  39
ATOM     39  C   UNL     1      -9.616   5.335  -0.296  1.00  0.00     0.329 C 
ATOM     40  O   UNL     1     -10.138   4.514   0.448  1.00  0.00    -0.250 OA
BRANCH  39  41
ATOM     41  O   UNL     1      -9.171   5.038  -1.555  1.00  0.00    -0.458 OA
BRANCH  41  42
ATOM     42  C   UNL     1      -8.162   4.003  -1.650  1.00  0.00     0.205 CG0
ATOM     43  C   UNL     1      -6.830   4.693  -1.935  1.00  0.00     0.056 C 
ATOM     44  G   UNL     1      -8.569   3.022  -2.767  1.00  0.00     0.000 G0
ENDBRANCH  41  42
ENDBRANCH  39  41
ENDBRANCH  35  39
ENDBRANCH  33  35
ENDBRANCH  23  31
ENDBRANCH  21  23
ENDBRANCH  19  21
ENDBRANCH  14  19
ENDBRANCH   7  14
ENDBRANCH   2   5
BRANCH   3  45
ATOM     45  C   UNL     1      -7.018  -0.108  -1.111  1.00  0.00     0.171 C 
BRANCH  45  46
ATOM     46  N   UNL     1      -7.864   1.019  -1.484  1.00  0.00    -0.342 N 
ATOM     47  C   UNL     1      -7.638   1.767  -2.612  1.00  0.00     0.247 C 
ATOM     48  O   UNL     1      -6.754   1.499  -3.426  1.00  0.00    -0.273 OA
ATOM     49  H   UNL     1      -8.642   1.241  -0.867  1.00  0.00     0.164 HD
BRANCH  47  50
ATOM     50  C   UNL     1      -8.554   2.988  -2.776  1.00  0.00     0.212 CG0
ATOM     51  G   UNL     1      -8.187   4.000  -1.672  1.00  0.00     0.000 G0
BRANCH  50  52
ATOM     52  N   UNL     1      -8.299   3.488  -4.124  1.00  0.00    -0.339 N 
ATOM     53  C   UNL     1      -9.289   3.946  -4.960  1.00  0.00     0.243 C 
ATOM     54  O   UNL     1     -10.478   3.920  -4.654  1.00  0.00    -0.273 OA
ATOM     55  H   UNL     1      -7.346   3.432  -4.477  1.00  0.00     0.164 HD
BRANCH  53  56
ATOM     56  C   UNL     1      -8.791   4.341  -6.365  1.00  0.00     0.182 C 
BRANCH  56  57
ATOM     57  N   UNL     1      -8.841   5.795  -6.551  1.00  0.00    -0.344 N 
ATOM     58  C   UNL     1      -8.054   6.657  -5.827  1.00  0.00     0.220 C 
ATOM     59  O   UNL     1      -7.311   6.281  -4.928  1.00  0.00    -0.275 OA
ATOM     60  H   UNL     1      -9.365   6.139  -7.352  1.00  0.00     0.164 HD
BRANCH  58  61
ATOM     61  C   UNL     1      -8.229   8.111  -6.227  1.00  0.00     0.100 C 
BRANCH  61  62
ATOM     62  C   UNL     1      -7.170   9.044  -5.639  1.00  0.00     0.010 C 
BRANCH  62  63
ATOM     63  C   UNL     1      -7.737  10.141  -4.730  1.00  0.00     0.000 C 
BRANCH  63  64
ATOM     64  C   UNL     1      -7.404   9.963  -3.249  1.00  0.00    -0.003 C 
ATOM     65  C   UNL     1      -6.343   8.892  -3.044  1.00  0.00     0.004 C 
ENDBRANCH  63  64
ENDBRANCH  62  63
ENDBRANCH  61  62
ENDBRANCH  58  61
ENDBRANCH  56  57
BRANCH  56  66
ATOM     66  C   UNL     1      -9.550   3.593  -7.459  1.00  0.00     0.157 C 
BRANCH  66  67
ATOM     67  C   UNL     1      -9.109   4.035  -8.825  1.00  0.00     0.305 C 
ATOM     68  O   UNL     1      -8.275   4.888  -9.086  1.00  0.00    -0.252 OA
BRANCH  67  69
ATOM     69  O   UNL     1      -9.710   3.336  -9.807  1.00  0.00    -0.481 OA
ATOM     70  H   UNL     1     -10.271   2.681  -9.341  1.00  0.00     0.296 HD
ENDBRANCH  67  69
ENDBRANCH  66  67
ENDBRANCH  56  66
ENDBRANCH  53  56
ENDBRANCH  50  52
ENDBRANCH  47  50
ENDBRANCH  45  46
BRANCH  45  71
ATOM     71  C   UNL     1      -7.849  -1.308  -0.644  1.00  0.00     0.037 C 
BRANCH  71  72
ATOM     72  C   UNL     1      -9.352  -1.054  -0.775  1.00  0.00     0.026 C 
BRANCH  72  73
ATOM     73  C   UNL     1     -10.014  -0.891   0.592  1.00  0.00     0.146 C 
BRANCH  73  74
ATOM     74  N   UNL     1     -10.063   0.535   0.898  1.00  0.00    -0.254 NA
ATOM     75  C   UNL     1     -10.010   0.886   2.130  1.00  0.00     0.185 C 
ATOM     76  N   UNL     1     -10.052   2.191   2.443  1.00  0.00    -0.370 N 
ATOM     77  N   UNL     1      -9.913   0.112   3.225  1.00  0.00    -0.370 N 
ATOM     78  H   UNL     1     -10.132   2.843   1.676  1.00  0.00     0.159 HD
ATOM     79  H   UNL     1     -10.160   2.532   3.382  1.00  0.00     0.159 HD
ATOM     80  H   UNL     1      -9.868  -0.893   3.142  1.00  0.00     0.159 HD
ATOM     81  H   UNL     1      -9.762   0.506   4.139  1.00  0.00     0.159 HD
ENDBRANCH  73  74
ENDBRANCH  72  73
ENDBRANCH  71  72
ENDBRANCH  45  71
ENDBRANCH   3  45
TORSDOF 20
ENDMDL
MODEL 2
REMARK VINA RESULT:    -3.964      2.187      3.147
REMARK INTER + INTRA:         -19.013
REMARK INTER:                 -13.118
REMARK INTRA:                  -5.894
REMARK UNBOUND:                -7.633
REMARK SMILES CCCCCC(=O)N[C@H](CC(=O)O)C(=O)N[C@H]1C(=O)N[C@H](CCCN=C(N)N)C(=O)N[C@@H]2CC[C@H](O)N(C2=O)[C@@H](CC(C)C)C(=O)N(C)[C@@H](Cc2ccccc2)C(=O)N[C@H](C(C)C)C(=O)O[C@@H]1C
REMARK SMILES IDX 30 1 31 2 29 3 32 5 35 6 37 7 34 8 38 9 33 10 39 11 36 12
REMARK SMILES IDX 40 14 41 15 42 16 43 17 44 18 45 19 46 20 47 21 48 22 49 23
REMARK SMILES IDX 50 24 51 25 52 26 56 27 53 28 55 29 54 30 57 31 58 32 59 33
REMARK SMILES IDX 60 35 61 36 62 37 63 38 64 39 65 40 66 41 67 42 68 43 21 45
REMARK SMILES IDX 20 46 18 47 19 48 17 50 16 52 14 53 15 54 9 56 8 57 6 58
REMARK SMILES IDX 7 59 5 61 4 62 3 63 2 64 1 65 10 66 11 67 12 68 13 69 22 71
REMARK SMILES IDX 23 72 24 73 25 74 26 75 27 76 28 77
REMARK H PARENT 31 4 36 13 59 34 20 49 16 55 8 60 13 70 27 78 27 79 28 80
REMARK H PARENT 28 81
REMARK Flexibility Score:  259.900
ROOT
ATOM      1  O   UNL     1      -5.410   0.221  -0.072  1.00  0.00    -0.273 OA
ATOM      2  N   UNL     1      -7.323   0.783   1.048  1.00  0.00    -0.343 N 
ATOM      3  C   UNL     1      -6.640   0.267  -0.032  1.00  0.00     0.243 C 
ATOM      4  H   UNL     1      -8.336   0.791   1.052  1.00  0.00     0.164 HD
ENDROOT
BRANCH   2   5
ATOM      5  C   UNL     1      -6.604   1.411   2.151  1.00  0.00     0.171 C 
ATOM      6  C   UNL     1      -7.395   2.166   4.836  1.00  0.00     0.214 C 
ATOM      7  N   UNL     1      -7.524   3.123   3.762  1.00  0.00    -0.303 N 
ATOM      8  C   UNL     1      -6.254   1.181   4.630  1.00  0.00     0.057 C 
ATOM      9  C   UNL     1      -7.212   2.811   2.448  1.00  0.00     0.247 C 
ATOM     10  C   UNL     1      -6.443   0.444   3.323  1.00  0.00     0.040 C 
ATOM     11  O   UNL     1      -7.407   3.608   1.521  1.00  0.00    -0.272 OA
BRANCH   6  12
ATOM     12  O   UNL     1      -8.621   1.482   4.953  1.00  0.00    -0.373 OA
ATOM     13  H   UNL     1      -9.311   2.062   4.567  1.00  0.00     0.213 HD
ENDBRANCH   6  12
BRANCH   7  14
ATOM     14  C   UNL     1      -8.147   4.422   4.092  1.00  0.00     0.177 C 
BRANCH  14  15
ATOM     15  C   UNL     1      -9.565   4.336   4.690  1.00  0.00     0.038 C 
BRANCH  15  16
ATOM     16  C   UNL     1     -10.499   5.564   4.615  1.00  0.00    -0.015 C 
ATOM     17  C   UNL     1     -10.170   6.476   3.429  1.00  0.00     0.007 C 
ATOM     18  C   UNL     1     -10.377   6.388   5.903  1.00  0.00     0.007 C 
ENDBRANCH  15  16
ENDBRANCH  14  15
BRANCH  14  19
ATOM     19  C   UNL     1      -7.050   5.462   4.507  1.00  0.00     0.245 C 
ATOM     20  O   UNL     1      -7.000   5.773   5.708  1.00  0.00    -0.272 OA
BRANCH  19  21
ATOM     21  N   UNL     1      -6.231   6.119   3.606  1.00  0.00    -0.332 N 
ATOM     22  C   UNL     1      -4.850   5.776   3.318  1.00  0.00     0.147 C 
BRANCH  21  23
ATOM     23  C   UNL     1      -6.797   7.284   2.872  1.00  0.00     0.178 C 
BRANCH  23  24
ATOM     24  C   UNL     1      -6.539   8.652   3.535  1.00  0.00     0.070 C 
BRANCH  24  25
ATOM     25  C   UNL     1      -7.604   9.175   4.471  1.00  0.00    -0.045 A 
ATOM     26  C   UNL     1      -8.720   9.862   3.976  1.00  0.00     0.004 A 
ATOM     27  C   UNL     1      -7.485   8.983   5.855  1.00  0.00     0.004 A 
ATOM     28  C   UNL     1      -9.691  10.357   4.849  1.00  0.00     0.000 A 
ATOM     29  C   UNL     1      -8.457   9.477   6.727  1.00  0.00     0.000 A 
ATOM     30  C   UNL     1      -9.558  10.167   6.223  1.00  0.00     0.000 A 
ENDBRANCH  24  25
ENDBRANCH  23  24
BRANCH  23  31
ATOM     31  C   UNL     1      -6.516   7.233   1.351  1.00  0.00     0.243 C 
ATOM     32  O   UNL     1      -5.568   7.795   0.809  1.00  0.00    -0.273 OA
ATOM     33  N   UNL     1      -7.537   6.650   0.619  1.00  0.00    -0.341 N 
ATOM     34  H   UNL     1      -8.304   6.203   1.127  1.00  0.00     0.164 HD
BRANCH  33  35
ATOM     35  C   UNL     1      -7.541   6.599  -0.846  1.00  0.00     0.194 C 
BRANCH  35  36
ATOM     36  C   UNL     1      -8.829   7.178  -1.497  1.00  0.00     0.017 C 
ATOM     37  C   UNL     1      -8.490   8.110  -2.674  1.00  0.00     0.010 C 
ATOM     38  C   UNL     1      -9.696   7.976  -0.516  1.00  0.00     0.010 C 
ENDBRANCH  35  36
BRANCH  35  39
ATOM     39  C   UNL     1      -7.197   5.187  -1.396  1.00  0.00     0.329 C 
ATOM     40  O   UNL     1      -6.138   4.608  -1.186  1.00  0.00    -0.250 OA
BRANCH  39  41
ATOM     41  O   UNL     1      -8.244   4.623  -2.072  1.00  0.00    -0.458 OA
BRANCH  41  42
ATOM     42  C   UNL     1      -7.902   3.806  -3.217  1.00  0.00     0.205 CG0
ATOM     43  C   UNL     1      -7.976   4.702  -4.452  1.00  0.00     0.056 C 
ATOM     44  G   UNL     1      -8.887   2.622  -3.288  1.00  0.00     0.000 G0
ENDBRANCH  41  42
ENDBRANCH  39  41
ENDBRANCH  35  39
ENDBRANCH  33  35
ENDBRANCH  23  31
ENDBRANCH  21  23
ENDBRANCH  19  21
ENDBRANCH  14  19
ENDBRANCH   7  14
ENDBRANCH   2   5
BRANCH   3  45
ATOM     45  C   UNL     1      -7.518  -0.265  -1.172  1.00  0.00     0.171 C 
BRANCH  45  46
ATOM     46  N   UNL     1      -8.254   0.888  -1.673  1.00  0.00    -0.342 N 
ATOM     47  C   UNL     1      -8.161   1.312  -2.975  1.00  0.00     0.247 C 
ATOM     48  O   UNL     1      -7.510   0.709  -3.829  1.00  0.00    -0.273 OA
ATOM     49  H   UNL     1      -8.850   1.383  -1.013  1.00  0.00     0.164 HD
BRANCH  47  50
ATOM     50  C   UNL     1      -8.909   2.615  -3.290  1.00  0.00     0.212 CG0
ATOM     51  G   UNL     1      -7.891   3.770  -3.204  1.00  0.00     0.000 G0
BRANCH  50  52
ATOM     52  N   UNL     1      -9.464   2.433  -4.628  1.00  0.00    -0.339 N 
ATOM     53  C   UNL     1     -10.798   2.213  -4.870  1.00  0.00     0.243 C 
ATOM     54  O   UNL     1     -11.624   2.099  -3.968  1.00  0.00    -0.273 OA
ATOM     55  H   UNL     1      -8.812   2.406  -5.410  1.00  0.00     0.164 HD
BRANCH  53  56
ATOM     56  C   UNL     1     -11.134   1.964  -6.354  1.00  0.00     0.182 C 
BRANCH  56  57
ATOM     57  N   UNL     1     -11.287   3.229  -7.079  1.00  0.00    -0.344 N 
ATOM     58  C   UNL     1     -10.225   3.875  -7.664  1.00  0.00     0.220 C 
ATOM     59  O   UNL     1      -9.069   3.480  -7.561  1.00  0.00    -0.275 OA
ATOM     60  H   UNL     1     -12.236   3.536  -7.275  1.00  0.00     0.164 HD
BRANCH  58  61
ATOM     61  C   UNL     1     -10.625   5.135  -8.410  1.00  0.00     0.100 C 
BRANCH  61  62
ATOM     62  C   UNL     1      -9.515   5.707  -9.292  1.00  0.00     0.010 C 
BRANCH  62  63
ATOM     63  C   UNL     1      -9.886   7.020  -9.995  1.00  0.00     0.000 C 
BRANCH  63  64
ATOM     64  C   UNL     1      -8.707   7.728 -10.660  1.00  0.00    -0.003 C 
ATOM     65  C   UNL     1      -9.139   8.455 -11.925  1.00  0.00     0.004 C 
ENDBRANCH  63  64
ENDBRANCH  62  63
ENDBRANCH  61  62
ENDBRANCH  58  61
ENDBRANCH  56  57
BRANCH  56  66
ATOM     66  C   UNL     1     -12.356   1.060  -6.507  1.00  0.00     0.157 C 
BRANCH  66  67
ATOM     67  C   UNL     1     -11.964  -0.389  -6.513  1.00  0.00     0.305 C 
ATOM     68  O   UNL     1     -11.659  -1.069  -5.545  1.00  0.00    -0.252 OA
BRANCH  67  69
ATOM     69  O   UNL     1     -12.025  -0.932  -7.744  1.00  0.00    -0.481 OA
ATOM     70  H   UNL     1     -11.556  -1.789  -7.663  1.00  0.00     0.296 HD
ENDBRANCH  67  69
ENDBRANCH  66  67
ENDBRANCH  56  66
ENDBRANCH  53  56
ENDBRANCH  50  52
ENDBRANCH  47  50
ENDBRANCH  45  46
BRANCH  45  71
ATOM     71  C   UNL     1      -8.462  -1.356  -0.654  1.00  0.00     0.037 C 
BRANCH  71  72
ATOM     72  C   UNL     1      -8.148  -2.725  -1.263  1.00  0.00     0.026 C 
BRANCH  72  73
ATOM     73  C   UNL     1      -8.005  -3.798  -0.186  1.00  0.00     0.146 C 
BRANCH  73  74
ATOM     74  N   UNL     1      -7.522  -3.150   1.029  1.00  0.00    -0.254 NA
ATOM     75  C   UNL     1      -8.009  -3.538   2.150  1.00  0.00     0.185 C 
ATOM     76  N   UNL     1      -7.584  -2.961   3.285  1.00  0.00    -0.370 N 
ATOM     77  N   UNL     1      -8.933  -4.486   2.386  1.00  0.00    -0.370 N 
ATOM     78  H   UNL     1      -6.893  -2.230   3.196  1.00  0.00     0.159 HD
ATOM     79  H   UNL     1      -8.020  -3.108   4.178  1.00  0.00     0.159 HD
ATOM     80  H   UNL     1      -9.340  -5.007   1.625  1.00  0.00     0.159 HD
ATOM     81  H   UNL     1      -9.155  -4.785   3.321  1.00  0.00     0.159 HD
ENDBRANCH  73  74
ENDBRANCH  72  73
ENDBRANCH  71  72
ENDBRANCH  45  71
ENDBRANCH   3  45
TORSDOF 20
ENDMDL
MODEL 3
REMARK VINA RESULT:    -3.923      3.292      8.506
REMARK INTER + INTRA:         -18.896
REMARK INTER:                 -14.137
REMARK INTRA:                  -4.758
REMARK UNBOUND:                -7.633
REMARK SMILES CCCCCC(=O)N[C@H](CC(=O)O)C(=O)N[C@H]1C(=O)N[C@H](CCCN=C(N)N)C(=O)N[C@@H]2CC[C@H](O)N(C2=O)[C@@H](CC(C)C)C(=O)N(C)[C@@H](Cc2ccccc2)C(=O)N[C@H](C(C)C)C(=O)O[C@@H]1C
REMARK SMILES IDX 30 1 31 2 29 3 32 5 35 6 37 7 34 8 38 9 33 10 39 11 36 12
REMARK SMILES IDX 40 14 41 15 42 16 43 17 44 18 45 19 46 20 47 21 48 22 49 23
REMARK SMILES IDX 50 24 51 25 52 26 56 27 53 28 55 29 54 30 57 31 58 32 59 33
REMARK SMILES IDX 60 35 61 36 62 37 63 38 64 39 65 40 66 41 67 42 68 43 21 45
REMARK SMILES IDX 20 46 18 47 19 48 17 50 16 52 14 53 15 54 9 56 8 57 6 58
REMARK SMILES IDX 7 59 5 61 4 62 3 63 2 64 1 65 10 66 11 67 12 68 13 69 22 71
REMARK SMILES IDX 23 72 24 73 25 74 26 75 27 76 28 77
REMARK H PARENT 31 4 36 13 59 34 20 49 16 55 8 60 13 70 27 78 27 79 28 80
REMARK H PARENT 28 81
REMARK Flexibility Score:  259.900
ROOT
ATOM      1  O   UNL     1      -7.868   4.471  -2.066  1.00  0.00    -0.273 OA
ATOM      2  N   UNL     1      -9.992   5.316  -2.016  1.00  0.00    -0.343 N 
ATOM      3  C   UNL     1      -9.083   4.289  -2.147  1.00  0.00     0.243 C 
ATOM      4  H   UNL     1     -10.985   5.127  -2.074  1.00  0.00     0.164 HD
ENDROOT
BRANCH   2   5
ATOM      5  C   UNL     1      -9.539   6.698  -1.893  1.00  0.00     0.171 C 
ATOM      6  C   UNL     1      -6.912   7.883  -1.578  1.00  0.00     0.214 C 
ATOM      7  N   UNL     1      -7.683   7.541  -0.405  1.00  0.00    -0.303 N 
ATOM      8  C   UNL     1      -7.773   8.254  -2.776  1.00  0.00     0.057 C 
ATOM      9  C   UNL     1      -8.922   6.926  -0.484  1.00  0.00     0.247 C 
ATOM     10  C   UNL     1      -8.710   7.113  -3.107  1.00  0.00     0.040 C 
ATOM     11  O   UNL     1      -9.537   6.559   0.526  1.00  0.00    -0.272 OA
BRANCH   6  12
ATOM     12  O   UNL     1      -6.087   6.783  -1.887  1.00  0.00    -0.373 OA
ATOM     13  H   UNL     1      -5.159   7.079  -1.771  1.00  0.00     0.213 HD
ENDBRANCH   6  12
BRANCH   7  14
ATOM     14  C   UNL     1      -7.030   7.740   0.906  1.00  0.00     0.177 C 
BRANCH  14  15
ATOM     15  C   UNL     1      -7.552   8.938   1.724  1.00  0.00     0.038 C 
BRANCH  15  16
ATOM     16  C   UNL     1      -6.644  10.170   1.932  1.00  0.00    -0.015 C 
ATOM     17  C   UNL     1      -6.183  10.317   3.385  1.00  0.00     0.007 C 
ATOM     18  C   UNL     1      -7.400  11.445   1.536  1.00  0.00     0.007 C 
ENDBRANCH  15  16
ENDBRANCH  14  15
BRANCH  14  19
ATOM     19  C   UNL     1      -6.579   6.363   1.503  1.00  0.00     0.245 C 
ATOM     20  O   UNL     1      -6.712   5.366   0.774  1.00  0.00    -0.272 OA
BRANCH  19  21
ATOM     21  N   UNL     1      -6.156   6.190   2.809  1.00  0.00    -0.332 N 
ATOM     22  C   UNL     1      -4.831   6.500   3.314  1.00  0.00     0.147 C 
BRANCH  21  23
ATOM     23  C   UNL     1      -7.129   5.629   3.787  1.00  0.00     0.178 C 
BRANCH  23  24
ATOM     24  C   UNL     1      -8.548   6.228   3.702  1.00  0.00     0.070 C 
BRANCH  24  25
ATOM     25  C   UNL     1      -8.854   7.403   4.600  1.00  0.00    -0.045 A 
ATOM     26  C   UNL     1      -8.315   7.480   5.891  1.00  0.00     0.004 A 
ATOM     27  C   UNL     1      -9.691   8.437   4.153  1.00  0.00     0.004 A 
ATOM     28  C   UNL     1      -8.616   8.561   6.721  1.00  0.00     0.000 A 
ATOM     29  C   UNL     1      -9.991   9.518   4.984  1.00  0.00     0.000 A 
ATOM     30  C   UNL     1      -9.455   9.577   6.269  1.00  0.00     0.000 A 
ENDBRANCH  24  25
ENDBRANCH  23  24
BRANCH  23  31
ATOM     31  C   UNL     1      -7.078   4.085   3.872  1.00  0.00     0.243 C 
ATOM     32  O   UNL     1      -7.733   3.419   4.670  1.00  0.00    -0.273 OA
ATOM     33  N   UNL     1      -6.084   3.521   3.090  1.00  0.00    -0.341 N 
ATOM     34  H   UNL     1      -5.568   4.128   2.449  1.00  0.00     0.164 HD
BRANCH  33  35
ATOM     35  C   UNL     1      -5.774   2.088   3.104  1.00  0.00     0.194 C 
BRANCH  35  36
ATOM     36  C   UNL     1      -4.522   1.717   3.947  1.00  0.00     0.017 C 
ATOM     37  C   UNL     1      -4.798   0.508   4.857  1.00  0.00     0.010 C 
ATOM     38  C   UNL     1      -4.035   2.864   4.842  1.00  0.00     0.010 C 
ENDBRANCH  35  36
BRANCH  35  39
ATOM     39  C   UNL     1      -5.714   1.476   1.676  1.00  0.00     0.329 C 
ATOM     40  O   UNL     1      -4.926   1.834   0.809  1.00  0.00    -0.250 OA
BRANCH  39  41
ATOM     41  O   UNL     1      -6.583   0.432   1.521  1.00  0.00    -0.458 OA
BRANCH  41  42
ATOM     42  C   UNL     1      -7.928   0.772   1.106  1.00  0.00     0.205 CG0
ATOM     43  C   UNL     1      -8.877   0.287   2.199  1.00  0.00     0.056 C 
ATOM     44  G   UNL     1      -8.205   0.104  -0.255  1.00  0.00     0.000 G0
ENDBRANCH  41  42
ENDBRANCH  39  41
ENDBRANCH  35  39
ENDBRANCH  33  35
ENDBRANCH  23  31
ENDBRANCH  21  23
ENDBRANCH  19  21
ENDBRANCH  14  19
ENDBRANCH   7  14
ENDBRANCH   2   5
BRANCH   3  45
ATOM     45  C   UNL     1      -9.690   2.899  -2.379  1.00  0.00     0.171 C 
BRANCH  45  46
ATOM     46  N   UNL     1      -8.800   1.963  -1.706  1.00  0.00    -0.342 N 
ATOM     47  C   UNL     1      -9.266   0.885  -0.995  1.00  0.00     0.247 C 
ATOM     48  O   UNL     1     -10.460   0.591  -0.934  1.00  0.00    -0.273 OA
ATOM     49  H   UNL     1      -7.799   2.138  -1.779  1.00  0.00     0.164 HD
BRANCH  47  50
ATOM     50  C   UNL     1      -8.188   0.083  -0.252  1.00  0.00     0.212 CG0
ATOM     51  G   UNL     1      -7.932   0.782   1.098  1.00  0.00     0.000 G0
BRANCH  50  52
ATOM     52  N   UNL     1      -8.735  -1.264  -0.109  1.00  0.00    -0.339 N 
ATOM     53  C   UNL     1      -7.969  -2.402  -0.182  1.00  0.00     0.243 C 
ATOM     54  O   UNL     1      -6.766  -2.376  -0.426  1.00  0.00    -0.273 OA
ATOM     55  H   UNL     1      -9.745  -1.357  -0.015  1.00  0.00     0.164 HD
BRANCH  53  56
ATOM     56  C   UNL     1      -8.780  -3.711  -0.089  1.00  0.00     0.182 C 
BRANCH  56  57
ATOM     57  N   UNL     1      -8.659  -4.311   1.243  1.00  0.00    -0.344 N 
ATOM     58  C   UNL     1      -9.750  -4.557   2.042  1.00  0.00     0.220 C 
ATOM     59  O   UNL     1     -10.888  -4.225   1.730  1.00  0.00    -0.275 OA
ATOM     60  H   UNL     1      -7.751  -4.692   1.496  1.00  0.00     0.164 HD
BRANCH  58  61
ATOM     61  C   UNL     1      -9.396  -5.236   3.352  1.00  0.00     0.100 C 
BRANCH  61  62
ATOM     62  C   UNL     1     -10.525  -6.091   3.927  1.00  0.00     0.010 C 
BRANCH  62  63
ATOM     63  C   UNL     1     -10.138  -7.554   4.181  1.00  0.00     0.000 C 
BRANCH  63  64
ATOM     64  C   UNL     1     -11.308  -8.533   4.113  1.00  0.00    -0.003 C 
ATOM     65  C   UNL     1     -10.824  -9.975   4.085  1.00  0.00     0.004 C 
ENDBRANCH  63  64
ENDBRANCH  62  63
ENDBRANCH  61  62
ENDBRANCH  58  61
ENDBRANCH  56  57
BRANCH  56  66
ATOM     66  C   UNL     1      -8.395  -4.688  -1.199  1.00  0.00     0.157 C 
BRANCH  66  67
ATOM     67  C   UNL     1      -9.517  -4.864  -2.181  1.00  0.00     0.305 C 
ATOM     68  O   UNL     1     -10.276  -5.818  -2.264  1.00  0.00    -0.252 OA
BRANCH  67  69
ATOM     69  O   UNL     1      -9.664  -3.795  -2.987  1.00  0.00    -0.481 OA
ATOM     70  H   UNL     1      -9.851  -4.173  -3.872  1.00  0.00     0.296 HD
ENDBRANCH  67  69
ENDBRANCH  66  67
ENDBRANCH  56  66
ENDBRANCH  53  56
ENDBRANCH  50  52
ENDBRANCH  47  50
ENDBRANCH  45  46
BRANCH  45  71
ATOM     71  C   UNL     1      -9.792   2.605  -3.880  1.00  0.00     0.037 C 
BRANCH  71  72
ATOM     72  C   UNL     1      -8.879   3.513  -4.707  1.00  0.00     0.026 C 
BRANCH  72  73
ATOM     73  C   UNL     1      -7.753   2.721  -5.370  1.00  0.00     0.146 C 
BRANCH  73  74
ATOM     74  N   UNL     1      -7.067   1.962  -4.329  1.00  0.00    -0.254 NA
ATOM     75  C   UNL     1      -5.979   2.446  -3.854  1.00  0.00     0.185 C 
ATOM     76  N   UNL     1      -5.326   1.771  -2.894  1.00  0.00    -0.370 N 
ATOM     77  N   UNL     1      -5.349   3.587  -4.180  1.00  0.00    -0.370 N 
ATOM     78  H   UNL     1      -5.730   0.895  -2.595  1.00  0.00     0.159 HD
ATOM     79  H   UNL     1      -4.402   2.011  -2.579  1.00  0.00     0.159 HD
ATOM     80  H   UNL     1      -5.728   4.200  -4.886  1.00  0.00     0.159 HD
ATOM     81  H   UNL     1      -4.557   3.922  -3.655  1.00  0.00     0.159 HD
ENDBRANCH  73  74
ENDBRANCH  72  73
ENDBRANCH  71  72
ENDBRANCH  45  71
ENDBRANCH   3  45
TORSDOF 20
ENDMDL
MODEL 4
REMARK VINA RESULT:    -3.640      3.444      8.306
REMARK INTER + INTRA:         -18.083
REMARK INTER:                 -12.655
REMARK INTRA:                  -5.428
REMARK UNBOUND:                -7.633
REMARK SMILES CCCCCC(=O)N[C@H](CC(=O)O)C(=O)N[C@H]1C(=O)N[C@H](CCCN=C(N)N)C(=O)N[C@@H]2CC[C@H](O)N(C2=O)[C@@H](CC(C)C)C(=O)N(C)[C@@H](Cc2ccccc2)C(=O)N[C@H](C(C)C)C(=O)O[C@@H]1C
REMARK SMILES IDX 30 1 31 2 29 3 32 5 35 6 37 7 34 8 38 9 33 10 39 11 36 12
REMARK SMILES IDX 40 14 41 15 42 16 43 17 44 18 45 19 46 20 47 21 48 22 49 23
REMARK SMILES IDX 50 24 51 25 52 26 56 27 53 28 55 29 54 30 57 31 58 32 59 33
REMARK SMILES IDX 60 35 61 36 62 37 63 38 64 39 65 40 66 41 67 42 68 43 21 45
REMARK SMILES IDX 20 46 18 47 19 48 17 50 16 52 14 53 15 54 9 56 8 57 6 58
REMARK SMILES IDX 7 59 5 61 4 62 3 63 2 64 1 65 10 66 11 67 12 68 13 69 22 71
REMARK SMILES IDX 23 72 24 73 25 74 26 75 27 76 28 77
REMARK H PARENT 31 4 36 13 59 34 20 49 16 55 8 60 13 70 27 78 27 79 28 80
REMARK H PARENT 28 81
REMARK Flexibility Score:  259.900
ROOT
ATOM      1  O   UNL     1      -8.274   4.135  -0.929  1.00  0.00    -0.273 OA
ATOM      2  N   UNL     1     -10.431   4.830  -1.238  1.00  0.00    -0.343 N 
ATOM      3  C   UNL     1      -9.427   3.887  -1.284  1.00  0.00     0.243 C 
ATOM      4  H   UNL     1     -11.371   4.586  -1.524  1.00  0.00     0.164 HD
ENDROOT
BRANCH   2   5
ATOM      5  C   UNL     1     -10.137   6.211  -0.872  1.00  0.00     0.171 C 
ATOM      6  C   UNL     1      -7.766   7.499   0.188  1.00  0.00     0.214 C 
ATOM      7  N   UNL     1      -8.760   6.981   1.099  1.00  0.00    -0.303 N 
ATOM      8  C   UNL     1      -8.347   7.957  -1.140  1.00  0.00     0.057 C 
ATOM      9  C   UNL     1      -9.890   6.310   0.660  1.00  0.00     0.247 C 
ATOM     10  C   UNL     1      -9.082   6.810  -1.801  1.00  0.00     0.040 C 
ATOM     11  O   UNL     1     -10.693   5.793   1.448  1.00  0.00    -0.272 OA
BRANCH   6  12
ATOM     12  O   UNL     1      -6.803   6.491  -0.017  1.00  0.00    -0.373 OA
ATOM     13  H   UNL     1      -7.255   5.751  -0.476  1.00  0.00     0.213 HD
ENDBRANCH   6  12
BRANCH   7  14
ATOM     14  C   UNL     1      -8.455   7.064   2.543  1.00  0.00     0.177 C 
BRANCH  14  15
ATOM     15  C   UNL     1      -9.402   7.960   3.363  1.00  0.00     0.038 C 
BRANCH  15  16
ATOM     16  C   UNL     1      -8.903   8.587   4.684  1.00  0.00    -0.015 C 
ATOM     17  C   UNL     1     -10.052   8.965   5.622  1.00  0.00     0.007 C 
ATOM     18  C   UNL     1      -8.092   9.854   4.382  1.00  0.00     0.007 C 
ENDBRANCH  15  16
ENDBRANCH  14  15
BRANCH  14  19
ATOM     19  C   UNL     1      -7.818   5.721   3.041  1.00  0.00     0.245 C 
ATOM     20  O   UNL     1      -7.555   4.871   2.174  1.00  0.00    -0.272 OA
BRANCH  19  21
ATOM     21  N   UNL     1      -7.644   5.398   4.375  1.00  0.00    -0.332 N 
ATOM     22  C   UNL     1      -6.695   6.026   5.277  1.00  0.00     0.147 C 
BRANCH  21  23
ATOM     23  C   UNL     1      -8.487   4.310   4.944  1.00  0.00     0.178 C 
BRANCH  23  24
ATOM     24  C   UNL     1     -10.006   4.517   4.778  1.00  0.00     0.070 C 
BRANCH  24  25
ATOM     25  C   UNL     1     -10.885   4.129   5.944  1.00  0.00    -0.045 A 
ATOM     26  C   UNL     1     -11.715   3.003   5.874  1.00  0.00     0.004 A 
ATOM     27  C   UNL     1     -10.885   4.899   7.117  1.00  0.00     0.004 A 
ATOM     28  C   UNL     1     -12.537   2.660   6.950  1.00  0.00     0.000 A 
ATOM     29  C   UNL     1     -11.706   4.555   8.192  1.00  0.00     0.000 A 
ATOM     30  C   UNL     1     -12.534   3.437   8.106  1.00  0.00     0.000 A 
ENDBRANCH  24  25
ENDBRANCH  23  24
BRANCH  23  31
ATOM     31  C   UNL     1      -7.978   2.897   4.575  1.00  0.00     0.243 C 
ATOM     32  O   UNL     1      -8.534   1.856   4.915  1.00  0.00    -0.273 OA
ATOM     33  N   UNL     1      -6.728   2.897   3.979  1.00  0.00    -0.341 N 
ATOM     34  H   UNL     1      -6.312   3.796   3.724  1.00  0.00     0.164 HD
BRANCH  33  35
ATOM     35  C   UNL     1      -5.999   1.669   3.651  1.00  0.00     0.194 C 
BRANCH  35  36
ATOM     36  C   UNL     1      -4.511   1.673   4.104  1.00  0.00     0.017 C 
ATOM     37  C   UNL     1      -4.250   0.603   5.178  1.00  0.00     0.010 C 
ATOM     38  C   UNL     1      -4.060   3.021   4.680  1.00  0.00     0.010 C 
ENDBRANCH  35  36
BRANCH  35  39
ATOM     39  C   UNL     1      -6.149   1.264   2.158  1.00  0.00     0.329 C 
ATOM     40  O   UNL     1      -5.716   1.924   1.221  1.00  0.00    -0.250 OA
BRANCH  39  41
ATOM     41  O   UNL     1      -6.745   0.041   2.009  1.00  0.00    -0.458 OA
BRANCH  41  42
ATOM     42  C   UNL     1      -8.140   0.051   1.623  1.00  0.00     0.205 CG0
ATOM     43  C   UNL     1      -8.879  -0.891   2.571  1.00  0.00     0.056 C 
ATOM     44  G   UNL     1      -8.246  -0.393   0.150  1.00  0.00     0.000 G0
ENDBRANCH  41  42
ENDBRANCH  39  41
ENDBRANCH  35  39
ENDBRANCH  33  35
ENDBRANCH  23  31
ENDBRANCH  21  23
ENDBRANCH  19  21
ENDBRANCH  14  19
ENDBRANCH   7  14
ENDBRANCH   2   5
BRANCH   3  45
ATOM     45  C   UNL     1      -9.850   2.501  -1.789  1.00  0.00     0.171 C 
BRANCH  45  46
ATOM     46  N   UNL     1      -8.922   1.559  -1.177  1.00  0.00    -0.342 N 
ATOM     47  C   UNL     1      -9.344   0.419  -0.539  1.00  0.00     0.247 C 
ATOM     48  O   UNL     1     -10.525   0.073  -0.501  1.00  0.00    -0.273 OA
ATOM     49  H   UNL     1      -7.930   1.778  -1.235  1.00  0.00     0.164 HD
BRANCH  47  50
ATOM     50  C   UNL     1      -8.236  -0.386   0.153  1.00  0.00     0.212 CG0
ATOM     51  G   UNL     1      -8.157   0.088   1.617  1.00  0.00     0.000 G0
BRANCH  50  52
ATOM     52  N   UNL     1      -8.631  -1.786   0.020  1.00  0.00    -0.339 N 
ATOM     53  C   UNL     1      -8.326  -2.557  -1.076  1.00  0.00     0.243 C 
ATOM     54  O   UNL     1      -7.740  -2.109  -2.057  1.00  0.00    -0.273 OA
ATOM     55  H   UNL     1      -9.215  -2.184   0.752  1.00  0.00     0.164 HD
BRANCH  53  56
ATOM     56  C   UNL     1      -8.923  -3.978  -1.029  1.00  0.00     0.182 C 
BRANCH  56  57
ATOM     57  N   UNL     1      -9.510  -4.345  -2.321  1.00  0.00    -0.344 N 
ATOM     58  C   UNL     1      -8.880  -5.191  -3.202  1.00  0.00     0.220 C 
ATOM     59  O   UNL     1      -7.756  -5.638  -3.003  1.00  0.00    -0.275 OA
ATOM     60  H   UNL     1     -10.479  -4.080  -2.479  1.00  0.00     0.164 HD
BRANCH  58  61
ATOM     61  C   UNL     1      -9.697  -5.477  -4.449  1.00  0.00     0.100 C 
BRANCH  61  62
ATOM     62  C   UNL     1      -9.619  -6.931  -4.916  1.00  0.00     0.010 C 
BRANCH  62  63
ATOM     63  C   UNL     1      -8.424  -7.233  -5.830  1.00  0.00     0.000 C 
BRANCH  63  64
ATOM     64  C   UNL     1      -7.699  -8.538  -5.503  1.00  0.00    -0.003 C 
ATOM     65  C   UNL     1      -6.298  -8.276  -4.969  1.00  0.00     0.004 C 
ENDBRANCH  63  64
ENDBRANCH  62  63
ENDBRANCH  61  62
ENDBRANCH  58  61
ENDBRANCH  56  57
BRANCH  56  66
ATOM     66  C   UNL     1      -9.918  -4.130   0.120  1.00  0.00     0.157 C 
BRANCH  66  67
ATOM     67  C   UNL     1      -9.746  -5.448   0.819  1.00  0.00     0.305 C 
ATOM     68  O   UNL     1     -10.241  -5.783   1.884  1.00  0.00    -0.252 OA
BRANCH  67  69
ATOM     69  O   UNL     1      -8.990  -6.308   0.109  1.00  0.00    -0.481 OA
ATOM     70  H   UNL     1      -8.286  -5.753  -0.288  1.00  0.00     0.296 HD
ENDBRANCH  67  69
ENDBRANCH  66  67
ENDBRANCH  56  66
ENDBRANCH  53  56
ENDBRANCH  50  52
ENDBRANCH  47  50
ENDBRANCH  45  46
BRANCH  45  71
ATOM     71  C   UNL     1      -9.783   2.447  -3.319  1.00  0.00     0.037 C 
BRANCH  71  72
ATOM     72  C   UNL     1      -8.692   3.362  -3.881  1.00  0.00     0.026 C 
BRANCH  72  73
ATOM     73  C   UNL     1      -7.525   2.558  -4.450  1.00  0.00     0.146 C 
BRANCH  73  74
ATOM     74  N   UNL     1      -6.952   1.771  -3.362  1.00  0.00    -0.254 NA
ATOM     75  C   UNL     1      -5.942   2.256  -2.739  1.00  0.00     0.185 C 
ATOM     76  N   UNL     1      -5.394   1.556  -1.732  1.00  0.00    -0.370 N 
ATOM     77  N   UNL     1      -5.305   3.423  -2.941  1.00  0.00    -0.370 N 
ATOM     78  H   UNL     1      -5.810   0.661  -1.518  1.00  0.00     0.159 HD
ATOM     79  H   UNL     1      -4.522   1.801  -1.298  1.00  0.00     0.159 HD
ATOM     80  H   UNL     1      -5.611   4.056  -3.664  1.00  0.00     0.159 HD
ATOM     81  H   UNL     1      -4.593   3.752  -2.310  1.00  0.00     0.159 HD
ENDBRANCH  73  74
ENDBRANCH  72  73
ENDBRANCH  71  72
ENDBRANCH  45  71
ENDBRANCH   3  45
TORSDOF 20
ENDMDL
MODEL 5
REMARK VINA RESULT:    -3.555      3.122      8.380
REMARK INTER + INTRA:         -17.840
REMARK INTER:                 -12.410
REMARK INTRA:                  -5.430
REMARK UNBOUND:                -7.633
REMARK SMILES CCCCCC(=O)N[C@H](CC(=O)O)C(=O)N[C@H]1C(=O)N[C@H](CCCN=C(N)N)C(=O)N[C@@H]2CC[C@H](O)N(C2=O)[C@@H](CC(C)C)C(=O)N(C)[C@@H](Cc2ccccc2)C(=O)N[C@H](C(C)C)C(=O)O[C@@H]1C
REMARK SMILES IDX 30 1 31 2 29 3 32 5 35 6 37 7 34 8 38 9 33 10 39 11 36 12
REMARK SMILES IDX 40 14 41 15 42 16 43 17 44 18 45 19 46 20 47 21 48 22 49 23
REMARK SMILES IDX 50 24 51 25 52 26 56 27 53 28 55 29 54 30 57 31 58 32 59 33
REMARK SMILES IDX 60 35 61 36 62 37 63 38 64 39 65 40 66 41 67 42 68 43 21 45
REMARK SMILES IDX 20 46 18 47 19 48 17 50 16 52 14 53 15 54 9 56 8 57 6 58
REMARK SMILES IDX 7 59 5 61 4 62 3 63 2 64 1 65 10 66 11 67 12 68 13 69 22 71
REMARK SMILES IDX 23 72 24 73 25 74 26 75 27 76 28 77
REMARK H PARENT 31 4 36 13 59 34 20 49 16 55 8 60 13 70 27 78 27 79 28 80
REMARK H PARENT 28 81
REMARK Flexibility Score:  259.900
ROOT
ATOM      1  O   UNL     1      -8.036   4.638  -1.513  1.00  0.00    -0.273 OA
ATOM      2  N   UNL     1     -10.182   5.431  -1.490  1.00  0.00    -0.343 N 
ATOM      3  C   UNL     1      -9.228   4.479  -1.780  1.00  0.00     0.243 C 
ATOM      4  H   UNL     1     -11.155   5.260  -1.711  1.00  0.00     0.164 HD
ENDROOT
BRANCH   2   5
ATOM      5  C   UNL     1      -9.794   6.732  -0.956  1.00  0.00     0.171 C 
ATOM      6  C   UNL     1      -7.447   7.645   0.481  1.00  0.00     0.214 C 
ATOM      7  N   UNL     1      -8.590   7.163   1.221  1.00  0.00    -0.303 N 
ATOM      8  C   UNL     1      -7.817   8.283  -0.849  1.00  0.00     0.057 C 
ATOM      9  C   UNL     1      -9.723   6.665   0.596  1.00  0.00     0.247 C 
ATOM     10  C   UNL     1      -8.580   7.290  -1.698  1.00  0.00     0.040 C 
ATOM     11  O   UNL     1     -10.662   6.174   1.236  1.00  0.00    -0.272 OA
BRANCH   6  12
ATOM     12  O   UNL     1      -6.574   6.558   0.280  1.00  0.00    -0.373 OA
ATOM     13  H   UNL     1      -6.086   6.732  -0.552  1.00  0.00     0.213 HD
ENDBRANCH   6  12
BRANCH   7  14
ATOM     14  C   UNL     1      -8.452   7.081   2.690  1.00  0.00     0.177 C 
BRANCH  14  15
ATOM     15  C   UNL     1      -9.390   8.005   3.490  1.00  0.00     0.038 C 
BRANCH  15  16
ATOM     16  C   UNL     1      -8.857   8.726   4.749  1.00  0.00    -0.015 C 
ATOM     17  C   UNL     1      -9.984   9.202   5.670  1.00  0.00     0.007 C 
ATOM     18  C   UNL     1      -8.026   9.947   4.335  1.00  0.00     0.007 C 
ENDBRANCH  15  16
ENDBRANCH  14  15
BRANCH  14  19
ATOM     19  C   UNL     1      -8.025   5.634   3.116  1.00  0.00     0.245 C 
ATOM     20  O   UNL     1      -7.897   4.798   2.206  1.00  0.00    -0.272 OA
BRANCH  19  21
ATOM     21  N   UNL     1      -7.898   5.223   4.431  1.00  0.00    -0.332 N 
ATOM     22  C   UNL     1      -6.842   5.627   5.342  1.00  0.00     0.147 C 
BRANCH  21  23
ATOM     23  C   UNL     1      -8.917   4.278   4.967  1.00  0.00     0.178 C 
BRANCH  23  24
ATOM     24  C   UNL     1     -10.340   4.478   4.406  1.00  0.00     0.070 C 
BRANCH  24  25
ATOM     25  C   UNL     1     -11.115   3.234   4.038  1.00  0.00    -0.045 A 
ATOM     26  C   UNL     1     -11.784   2.490   5.019  1.00  0.00     0.004 A 
ATOM     27  C   UNL     1     -11.172   2.803   2.704  1.00  0.00     0.004 A 
ATOM     28  C   UNL     1     -12.485   1.332   4.674  1.00  0.00     0.000 A 
ATOM     29  C   UNL     1     -11.873   1.646   2.361  1.00  0.00     0.000 A 
ATOM     30  C   UNL     1     -12.527   0.910   3.347  1.00  0.00     0.000 A 
ENDBRANCH  24  25
ENDBRANCH  23  24
BRANCH  23  31
ATOM     31  C   UNL     1      -8.426   2.811   4.991  1.00  0.00     0.243 C 
ATOM     32  O   UNL     1      -8.442   2.098   5.992  1.00  0.00    -0.273 OA
ATOM     33  N   UNL     1      -7.790   2.421   3.825  1.00  0.00    -0.341 N 
ATOM     34  H   UNL     1      -7.805   3.061   3.027  1.00  0.00     0.164 HD
BRANCH  33  35
ATOM     35  C   UNL     1      -7.142   1.116   3.667  1.00  0.00     0.194 C 
BRANCH  35  36
ATOM     36  C   UNL     1      -5.591   1.160   3.777  1.00  0.00     0.017 C 
ATOM     37  C   UNL     1      -5.063   0.038   4.687  1.00  0.00     0.010 C 
ATOM     38  C   UNL     1      -5.062   2.488   4.331  1.00  0.00     0.010 C 
ENDBRANCH  35  36
BRANCH  35  39
ATOM     39  C   UNL     1      -7.612   0.366   2.389  1.00  0.00     0.329 C 
ATOM     40  O   UNL     1      -7.972  -0.805   2.375  1.00  0.00    -0.250 OA
BRANCH  39  41
ATOM     41  O   UNL     1      -7.662   1.184   1.295  1.00  0.00    -0.458 OA
BRANCH  41  42
ATOM     42  C   UNL     1      -6.758   0.861   0.211  1.00  0.00     0.205 CG0
ATOM     43  C   UNL     1      -5.946   2.118  -0.094  1.00  0.00     0.056 C 
ATOM     44  G   UNL     1      -7.590   0.389  -0.998  1.00  0.00     0.000 G0
ENDBRANCH  41  42
ENDBRANCH  39  41
ENDBRANCH  35  39
ENDBRANCH  33  35
ENDBRANCH  23  31
ENDBRANCH  21  23
ENDBRANCH  19  21
ENDBRANCH  14  19
ENDBRANCH   7  14
ENDBRANCH   2   5
BRANCH   3  45
ATOM     45  C   UNL     1      -9.757   3.198  -2.438  1.00  0.00     0.171 C 
BRANCH  45  46
ATOM     46  N   UNL     1      -8.733   2.187  -2.212  1.00  0.00    -0.342 N 
ATOM     47  C   UNL     1      -8.813   1.272  -1.193  1.00  0.00     0.247 C 
ATOM     48  O   UNL     1      -9.787   1.191  -0.443  1.00  0.00    -0.273 OA
ATOM     49  H   UNL     1      -7.935   2.182  -2.846  1.00  0.00     0.164 HD
BRANCH  47  50
ATOM     50  C   UNL     1      -7.584   0.367  -1.033  1.00  0.00     0.212 CG0
ATOM     51  G   UNL     1      -6.784   0.875   0.183  1.00  0.00     0.000 G0
BRANCH  50  52
ATOM     52  N   UNL     1      -8.114  -0.982  -0.853  1.00  0.00    -0.339 N 
ATOM     53  C   UNL     1      -8.208  -1.900  -1.871  1.00  0.00     0.243 C 
ATOM     54  O   UNL     1      -7.900  -1.636  -3.030  1.00  0.00    -0.273 OA
ATOM     55  H   UNL     1      -8.489  -1.224   0.062  1.00  0.00     0.164 HD
BRANCH  53  56
ATOM     56  C   UNL     1      -8.879  -3.226  -1.461  1.00  0.00     0.182 C 
BRANCH  56  57
ATOM     57  N   UNL     1      -8.488  -3.616  -0.103  1.00  0.00    -0.344 N 
ATOM     58  C   UNL     1      -9.398  -4.048   0.831  1.00  0.00     0.220 C 
ATOM     59  O   UNL     1     -10.606  -4.068   0.619  1.00  0.00    -0.275 OA
ATOM     60  H   UNL     1      -7.492  -3.711   0.080  1.00  0.00     0.164 HD
BRANCH  58  61
ATOM     61  C   UNL     1      -8.763  -4.455   2.147  1.00  0.00     0.100 C 
BRANCH  61  62
ATOM     62  C   UNL     1      -9.090  -5.887   2.573  1.00  0.00     0.010 C 
BRANCH  62  63
ATOM     63  C   UNL     1      -9.792  -5.993   3.933  1.00  0.00     0.000 C 
BRANCH  63  64
ATOM     64  C   UNL     1     -10.824  -7.116   4.019  1.00  0.00    -0.003 C 
ATOM     65  C   UNL     1     -10.154  -8.481   4.089  1.00  0.00     0.004 C 
ENDBRANCH  63  64
ENDBRANCH  62  63
ENDBRANCH  61  62
ENDBRANCH  58  61
ENDBRANCH  56  57
BRANCH  56  66
ATOM     66  C   UNL     1      -8.606  -4.331  -2.480  1.00  0.00     0.157 C 
BRANCH  66  67
ATOM     67  C   UNL     1      -9.871  -4.764  -3.164  1.00  0.00     0.305 C 
ATOM     68  O   UNL     1     -10.096  -4.749  -4.364  1.00  0.00    -0.252 OA
BRANCH  67  69
ATOM     69  O   UNL     1     -10.780  -5.250  -2.298  1.00  0.00    -0.481 OA
ATOM     70  H   UNL     1     -11.028  -6.126  -2.661  1.00  0.00     0.296 HD
ENDBRANCH  67  69
ENDBRANCH  66  67
ENDBRANCH  56  66
ENDBRANCH  53  56
ENDBRANCH  50  52
ENDBRANCH  47  50
ENDBRANCH  45  46
BRANCH  45  71
ATOM     71  C   UNL     1     -10.004   3.429  -3.933  1.00  0.00     0.037 C 
BRANCH  71  72
ATOM     72  C   UNL     1      -9.089   4.514  -4.507  1.00  0.00     0.026 C 
BRANCH  72  73
ATOM     73  C   UNL     1      -8.112   3.940  -5.530  1.00  0.00     0.146 C 
BRANCH  73  74
ATOM     74  N   UNL     1      -6.766   4.062  -4.980  1.00  0.00    -0.254 NA
ATOM     75  C   UNL     1      -6.189   2.994  -4.567  1.00  0.00     0.185 C 
ATOM     76  N   UNL     1      -4.949   3.074  -4.057  1.00  0.00    -0.370 N 
ATOM     77  N   UNL     1      -6.651   1.732  -4.563  1.00  0.00    -0.370 N 
ATOM     78  H   UNL     1      -4.529   3.992  -4.016  1.00  0.00     0.159 HD
ATOM     79  H   UNL     1      -4.495   2.312  -3.585  1.00  0.00     0.159 HD
ATOM     80  H   UNL     1      -7.570   1.520  -4.921  1.00  0.00     0.159 HD
ATOM     81  H   UNL     1      -6.060   0.954  -4.319  1.00  0.00     0.159 HD
ENDBRANCH  73  74
ENDBRANCH  72  73
ENDBRANCH  71  72
ENDBRANCH  45  71
ENDBRANCH   3  45
TORSDOF 20
ENDMDL
MODEL 6
REMARK VINA RESULT:    -3.550      2.399      3.782
REMARK INTER + INTRA:         -17.824
REMARK INTER:                 -12.001
REMARK INTRA:                  -5.823
REMARK UNBOUND:                -7.633
REMARK SMILES CCCCCC(=O)N[C@H](CC(=O)O)C(=O)N[C@H]1C(=O)N[C@H](CCCN=C(N)N)C(=O)N[C@@H]2CC[C@H](O)N(C2=O)[C@@H](CC(C)C)C(=O)N(C)[C@@H](Cc2ccccc2)C(=O)N[C@H](C(C)C)C(=O)O[C@@H]1C
REMARK SMILES IDX 30 1 31 2 29 3 32 5 35 6 37 7 34 8 38 9 33 10 39 11 36 12
REMARK SMILES IDX 40 14 41 15 42 16 43 17 44 18 45 19 46 20 47 21 48 22 49 23
REMARK SMILES IDX 50 24 51 25 52 26 56 27 53 28 55 29 54 30 57 31 58 32 59 33
REMARK SMILES IDX 60 35 61 36 62 37 63 38 64 39 65 40 66 41 67 42 68 43 21 45
REMARK SMILES IDX 20 46 18 47 19 48 17 50 16 52 14 53 15 54 9 56 8 57 6 58
REMARK SMILES IDX 7 59 5 61 4 62 3 63 2 64 1 65 10 66 11 67 12 68 13 69 22 71
REMARK SMILES IDX 23 72 24 73 25 74 26 75 27 76 28 77
REMARK H PARENT 31 4 36 13 59 34 20 49 16 55 8 60 13 70 27 78 27 79 28 80
REMARK H PARENT 28 81
REMARK Flexibility Score:  259.900
ROOT
ATOM      1  O   UNL     1      -5.269   0.251  -0.039  1.00  0.00    -0.273 OA
ATOM      2  N   UNL     1      -7.204   0.947   0.962  1.00  0.00    -0.343 N 
ATOM      3  C   UNL     1      -6.497   0.337  -0.052  1.00  0.00     0.243 C 
ATOM      4  H   UNL     1      -8.215   0.987   0.925  1.00  0.00     0.164 HD
ENDROOT
BRANCH   2   5
ATOM      5  C   UNL     1      -6.506   1.628   2.047  1.00  0.00     0.171 C 
ATOM      6  C   UNL     1      -7.286   2.328   4.750  1.00  0.00     0.214 C 
ATOM      7  N   UNL     1      -7.511   3.271   3.680  1.00  0.00    -0.303 N 
ATOM      8  C   UNL     1      -6.082   1.429   4.518  1.00  0.00     0.057 C 
ATOM      9  C   UNL     1      -7.209   2.981   2.359  1.00  0.00     0.247 C 
ATOM     10  C   UNL     1      -6.248   0.678   3.215  1.00  0.00     0.040 C 
ATOM     11  O   UNL     1      -7.484   3.759   1.437  1.00  0.00    -0.272 OA
BRANCH   6  12
ATOM     12  O   UNL     1      -8.456   1.556   4.897  1.00  0.00    -0.373 OA
ATOM     13  H   UNL     1      -9.196   2.084   4.528  1.00  0.00     0.213 HD
ENDBRANCH   6  12
BRANCH   7  14
ATOM     14  C   UNL     1      -8.220   4.521   4.025  1.00  0.00     0.177 C 
BRANCH  14  15
ATOM     15  C   UNL     1      -9.589   4.332   4.708  1.00  0.00     0.038 C 
BRANCH  15  16
ATOM     16  C   UNL     1     -10.811   5.124   4.195  1.00  0.00    -0.015 C 
ATOM     17  C   UNL     1     -10.472   6.007   2.989  1.00  0.00     0.007 C 
ATOM     18  C   UNL     1     -11.352   6.025   5.312  1.00  0.00     0.007 C 
ENDBRANCH  15  16
ENDBRANCH  14  15
BRANCH  14  19
ATOM     19  C   UNL     1      -7.191   5.657   4.355  1.00  0.00     0.245 C 
ATOM     20  O   UNL     1      -7.188   6.087   5.521  1.00  0.00    -0.272 OA
BRANCH  19  21
ATOM     21  N   UNL     1      -6.386   6.267   3.410  1.00  0.00    -0.332 N 
ATOM     22  C   UNL     1      -5.000   5.929   3.139  1.00  0.00     0.147 C 
BRANCH  21  23
ATOM     23  C   UNL     1      -6.975   7.371   2.603  1.00  0.00     0.178 C 
BRANCH  23  24
ATOM     24  C   UNL     1      -6.799   8.778   3.209  1.00  0.00     0.070 C 
BRANCH  24  25
ATOM     25  C   UNL     1      -7.705   9.150   4.360  1.00  0.00    -0.045 A 
ATOM     26  C   UNL     1      -7.178   9.432   5.626  1.00  0.00     0.004 A 
ATOM     27  C   UNL     1      -9.095   9.212   4.175  1.00  0.00     0.004 A 
ATOM     28  C   UNL     1      -8.023   9.758   6.689  1.00  0.00     0.000 A 
ATOM     29  C   UNL     1      -9.938   9.539   5.238  1.00  0.00     0.000 A 
ATOM     30  C   UNL     1      -9.402   9.809   6.495  1.00  0.00     0.000 A 
ENDBRANCH  24  25
ENDBRANCH  23  24
BRANCH  23  31
ATOM     31  C   UNL     1      -6.638   7.264   1.096  1.00  0.00     0.243 C 
ATOM     32  O   UNL     1      -5.635   7.751   0.581  1.00  0.00    -0.273 OA
ATOM     33  N   UNL     1      -7.662   6.725   0.337  1.00  0.00    -0.341 N 
ATOM     34  H   UNL     1      -8.476   6.340   0.823  1.00  0.00     0.164 HD
BRANCH  33  35
ATOM     35  C   UNL     1      -7.612   6.637  -1.125  1.00  0.00     0.194 C 
BRANCH  35  36
ATOM     36  C   UNL     1      -8.855   7.237  -1.841  1.00  0.00     0.017 C 
ATOM     37  C   UNL     1      -8.448   8.047  -3.084  1.00  0.00     0.010 C 
ATOM     38  C   UNL     1      -9.683   8.162  -0.940  1.00  0.00     0.010 C 
ENDBRANCH  35  36
BRANCH  35  39
ATOM     39  C   UNL     1      -7.290   5.202  -1.627  1.00  0.00     0.329 C 
ATOM     40  O   UNL     1      -6.238   4.616  -1.401  1.00  0.00    -0.250 OA
BRANCH  39  41
ATOM     41  O   UNL     1      -8.348   4.629  -2.277  1.00  0.00    -0.458 OA
BRANCH  41  42
ATOM     42  C   UNL     1      -8.023   3.735  -3.368  1.00  0.00     0.205 CG0
ATOM     43  C   UNL     1      -8.186   4.524  -4.665  1.00  0.00     0.056 C 
ATOM     44  G   UNL     1      -8.960   2.513  -3.299  1.00  0.00     0.000 G0
ENDBRANCH  41  42
ENDBRANCH  39  41
ENDBRANCH  35  39
ENDBRANCH  33  35
ENDBRANCH  23  31
ENDBRANCH  21  23
ENDBRANCH  19  21
ENDBRANCH  14  19
ENDBRANCH   7  14
ENDBRANCH   2   5
BRANCH   3  45
ATOM     45  C   UNL     1      -7.349  -0.246  -1.187  1.00  0.00     0.171 C 
BRANCH  45  46
ATOM     46  N   UNL     1      -8.162   0.859  -1.677  1.00  0.00    -0.342 N 
ATOM     47  C   UNL     1      -8.166   1.242  -2.994  1.00  0.00     0.247 C 
ATOM     48  O   UNL     1      -7.543   0.639  -3.868  1.00  0.00    -0.273 OA
ATOM     49  H   UNL     1      -8.738   1.351  -0.996  1.00  0.00     0.164 HD
BRANCH  47  50
ATOM     50  C   UNL     1      -8.987   2.503  -3.302  1.00  0.00     0.212 CG0
ATOM     51  G   UNL     1      -8.010   3.694  -3.358  1.00  0.00     0.000 G0
BRANCH  50  52
ATOM     52  N   UNL     1      -9.646   2.237  -4.577  1.00  0.00    -0.339 N 
ATOM     53  C   UNL     1     -10.963   1.860  -4.683  1.00  0.00     0.243 C 
ATOM     54  O   UNL     1     -11.676   1.665  -3.703  1.00  0.00    -0.273 OA
ATOM     55  H   UNL     1      -9.077   2.274  -5.421  1.00  0.00     0.164 HD
BRANCH  53  56
ATOM     56  C   UNL     1     -11.414   1.551  -6.125  1.00  0.00     0.182 C 
BRANCH  56  57
ATOM     57  N   UNL     1     -11.716   2.784  -6.858  1.00  0.00    -0.344 N 
ATOM     58  C   UNL     1     -10.905   3.265  -7.856  1.00  0.00     0.220 C 
ATOM     59  O   UNL     1      -9.837   2.740  -8.154  1.00  0.00    -0.275 OA
ATOM     60  H   UNL     1     -12.636   3.192  -6.713  1.00  0.00     0.164 HD
BRANCH  58  61
ATOM     61  C   UNL     1     -11.442   4.522  -8.515  1.00  0.00     0.100 C 
BRANCH  61  62
ATOM     62  C   UNL     1     -10.623   4.984  -9.721  1.00  0.00     0.010 C 
BRANCH  62  63
ATOM     63  C   UNL     1      -9.434   5.884  -9.363  1.00  0.00     0.000 C 
BRANCH  63  64
ATOM     64  C   UNL     1      -8.418   6.058 -10.491  1.00  0.00    -0.003 C 
ATOM     65  C   UNL     1      -9.100   6.113 -11.849  1.00  0.00     0.004 C 
ENDBRANCH  63  64
ENDBRANCH  62  63
ENDBRANCH  61  62
ENDBRANCH  58  61
ENDBRANCH  56  57
BRANCH  56  66
ATOM     66  C   UNL     1     -12.581   0.565  -6.148  1.00  0.00     0.157 C 
BRANCH  66  67
ATOM     67  C   UNL     1     -12.093  -0.854  -6.194  1.00  0.00     0.305 C 
ATOM     68  O   UNL     1     -11.387  -1.413  -5.370  1.00  0.00    -0.252 OA
BRANCH  67  69
ATOM     69  O   UNL     1     -12.567  -1.523  -7.262  1.00  0.00    -0.481 OA
ATOM     70  H   UNL     1     -12.029  -2.342  -7.304  1.00  0.00     0.296 HD
ENDBRANCH  67  69
ENDBRANCH  66  67
ENDBRANCH  56  66
ENDBRANCH  53  56
ENDBRANCH  50  52
ENDBRANCH  47  50
ENDBRANCH  45  46
BRANCH  45  71
ATOM     71  C   UNL     1      -8.215  -1.399  -0.667  1.00  0.00     0.037 C 
BRANCH  71  72
ATOM     72  C   UNL     1      -8.070  -2.660  -1.522  1.00  0.00     0.026 C 
BRANCH  72  73
ATOM     73  C   UNL     1      -8.657  -2.460  -2.918  1.00  0.00     0.146 C 
BRANCH  73  74
ATOM     74  N   UNL     1      -7.647  -2.867  -3.890  1.00  0.00    -0.254 NA
ATOM     75  C   UNL     1      -8.046  -3.221  -5.056  1.00  0.00     0.185 C 
ATOM     76  N   UNL     1      -7.140  -3.600  -5.972  1.00  0.00    -0.370 N 
ATOM     77  N   UNL     1      -9.299  -3.278  -5.539  1.00  0.00    -0.370 N 
ATOM     78  H   UNL     1      -6.171  -3.594  -5.688  1.00  0.00     0.159 HD
ATOM     79  H   UNL     1      -7.384  -4.025  -6.850  1.00  0.00     0.159 HD
ATOM     80  H   UNL     1     -10.085  -3.018  -4.962  1.00  0.00     0.159 HD
ATOM     81  H   UNL     1      -9.483  -3.462  -6.512  1.00  0.00     0.159 HD
ENDBRANCH  73  74
ENDBRANCH  72  73
ENDBRANCH  71  72
ENDBRANCH  45  71
ENDBRANCH   3  45
TORSDOF 20
ENDMDL
MODEL 7
REMARK VINA RESULT:    -3.503      2.814      9.023
REMARK INTER + INTRA:         -17.690
REMARK INTER:                 -11.489
REMARK INTRA:                  -6.201
REMARK UNBOUND:                -7.633
REMARK SMILES CCCCCC(=O)N[C@H](CC(=O)O)C(=O)N[C@H]1C(=O)N[C@H](CCCN=C(N)N)C(=O)N[C@@H]2CC[C@H](O)N(C2=O)[C@@H](CC(C)C)C(=O)N(C)[C@@H](Cc2ccccc2)C(=O)N[C@H](C(C)C)C(=O)O[C@@H]1C
REMARK SMILES IDX 30 1 31 2 29 3 32 5 35 6 37 7 34 8 38 9 33 10 39 11 36 12
REMARK SMILES IDX 40 14 41 15 42 16 43 17 44 18 45 19 46 20 47 21 48 22 49 23
REMARK SMILES IDX 50 24 51 25 52 26 56 27 53 28 55 29 54 30 57 31 58 32 59 33
REMARK SMILES IDX 60 35 61 36 62 37 63 38 64 39 65 40 66 41 67 42 68 43 21 45
REMARK SMILES IDX 20 46 18 47 19 48 17 50 16 52 14 53 15 54 9 56 8 57 6 58
REMARK SMILES IDX 7 59 5 61 4 62 3 63 2 64 1 65 10 66 11 67 12 68 13 69 22 71
REMARK SMILES IDX 23 72 24 73 25 74 26 75 27 76 28 77
REMARK H PARENT 31 4 36 13 59 34 20 49 16 55 8 60 13 70 27 78 27 79 28 80
REMARK H PARENT 28 81
REMARK Flexibility Score:  259.900
ROOT
ATOM      1  O   UNL     1      -6.472   5.114  -1.660  1.00  0.00    -0.273 OA
ATOM      2  N   UNL     1      -8.661   4.562  -2.027  1.00  0.00    -0.343 N 
ATOM      3  C   UNL     1      -7.665   5.417  -1.609  1.00  0.00     0.243 C 
ATOM      4  H   UNL     1      -9.631   4.851  -1.984  1.00  0.00     0.164 HD
ENDROOT
BRANCH   2   5
ATOM      5  C   UNL     1      -8.345   3.200  -2.442  1.00  0.00     0.171 C 
ATOM      6  C   UNL     1      -9.924   0.773  -2.588  1.00  0.00     0.214 C 
ATOM      7  N   UNL     1      -9.190   1.072  -1.380  1.00  0.00    -0.303 N 
ATOM      8  C   UNL     1      -9.268   1.326  -3.843  1.00  0.00     0.057 C 
ATOM      9  C   UNL     1      -8.458   2.237  -1.225  1.00  0.00     0.247 C 
ATOM     10  C   UNL     1      -9.101   2.825  -3.716  1.00  0.00     0.040 C 
ATOM     11  O   UNL     1      -7.903   2.527  -0.157  1.00  0.00    -0.272 OA
BRANCH   6  12
ATOM     12  O   UNL     1     -11.225   1.294  -2.441  1.00  0.00    -0.373 OA
ATOM     13  H   UNL     1     -11.721   0.672  -1.868  1.00  0.00     0.213 HD
ENDBRANCH   6  12
BRANCH   7  14
ATOM     14  C   UNL     1      -9.368   0.146  -0.241  1.00  0.00     0.177 C 
BRANCH  14  15
ATOM     15  C   UNL     1      -8.230  -0.874  -0.041  1.00  0.00     0.038 C 
BRANCH  15  16
ATOM     16  C   UNL     1      -8.549  -2.385  -0.065  1.00  0.00    -0.015 C 
ATOM     17  C   UNL     1      -7.476  -3.197  -0.795  1.00  0.00     0.007 C 
ATOM     18  C   UNL     1      -9.892  -2.620  -0.768  1.00  0.00     0.007 C 
ENDBRANCH  15  16
ENDBRANCH  14  15
BRANCH  14  19
ATOM     19  C   UNL     1     -10.172   0.846   0.908  1.00  0.00     0.245 C 
ATOM     20  O   UNL     1     -11.143   1.541   0.568  1.00  0.00    -0.272 OA
BRANCH  19  21
ATOM     21  N   UNL     1      -9.794   0.821   2.239  1.00  0.00    -0.332 N 
ATOM     22  C   UNL     1      -9.266  -0.334   2.944  1.00  0.00     0.147 C 
BRANCH  21  23
ATOM     23  C   UNL     1      -9.947   2.074   3.030  1.00  0.00     0.178 C 
BRANCH  23  24
ATOM     24  C   UNL     1     -10.422   1.867   4.482  1.00  0.00     0.070 C 
BRANCH  24  25
ATOM     25  C   UNL     1     -10.448   3.083   5.378  1.00  0.00    -0.045 A 
ATOM     26  C   UNL     1      -9.617   3.163   6.503  1.00  0.00     0.004 A 
ATOM     27  C   UNL     1     -11.312   4.152   5.096  1.00  0.00     0.004 A 
ATOM     28  C   UNL     1      -9.659   4.283   7.336  1.00  0.00     0.000 A 
ATOM     29  C   UNL     1     -11.351   5.271   5.929  1.00  0.00     0.000 A 
ATOM     30  C   UNL     1     -10.526   5.335   7.050  1.00  0.00     0.000 A 
ENDBRANCH  24  25
ENDBRANCH  23  24
BRANCH  23  31
ATOM     31  C   UNL     1      -8.748   3.039   2.868  1.00  0.00     0.243 C 
ATOM     32  O   UNL     1      -8.854   4.213   2.523  1.00  0.00    -0.273 OA
ATOM     33  N   UNL     1      -7.517   2.414   2.968  1.00  0.00    -0.341 N 
ATOM     34  H   UNL     1      -7.493   1.432   3.253  1.00  0.00     0.164 HD
BRANCH  33  35
ATOM     35  C   UNL     1      -6.248   3.108   2.731  1.00  0.00     0.194 C 
BRANCH  35  36
ATOM     36  C   UNL     1      -5.122   2.197   2.165  1.00  0.00     0.017 C 
ATOM     37  C   UNL     1      -4.539   2.773   0.863  1.00  0.00     0.010 C 
ATOM     38  C   UNL     1      -5.594   0.769   1.864  1.00  0.00     0.010 C 
ENDBRANCH  35  36
BRANCH  35  39
ATOM     39  C   UNL     1      -5.770   3.919   3.969  1.00  0.00     0.329 C 
ATOM     40  O   UNL     1      -4.984   3.492   4.806  1.00  0.00    -0.250 OA
BRANCH  39  41
ATOM     41  O   UNL     1      -6.258   5.196   3.973  1.00  0.00    -0.458 OA
BRANCH  41  42
ATOM     42  C   UNL     1      -5.824   6.052   2.889  1.00  0.00     0.205 CG0
ATOM     43  C   UNL     1      -4.559   6.768   3.355  1.00  0.00     0.056 C 
ATOM     44  G   UNL     1      -6.965   7.032   2.550  1.00  0.00     0.000 G0
ENDBRANCH  41  42
ENDBRANCH  39  41
ENDBRANCH  35  39
ENDBRANCH  33  35
ENDBRANCH  23  31
ENDBRANCH  21  23
ENDBRANCH  19  21
ENDBRANCH  14  19
ENDBRANCH   7  14
ENDBRANCH   2   5
BRANCH   3  45
ATOM     45  C   UNL     1      -8.143   6.781  -1.094  1.00  0.00     0.171 C 
BRANCH  45  46
ATOM     46  N   UNL     1      -8.038   6.714   0.357  1.00  0.00    -0.342 N 
ATOM     47  C   UNL     1      -6.999   7.287   1.047  1.00  0.00     0.247 C 
ATOM     48  O   UNL     1      -6.123   7.958   0.501  1.00  0.00    -0.273 OA
ATOM     49  H   UNL     1      -8.773   6.215   0.855  1.00  0.00     0.164 HD
BRANCH  47  50
ATOM     50  C   UNL     1      -6.989   7.007   2.557  1.00  0.00     0.212 CG0
ATOM     51  G   UNL     1      -5.806   6.063   2.849  1.00  0.00     0.000 G0
BRANCH  50  52
ATOM     52  N   UNL     1      -6.856   8.314   3.194  1.00  0.00    -0.339 N 
ATOM     53  C   UNL     1      -7.928   9.054   3.632  1.00  0.00     0.243 C 
ATOM     54  O   UNL     1      -9.090   8.693   3.472  1.00  0.00    -0.273 OA
ATOM     55  H   UNL     1      -5.923   8.717   3.256  1.00  0.00     0.164 HD
BRANCH  53  56
ATOM     56  C   UNL     1      -7.547  10.439   4.193  1.00  0.00     0.182 C 
BRANCH  56  57
ATOM     57  N   UNL     1      -6.126  10.488   4.555  1.00  0.00    -0.344 N 
ATOM     58  C   UNL     1      -5.327  11.563   4.254  1.00  0.00     0.220 C 
ATOM     59  O   UNL     1      -5.723  12.522   3.600  1.00  0.00    -0.275 OA
ATOM     60  H   UNL     1      -5.785   9.764   5.182  1.00  0.00     0.164 HD
BRANCH  58  61
ATOM     61  C   UNL     1      -3.908  11.423   4.774  1.00  0.00     0.100 C 
BRANCH  61  62
ATOM     62  C   UNL     1      -3.568  10.015   5.264  1.00  0.00     0.010 C 
BRANCH  62  63
ATOM     63  C   UNL     1      -2.103   9.832   5.680  1.00  0.00     0.000 C 
BRANCH  63  64
ATOM     64  C   UNL     1      -1.878   9.809   7.191  1.00  0.00    -0.003 C 
ATOM     65  C   UNL     1      -0.420  10.074   7.539  1.00  0.00     0.004 C 
ENDBRANCH  63  64
ENDBRANCH  62  63
ENDBRANCH  61  62
ENDBRANCH  58  61
ENDBRANCH  56  57
BRANCH  56  66
ATOM     66  C   UNL     1      -8.452  10.840   5.357  1.00  0.00     0.157 C 
BRANCH  66  67
ATOM     67  C   UNL     1      -7.795  10.562   6.678  1.00  0.00     0.305 C 
ATOM     68  O   UNL     1      -7.288  11.379   7.431  1.00  0.00    -0.252 OA
BRANCH  67  69
ATOM     69  O   UNL     1      -7.855   9.259   7.015  1.00  0.00    -0.481 OA
ATOM     70  H   UNL     1      -7.821   9.252   7.995  1.00  0.00     0.296 HD
ENDBRANCH  67  69
ENDBRANCH  66  67
ENDBRANCH  56  66
ENDBRANCH  53  56
ENDBRANCH  50  52
ENDBRANCH  47  50
ENDBRANCH  45  46
BRANCH  45  71
ATOM     71  C   UNL     1      -9.584   7.047  -1.545  1.00  0.00     0.037 C 
BRANCH  71  72
ATOM     72  C   UNL     1      -9.660   8.137  -2.617  1.00  0.00     0.026 C 
BRANCH  72  73
ATOM     73  C   UNL     1      -8.455   9.073  -2.551  1.00  0.00     0.146 C 
BRANCH  73  74
ATOM     74  N   UNL     1      -7.583   8.759  -3.678  1.00  0.00    -0.254 NA
ATOM     75  C   UNL     1      -6.320   8.709  -3.462  1.00  0.00     0.185 C 
ATOM     76  N   UNL     1      -5.492   8.421  -4.480  1.00  0.00    -0.370 N 
ATOM     77  N   UNL     1      -5.650   8.910  -2.314  1.00  0.00    -0.370 N 
ATOM     78  H   UNL     1      -5.915   8.262  -5.383  1.00  0.00     0.159 HD
ATOM     79  H   UNL     1      -4.492   8.506  -4.421  1.00  0.00     0.159 HD
ATOM     80  H   UNL     1      -6.144   9.131  -1.463  1.00  0.00     0.159 HD
ATOM     81  H   UNL     1      -4.662   8.730  -2.240  1.00  0.00     0.159 HD
ENDBRANCH  73  74
ENDBRANCH  72  73
ENDBRANCH  71  72
ENDBRANCH  45  71
ENDBRANCH   3  45
TORSDOF 20
ENDMDL
MODEL 8
REMARK VINA RESULT:    -3.458      3.412      9.698
REMARK INTER + INTRA:         -17.560
REMARK INTER:                 -11.306
REMARK INTRA:                  -6.254
REMARK UNBOUND:                -7.633
REMARK SMILES CCCCCC(=O)N[C@H](CC(=O)O)C(=O)N[C@H]1C(=O)N[C@H](CCCN=C(N)N)C(=O)N[C@@H]2CC[C@H](O)N(C2=O)[C@@H](CC(C)C)C(=O)N(C)[C@@H](Cc2ccccc2)C(=O)N[C@H](C(C)C)C(=O)O[C@@H]1C
REMARK SMILES IDX 30 1 31 2 29 3 32 5 35 6 37 7 34 8 38 9 33 10 39 11 36 12
REMARK SMILES IDX 40 14 41 15 42 16 43 17 44 18 45 19 46 20 47 21 48 22 49 23
REMARK SMILES IDX 50 24 51 25 52 26 56 27 53 28 55 29 54 30 57 31 58 32 59 33
REMARK SMILES IDX 60 35 61 36 62 37 63 38 64 39 65 40 66 41 67 42 68 43 21 45
REMARK SMILES IDX 20 46 18 47 19 48 17 50 16 52 14 53 15 54 9 56 8 57 6 58
REMARK SMILES IDX 7 59 5 61 4 62 3 63 2 64 1 65 10 66 11 67 12 68 13 69 22 71
REMARK SMILES IDX 23 72 24 73 25 74 26 75 27 76 28 77
REMARK H PARENT 31 4 36 13 59 34 20 49 16 55 8 60 13 70 27 78 27 79 28 80
REMARK H PARENT 28 81
REMARK Flexibility Score:  259.900
ROOT
ATOM      1  O   UNL     1      -8.141   2.714  -3.557  1.00  0.00    -0.273 OA
ATOM      2  N   UNL     1      -8.826   1.403  -1.813  1.00  0.00    -0.343 N 
ATOM      3  C   UNL     1      -8.110   2.448  -2.355  1.00  0.00     0.243 C 
ATOM      4  H   UNL     1      -8.787   1.222  -0.817  1.00  0.00     0.164 HD
ENDROOT
BRANCH   2   5
ATOM      5  C   UNL     1      -9.567   0.485  -2.672  1.00  0.00     0.171 C 
ATOM      6  C   UNL     1     -11.473  -1.625  -2.110  1.00  0.00     0.214 C 
ATOM      7  N   UNL     1     -10.067  -1.943  -2.197  1.00  0.00    -0.303 N 
ATOM      8  C   UNL     1     -11.880  -0.450  -2.985  1.00  0.00     0.057 C 
ATOM      9  C   UNL     1      -9.099  -0.975  -2.412  1.00  0.00     0.247 C 
ATOM     10  C   UNL     1     -11.067   0.771  -2.614  1.00  0.00     0.040 C 
ATOM     11  O   UNL     1      -7.890  -1.242  -2.398  1.00  0.00    -0.272 OA
BRANCH   6  12
ATOM     12  O   UNL     1     -11.772  -1.359  -0.759  1.00  0.00    -0.373 OA
ATOM     13  H   UNL     1     -12.372  -2.072  -0.452  1.00  0.00     0.213 HD
ENDBRANCH   6  12
BRANCH   7  14
ATOM     14  C   UNL     1      -9.675  -3.337  -1.899  1.00  0.00     0.177 C 
BRANCH  14  15
ATOM     15  C   UNL     1      -8.713  -3.980  -2.916  1.00  0.00     0.038 C 
BRANCH  15  16
ATOM     16  C   UNL     1      -9.165  -4.161  -4.382  1.00  0.00    -0.015 C 
ATOM     17  C   UNL     1      -9.372  -5.633  -4.752  1.00  0.00     0.007 C 
ATOM     18  C   UNL     1      -8.110  -3.572  -5.327  1.00  0.00     0.007 C 
ENDBRANCH  15  16
ENDBRANCH  14  15
BRANCH  14  19
ATOM     19  C   UNL     1      -9.648  -3.574  -0.349  1.00  0.00     0.245 C 
ATOM     20  O   UNL     1     -10.650  -4.112   0.152  1.00  0.00    -0.272 OA
BRANCH  19  21
ATOM     21  N   UNL     1      -8.639  -3.123   0.483  1.00  0.00    -0.332 N 
ATOM     22  C   UNL     1      -7.218  -3.180   0.191  1.00  0.00     0.147 C 
BRANCH  21  23
ATOM     23  C   UNL     1      -9.028  -2.538   1.795  1.00  0.00     0.178 C 
BRANCH  23  24
ATOM     24  C   UNL     1      -8.486  -3.294   3.025  1.00  0.00     0.070 C 
BRANCH  24  25
ATOM     25  C   UNL     1      -9.299  -4.465   3.527  1.00  0.00    -0.045 A 
ATOM     26  C   UNL     1      -9.078  -5.757   3.030  1.00  0.00     0.004 A 
ATOM     27  C   UNL     1     -10.293  -4.273   4.497  1.00  0.00     0.004 A 
ATOM     28  C   UNL     1      -9.845  -6.831   3.486  1.00  0.00     0.000 A 
ATOM     29  C   UNL     1     -11.058  -5.348   4.953  1.00  0.00     0.000 A 
ATOM     30  C   UNL     1     -10.835  -6.626   4.445  1.00  0.00     0.000 A 
ENDBRANCH  24  25
ENDBRANCH  23  24
BRANCH  23  31
ATOM     31  C   UNL     1      -8.855  -1.001   1.847  1.00  0.00     0.243 C 
ATOM     32  O   UNL     1      -9.293  -0.232   0.995  1.00  0.00    -0.273 OA
ATOM     33  N   UNL     1      -7.997  -0.575   2.846  1.00  0.00    -0.341 N 
ATOM     34  H   UNL     1      -7.659  -1.264   3.523  1.00  0.00     0.164 HD
BRANCH  33  35
ATOM     35  C   UNL     1      -7.592   0.824   3.008  1.00  0.00     0.194 C 
BRANCH  35  36
ATOM     36  C   UNL     1      -6.126   1.009   3.493  1.00  0.00     0.017 C 
ATOM     37  C   UNL     1      -5.158   1.152   2.305  1.00  0.00     0.010 C 
ATOM     38  C   UNL     1      -5.624  -0.154   4.357  1.00  0.00     0.010 C 
ENDBRANCH  35  36
BRANCH  35  39
ATOM     39  C   UNL     1      -8.595   1.641   3.869  1.00  0.00     0.329 C 
ATOM     40  O   UNL     1      -8.670   1.568   5.090  1.00  0.00    -0.250 OA
BRANCH  39  41
ATOM     41  O   UNL     1      -9.329   2.519   3.120  1.00  0.00    -0.458 OA
BRANCH  41  42
ATOM     42  C   UNL     1      -8.931   3.909   3.188  1.00  0.00     0.205 CG0
ATOM     43  C   UNL     1      -9.825   4.587   4.225  1.00  0.00     0.056 C 
ATOM     44  G   UNL     1      -9.078   4.532   1.785  1.00  0.00     0.000 G0
ENDBRANCH  41  42
ENDBRANCH  39  41
ENDBRANCH  35  39
ENDBRANCH  33  35
ENDBRANCH  23  31
ENDBRANCH  21  23
ENDBRANCH  19  21
ENDBRANCH  14  19
ENDBRANCH   7  14
ENDBRANCH   2   5
BRANCH   3  45
ATOM     45  C   UNL     1      -7.287   3.270  -1.354  1.00  0.00     0.171 C 
BRANCH  45  46
ATOM     46  N   UNL     1      -8.250   3.815  -0.407  1.00  0.00    -0.342 N 
ATOM     47  C   UNL     1      -7.924   4.090   0.898  1.00  0.00     0.247 C 
ATOM     48  O   UNL     1      -6.783   3.966   1.342  1.00  0.00    -0.273 OA
ATOM     49  H   UNL     1      -9.194   3.986  -0.748  1.00  0.00     0.164 HD
BRANCH  47  50
ATOM     50  C   UNL     1      -9.098   4.540   1.779  1.00  0.00     0.212 CG0
ATOM     51  G   UNL     1      -8.897   3.921   3.177  1.00  0.00     0.000 G0
BRANCH  50  52
ATOM     52  N   UNL     1      -9.046   5.999   1.782  1.00  0.00    -0.339 N 
ATOM     53  C   UNL     1      -9.711   6.781   0.868  1.00  0.00     0.243 C 
ATOM     54  O   UNL     1     -10.362   6.306  -0.059  1.00  0.00    -0.273 OA
ATOM     55  H   UNL     1      -8.433   6.450   2.458  1.00  0.00     0.164 HD
BRANCH  53  56
ATOM     56  C   UNL     1      -9.437   8.291   1.016  1.00  0.00     0.182 C 
BRANCH  56  57
ATOM     57  N   UNL     1      -8.144   8.530   1.666  1.00  0.00    -0.344 N 
ATOM     58  C   UNL     1      -7.103   9.158   1.026  1.00  0.00     0.220 C 
ATOM     59  O   UNL     1      -7.156   9.496  -0.151  1.00  0.00    -0.275 OA
ATOM     60  H   UNL     1      -8.093   8.358   2.667  1.00  0.00     0.164 HD
BRANCH  58  61
ATOM     61  C   UNL     1      -5.884   9.351   1.909  1.00  0.00     0.100 C 
BRANCH  61  62
ATOM     62  C   UNL     1      -6.119   8.985   3.374  1.00  0.00     0.010 C 
BRANCH  62  63
ATOM     63  C   UNL     1      -5.044   8.069   3.973  1.00  0.00     0.000 C 
BRANCH  63  64
ATOM     64  C   UNL     1      -4.287   8.678   5.152  1.00  0.00    -0.003 C 
ATOM     65  C   UNL     1      -4.141  10.185   4.999  1.00  0.00     0.004 C 
ENDBRANCH  63  64
ENDBRANCH  62  63
ENDBRANCH  61  62
ENDBRANCH  58  61
ENDBRANCH  56  57
BRANCH  56  66
ATOM     66  C   UNL     1     -10.583   9.001   1.734  1.00  0.00     0.157 C 
BRANCH  66  67
ATOM     67  C   UNL     1     -10.248   9.255   3.175  1.00  0.00     0.305 C 
ATOM     68  O   UNL     1     -10.022  10.337   3.695  1.00  0.00    -0.252 OA
BRANCH  67  69
ATOM     69  O   UNL     1     -10.265   8.127   3.911  1.00  0.00    -0.481 OA
ATOM     70  H   UNL     1      -9.836   7.452   3.344  1.00  0.00     0.296 HD
ENDBRANCH  67  69
ENDBRANCH  66  67
ENDBRANCH  56  66
ENDBRANCH  53  56
ENDBRANCH  50  52
ENDBRANCH  47  50
ENDBRANCH  45  46
BRANCH  45  71
ATOM     71  C   UNL     1      -6.517   4.379  -2.080  1.00  0.00     0.037 C 
BRANCH  71  72
ATOM     72  C   UNL     1      -7.177   5.749  -1.901  1.00  0.00     0.026 C 
BRANCH  72  73
ATOM     73  C   UNL     1      -7.187   6.540  -3.208  1.00  0.00     0.146 C 
BRANCH  73  74
ATOM     74  N   UNL     1      -6.577   7.840  -2.947  1.00  0.00    -0.254 NA
ATOM     75  C   UNL     1      -7.153   8.879  -3.429  1.00  0.00     0.185 C 
ATOM     76  N   UNL     1      -6.616  10.090  -3.205  1.00  0.00    -0.370 N 
ATOM     77  N   UNL     1      -8.275   8.959  -4.165  1.00  0.00    -0.370 N 
ATOM     78  H   UNL     1      -5.764  10.120  -2.664  1.00  0.00     0.159 HD
ATOM     79  H   UNL     1      -6.926  10.927  -3.667  1.00  0.00     0.159 HD
ATOM     80  H   UNL     1      -8.790   8.126  -4.408  1.00  0.00     0.159 HD
ATOM     81  H   UNL     1      -8.697   9.844  -4.391  1.00  0.00     0.159 HD
ENDBRANCH  73  74
ENDBRANCH  72  73
ENDBRANCH  71  72
ENDBRANCH  45  71
ENDBRANCH   3  45
TORSDOF 20
ENDMDL
MODEL 9
REMARK VINA RESULT:    -3.414      2.898      8.932
REMARK INTER + INTRA:         -17.434
REMARK INTER:                 -10.915
REMARK INTRA:                  -6.519
REMARK UNBOUND:                -7.633
REMARK SMILES CCCCCC(=O)N[C@H](CC(=O)O)C(=O)N[C@H]1C(=O)N[C@H](CCCN=C(N)N)C(=O)N[C@@H]2CC[C@H](O)N(C2=O)[C@@H](CC(C)C)C(=O)N(C)[C@@H](Cc2ccccc2)C(=O)N[C@H](C(C)C)C(=O)O[C@@H]1C
REMARK SMILES IDX 30 1 31 2 29 3 32 5 35 6 37 7 34 8 38 9 33 10 39 11 36 12
REMARK SMILES IDX 40 14 41 15 42 16 43 17 44 18 45 19 46 20 47 21 48 22 49 23
REMARK SMILES IDX 50 24 51 25 52 26 56 27 53 28 55 29 54 30 57 31 58 32 59 33
REMARK SMILES IDX 60 35 61 36 62 37 63 38 64 39 65 40 66 41 67 42 68 43 21 45
REMARK SMILES IDX 20 46 18 47 19 48 17 50 16 52 14 53 15 54 9 56 8 57 6 58
REMARK SMILES IDX 7 59 5 61 4 62 3 63 2 64 1 65 10 66 11 67 12 68 13 69 22 71
REMARK SMILES IDX 23 72 24 73 25 74 26 75 27 76 28 77
REMARK H PARENT 31 4 36 13 59 34 20 49 16 55 8 60 13 70 27 78 27 79 28 80
REMARK H PARENT 28 81
REMARK Flexibility Score:  259.900
ROOT
ATOM      1  O   UNL     1      -6.274   4.801  -1.385  1.00  0.00    -0.273 OA
ATOM      2  N   UNL     1      -8.475   4.485  -1.920  1.00  0.00    -0.343 N 
ATOM      3  C   UNL     1      -7.433   5.218  -1.394  1.00  0.00     0.243 C 
ATOM      4  H   UNL     1      -9.413   4.867  -1.924  1.00  0.00     0.164 HD
ENDROOT
BRANCH   2   5
ATOM      5  C   UNL     1      -8.263   3.119  -2.385  1.00  0.00     0.171 C 
ATOM      6  C   UNL     1     -10.009   0.813  -2.570  1.00  0.00     0.214 C 
ATOM      7  N   UNL     1      -9.231   1.020  -1.371  1.00  0.00    -0.303 N 
ATOM      8  C   UNL     1      -9.343   1.361  -3.822  1.00  0.00     0.057 C 
ATOM      9  C   UNL     1      -8.417   2.127  -1.197  1.00  0.00     0.247 C 
ATOM     10  C   UNL     1      -9.070   2.839  -3.652  1.00  0.00     0.040 C 
ATOM     11  O   UNL     1      -7.821   2.343  -0.133  1.00  0.00    -0.272 OA
BRANCH   6  12
ATOM     12  O   UNL     1     -11.267   1.417  -2.377  1.00  0.00    -0.373 OA
ATOM     13  H   UNL     1     -11.105   2.369  -2.202  1.00  0.00     0.213 HD
ENDBRANCH   6  12
BRANCH   7  14
ATOM     14  C   UNL     1      -9.449   0.072  -0.258  1.00  0.00     0.177 C 
BRANCH  14  15
ATOM     15  C   UNL     1      -8.347  -0.990  -0.076  1.00  0.00     0.038 C 
BRANCH  15  16
ATOM     16  C   UNL     1      -8.543  -2.401  -0.673  1.00  0.00    -0.015 C 
ATOM     17  C   UNL     1      -7.668  -3.453   0.014  1.00  0.00     0.007 C 
ATOM     18  C   UNL     1      -8.193  -2.386  -2.166  1.00  0.00     0.007 C 
ENDBRANCH  15  16
ENDBRANCH  14  15
BRANCH  14  19
ATOM     19  C   UNL     1     -10.238   0.769   0.903  1.00  0.00     0.245 C 
ATOM     20  O   UNL     1     -11.214   1.466   0.577  1.00  0.00    -0.272 OA
BRANCH  19  21
ATOM     21  N   UNL     1      -9.845   0.738   2.229  1.00  0.00    -0.332 N 
ATOM     22  C   UNL     1      -9.331  -0.425   2.930  1.00  0.00     0.147 C 
BRANCH  21  23
ATOM     23  C   UNL     1      -9.964   1.995   3.019  1.00  0.00     0.178 C 
BRANCH  23  24
ATOM     24  C   UNL     1     -10.405   1.798   4.484  1.00  0.00     0.070 C 
BRANCH  24  25
ATOM     25  C   UNL     1     -10.421   3.022   5.369  1.00  0.00    -0.045 A 
ATOM     26  C   UNL     1     -11.370   4.034   5.177  1.00  0.00     0.004 A 
ATOM     27  C   UNL     1      -9.477   3.165   6.397  1.00  0.00     0.004 A 
ATOM     28  C   UNL     1     -11.367   5.171   5.988  1.00  0.00     0.000 A 
ATOM     29  C   UNL     1      -9.476   4.301   7.208  1.00  0.00     0.000 A 
ATOM     30  C   UNL     1     -10.420   5.304   7.001  1.00  0.00     0.000 A 
ENDBRANCH  24  25
ENDBRANCH  23  24
BRANCH  23  31
ATOM     31  C   UNL     1      -8.760   2.947   2.824  1.00  0.00     0.243 C 
ATOM     32  O   UNL     1      -8.823   4.022   2.233  1.00  0.00    -0.273 OA
ATOM     33  N   UNL     1      -7.551   2.397   3.214  1.00  0.00    -0.341 N 
ATOM     34  H   UNL     1      -7.561   1.495   3.696  1.00  0.00     0.164 HD
BRANCH  33  35
ATOM     35  C   UNL     1      -6.265   3.070   3.012  1.00  0.00     0.194 C 
BRANCH  35  36
ATOM     36  C   UNL     1      -5.177   2.176   2.352  1.00  0.00     0.017 C 
ATOM     37  C   UNL     1      -4.570   2.857   1.113  1.00  0.00     0.010 C 
ATOM     38  C   UNL     1      -5.706   0.806   1.911  1.00  0.00     0.010 C 
ENDBRANCH  35  36
BRANCH  35  39
ATOM     39  C   UNL     1      -5.743   3.762   4.302  1.00  0.00     0.329 C 
ATOM     40  O   UNL     1      -5.028   3.215   5.133  1.00  0.00    -0.250 OA
BRANCH  39  41
ATOM     41  O   UNL     1      -6.100   5.081   4.365  1.00  0.00    -0.458 OA
BRANCH  41  42
ATOM     42  C   UNL     1      -5.759   5.893   3.216  1.00  0.00     0.205 CG0
ATOM     43  C   UNL     1      -4.492   6.670   3.568  1.00  0.00     0.056 C 
ATOM     44  G   UNL     1      -6.950   6.820   2.898  1.00  0.00     0.000 G0
ENDBRANCH  41  42
ENDBRANCH  39  41
ENDBRANCH  35  39
ENDBRANCH  33  35
ENDBRANCH  23  31
ENDBRANCH  21  23
ENDBRANCH  19  21
ENDBRANCH  14  19
ENDBRANCH   7  14
ENDBRANCH   2   5
BRANCH   3  45
ATOM     45  C   UNL     1      -7.813   6.598  -0.841  1.00  0.00     0.171 C 
BRANCH  45  46
ATOM     46  N   UNL     1      -7.790   6.460   0.610  1.00  0.00    -0.342 N 
ATOM     47  C   UNL     1      -6.935   7.182   1.404  1.00  0.00     0.247 C 
ATOM     48  O   UNL     1      -6.179   8.047   0.960  1.00  0.00    -0.273 OA
ATOM     49  H   UNL     1      -8.440   5.795   1.025  1.00  0.00     0.164 HD
BRANCH  47  50
ATOM     50  C   UNL     1      -6.966   6.814   2.895  1.00  0.00     0.212 CG0
ATOM     51  G   UNL     1      -5.747   5.914   3.179  1.00  0.00     0.000 G0
BRANCH  50  52
ATOM     52  N   UNL     1      -6.925   8.086   3.611  1.00  0.00    -0.339 N 
ATOM     53  C   UNL     1      -8.025   8.654   4.207  1.00  0.00     0.243 C 
ATOM     54  O   UNL     1      -9.146   8.158   4.136  1.00  0.00    -0.273 OA
ATOM     55  H   UNL     1      -6.047   8.601   3.609  1.00  0.00     0.164 HD
BRANCH  53  56
ATOM     56  C   UNL     1      -7.756  10.039   4.828  1.00  0.00     0.182 C 
BRANCH  56  57
ATOM     57  N   UNL     1      -6.599   9.997   5.728  1.00  0.00    -0.344 N 
ATOM     58  C   UNL     1      -5.540  10.864   5.606  1.00  0.00     0.220 C 
ATOM     59  O   UNL     1      -5.453  11.681   4.696  1.00  0.00    -0.275 OA
ATOM     60  H   UNL     1      -6.678   9.407   6.552  1.00  0.00     0.164 HD
BRANCH  58  61
ATOM     61  C   UNL     1      -4.484  10.677   6.679  1.00  0.00     0.100 C 
BRANCH  61  62
ATOM     62  C   UNL     1      -3.075  10.464   6.126  1.00  0.00     0.010 C 
BRANCH  62  63
ATOM     63  C   UNL     1      -3.037   9.821   4.734  1.00  0.00     0.000 C 
BRANCH  63  64
ATOM     64  C   UNL     1      -1.750   9.056   4.432  1.00  0.00    -0.003 C 
ATOM     65  C   UNL     1      -0.524   9.819   4.913  1.00  0.00     0.004 C 
ENDBRANCH  63  64
ENDBRANCH  62  63
ENDBRANCH  61  62
ENDBRANCH  58  61
ENDBRANCH  56  57
BRANCH  56  66
ATOM     66  C   UNL     1      -9.002  10.595   5.516  1.00  0.00     0.157 C 
BRANCH  66  67
ATOM     67  C   UNL     1      -9.021  10.241   6.975  1.00  0.00     0.305 C 
ATOM     68  O   UNL     1      -8.891   9.127   7.460  1.00  0.00    -0.252 OA
BRANCH  67  69
ATOM     69  O   UNL     1      -9.154  11.324   7.763  1.00  0.00    -0.481 OA
ATOM     70  H   UNL     1      -9.980  11.756   7.458  1.00  0.00     0.296 HD
ENDBRANCH  67  69
ENDBRANCH  66  67
ENDBRANCH  56  66
ENDBRANCH  53  56
ENDBRANCH  50  52
ENDBRANCH  47  50
ENDBRANCH  45  46
BRANCH  45  71
ATOM     71  C   UNL     1      -9.198   7.013  -1.348  1.00  0.00     0.037 C 
BRANCH  71  72
ATOM     72  C   UNL     1      -9.790   8.164  -0.529  1.00  0.00     0.026 C 
BRANCH  72  73
ATOM     73  C   UNL     1     -11.299   8.008  -0.353  1.00  0.00     0.146 C 
BRANCH  73  74
ATOM     74  N   UNL     1     -11.541   7.491   0.991  1.00  0.00    -0.254 NA
ATOM     75  C   UNL     1     -11.827   8.333   1.914  1.00  0.00     0.185 C 
ATOM     76  N   UNL     1     -12.056   7.888   3.160  1.00  0.00    -0.370 N 
ATOM     77  N   UNL     1     -11.942   9.670   1.832  1.00  0.00    -0.370 N 
ATOM     78  H   UNL     1     -11.982   6.892   3.311  1.00  0.00     0.159 HD
ATOM     79  H   UNL     1     -12.142   8.494   3.957  1.00  0.00     0.159 HD
ATOM     80  H   UNL     1     -11.801  10.145   0.953  1.00  0.00     0.159 HD
ATOM     81  H   UNL     1     -12.286  10.219   2.602  1.00  0.00     0.159 HD
ENDBRANCH  73  74
ENDBRANCH  72  73
ENDBRANCH  71  72
ENDBRANCH  45  71
ENDBRANCH   3  45
TORSDOF 20
ENDMDL
MODEL 10
REMARK VINA RESULT:    -3.342      2.936      8.713
REMARK INTER + INTRA:         -17.227
REMARK INTER:                  -9.971
REMARK INTRA:                  -7.256
REMARK UNBOUND:                -7.633
REMARK SMILES CCCCCC(=O)N[C@H](CC(=O)O)C(=O)N[C@H]1C(=O)N[C@H](CCCN=C(N)N)C(=O)N[C@@H]2CC[C@H](O)N(C2=O)[C@@H](CC(C)C)C(=O)N(C)[C@@H](Cc2ccccc2)C(=O)N[C@H](C(C)C)C(=O)O[C@@H]1C
REMARK SMILES IDX 30 1 31 2 29 3 32 5 35 6 37 7 34 8 38 9 33 10 39 11 36 12
REMARK SMILES IDX 40 14 41 15 42 16 43 17 44 18 45 19 46 20 47 21 48 22 49 23
REMARK SMILES IDX 50 24 51 25 52 26 56 27 53 28 55 29 54 30 57 31 58 32 59 33
REMARK SMILES IDX 60 35 61 36 62 37 63 38 64 39 65 40 66 41 67 42 68 43 21 45
REMARK SMILES IDX 20 46 18 47 19 48 17 50 16 52 14 53 15 54 9 56 8 57 6 58
REMARK SMILES IDX 7 59 5 61 4 62 3 63 2 64 1 65 10 66 11 67 12 68 13 69 22 71
REMARK SMILES IDX 23 72 24 73 25 74 26 75 27 76 28 77
REMARK H PARENT 31 4 36 13 59 34 20 49 16 55 8 60 13 70 27 78 27 79 28 80
REMARK H PARENT 28 81
REMARK Flexibility Score:  259.900
ROOT
ATOM      1  O   UNL     1      -5.559   3.754  -1.230  1.00  0.00    -0.273 OA
ATOM      2  N   UNL     1      -7.657   3.202  -1.956  1.00  0.00    -0.343 N 
ATOM      3  C   UNL     1      -6.739   4.064  -1.394  1.00  0.00     0.243 C 
ATOM      4  H   UNL     1      -8.616   3.497  -2.089  1.00  0.00     0.164 HD
ENDROOT
BRANCH   2   5
ATOM      5  C   UNL     1      -7.286   1.828  -2.274  1.00  0.00     0.171 C 
ATOM      6  C   UNL     1      -8.848  -0.537  -2.885  1.00  0.00     0.214 C 
ATOM      7  N   UNL     1      -8.481  -0.262  -1.516  1.00  0.00    -0.303 N 
ATOM      8  C   UNL     1      -7.838  -0.013  -3.895  1.00  0.00     0.057 C 
ATOM      9  C   UNL     1      -7.780   0.875  -1.148  1.00  0.00     0.247 C 
ATOM     10  C   UNL     1      -7.658   1.478  -3.714  1.00  0.00     0.040 C 
ATOM     11  O   UNL     1      -7.545   1.146   0.037  1.00  0.00    -0.272 OA
BRANCH   6  12
ATOM     12  O   UNL     1     -10.115   0.035  -3.115  1.00  0.00    -0.373 OA
ATOM     13  H   UNL     1     -10.275   0.000  -4.082  1.00  0.00     0.213 HD
ENDBRANCH   6  12
BRANCH   7  14
ATOM     14  C   UNL     1      -9.014  -1.177  -0.483  1.00  0.00     0.177 C 
BRANCH  14  15
ATOM     15  C   UNL     1      -7.955  -2.015   0.260  1.00  0.00     0.038 C 
BRANCH  15  16
ATOM     16  C   UNL     1      -7.672  -3.463  -0.199  1.00  0.00    -0.015 C 
ATOM     17  C   UNL     1      -8.357  -3.800  -1.527  1.00  0.00     0.007 C 
ATOM     18  C   UNL     1      -8.171  -4.450   0.863  1.00  0.00     0.007 C 
ENDBRANCH  15  16
ENDBRANCH  14  15
BRANCH  14  19
ATOM     19  C   UNL     1     -10.309  -0.574   0.162  1.00  0.00     0.245 C 
ATOM     20  O   UNL     1     -11.136  -0.067  -0.615  1.00  0.00    -0.272 OA
BRANCH  19  21
ATOM     21  N   UNL     1     -10.518  -0.478   1.526  1.00  0.00    -0.332 N 
ATOM     22  C   UNL     1     -10.430  -1.576   2.471  1.00  0.00     0.147 C 
BRANCH  21  23
ATOM     23  C   UNL     1     -10.876   0.856   2.083  1.00  0.00     0.178 C 
BRANCH  23  24
ATOM     24  C   UNL     1     -11.839   0.815   3.287  1.00  0.00     0.070 C 
BRANCH  24  25
ATOM     25  C   UNL     1     -12.001   2.090   4.082  1.00  0.00    -0.045 A 
ATOM     26  C   UNL     1     -12.644   3.205   3.527  1.00  0.00     0.004 A 
ATOM     27  C   UNL     1     -11.503   2.177   5.391  1.00  0.00     0.004 A 
ATOM     28  C   UNL     1     -12.775   4.385   4.262  1.00  0.00     0.000 A 
ATOM     29  C   UNL     1     -11.636   3.357   6.124  1.00  0.00     0.000 A 
ATOM     30  C   UNL     1     -12.269   4.461   5.558  1.00  0.00     0.000 A 
ENDBRANCH  24  25
ENDBRANCH  23  24
BRANCH  23  31
ATOM     31  C   UNL     1      -9.651   1.785   2.259  1.00  0.00     0.243 C 
ATOM     32  O   UNL     1      -9.456   2.798   1.592  1.00  0.00    -0.273 OA
ATOM     33  N   UNL     1      -8.689   1.276   3.115  1.00  0.00    -0.341 N 
ATOM     34  H   UNL     1      -8.908   0.425   3.639  1.00  0.00     0.164 HD
BRANCH  33  35
ATOM     35  C   UNL     1      -7.396   1.926   3.340  1.00  0.00     0.194 C 
BRANCH  35  36
ATOM     36  C   UNL     1      -6.170   0.990   3.139  1.00  0.00     0.017 C 
ATOM     37  C   UNL     1      -6.455  -0.425   3.672  1.00  0.00     0.010 C 
ATOM     38  C   UNL     1      -4.902   1.497   3.836  1.00  0.00     0.010 C 
ENDBRANCH  35  36
BRANCH  35  39
ATOM     39  C   UNL     1      -7.334   2.679   4.698  1.00  0.00     0.329 C 
ATOM     40  O   UNL     1      -7.073   2.143   5.769  1.00  0.00    -0.250 OA
BRANCH  39  41
ATOM     41  O   UNL     1      -7.518   4.027   4.554  1.00  0.00    -0.458 OA
BRANCH  41  42
ATOM     42  C   UNL     1      -6.820   4.655   3.452  1.00  0.00     0.205 CG0
ATOM     43  C   UNL     1      -5.568   5.316   4.024  1.00  0.00     0.056 C 
ATOM     44  G   UNL     1      -7.770   5.669   2.784  1.00  0.00     0.000 G0
ENDBRANCH  41  42
ENDBRANCH  39  41
ENDBRANCH  35  39
ENDBRANCH  33  35
ENDBRANCH  23  31
ENDBRANCH  21  23
ENDBRANCH  19  21
ENDBRANCH  14  19
ENDBRANCH   7  14
ENDBRANCH   2   5
BRANCH   3  45
ATOM     45  C   UNL     1      -7.286   5.445  -1.008  1.00  0.00     0.171 C 
BRANCH  45  46
ATOM     46  N   UNL     1      -7.768   5.308   0.361  1.00  0.00    -0.342 N 
ATOM     47  C   UNL     1      -7.248   6.037   1.400  1.00  0.00     0.247 C 
ATOM     48  O   UNL     1      -6.391   6.908   1.243  1.00  0.00    -0.273 OA
ATOM     49  H   UNL     1      -8.517   4.638   0.526  1.00  0.00     0.164 HD
BRANCH  47  50
ATOM     50  C   UNL     1      -7.792   5.670   2.788  1.00  0.00     0.212 CG0
ATOM     51  G   UNL     1      -6.811   4.665   3.424  1.00  0.00     0.000 G0
BRANCH  50  52
ATOM     52  N   UNL     1      -7.880   6.932   3.519  1.00  0.00    -0.339 N 
ATOM     53  C   UNL     1      -9.068   7.488   3.926  1.00  0.00     0.243 C 
ATOM     54  O   UNL     1     -10.158   6.989   3.660  1.00  0.00    -0.273 OA
ATOM     55  H   UNL     1      -7.017   7.450   3.673  1.00  0.00     0.164 HD
BRANCH  53  56
ATOM     56  C   UNL     1      -8.917   8.865   4.604  1.00  0.00     0.182 C 
BRANCH  56  57
ATOM     57  N   UNL     1      -7.752   9.584   4.079  1.00  0.00    -0.344 N 
ATOM     58  C   UNL     1      -7.857  10.538   3.096  1.00  0.00     0.220 C 
ATOM     59  O   UNL     1      -8.917  10.802   2.539  1.00  0.00    -0.275 OA
ATOM     60  H   UNL     1      -6.875   9.470   4.581  1.00  0.00     0.164 HD
BRANCH  58  61
ATOM     61  C   UNL     1      -6.533  11.194   2.749  1.00  0.00     0.100 C 
BRANCH  61  62
ATOM     62  C   UNL     1      -5.833  11.839   3.946  1.00  0.00     0.010 C 
BRANCH  62  63
ATOM     63  C   UNL     1      -4.544  11.127   4.377  1.00  0.00     0.000 C 
BRANCH  63  64
ATOM     64  C   UNL     1      -4.571  10.596   5.809  1.00  0.00    -0.003 C 
ATOM     65  C   UNL     1      -5.782  11.113   6.571  1.00  0.00     0.004 C 
ENDBRANCH  63  64
ENDBRANCH  62  63
ENDBRANCH  61  62
ENDBRANCH  58  61
ENDBRANCH  56  57
BRANCH  56  66
ATOM     66  C   UNL     1      -8.879   8.740   6.126  1.00  0.00     0.157 C 
BRANCH  66  67
ATOM     67  C   UNL     1      -7.829   7.761   6.565  1.00  0.00     0.305 C 
ATOM     68  O   UNL     1      -6.661   7.730   6.209  1.00  0.00    -0.252 OA
BRANCH  67  69
ATOM     69  O   UNL     1      -8.292   6.890   7.482  1.00  0.00    -0.481 OA
ATOM     70  H   UNL     1      -9.164   6.604   7.137  1.00  0.00     0.296 HD
ENDBRANCH  67  69
ENDBRANCH  66  67
ENDBRANCH  56  66
ENDBRANCH  53  56
ENDBRANCH  50  52
ENDBRANCH  47  50
ENDBRANCH  45  46
BRANCH  45  71
ATOM     71  C   UNL     1      -8.410   5.861  -1.964  1.00  0.00     0.037 C 
BRANCH  71  72
ATOM     72  C   UNL     1      -8.690   7.365  -1.903  1.00  0.00     0.026 C 
BRANCH  72  73
ATOM     73  C   UNL     1     -10.189   7.654  -1.853  1.00  0.00     0.146 C 
BRANCH  73  74
ATOM     74  N   UNL     1     -10.423   8.618  -0.783  1.00  0.00    -0.254 NA
ATOM     75  C   UNL     1     -10.739   8.165   0.374  1.00  0.00     0.185 C 
ATOM     76  N   UNL     1     -10.959   9.027   1.379  1.00  0.00    -0.370 N 
ATOM     77  N   UNL     1     -10.895   6.888   0.767  1.00  0.00    -0.370 N 
ATOM     78  H   UNL     1     -10.870  10.010   1.166  1.00  0.00     0.159 HD
ATOM     79  H   UNL     1     -11.349   8.757   2.265  1.00  0.00     0.159 HD
ATOM     80  H   UNL     1     -10.757   6.130   0.116  1.00  0.00     0.159 HD
ATOM     81  H   UNL     1     -11.033   6.647   1.734  1.00  0.00     0.159 HD
ENDBRANCH  73  74
ENDBRANCH  72  73
ENDBRANCH  71  72
ENDBRANCH  45  71
ENDBRANCH   3  45
TORSDOF 20
ENDMDL
