MODEL 1
REMARK VINA RESULT:    -4.989      0.000      0.000
REMARK INTER + INTRA:         -11.211
REMARK INTER:                  -8.926
REMARK INTRA:                  -2.285
REMARK UNBOUND:                -2.285
REMARK SMILES CC[C@H](C)[C@H]1NC(=O)c2coc(n2)[C@H](C(C)C)NC(=O)[C@H]([C@@H](C)O)NC(=O)[C@H](C)NC(=O)c2csc1n2
REMARK SMILES IDX 11 1 13 2 12 3 9 4 10 5 7 6 6 7 8 8 5 10 36 11 35 12 34 13
REMARK SMILES IDX 37 14 33 15 31 16 32 17 30 18 28 20 29 21 3 23 4 24 2 25
REMARK SMILES IDX 1 26 14 27 18 28 19 29 20 30 21 32 25 33 26 34 27 35 22 38
REMARK SMILES IDX 23 39 24 40 15 42 16 43 17 44
REMARK H PARENT 6 9 30 19 18 31 25 36 24 41
REMARK Flexibility Score:   94.900
ROOT
ATOM      1  O   UNL     1      -2.883  -3.454   4.761  1.00  0.00    -0.446 OA
ATOM      2  N   UNL     1      -2.588  -2.288   6.668  1.00  0.00    -0.207 NA
ATOM      3  C   UNL     1      -2.699  -3.484   6.118  1.00  0.00     0.217 A 
ATOM      4  C   UNL     1      -2.678  -1.414   5.599  1.00  0.00     0.167 A 
ATOM      5  C   UNL     1      -2.857  -2.130   4.440  1.00  0.00     0.231 A 
ENDROOT
BRANCH   4   6
ATOM      6  C   UNL     1      -2.619   0.030   5.747  1.00  0.00     0.273 C 
ATOM      7  N   UNL     1      -2.230   0.397   7.011  1.00  0.00    -0.341 N 
ATOM      8  O   UNL     1      -2.908   0.816   4.852  1.00  0.00    -0.267 OA
ATOM      9  H   UNL     1      -2.114  -0.364   7.674  1.00  0.00     0.164 HD
BRANCH   7  10
ATOM     10  C   UNL     1      -2.325   1.757   7.504  1.00  0.00     0.145 C 
BRANCH  10  11
ATOM     11  C   UNL     1      -3.162   1.728   8.775  1.00  0.00     0.116 A 
ATOM     12  S   UNL     1      -2.838   2.855  10.038  1.00  0.00    -0.124 S 
ATOM     13  C   UNL     1      -4.132   2.200  10.943  1.00  0.00     0.101 A 
ATOM     14  N   UNL     1      -4.164   0.895   9.004  1.00  0.00    -0.234 NA
ATOM     15  C   UNL     1      -4.739   1.173  10.246  1.00  0.00     0.139 A 
BRANCH  15  16
ATOM     16  C   UNL     1      -5.897   0.427  10.743  1.00  0.00     0.271 C 
ATOM     17  O   UNL     1      -6.791   0.948  11.401  1.00  0.00    -0.267 OA
ATOM     18  N   UNL     1      -5.881  -0.908  10.398  1.00  0.00    -0.339 N 
ATOM     19  H   UNL     1      -5.033  -1.241   9.948  1.00  0.00     0.164 HD
BRANCH  18  20
ATOM     20  C   UNL     1      -6.918  -1.819  10.863  1.00  0.00     0.168 CG0
ATOM     21  C   UNL     1      -8.163  -1.745   9.976  1.00  0.00     0.041 C 
ATOM     22  G   UNL     1      -6.451  -3.283  10.895  1.00  0.00     0.000 G0
ENDBRANCH  18  20
ENDBRANCH  15  16
ENDBRANCH  10  11
BRANCH  10  23
ATOM     23  C   UNL     1      -0.930   2.397   7.730  1.00  0.00     0.015 C 
ATOM     24  C   UNL     1       0.223   1.380   7.674  1.00  0.00     0.010 C 
BRANCH  23  25
ATOM     25  C   UNL     1      -0.628   3.541   6.736  1.00  0.00     0.002 C 
ATOM     26  C   UNL     1      -1.870   4.144   6.092  1.00  0.00     0.004 C 
ENDBRANCH  23  25
ENDBRANCH  10  23
ENDBRANCH   7  10
ENDBRANCH   4   6
BRANCH   3  27
ATOM     27  C   UNL     1      -2.697  -4.811   6.826  1.00  0.00     0.171 C 
BRANCH  27  28
ATOM     28  N   UNL     1      -3.946  -4.922   7.572  1.00  0.00    -0.342 N 
ATOM     29  C   UNL     1      -3.988  -5.140   8.931  1.00  0.00     0.245 C 
ATOM     30  O   UNL     1      -2.975  -5.241   9.620  1.00  0.00    -0.273 OA
ATOM     31  H   UNL     1      -4.823  -4.734   7.088  1.00  0.00     0.164 HD
BRANCH  29  32
ATOM     32  C   UNL     1      -5.396  -5.098   9.562  1.00  0.00     0.200 C 
BRANCH  32  33
ATOM     33  N   UNL     1      -5.775  -3.692   9.751  1.00  0.00    -0.340 N 
ATOM     34  C   UNL     1      -6.462  -3.281  10.874  1.00  0.00     0.243 CG0
ATOM     35  O   UNL     1      -6.842  -4.077  11.731  1.00  0.00    -0.273 OA
ATOM     36  H   UNL     1      -5.502  -3.018   9.046  1.00  0.00     0.164 HD
ATOM     37  G   UNL     1      -6.914  -1.812  10.878  1.00  0.00     0.000 G0
ENDBRANCH  32  33
BRANCH  32  38
ATOM     38  C   UNL     1      -6.419  -5.890   8.714  1.00  0.00     0.143 C 
ATOM     39  C   UNL     1      -7.381  -6.741   9.535  1.00  0.00     0.041 C 
BRANCH  38  40
ATOM     40  O   UNL     1      -7.181  -4.985   7.891  1.00  0.00    -0.391 OA
ATOM     41  H   UNL     1      -7.856  -4.582   8.469  1.00  0.00     0.211 HD
ENDBRANCH  38  40
ENDBRANCH  32  38
ENDBRANCH  29  32
ENDBRANCH  27  28
BRANCH  27  42
ATOM     42  C   UNL     1      -2.429  -6.075   5.972  1.00  0.00     0.015 C 
ATOM     43  C   UNL     1      -1.085  -6.102   5.235  1.00  0.00     0.010 C 
ATOM     44  C   UNL     1      -2.618  -7.363   6.780  1.00  0.00     0.010 C 
ENDBRANCH  27  42
ENDBRANCH   3  27
TORSDOF 5
ENDMDL
MODEL 2
REMARK VINA RESULT:    -4.921      2.857      6.591
REMARK INTER + INTRA:         -11.090
REMARK INTER:                  -8.913
REMARK INTRA:                  -2.177
REMARK UNBOUND:                -2.285
REMARK SMILES CC[C@H](C)[C@H]1NC(=O)c2coc(n2)[C@H](C(C)C)NC(=O)[C@H]([C@@H](C)O)NC(=O)[C@H](C)NC(=O)c2csc1n2
REMARK SMILES IDX 11 1 13 2 12 3 9 4 10 5 7 6 6 7 8 8 5 10 36 11 35 12 34 13
REMARK SMILES IDX 37 14 33 15 31 16 32 17 30 18 28 20 29 21 3 23 4 24 2 25
REMARK SMILES IDX 1 26 14 27 18 28 19 29 20 30 21 32 25 33 26 34 27 35 22 38
REMARK SMILES IDX 23 39 24 40 15 42 16 43 17 44
REMARK H PARENT 6 9 30 19 18 31 25 36 24 41
REMARK Flexibility Score:   94.900
ROOT
ATOM      1  O   UNL     1      -6.083  -7.576   8.896  1.00  0.00    -0.446 OA
ATOM      2  N   UNL     1      -5.215  -5.722   9.841  1.00  0.00    -0.207 NA
ATOM      3  C   UNL     1      -5.006  -6.739   9.024  1.00  0.00     0.217 A 
ATOM      4  C   UNL     1      -6.525  -5.885  10.257  1.00  0.00     0.167 A 
ATOM      5  C   UNL     1      -7.048  -7.015   9.677  1.00  0.00     0.231 A 
ENDROOT
BRANCH   4   6
ATOM      6  C   UNL     1      -7.179  -4.984  11.190  1.00  0.00     0.273 C 
ATOM      7  N   UNL     1      -7.978  -4.075  10.545  1.00  0.00    -0.341 N 
ATOM      8  O   UNL     1      -7.009  -5.024  12.402  1.00  0.00    -0.267 OA
ATOM      9  H   UNL     1      -7.948  -4.103   9.530  1.00  0.00     0.164 HD
BRANCH   7  10
ATOM     10  C   UNL     1      -8.548  -2.915  11.202  1.00  0.00     0.145 C 
BRANCH  10  11
ATOM     11  C   UNL     1      -7.619  -1.738  10.946  1.00  0.00     0.116 A 
ATOM     12  S   UNL     1      -7.801  -0.289  11.862  1.00  0.00    -0.124 S 
ATOM     13  C   UNL     1      -6.469   0.393  11.035  1.00  0.00     0.101 A 
ATOM     14  N   UNL     1      -6.636  -1.726  10.060  1.00  0.00    -0.234 NA
ATOM     15  C   UNL     1      -5.958  -0.506  10.119  1.00  0.00     0.139 A 
BRANCH  15  16
ATOM     16  C   UNL     1      -4.796  -0.230   9.271  1.00  0.00     0.271 C 
ATOM     17  O   UNL     1      -4.374   0.904   9.070  1.00  0.00    -0.267 OA
ATOM     18  N   UNL     1      -4.228  -1.363   8.729  1.00  0.00    -0.339 N 
ATOM     19  H   UNL     1      -4.736  -2.231   8.880  1.00  0.00     0.164 HD
BRANCH  18  20
ATOM     20  C   UNL     1      -3.104  -1.276   7.806  1.00  0.00     0.168 CG0
ATOM     21  C   UNL     1      -1.778  -1.555   8.516  1.00  0.00     0.041 C 
ATOM     22  G   UNL     1      -3.224  -2.259   6.630  1.00  0.00     0.000 G0
ENDBRANCH  18  20
ENDBRANCH  15  16
ENDBRANCH  10  11
BRANCH  10  23
ATOM     23  C   UNL     1     -10.002  -2.633  10.737  1.00  0.00     0.015 C 
ATOM     24  C   UNL     1     -10.853  -1.918  11.800  1.00  0.00     0.010 C 
BRANCH  23  25
ATOM     25  C   UNL     1     -10.063  -1.820   9.425  1.00  0.00     0.002 C 
ATOM     26  C   UNL     1     -11.277  -2.131   8.560  1.00  0.00     0.004 C 
ENDBRANCH  23  25
ENDBRANCH  10  23
ENDBRANCH   7  10
ENDBRANCH   4   6
BRANCH   3  27
ATOM     27  C   UNL     1      -3.730  -7.073   8.300  1.00  0.00     0.171 C 
BRANCH  27  28
ATOM     28  N   UNL     1      -3.271  -5.865   7.624  1.00  0.00    -0.342 N 
ATOM     29  C   UNL     1      -2.831  -5.859   6.319  1.00  0.00     0.245 C 
ATOM     30  O   UNL     1      -2.808  -6.872   5.621  1.00  0.00    -0.273 OA
ATOM     31  H   UNL     1      -3.368  -4.969   8.102  1.00  0.00     0.164 HD
BRANCH  29  32
ATOM     32  C   UNL     1      -2.508  -4.467   5.738  1.00  0.00     0.200 C 
BRANCH  32  33
ATOM     33  N   UNL     1      -2.597  -3.482   6.823  1.00  0.00    -0.340 N 
ATOM     34  C   UNL     1      -3.202  -2.258   6.632  1.00  0.00     0.243 CG0
ATOM     35  O   UNL     1      -3.635  -1.912   5.535  1.00  0.00    -0.273 OA
ATOM     36  H   UNL     1      -2.221  -3.727   7.732  1.00  0.00     0.164 HD
ATOM     37  G   UNL     1      -3.102  -1.274   7.808  1.00  0.00     0.000 G0
ENDBRANCH  32  33
BRANCH  32  38
ATOM     38  C   UNL     1      -1.136  -4.456   5.025  1.00  0.00     0.143 C 
ATOM     39  C   UNL     1       0.038  -4.817   5.928  1.00  0.00     0.041 C 
BRANCH  38  40
ATOM     40  O   UNL     1      -1.157  -5.360   3.902  1.00  0.00    -0.391 OA
ATOM     41  H   UNL     1      -1.385  -4.826   3.118  1.00  0.00     0.211 HD
ENDBRANCH  38  40
ENDBRANCH  32  38
ENDBRANCH  29  32
ENDBRANCH  27  28
BRANCH  27  42
ATOM     42  C   UNL     1      -2.596  -7.733   9.121  1.00  0.00     0.015 C 
ATOM     43  C   UNL     1      -1.752  -6.776   9.971  1.00  0.00     0.010 C 
ATOM     44  C   UNL     1      -3.110  -8.893   9.980  1.00  0.00     0.010 C 
ENDBRANCH  27  42
ENDBRANCH   3  27
TORSDOF 5
ENDMDL
MODEL 3
REMARK VINA RESULT:    -4.621      4.000      7.492
REMARK INTER + INTRA:         -10.553
REMARK INTER:                  -8.109
REMARK INTRA:                  -2.444
REMARK UNBOUND:                -2.285
REMARK SMILES CC[C@H](C)[C@H]1NC(=O)c2coc(n2)[C@H](C(C)C)NC(=O)[C@H]([C@@H](C)O)NC(=O)[C@H](C)NC(=O)c2csc1n2
REMARK SMILES IDX 11 1 13 2 12 3 9 4 10 5 7 6 6 7 8 8 5 10 36 11 35 12 34 13
REMARK SMILES IDX 37 14 33 15 31 16 32 17 30 18 28 20 29 21 3 23 4 24 2 25
REMARK SMILES IDX 1 26 14 27 18 28 19 29 20 30 21 32 25 33 26 34 27 35 22 38
REMARK SMILES IDX 23 39 24 40 15 42 16 43 17 44
REMARK H PARENT 6 9 30 19 18 31 25 36 24 41
REMARK Flexibility Score:   94.900
ROOT
ATOM      1  O   UNL     1      -2.944  -1.183   7.576  1.00  0.00    -0.446 OA
ATOM      2  N   UNL     1      -3.731  -3.279   7.309  1.00  0.00    -0.207 NA
ATOM      3  C   UNL     1      -2.737  -2.441   7.074  1.00  0.00     0.217 A 
ATOM      4  C   UNL     1      -4.640  -2.531   8.036  1.00  0.00     0.167 A 
ATOM      5  C   UNL     1      -4.155  -1.256   8.195  1.00  0.00     0.231 A 
ENDROOT
BRANCH   4   6
ATOM      6  C   UNL     1      -5.910  -3.060   8.502  1.00  0.00     0.273 C 
ATOM      7  N   UNL     1      -5.858  -3.419   9.825  1.00  0.00    -0.341 N 
ATOM      8  O   UNL     1      -6.895  -3.189   7.784  1.00  0.00    -0.267 OA
ATOM      9  H   UNL     1      -4.947  -3.341  10.267  1.00  0.00     0.164 HD
BRANCH   7  10
ATOM     10  C   UNL     1      -6.895  -4.196  10.476  1.00  0.00     0.145 C 
BRANCH  10  11
ATOM     11  C   UNL     1      -6.528  -5.666  10.330  1.00  0.00     0.116 A 
ATOM     12  S   UNL     1      -7.770  -6.861  10.339  1.00  0.00    -0.124 S 
ATOM     13  C   UNL     1      -6.591  -8.077  10.104  1.00  0.00     0.101 A 
ATOM     14  N   UNL     1      -5.299  -6.130  10.176  1.00  0.00    -0.234 NA
ATOM     15  C   UNL     1      -5.330  -7.519  10.028  1.00  0.00     0.139 A 
BRANCH  15  16
ATOM     16  C   UNL     1      -4.109  -8.296   9.804  1.00  0.00     0.271 C 
ATOM     17  O   UNL     1      -3.993  -9.467  10.150  1.00  0.00    -0.267 OA
ATOM     18  N   UNL     1      -3.113  -7.586   9.167  1.00  0.00    -0.339 N 
ATOM     19  H   UNL     1      -3.291  -6.594   9.033  1.00  0.00     0.164 HD
BRANCH  18  20
ATOM     20  C   UNL     1      -1.805  -8.177   8.921  1.00  0.00     0.168 CG0
ATOM     21  C   UNL     1      -1.671  -8.648   7.472  1.00  0.00     0.041 C 
ATOM     22  G   UNL     1      -0.650  -7.203   9.208  1.00  0.00     0.000 G0
ENDBRANCH  18  20
ENDBRANCH  15  16
ENDBRANCH  10  11
BRANCH  10  23
ATOM     23  C   UNL     1      -7.095  -3.781  11.958  1.00  0.00     0.015 C 
ATOM     24  C   UNL     1      -5.774  -3.615  12.727  1.00  0.00     0.010 C 
BRANCH  23  25
ATOM     25  C   UNL     1      -7.923  -2.485  12.109  1.00  0.00     0.002 C 
ATOM     26  C   UNL     1      -9.427  -2.695  11.996  1.00  0.00     0.004 C 
ENDBRANCH  23  25
ENDBRANCH  10  23
ENDBRANCH   7  10
ENDBRANCH   4   6
BRANCH   3  27
ATOM     27  C   UNL     1      -1.481  -2.719   6.294  1.00  0.00     0.171 C 
BRANCH  27  28
ATOM     28  N   UNL     1      -0.849  -3.900   6.871  1.00  0.00    -0.342 N 
ATOM     29  C   UNL     1       0.114  -3.828   7.852  1.00  0.00     0.245 C 
ATOM     30  O   UNL     1       0.502  -2.761   8.326  1.00  0.00    -0.273 OA
ATOM     31  H   UNL     1      -1.201  -4.821   6.611  1.00  0.00     0.164 HD
BRANCH  29  32
ATOM     32  C   UNL     1       0.571  -5.185   8.429  1.00  0.00     0.200 C 
BRANCH  32  33
ATOM     33  N   UNL     1      -0.553  -6.125   8.341  1.00  0.00    -0.340 N 
ATOM     34  C   UNL     1      -0.665  -7.190   9.210  1.00  0.00     0.243 CG0
ATOM     35  O   UNL     1       0.198  -7.436  10.051  1.00  0.00    -0.273 OA
ATOM     36  H   UNL     1      -1.265  -5.965   7.638  1.00  0.00     0.164 HD
ATOM     37  G   UNL     1      -1.812  -8.171   8.918  1.00  0.00     0.000 G0
ENDBRANCH  32  33
BRANCH  32  38
ATOM     38  C   UNL     1       1.845  -5.700   7.721  1.00  0.00     0.143 C 
ATOM     39  C   UNL     1       1.582  -6.376   6.380  1.00  0.00     0.041 C 
BRANCH  38  40
ATOM     40  O   UNL     1       2.772  -4.615   7.523  1.00  0.00    -0.391 OA
ATOM     41  H   UNL     1       3.098  -4.689   6.606  1.00  0.00     0.211 HD
ENDBRANCH  38  40
ENDBRANCH  32  38
ENDBRANCH  29  32
ENDBRANCH  27  28
BRANCH  27  42
ATOM     42  C   UNL     1      -1.609  -2.836   4.755  1.00  0.00     0.015 C 
ATOM     43  C   UNL     1      -2.217  -1.619   4.048  1.00  0.00     0.010 C 
ATOM     44  C   UNL     1      -0.280  -3.223   4.098  1.00  0.00     0.010 C 
ENDBRANCH  27  42
ENDBRANCH   3  27
TORSDOF 5
ENDMDL
MODEL 4
REMARK VINA RESULT:    -4.397      3.722      7.124
REMARK INTER + INTRA:         -10.152
REMARK INTER:                  -7.783
REMARK INTRA:                  -2.369
REMARK UNBOUND:                -2.285
REMARK SMILES CC[C@H](C)[C@H]1NC(=O)c2coc(n2)[C@H](C(C)C)NC(=O)[C@H]([C@@H](C)O)NC(=O)[C@H](C)NC(=O)c2csc1n2
REMARK SMILES IDX 11 1 13 2 12 3 9 4 10 5 7 6 6 7 8 8 5 10 36 11 35 12 34 13
REMARK SMILES IDX 37 14 33 15 31 16 32 17 30 18 28 20 29 21 3 23 4 24 2 25
REMARK SMILES IDX 1 26 14 27 18 28 19 29 20 30 21 32 25 33 26 34 27 35 22 38
REMARK SMILES IDX 23 39 24 40 15 42 16 43 17 44
REMARK H PARENT 6 9 30 19 18 31 25 36 24 41
REMARK Flexibility Score:   94.900
ROOT
ATOM      1  O   UNL     1      -2.682  -3.259   5.157  1.00  0.00    -0.446 OA
ATOM      2  N   UNL     1      -1.928  -3.927   7.173  1.00  0.00    -0.207 NA
ATOM      3  C   UNL     1      -2.917  -3.365   6.502  1.00  0.00     0.217 A 
ATOM      4  C   UNL     1      -0.991  -4.235   6.202  1.00  0.00     0.167 A 
ATOM      5  C   UNL     1      -1.457  -3.826   4.976  1.00  0.00     0.231 A 
ENDROOT
BRANCH   4   6
ATOM      6  C   UNL     1       0.284  -4.864   6.500  1.00  0.00     0.273 C 
ATOM      7  N   UNL     1       0.184  -6.232   6.527  1.00  0.00    -0.341 N 
ATOM      8  O   UNL     1       1.313  -4.237   6.725  1.00  0.00    -0.267 OA
ATOM      9  H   UNL     1      -0.753  -6.607   6.413  1.00  0.00     0.164 HD
BRANCH   7  10
ATOM     10  C   UNL     1       1.233  -7.093   7.037  1.00  0.00     0.145 C 
BRANCH  10  11
ATOM     11  C   UNL     1       0.698  -7.779   8.286  1.00  0.00     0.116 A 
ATOM     12  S   UNL     1       1.630  -9.012   9.049  1.00  0.00    -0.124 S 
ATOM     13  C   UNL     1       0.424  -9.168  10.251  1.00  0.00     0.101 A 
ATOM     14  N   UNL     1      -0.454  -7.497   8.872  1.00  0.00    -0.234 NA
ATOM     15  C   UNL     1      -0.610  -8.283  10.016  1.00  0.00     0.139 A 
BRANCH  15  16
ATOM     16  C   UNL     1      -1.782  -8.154  10.884  1.00  0.00     0.271 C 
ATOM     17  O   UNL     1      -1.822  -8.614  12.020  1.00  0.00    -0.267 OA
ATOM     18  N   UNL     1      -2.827  -7.467  10.302  1.00  0.00    -0.339 N 
ATOM     19  H   UNL     1      -2.712  -7.234   9.319  1.00  0.00     0.164 HD
BRANCH  18  20
ATOM     20  C   UNL     1      -4.098  -7.300  10.992  1.00  0.00     0.168 CG0
ATOM     21  C   UNL     1      -4.029  -6.169  12.020  1.00  0.00     0.041 C 
ATOM     22  G   UNL     1      -5.259  -6.993  10.032  1.00  0.00     0.000 G0
ENDBRANCH  18  20
ENDBRANCH  15  16
ENDBRANCH  10  11
BRANCH  10  23
ATOM     23  C   UNL     1       1.730  -8.106   5.973  1.00  0.00     0.015 C 
ATOM     24  C   UNL     1       0.653  -8.481   4.940  1.00  0.00     0.010 C 
BRANCH  23  25
ATOM     25  C   UNL     1       2.987  -7.614   5.220  1.00  0.00     0.002 C 
ATOM     26  C   UNL     1       3.929  -6.775   6.072  1.00  0.00     0.004 C 
ENDBRANCH  23  25
ENDBRANCH  10  23
ENDBRANCH   7  10
ENDBRANCH   4   6
BRANCH   3  27
ATOM     27  C   UNL     1      -4.195  -2.809   7.067  1.00  0.00     0.171 C 
BRANCH  27  28
ATOM     28  N   UNL     1      -4.786  -3.830   7.925  1.00  0.00    -0.342 N 
ATOM     29  C   UNL     1      -6.145  -3.962   8.103  1.00  0.00     0.245 C 
ATOM     30  O   UNL     1      -6.963  -3.238   7.539  1.00  0.00    -0.273 OA
ATOM     31  H   UNL     1      -4.177  -4.537   8.335  1.00  0.00     0.164 HD
BRANCH  29  32
ATOM     32  C   UNL     1      -6.585  -5.179   8.944  1.00  0.00     0.200 C 
BRANCH  32  33
ATOM     33  N   UNL     1      -5.431  -5.640   9.726  1.00  0.00    -0.340 N 
ATOM     34  C   UNL     1      -5.256  -6.976  10.025  1.00  0.00     0.243 CG0
ATOM     35  O   UNL     1      -6.086  -7.826   9.708  1.00  0.00    -0.273 OA
ATOM     36  H   UNL     1      -4.746  -4.958  10.028  1.00  0.00     0.164 HD
ATOM     37  G   UNL     1      -4.084  -7.300  10.965  1.00  0.00     0.000 G0
ENDBRANCH  32  33
BRANCH  32  38
ATOM     38  C   UNL     1      -7.813  -4.846   9.821  1.00  0.00     0.143 C 
ATOM     39  C   UNL     1      -7.562  -3.754  10.855  1.00  0.00     0.041 C 
BRANCH  38  40
ATOM     40  O   UNL     1      -8.922  -4.455   8.988  1.00  0.00    -0.391 OA
ATOM     41  H   UNL     1      -8.885  -5.017   8.192  1.00  0.00     0.211 HD
ENDBRANCH  38  40
ENDBRANCH  32  38
ENDBRANCH  29  32
ENDBRANCH  27  28
BRANCH  27  42
ATOM     42  C   UNL     1      -4.121  -1.437   7.781  1.00  0.00     0.015 C 
ATOM     43  C   UNL     1      -3.802  -1.489   9.280  1.00  0.00     0.010 C 
ATOM     44  C   UNL     1      -3.170  -0.470   7.068  1.00  0.00     0.010 C 
ENDBRANCH  27  42
ENDBRANCH   3  27
TORSDOF 5
ENDMDL
MODEL 5
REMARK VINA RESULT:    -4.310      1.848      2.399
REMARK INTER + INTRA:          -9.996
REMARK INTER:                  -7.732
REMARK INTRA:                  -2.264
REMARK UNBOUND:                -2.285
REMARK SMILES CC[C@H](C)[C@H]1NC(=O)c2coc(n2)[C@H](C(C)C)NC(=O)[C@H]([C@@H](C)O)NC(=O)[C@H](C)NC(=O)c2csc1n2
REMARK SMILES IDX 11 1 13 2 12 3 9 4 10 5 7 6 6 7 8 8 5 10 36 11 35 12 34 13
REMARK SMILES IDX 37 14 33 15 31 16 32 17 30 18 28 20 29 21 3 23 4 24 2 25
REMARK SMILES IDX 1 26 14 27 18 28 19 29 20 30 21 32 25 33 26 34 27 35 22 38
REMARK SMILES IDX 23 39 24 40 15 42 16 43 17 44
REMARK H PARENT 6 9 30 19 18 31 25 36 24 41
REMARK Flexibility Score:   94.900
ROOT
ATOM      1  O   UNL     1      -0.614  -4.032   4.530  1.00  0.00    -0.446 OA
ATOM      2  N   UNL     1      -1.060  -2.895   6.425  1.00  0.00    -0.207 NA
ATOM      3  C   UNL     1      -0.638  -4.032   5.899  1.00  0.00     0.217 A 
ATOM      4  C   UNL     1      -1.304  -2.085   5.330  1.00  0.00     0.167 A 
ATOM      5  C   UNL     1      -1.030  -2.783   4.179  1.00  0.00     0.231 A 
ENDROOT
BRANCH   4   6
ATOM      6  C   UNL     1      -1.804  -0.726   5.444  1.00  0.00     0.273 C 
ATOM      7  N   UNL     1      -1.401  -0.131   6.613  1.00  0.00    -0.341 N 
ATOM      8  O   UNL     1      -2.519  -0.194   4.604  1.00  0.00    -0.267 OA
ATOM      9  H   UNL     1      -0.888  -0.727   7.256  1.00  0.00     0.164 HD
BRANCH   7  10
ATOM     10  C   UNL     1      -1.952   1.119   7.096  1.00  0.00     0.145 C 
BRANCH  10  11
ATOM     11  C   UNL     1      -2.966   0.787   8.181  1.00  0.00     0.116 A 
ATOM     12  S   UNL     1      -3.310   1.943   9.413  1.00  0.00    -0.124 S 
ATOM     13  C   UNL     1      -4.455   0.869  10.090  1.00  0.00     0.101 A 
ATOM     14  N   UNL     1      -3.646  -0.345   8.262  1.00  0.00    -0.234 NA
ATOM     15  C   UNL     1      -4.519  -0.297   9.352  1.00  0.00     0.139 A 
BRANCH  15  16
ATOM     16  C   UNL     1      -5.426  -1.405   9.661  1.00  0.00     0.271 C 
ATOM     17  O   UNL     1      -6.596  -1.236   9.984  1.00  0.00    -0.267 OA
ATOM     18  N   UNL     1      -4.836  -2.646   9.552  1.00  0.00    -0.339 N 
ATOM     19  H   UNL     1      -3.833  -2.649   9.386  1.00  0.00     0.164 HD
BRANCH  18  20
ATOM     20  C   UNL     1      -5.566  -3.861   9.887  1.00  0.00     0.168 CG0
ATOM     21  C   UNL     1      -6.520  -4.265   8.760  1.00  0.00     0.041 C 
ATOM     22  G   UNL     1      -4.639  -5.054  10.168  1.00  0.00     0.000 G0
ENDBRANCH  18  20
ENDBRANCH  15  16
ENDBRANCH  10  11
BRANCH  10  23
ATOM     23  C   UNL     1      -0.850   2.092   7.594  1.00  0.00     0.015 C 
ATOM     24  C   UNL     1       0.539   1.439   7.690  1.00  0.00     0.010 C 
BRANCH  23  25
ATOM     25  C   UNL     1      -0.740   3.366   6.726  1.00  0.00     0.002 C 
ATOM     26  C   UNL     1      -2.079   4.017   6.410  1.00  0.00     0.004 C 
ENDBRANCH  23  25
ENDBRANCH  10  23
ENDBRANCH   7  10
ENDBRANCH   4   6
BRANCH   3  27
ATOM     27  C   UNL     1      -0.253  -5.285   6.637  1.00  0.00     0.171 C 
BRANCH  27  28
ATOM     28  N   UNL     1      -1.440  -5.778   7.328  1.00  0.00    -0.342 N 
ATOM     29  C   UNL     1      -1.442  -6.110   8.664  1.00  0.00     0.245 C 
ATOM     30  O   UNL     1      -0.447  -6.000   9.379  1.00  0.00    -0.273 OA
ATOM     31  H   UNL     1      -2.329  -5.787   6.829  1.00  0.00     0.164 HD
BRANCH  29  32
ATOM     32  C   UNL     1      -2.820  -6.490   9.247  1.00  0.00     0.200 C 
BRANCH  32  33
ATOM     33  N   UNL     1      -3.695  -5.314   9.163  1.00  0.00    -0.340 N 
ATOM     34  C   UNL     1      -4.615  -5.035  10.152  1.00  0.00     0.243 CG0
ATOM     35  O   UNL     1      -4.788  -5.786  11.109  1.00  0.00    -0.273 OA
ATOM     36  H   UNL     1      -3.597  -4.692   8.369  1.00  0.00     0.164 HD
ATOM     37  G   UNL     1      -5.559  -3.854   9.870  1.00  0.00     0.000 G0
ENDBRANCH  32  33
BRANCH  32  38
ATOM     38  C   UNL     1      -3.410  -7.732   8.541  1.00  0.00     0.143 C 
ATOM     39  C   UNL     1      -2.519  -8.968   8.608  1.00  0.00     0.041 C 
BRANCH  38  40
ATOM     40  O   UNL     1      -4.697  -8.054   9.102  1.00  0.00    -0.391 OA
ATOM     41  H   UNL     1      -4.778  -7.538   9.927  1.00  0.00     0.211 HD
ENDBRANCH  38  40
ENDBRANCH  32  38
ENDBRANCH  29  32
ENDBRANCH  27  28
BRANCH  27  42
ATOM     42  C   UNL     1       0.441  -6.406   5.825  1.00  0.00     0.015 C 
ATOM     43  C   UNL     1       1.853  -6.780   6.289  1.00  0.00     0.010 C 
ATOM     44  C   UNL     1      -0.432  -7.660   5.718  1.00  0.00     0.010 C 
ENDBRANCH  27  42
ENDBRANCH   3  27
TORSDOF 5
ENDMDL
MODEL 6
REMARK VINA RESULT:    -3.921      3.310      5.153
REMARK INTER + INTRA:          -9.301
REMARK INTER:                  -6.836
REMARK INTRA:                  -2.466
REMARK UNBOUND:                -2.285
REMARK SMILES CC[C@H](C)[C@H]1NC(=O)c2coc(n2)[C@H](C(C)C)NC(=O)[C@H]([C@@H](C)O)NC(=O)[C@H](C)NC(=O)c2csc1n2
REMARK SMILES IDX 11 1 13 2 12 3 9 4 10 5 7 6 6 7 8 8 5 10 36 11 35 12 34 13
REMARK SMILES IDX 37 14 33 15 31 16 32 17 30 18 28 20 29 21 3 23 4 24 2 25
REMARK SMILES IDX 1 26 14 27 18 28 19 29 20 30 21 32 25 33 26 34 27 35 22 38
REMARK SMILES IDX 23 39 24 40 15 42 16 43 17 44
REMARK H PARENT 6 9 30 19 18 31 25 36 24 41
REMARK Flexibility Score:   94.900
ROOT
ATOM      1  O   UNL     1       0.187  -6.188   4.811  1.00  0.00    -0.446 OA
ATOM      2  N   UNL     1      -0.454  -4.815   6.480  1.00  0.00    -0.207 NA
ATOM      3  C   UNL     1       0.323  -5.821   6.123  1.00  0.00     0.217 A 
ATOM      4  C   UNL     1      -1.128  -4.479   5.319  1.00  0.00     0.167 A 
ATOM      5  C   UNL     1      -0.733  -5.318   4.306  1.00  0.00     0.231 A 
ENDROOT
BRANCH   4   6
ATOM      6  C   UNL     1      -2.114  -3.414   5.253  1.00  0.00     0.273 C 
ATOM      7  N   UNL     1      -2.121  -2.655   6.395  1.00  0.00    -0.341 N 
ATOM      8  O   UNL     1      -2.862  -3.241   4.298  1.00  0.00    -0.267 OA
ATOM      9  H   UNL     1      -1.509  -2.974   7.141  1.00  0.00     0.164 HD
BRANCH   7  10
ATOM     10  C   UNL     1      -3.161  -1.692   6.700  1.00  0.00     0.145 C 
BRANCH  10  11
ATOM     11  C   UNL     1      -4.002  -2.264   7.832  1.00  0.00     0.116 A 
ATOM     12  S   UNL     1      -5.077  -1.237   8.702  1.00  0.00    -0.124 S 
ATOM     13  C   UNL     1      -5.580  -2.572   9.643  1.00  0.00     0.101 A 
ATOM     14  N   UNL     1      -3.995  -3.530   8.216  1.00  0.00    -0.234 NA
ATOM     15  C   UNL     1      -4.916  -3.718   9.249  1.00  0.00     0.139 A 
BRANCH  15  16
ATOM     16  C   UNL     1      -5.146  -5.036   9.845  1.00  0.00     0.271 C 
ATOM     17  O   UNL     1      -6.212  -5.356  10.360  1.00  0.00    -0.267 OA
ATOM     18  N   UNL     1      -4.053  -5.874   9.768  1.00  0.00    -0.339 N 
ATOM     19  H   UNL     1      -3.196  -5.454   9.419  1.00  0.00     0.164 HD
BRANCH  18  20
ATOM     20  C   UNL     1      -4.076  -7.201  10.368  1.00  0.00     0.168 CG0
ATOM     21  C   UNL     1      -4.656  -8.238   9.403  1.00  0.00     0.041 C 
ATOM     22  G   UNL     1      -2.681  -7.684  10.795  1.00  0.00     0.000 G0
ENDBRANCH  18  20
ENDBRANCH  15  16
ENDBRANCH  10  11
BRANCH  10  23
ATOM     23  C   UNL     1      -2.583  -0.293   7.042  1.00  0.00     0.015 C 
ATOM     24  C   UNL     1      -1.069  -0.310   7.313  1.00  0.00     0.010 C 
BRANCH  23  25
ATOM     25  C   UNL     1      -2.878   0.760   5.950  1.00  0.00     0.002 C 
ATOM     26  C   UNL     1      -2.515   2.184   6.349  1.00  0.00     0.004 C 
ENDBRANCH  23  25
ENDBRANCH  10  23
ENDBRANCH   7  10
ENDBRANCH   4   6
BRANCH   3  27
ATOM     27  C   UNL     1       1.261  -6.599   7.005  1.00  0.00     0.171 C 
BRANCH  27  28
ATOM     28  N   UNL     1       0.457  -7.475   7.851  1.00  0.00    -0.342 N 
ATOM     29  C   UNL     1       0.575  -7.504   9.222  1.00  0.00     0.245 C 
ATOM     30  O   UNL     1       1.357  -6.782   9.838  1.00  0.00    -0.273 OA
ATOM     31  H   UNL     1      -0.292  -8.018   7.422  1.00  0.00     0.164 HD
BRANCH  29  32
ATOM     32  C   UNL     1      -0.449  -8.398   9.953  1.00  0.00     0.200 C 
BRANCH  32  33
ATOM     33  N   UNL     1      -1.789  -7.842   9.729  1.00  0.00    -0.340 N 
ATOM     34  C   UNL     1      -2.674  -7.666  10.772  1.00  0.00     0.243 CG0
ATOM     35  O   UNL     1      -2.408  -8.023  11.918  1.00  0.00    -0.273 OA
ATOM     36  H   UNL     1      -2.049  -7.567   8.789  1.00  0.00     0.164 HD
ATOM     37  G   UNL     1      -4.087  -7.205  10.377  1.00  0.00     0.000 G0
ENDBRANCH  32  33
BRANCH  32  38
ATOM     38  C   UNL     1      -0.327  -9.875   9.511  1.00  0.00     0.143 C 
ATOM     39  C   UNL     1      -1.384 -10.312   8.503  1.00  0.00     0.041 C 
BRANCH  38  40
ATOM     40  O   UNL     1       0.979 -10.116   8.952  1.00  0.00    -0.391 OA
ATOM     41  H   UNL     1       1.587 -10.236   9.706  1.00  0.00     0.211 HD
ENDBRANCH  38  40
ENDBRANCH  32  38
ENDBRANCH  29  32
ENDBRANCH  27  28
BRANCH  27  42
ATOM     42  C   UNL     1       2.412  -7.373   6.316  1.00  0.00     0.015 C 
ATOM     43  C   UNL     1       3.740  -7.403   7.081  1.00  0.00     0.010 C 
ATOM     44  C   UNL     1       1.993  -8.793   5.924  1.00  0.00     0.010 C 
ENDBRANCH  27  42
ENDBRANCH   3  27
TORSDOF 5
ENDMDL
MODEL 7
REMARK VINA RESULT:    -3.921      4.492      7.680
REMARK INTER + INTRA:          -9.301
REMARK INTER:                  -6.744
REMARK INTRA:                  -2.557
REMARK UNBOUND:                -2.285
REMARK SMILES CC[C@H](C)[C@H]1NC(=O)c2coc(n2)[C@H](C(C)C)NC(=O)[C@H]([C@@H](C)O)NC(=O)[C@H](C)NC(=O)c2csc1n2
REMARK SMILES IDX 11 1 13 2 12 3 9 4 10 5 7 6 6 7 8 8 5 10 36 11 35 12 34 13
REMARK SMILES IDX 37 14 33 15 31 16 32 17 30 18 28 20 29 21 3 23 4 24 2 25
REMARK SMILES IDX 1 26 14 27 18 28 19 29 20 30 21 32 25 33 26 34 27 35 22 38
REMARK SMILES IDX 23 39 24 40 15 42 16 43 17 44
REMARK H PARENT 6 9 30 19 18 31 25 36 24 41
REMARK Flexibility Score:   94.900
ROOT
ATOM      1  O   UNL     1      -2.687  -4.365   6.163  1.00  0.00    -0.446 OA
ATOM      2  N   UNL     1      -1.430  -4.151   8.022  1.00  0.00    -0.207 NA
ATOM      3  C   UNL     1      -2.621  -3.984   7.477  1.00  0.00     0.217 A 
ATOM      4  C   UNL     1      -0.667  -4.704   7.008  1.00  0.00     0.167 A 
ATOM      5  C   UNL     1      -1.439  -4.832   5.879  1.00  0.00     0.231 A 
ENDROOT
BRANCH   4   6
ATOM      6  C   UNL     1       0.736  -5.044   7.165  1.00  0.00     0.273 C 
ATOM      7  N   UNL     1       0.968  -6.375   6.925  1.00  0.00    -0.341 N 
ATOM      8  O   UNL     1       1.596  -4.237   7.498  1.00  0.00    -0.267 OA
ATOM      9  H   UNL     1       0.143  -6.941   6.750  1.00  0.00     0.164 HD
BRANCH   7  10
ATOM     10  C   UNL     1       2.220  -7.031   7.248  1.00  0.00     0.145 C 
BRANCH  10  11
ATOM     11  C   UNL     1       1.994  -7.863   8.502  1.00  0.00     0.116 A 
ATOM     12  S   UNL     1       3.208  -8.969   9.024  1.00  0.00    -0.124 S 
ATOM     13  C   UNL     1       2.240  -9.385  10.369  1.00  0.00     0.101 A 
ATOM     14  N   UNL     1       0.916  -7.805   9.266  1.00  0.00    -0.234 NA
ATOM     15  C   UNL     1       1.059  -8.668  10.355  1.00  0.00     0.139 A 
BRANCH  15  16
ATOM     16  C   UNL     1       0.028  -8.780  11.389  1.00  0.00     0.271 C 
ATOM     17  O   UNL     1       0.146  -9.507  12.369  1.00  0.00    -0.267 OA
ATOM     18  N   UNL     1      -1.077  -7.990  11.153  1.00  0.00    -0.339 N 
ATOM     19  H   UNL     1      -1.102  -7.519  10.252  1.00  0.00     0.164 HD
BRANCH  18  20
ATOM     20  C   UNL     1      -2.232  -8.022  12.040  1.00  0.00     0.168 CG0
ATOM     21  C   UNL     1      -2.163  -6.905  13.083  1.00  0.00     0.041 C 
ATOM     22  G   UNL     1      -3.564  -7.881  11.287  1.00  0.00     0.000 G0
ENDBRANCH  18  20
ENDBRANCH  15  16
ENDBRANCH  10  11
BRANCH  10  23
ATOM     23  C   UNL     1       2.760  -7.878   6.065  1.00  0.00     0.015 C 
ATOM     24  C   UNL     1       1.665  -8.306   5.074  1.00  0.00     0.010 C 
BRANCH  23  25
ATOM     25  C   UNL     1       3.884  -7.163   5.282  1.00  0.00     0.002 C 
ATOM     26  C   UNL     1       4.430  -5.923   5.976  1.00  0.00     0.004 C 
ENDBRANCH  23  25
ENDBRANCH  10  23
ENDBRANCH   7  10
ENDBRANCH   4   6
BRANCH   3  27
ATOM     27  C   UNL     1      -3.840  -3.388   8.126  1.00  0.00     0.171 C 
BRANCH  27  28
ATOM     28  N   UNL     1      -4.252  -4.279   9.205  1.00  0.00    -0.342 N 
ATOM     29  C   UNL     1      -4.960  -5.440   8.987  1.00  0.00     0.245 C 
ATOM     30  O   UNL     1      -5.284  -5.820   7.863  1.00  0.00    -0.273 OA
ATOM     31  H   UNL     1      -3.921  -4.090  10.151  1.00  0.00     0.164 HD
BRANCH  29  32
ATOM     32  C   UNL     1      -5.192  -6.316  10.236  1.00  0.00     0.200 C 
BRANCH  32  33
ATOM     33  N   UNL     1      -3.888  -6.603  10.846  1.00  0.00    -0.340 N 
ATOM     34  C   UNL     1      -3.561  -7.873  11.274  1.00  0.00     0.243 CG0
ATOM     35  O   UNL     1      -4.364  -8.802  11.223  1.00  0.00    -0.273 OA
ATOM     36  H   UNL     1      -3.215  -5.850  10.930  1.00  0.00     0.164 HD
ATOM     37  G   UNL     1      -2.222  -8.002  12.017  1.00  0.00     0.000 G0
ENDBRANCH  32  33
BRANCH  32  38
ATOM     38  C   UNL     1      -6.183  -5.650  11.218  1.00  0.00     0.143 C 
ATOM     39  C   UNL     1      -5.519  -4.987  12.419  1.00  0.00     0.041 C 
BRANCH  38  40
ATOM     40  O   UNL     1      -6.980  -4.670  10.524  1.00  0.00    -0.391 OA
ATOM     41  H   UNL     1      -6.854  -3.824  10.995  1.00  0.00     0.211 HD
ENDBRANCH  38  40
ENDBRANCH  32  38
ENDBRANCH  29  32
ENDBRANCH  27  28
BRANCH  27  42
ATOM     42  C   UNL     1      -3.747  -1.918   8.605  1.00  0.00     0.015 C 
ATOM     43  C   UNL     1      -3.456  -0.884   7.512  1.00  0.00     0.010 C 
ATOM     44  C   UNL     1      -4.977  -1.501   9.417  1.00  0.00     0.010 C 
ENDBRANCH  27  42
ENDBRANCH   3  27
TORSDOF 5
ENDMDL
MODEL 8
REMARK VINA RESULT:    -3.872      4.527      8.366
REMARK INTER + INTRA:          -9.214
REMARK INTER:                  -6.935
REMARK INTRA:                  -2.278
REMARK UNBOUND:                -2.285
REMARK SMILES CC[C@H](C)[C@H]1NC(=O)c2coc(n2)[C@H](C(C)C)NC(=O)[C@H]([C@@H](C)O)NC(=O)[C@H](C)NC(=O)c2csc1n2
REMARK SMILES IDX 11 1 13 2 12 3 9 4 10 5 7 6 6 7 8 8 5 10 36 11 35 12 34 13
REMARK SMILES IDX 37 14 33 15 31 16 32 17 30 18 28 20 29 21 3 23 4 24 2 25
REMARK SMILES IDX 1 26 14 27 18 28 19 29 20 30 21 32 25 33 26 34 27 35 22 38
REMARK SMILES IDX 23 39 24 40 15 42 16 43 17 44
REMARK H PARENT 6 9 30 19 18 31 25 36 24 41
REMARK Flexibility Score:   94.900
ROOT
ATOM      1  O   UNL     1      -2.008  -4.942   4.777  1.00  0.00    -0.446 OA
ATOM      2  N   UNL     1      -0.880  -4.941   6.729  1.00  0.00    -0.207 NA
ATOM      3  C   UNL     1      -1.952  -4.523   6.080  1.00  0.00     0.217 A 
ATOM      4  C   UNL     1      -0.199  -5.708   5.800  1.00  0.00     0.167 A 
ATOM      5  C   UNL     1      -0.891  -5.705   4.614  1.00  0.00     0.231 A 
ENDROOT
BRANCH   4   6
ATOM      6  C   UNL     1       1.066  -6.363   6.086  1.00  0.00     0.273 C 
ATOM      7  N   UNL     1       0.953  -7.730   6.047  1.00  0.00    -0.341 N 
ATOM      8  O   UNL     1       2.097  -5.758   6.353  1.00  0.00    -0.267 OA
ATOM      9  H   UNL     1       0.014  -8.090   5.904  1.00  0.00     0.164 HD
BRANCH   7  10
ATOM     10  C   UNL     1       1.986  -8.624   6.531  1.00  0.00     0.145 C 
BRANCH  10  11
ATOM     11  C   UNL     1       1.440  -9.336   7.760  1.00  0.00     0.116 A 
ATOM     12  S   UNL     1       2.523 -10.138   8.835  1.00  0.00    -0.124 S 
ATOM     13  C   UNL     1       1.203 -10.567   9.832  1.00  0.00     0.101 A 
ATOM     14  N   UNL     1       0.163  -9.387   8.102  1.00  0.00    -0.234 NA
ATOM     15  C   UNL     1       0.021 -10.082   9.305  1.00  0.00     0.139 A 
BRANCH  15  16
ATOM     16  C   UNL     1      -1.286 -10.260   9.942  1.00  0.00     0.271 C 
ATOM     17  O   UNL     1      -1.739 -11.362  10.233  1.00  0.00    -0.267 OA
ATOM     18  N   UNL     1      -1.949  -9.075  10.180  1.00  0.00    -0.339 N 
ATOM     19  H   UNL     1      -1.518  -8.240   9.792  1.00  0.00     0.164 HD
BRANCH  18  20
ATOM     20  C   UNL     1      -3.291  -9.062  10.745  1.00  0.00     0.168 CG0
ATOM     21  C   UNL     1      -3.252  -9.098  12.274  1.00  0.00     0.041 C 
ATOM     22  G   UNL     1      -4.101  -7.824  10.325  1.00  0.00     0.000 G0
ENDBRANCH  18  20
ENDBRANCH  15  16
ENDBRANCH  10  11
BRANCH  10  23
ATOM     23  C   UNL     1       2.463  -9.615   5.436  1.00  0.00     0.015 C 
ATOM     24  C   UNL     1       1.584  -9.598   4.175  1.00  0.00     0.010 C 
BRANCH  23  25
ATOM     25  C   UNL     1       3.933  -9.382   5.018  1.00  0.00     0.002 C 
ATOM     26  C   UNL     1       4.210  -7.982   4.488  1.00  0.00     0.004 C 
ENDBRANCH  23  25
ENDBRANCH  10  23
ENDBRANCH   7  10
ENDBRANCH   4   6
BRANCH   3  27
ATOM     27  C   UNL     1      -3.037  -3.624   6.606  1.00  0.00     0.171 C 
BRANCH  27  28
ATOM     28  N   UNL     1      -3.287  -3.992   7.995  1.00  0.00    -0.342 N 
ATOM     29  C   UNL     1      -4.037  -5.090   8.354  1.00  0.00     0.245 C 
ATOM     30  O   UNL     1      -4.538  -5.851   7.528  1.00  0.00    -0.273 OA
ATOM     31  H   UNL     1      -2.810  -3.475   8.733  1.00  0.00     0.164 HD
BRANCH  29  32
ATOM     32  C   UNL     1      -4.083  -5.391   9.867  1.00  0.00     0.200 C 
BRANCH  32  33
ATOM     33  N   UNL     1      -3.403  -6.671  10.103  1.00  0.00    -0.340 N 
ATOM     34  C   UNL     1      -4.116  -7.824  10.357  1.00  0.00     0.243 CG0
ATOM     35  O   UNL     1      -5.341  -7.821  10.461  1.00  0.00    -0.273 OA
ATOM     36  H   UNL     1      -2.391  -6.698  10.054  1.00  0.00     0.164 HD
ATOM     37  G   UNL     1      -3.277  -9.060  10.721  1.00  0.00     0.000 G0
ENDBRANCH  32  33
BRANCH  32  38
ATOM     38  C   UNL     1      -3.485  -4.229  10.693  1.00  0.00     0.143 C 
ATOM     39  C   UNL     1      -3.768  -4.318  12.188  1.00  0.00     0.041 C 
BRANCH  38  40
ATOM     40  O   UNL     1      -2.059  -4.163  10.491  1.00  0.00    -0.391 OA
ATOM     41  H   UNL     1      -1.911  -3.552   9.745  1.00  0.00     0.211 HD
ENDBRANCH  38  40
ENDBRANCH  32  38
ENDBRANCH  29  32
ENDBRANCH  27  28
BRANCH  27  42
ATOM     42  C   UNL     1      -2.836  -2.096   6.449  1.00  0.00     0.015 C 
ATOM     43  C   UNL     1      -1.382  -1.631   6.316  1.00  0.00     0.010 C 
ATOM     44  C   UNL     1      -3.684  -1.522   5.309  1.00  0.00     0.010 C 
ENDBRANCH  27  42
ENDBRANCH   3  27
TORSDOF 5
ENDMDL
MODEL 9
REMARK VINA RESULT:    -3.622      1.666      2.033
REMARK INTER + INTRA:          -8.766
REMARK INTER:                  -7.859
REMARK INTRA:                  -0.907
REMARK UNBOUND:                -2.285
REMARK SMILES CC[C@H](C)[C@H]1NC(=O)c2coc(n2)[C@H](C(C)C)NC(=O)[C@H]([C@@H](C)O)NC(=O)[C@H](C)NC(=O)c2csc1n2
REMARK SMILES IDX 11 1 13 2 12 3 9 4 10 5 7 6 6 7 8 8 5 10 36 11 35 12 34 13
REMARK SMILES IDX 37 14 33 15 31 16 32 17 30 18 28 20 29 21 3 23 4 24 2 25
REMARK SMILES IDX 1 26 14 27 18 28 19 29 20 30 21 32 25 33 26 34 27 35 22 38
REMARK SMILES IDX 23 39 24 40 15 42 16 43 17 44
REMARK H PARENT 6 9 30 19 18 31 25 36 24 41
REMARK Flexibility Score:   94.900
ROOT
ATOM      1  O   UNL     1      -2.383  -5.395   6.206  1.00  0.00    -0.446 OA
ATOM      2  N   UNL     1      -1.924  -3.800   7.732  1.00  0.00    -0.207 NA
ATOM      3  C   UNL     1      -2.262  -5.061   7.529  1.00  0.00     0.217 A 
ATOM      4  C   UNL     1      -1.787  -3.277   6.458  1.00  0.00     0.167 A 
ATOM      5  C   UNL     1      -2.067  -4.253   5.534  1.00  0.00     0.231 A 
ENDROOT
BRANCH   4   6
ATOM      6  C   UNL     1      -1.432  -1.892   6.203  1.00  0.00     0.273 C 
ATOM      7  N   UNL     1      -1.135  -1.220   7.362  1.00  0.00    -0.341 N 
ATOM      8  O   UNL     1      -1.427  -1.388   5.087  1.00  0.00    -0.267 OA
ATOM      9  H   UNL     1      -1.272  -1.744   8.222  1.00  0.00     0.164 HD
BRANCH   7  10
ATOM     10  C   UNL     1      -0.990   0.221   7.428  1.00  0.00     0.145 C 
BRANCH  10  11
ATOM     11  C   UNL     1      -2.139   0.761   8.268  1.00  0.00     0.116 A 
ATOM     12  S   UNL     1      -2.436   2.457   8.319  1.00  0.00    -0.124 S 
ATOM     13  C   UNL     1      -3.776   2.184   9.345  1.00  0.00     0.101 A 
ATOM     14  N   UNL     1      -2.971   0.019   8.980  1.00  0.00    -0.234 NA
ATOM     15  C   UNL     1      -3.929   0.833   9.591  1.00  0.00     0.139 A 
BRANCH  15  16
ATOM     16  C   UNL     1      -5.003   0.273  10.413  1.00  0.00     0.271 C 
ATOM     17  O   UNL     1      -5.409   0.815  11.435  1.00  0.00    -0.267 OA
ATOM     18  N   UNL     1      -5.509  -0.914   9.926  1.00  0.00    -0.339 N 
ATOM     19  H   UNL     1      -5.013  -1.316   9.134  1.00  0.00     0.164 HD
BRANCH  18  20
ATOM     20  C   UNL     1      -6.537  -1.650  10.649  1.00  0.00     0.168 CG0
ATOM     21  C   UNL     1      -7.861  -1.653   9.884  1.00  0.00     0.041 C 
ATOM     22  G   UNL     1      -6.144  -3.112  10.915  1.00  0.00     0.000 G0
ENDBRANCH  18  20
ENDBRANCH  15  16
ENDBRANCH  10  11
BRANCH  10  23
ATOM     23  C   UNL     1       0.397   0.646   7.979  1.00  0.00     0.015 C 
ATOM     24  C   UNL     1       1.065   1.758   7.152  1.00  0.00     0.010 C 
BRANCH  23  25
ATOM     25  C   UNL     1       0.342   1.094   9.457  1.00  0.00     0.002 C 
ATOM     26  C   UNL     1       1.305   2.223   9.797  1.00  0.00     0.004 C 
ENDBRANCH  23  25
ENDBRANCH  10  23
ENDBRANCH   7  10
ENDBRANCH   4   6
BRANCH   3  27
ATOM     27  C   UNL     1      -2.566  -6.098   8.576  1.00  0.00     0.171 C 
BRANCH  27  28
ATOM     28  N   UNL     1      -3.713  -5.632   9.347  1.00  0.00    -0.342 N 
ATOM     29  C   UNL     1      -5.015  -5.892   8.982  1.00  0.00     0.245 C 
ATOM     30  O   UNL     1      -5.307  -6.550   7.985  1.00  0.00    -0.273 OA
ATOM     31  H   UNL     1      -3.548  -5.179  10.245  1.00  0.00     0.164 HD
BRANCH  29  32
ATOM     32  C   UNL     1      -6.088  -5.429   9.990  1.00  0.00     0.200 C 
BRANCH  32  33
ATOM     33  N   UNL     1      -6.270  -3.980   9.836  1.00  0.00    -0.340 N 
ATOM     34  C   UNL     1      -6.169  -3.127  10.915  1.00  0.00     0.243 CG0
ATOM     35  O   UNL     1      -5.986  -3.544  12.057  1.00  0.00    -0.273 OA
ATOM     36  H   UNL     1      -6.453  -3.610   8.910  1.00  0.00     0.164 HD
ATOM     37  G   UNL     1      -6.518  -1.656  10.637  1.00  0.00     0.000 G0
ENDBRANCH  32  33
BRANCH  32  38
ATOM     38  C   UNL     1      -7.403  -6.224   9.820  1.00  0.00     0.143 C 
ATOM     39  C   UNL     1      -8.337  -6.146  11.022  1.00  0.00     0.041 C 
BRANCH  38  40
ATOM     40  O   UNL     1      -8.108  -5.765   8.650  1.00  0.00    -0.391 OA
ATOM     41  H   UNL     1      -7.684  -6.194   7.882  1.00  0.00     0.211 HD
ENDBRANCH  38  40
ENDBRANCH  32  38
ENDBRANCH  29  32
ENDBRANCH  27  28
BRANCH  27  42
ATOM     42  C   UNL     1      -2.756  -7.559   8.098  1.00  0.00     0.015 C 
ATOM     43  C   UNL     1      -1.905  -7.977   6.893  1.00  0.00     0.010 C 
ATOM     44  C   UNL     1      -2.585  -8.563   9.243  1.00  0.00     0.010 C 
ENDBRANCH  27  42
ENDBRANCH   3  27
TORSDOF 5
ENDMDL
MODEL 10
REMARK VINA RESULT:    -3.276      2.058      2.273
REMARK INTER + INTRA:          -8.147
REMARK INTER:                  -6.482
REMARK INTRA:                  -1.665
REMARK UNBOUND:                -2.285
REMARK SMILES CC[C@H](C)[C@H]1NC(=O)c2coc(n2)[C@H](C(C)C)NC(=O)[C@H]([C@@H](C)O)NC(=O)[C@H](C)NC(=O)c2csc1n2
REMARK SMILES IDX 11 1 13 2 12 3 9 4 10 5 7 6 6 7 8 8 5 10 36 11 35 12 34 13
REMARK SMILES IDX 37 14 33 15 31 16 32 17 30 18 28 20 29 21 3 23 4 24 2 25
REMARK SMILES IDX 1 26 14 27 18 28 19 29 20 30 21 32 25 33 26 34 27 35 22 38
REMARK SMILES IDX 23 39 24 40 15 42 16 43 17 44
REMARK H PARENT 6 9 30 19 18 31 25 36 24 41
REMARK Flexibility Score:   94.900
ROOT
ATOM      1  O   UNL     1      -2.771  -3.742   5.759  1.00  0.00    -0.446 OA
ATOM      2  N   UNL     1      -1.905  -2.855   7.642  1.00  0.00    -0.207 NA
ATOM      3  C   UNL     1      -2.114  -3.956   6.942  1.00  0.00     0.217 A 
ATOM      4  C   UNL     1      -2.435  -1.847   6.857  1.00  0.00     0.167 A 
ATOM      5  C   UNL     1      -2.961  -2.393   5.711  1.00  0.00     0.231 A 
ENDROOT
BRANCH   4   6
ATOM      6  C   UNL     1      -2.436  -0.449   7.253  1.00  0.00     0.273 C 
ATOM      7  N   UNL     1      -2.117  -0.295   8.578  1.00  0.00    -0.341 N 
ATOM      8  O   UNL     1      -2.714   0.470   6.493  1.00  0.00    -0.267 OA
ATOM      9  H   UNL     1      -2.001  -1.155   9.107  1.00  0.00     0.164 HD
BRANCH   7  10
ATOM     10  C   UNL     1      -2.283   0.955   9.292  1.00  0.00     0.145 C 
BRANCH  10  11
ATOM     11  C   UNL     1      -3.170   0.682  10.499  1.00  0.00     0.116 A 
ATOM     12  S   UNL     1      -4.055   1.974  11.218  1.00  0.00    -0.124 S 
ATOM     13  C   UNL     1      -4.728   0.876  12.343  1.00  0.00     0.101 A 
ATOM     14  N   UNL     1      -3.343  -0.503  11.060  1.00  0.00    -0.234 NA
ATOM     15  C   UNL     1      -4.254  -0.401  12.114  1.00  0.00     0.139 A 
BRANCH  15  16
ATOM     16  C   UNL     1      -4.663  -1.571  12.893  1.00  0.00     0.271 C 
ATOM     17  O   UNL     1      -4.731  -1.564  14.118  1.00  0.00    -0.267 OA
ATOM     18  N   UNL     1      -4.964  -2.671  12.118  1.00  0.00    -0.339 N 
ATOM     19  H   UNL     1      -4.761  -2.584  11.126  1.00  0.00     0.164 HD
BRANCH  18  20
ATOM     20  C   UNL     1      -5.325  -3.946  12.725  1.00  0.00     0.168 CG0
ATOM     21  C   UNL     1      -6.844  -4.117  12.797  1.00  0.00     0.041 C 
ATOM     22  G   UNL     1      -4.752  -5.151  11.961  1.00  0.00     0.000 G0
ENDBRANCH  18  20
ENDBRANCH  15  16
ENDBRANCH  10  11
BRANCH  10  23
ATOM     23  C   UNL     1      -0.923   1.589   9.689  1.00  0.00     0.015 C 
ATOM     24  C   UNL     1       0.248   0.593   9.646  1.00  0.00     0.010 C 
BRANCH  23  25
ATOM     25  C   UNL     1      -0.561   2.817   8.825  1.00  0.00     0.002 C 
ATOM     26  C   UNL     1       0.316   2.491   7.624  1.00  0.00     0.004 C 
ENDBRANCH  23  25
ENDBRANCH  10  23
ENDBRANCH   7  10
ENDBRANCH   4   6
BRANCH   3  27
ATOM     27  C   UNL     1      -1.759  -5.363   7.337  1.00  0.00     0.171 C 
BRANCH  27  28
ATOM     28  N   UNL     1      -2.551  -5.710   8.512  1.00  0.00    -0.342 N 
ATOM     29  C   UNL     1      -3.924  -5.817   8.483  1.00  0.00     0.245 C 
ATOM     30  O   UNL     1      -4.584  -5.642   7.460  1.00  0.00    -0.273 OA
ATOM     31  H   UNL     1      -2.067  -5.981   9.367  1.00  0.00     0.164 HD
BRANCH  29  32
ATOM     32  C   UNL     1      -4.574  -6.319   9.789  1.00  0.00     0.200 C 
BRANCH  32  33
ATOM     33  N   UNL     1      -4.941  -5.152  10.600  1.00  0.00    -0.340 N 
ATOM     34  C   UNL     1      -4.764  -5.146  11.968  1.00  0.00     0.243 CG0
ATOM     35  O   UNL     1      -4.355  -6.134  12.574  1.00  0.00    -0.273 OA
ATOM     36  H   UNL     1      -5.310  -4.332  10.132  1.00  0.00     0.164 HD
ATOM     37  G   UNL     1      -5.317  -3.916  12.707  1.00  0.00     0.000 G0
ENDBRANCH  32  33
BRANCH  32  38
ATOM     38  C   UNL     1      -5.772  -7.253   9.501  1.00  0.00     0.143 C 
ATOM     39  C   UNL     1      -7.110  -6.532   9.382  1.00  0.00     0.041 C 
BRANCH  38  40
ATOM     40  O   UNL     1      -5.535  -8.001   8.292  1.00  0.00    -0.391 OA
ATOM     41  H   UNL     1      -6.344  -7.922   7.752  1.00  0.00     0.211 HD
ENDBRANCH  38  40
ENDBRANCH  32  38
ENDBRANCH  29  32
ENDBRANCH  27  28
BRANCH  27  42
ATOM     42  C   UNL     1      -1.853  -6.456   6.243  1.00  0.00     0.015 C 
ATOM     43  C   UNL     1      -1.055  -6.180   4.964  1.00  0.00     0.010 C 
ATOM     44  C   UNL     1      -1.514  -7.845   6.792  1.00  0.00     0.010 C 
ENDBRANCH  27  42
ENDBRANCH   3  27
TORSDOF 5
ENDMDL
