MODEL 1
REMARK VINA RESULT:    -6.803      0.000      0.000
REMARK INTER + INTRA:         -17.323
REMARK INTER:                 -13.762
REMARK INTRA:                  -3.560
REMARK UNBOUND:                -3.560
REMARK SMILES CC[C@@H](C)[C@@H](NC(=O)[C@@H](O)Cc1ccc(O)c(Cl)c1)C(=O)N1[C@H](C(=O)NCCCCN=C(N)N)C[C@H]2CC[C@H](OS(=O)(=O)O)C[C@@H]21
REMARK SMILES IDX 22 1 36 2 46 3 35 4 23 5 45 6 37 7 39 8 38 9 20 10 21 11
REMARK SMILES IDX 5 12 6 13 7 14 8 15 9 17 11 18 12 19 17 20 19 21 15 22 14 23
REMARK SMILES IDX 13 24 18 25 16 26 10 28 3 30 4 31 2 32 1 33 24 34 25 35
REMARK SMILES IDX 26 36 27 38 28 39 29 40 30 41 31 42 32 43 33 44 34 45 40 50
REMARK SMILES IDX 41 51 42 52 43 53 44 54
REMARK H PARENT 6 16 16 27 10 29 26 37 33 46 33 47 34 48 34 49 44 55
ROOT
ATOM      1  N   UNL     1     -10.819   4.134   8.132  1.00  0.00    -0.326 N 
ATOM      2  C   UNL     1     -12.605   3.943   6.610  1.00  0.00     0.014 C 
ATOM      3  C   UNL     1     -12.143   3.519   8.007  1.00  0.00     0.091 C 
ATOM      4  C   UNL     1     -11.307   3.953   5.817  1.00  0.00     0.041 C 
ATOM      5  C   UNL     1     -10.382   4.669   6.818  1.00  0.00     0.175 C 
ATOM      6  C   UNL     1     -13.223   3.913   9.013  1.00  0.00     0.059 C 
ATOM      7  C   UNL     1     -13.759   3.081   6.136  1.00  0.00     0.008 C 
ATOM      8  C   UNL     1     -14.655   3.867   8.438  1.00  0.00     0.143 C 
ATOM      9  C   UNL     1     -14.780   2.864   7.274  1.00  0.00     0.034 C 
ENDROOT
BRANCH   1  10
ATOM     10  C   UNL     1      -9.910   4.082   9.175  1.00  0.00     0.246 C 
ATOM     11  O   UNL     1      -9.891   5.000  10.002  1.00  0.00    -0.272 OA
BRANCH  10  12
ATOM     12  C   UNL     1      -8.965   2.853   9.308  1.00  0.00     0.174 C 
BRANCH  12  13
ATOM     13  N   UNL     1      -7.609   3.298   9.625  1.00  0.00    -0.342 N 
ATOM     14  C   UNL     1      -6.724   2.621  10.434  1.00  0.00     0.249 C 
ATOM     15  O   UNL     1      -6.968   1.543  10.960  1.00  0.00    -0.272 OA
ATOM     16  H   UNL     1      -7.322   4.245   9.390  1.00  0.00     0.164 HD
BRANCH  14  17
ATOM     17  C   UNL     1      -5.376   3.358  10.589  1.00  0.00     0.207 C 
BRANCH  17  18
ATOM     18  C   UNL     1      -4.209   2.374  10.455  1.00  0.00     0.077 C 
BRANCH  18  19
ATOM     19  C   UNL     1      -4.169   1.733   9.087  1.00  0.00    -0.043 A 
ATOM     20  C   UNL     1      -4.151  -0.254   7.695  1.00  0.00     0.083 A 
ATOM     21  C   UNL     1      -4.238   0.337   8.956  1.00  0.00     0.028 A 
ATOM     22  C   UNL     1      -3.993   0.542   6.560  1.00  0.00     0.134 A 
ATOM     23  C   UNL     1      -3.923   1.925   6.675  1.00  0.00     0.048 A 
ATOM     24  C   UNL     1      -4.008   2.520   7.936  1.00  0.00     0.008 A 
ATOM     25  Cl  UNL     1      -4.237  -1.971   7.555  1.00  0.00    -0.080 Cl
BRANCH  22  26
ATOM     26  O   UNL     1      -3.892   0.007   5.304  1.00  0.00    -0.506 OA
ATOM     27  H   UNL     1      -4.406   0.586   4.711  1.00  0.00     0.293 HD
ENDBRANCH  22  26
ENDBRANCH  18  19
ENDBRANCH  17  18
BRANCH  17  28
ATOM     28  O   UNL     1      -5.294   4.025  11.859  1.00  0.00    -0.383 OA
ATOM     29  H   UNL     1      -4.592   4.707  11.763  1.00  0.00     0.211 HD
ENDBRANCH  17  28
ENDBRANCH  14  17
ENDBRANCH  12  13
BRANCH  12  30
ATOM     30  C   UNL     1      -9.008   1.925   8.064  1.00  0.00     0.018 C 
ATOM     31  C   UNL     1      -9.466   0.511   8.452  1.00  0.00     0.010 C 
BRANCH  30  32
ATOM     32  C   UNL     1      -7.668   1.858   7.292  1.00  0.00     0.002 C 
ATOM     33  C   UNL     1      -7.690   1.020   6.021  1.00  0.00     0.004 C 
ENDBRANCH  30  32
ENDBRANCH  12  30
ENDBRANCH  10  12
ENDBRANCH   1  10
BRANCH   5  34
ATOM     34  C   UNL     1     -10.564   6.210   6.764  1.00  0.00     0.242 C 
ATOM     35  O   UNL     1     -10.306   6.867   5.756  1.00  0.00    -0.273 OA
ATOM     36  N   UNL     1     -10.983   6.792   7.939  1.00  0.00    -0.354 N 
ATOM     37  H   UNL     1     -11.065   6.210   8.774  1.00  0.00     0.163 HD
BRANCH  36  38
ATOM     38  C   UNL     1     -11.407   8.175   8.009  1.00  0.00     0.116 C 
BRANCH  38  39
ATOM     39  C   UNL     1     -11.778   8.532   9.446  1.00  0.00     0.023 C 
BRANCH  39  40
ATOM     40  C   UNL     1     -12.452   7.376  10.178  1.00  0.00     0.026 C 
BRANCH  40  41
ATOM     41  C   UNL     1     -12.355   7.563  11.692  1.00  0.00     0.146 C 
BRANCH  41  42
ATOM     42  N   UNL     1     -12.381   6.265  12.352  1.00  0.00    -0.254 NA
ATOM     43  C   UNL     1     -11.306   5.793  12.862  1.00  0.00     0.185 C 
ATOM     44  N   UNL     1     -10.066   6.315  12.905  1.00  0.00    -0.370 N 
ATOM     45  N   UNL     1     -11.349   4.592  13.462  1.00  0.00    -0.370 N 
ATOM     46  H   UNL     1      -9.272   5.734  13.117  1.00  0.00     0.159 HD
ATOM     47  H   UNL     1      -9.858   7.226  12.509  1.00  0.00     0.159 HD
ATOM     48  H   UNL     1     -12.250   4.133  13.482  1.00  0.00     0.159 HD
ATOM     49  H   UNL     1     -10.628   4.266  14.081  1.00  0.00     0.159 HD
ENDBRANCH  41  42
ENDBRANCH  40  41
ENDBRANCH  39  40
ENDBRANCH  38  39
ENDBRANCH  36  38
ENDBRANCH   5  34
BRANCH   8  50
ATOM     50  O   UNL     1     -15.036   5.160   7.966  1.00  0.00    -0.245 OA
BRANCH  50  51
ATOM     51  S   UNL     1     -16.610   5.564   7.913  1.00  0.00     0.397 S 
ATOM     52  O   UNL     1     -16.707   7.000   8.044  1.00  0.00    -0.169 OA
ATOM     53  O   UNL     1     -17.370   4.671   8.763  1.00  0.00    -0.169 OA
BRANCH  51  54
ATOM     54  O   UNL     1     -16.990   5.237   6.385  1.00  0.00    -0.264 OA
ATOM     55  H   UNL     1     -16.644   4.346   6.176  1.00  0.00     0.236 HD
ENDBRANCH  51  54
ENDBRANCH  50  51
ENDBRANCH   8  50
TORSDOF 19
ENDMDL
MODEL 2
REMARK VINA RESULT:    -6.642     13.255     17.232
REMARK INTER + INTRA:         -16.998
REMARK INTER:                 -12.193
REMARK INTRA:                  -4.805
REMARK UNBOUND:                -3.560
REMARK SMILES CC[C@@H](C)[C@@H](NC(=O)[C@@H](O)Cc1ccc(O)c(Cl)c1)C(=O)N1[C@H](C(=O)NCCCCN=C(N)N)C[C@H]2CC[C@H](OS(=O)(=O)O)C[C@@H]21
REMARK SMILES IDX 22 1 36 2 46 3 35 4 23 5 45 6 37 7 39 8 38 9 20 10 21 11
REMARK SMILES IDX 5 12 6 13 7 14 8 15 9 17 11 18 12 19 17 20 19 21 15 22 14 23
REMARK SMILES IDX 13 24 18 25 16 26 10 28 3 30 4 31 2 32 1 33 24 34 25 35
REMARK SMILES IDX 26 36 27 38 28 39 29 40 30 41 31 42 32 43 33 44 34 45 40 50
REMARK SMILES IDX 41 51 42 52 43 53 44 54
REMARK H PARENT 6 16 16 27 10 29 26 37 33 46 33 47 34 48 34 49 44 55
ROOT
ATOM      1  N   UNL     1       3.426   7.547  -0.925  1.00  0.00    -0.326 N 
ATOM      2  C   UNL     1       3.313   5.900  -2.603  1.00  0.00     0.014 C 
ATOM      3  C   UNL     1       4.174   7.055  -2.086  1.00  0.00     0.091 C 
ATOM      4  C   UNL     1       1.899   6.382  -2.317  1.00  0.00     0.041 C 
ATOM      5  C   UNL     1       2.080   6.924  -0.887  1.00  0.00     0.175 C 
ATOM      6  C   UNL     1       5.595   6.538  -1.866  1.00  0.00     0.059 C 
ATOM      7  C   UNL     1       3.699   5.529  -4.021  1.00  0.00     0.008 C 
ATOM      8  C   UNL     1       6.007   5.419  -2.847  1.00  0.00     0.143 C 
ATOM      9  C   UNL     1       5.234   5.501  -4.178  1.00  0.00     0.034 C 
ENDROOT
BRANCH   1  10
ATOM     10  C   UNL     1       3.709   8.596  -0.066  1.00  0.00     0.246 C 
ATOM     11  O   UNL     1       2.862   9.480   0.102  1.00  0.00    -0.272 OA
BRANCH  10  12
ATOM     12  C   UNL     1       5.064   8.617   0.699  1.00  0.00     0.174 C 
BRANCH  12  13
ATOM     13  N   UNL     1       5.033   7.650   1.796  1.00  0.00    -0.342 N 
ATOM     14  C   UNL     1       6.017   6.725   2.062  1.00  0.00     0.249 C 
ATOM     15  O   UNL     1       7.054   6.627   1.418  1.00  0.00    -0.272 OA
ATOM     16  H   UNL     1       4.171   7.508   2.317  1.00  0.00     0.164 HD
BRANCH  14  17
ATOM     17  C   UNL     1       5.683   5.834   3.278  1.00  0.00     0.207 C 
BRANCH  17  18
ATOM     18  C   UNL     1       6.498   6.270   4.501  1.00  0.00     0.077 C 
BRANCH  18  19
ATOM     19  C   UNL     1       5.611   6.788   5.611  1.00  0.00    -0.043 A 
ATOM     20  C   UNL     1       3.756   8.165   6.351  1.00  0.00     0.083 A 
ATOM     21  C   UNL     1       4.542   7.649   5.319  1.00  0.00     0.028 A 
ATOM     22  C   UNL     1       4.034   7.827   7.676  1.00  0.00     0.134 A 
ATOM     23  C   UNL     1       5.091   6.976   7.979  1.00  0.00     0.048 A 
ATOM     24  C   UNL     1       5.880   6.459   6.948  1.00  0.00     0.008 A 
ATOM     25  Cl  UNL     1       2.446   9.221   5.973  1.00  0.00    -0.080 Cl
BRANCH  22  26
ATOM     26  O   UNL     1       3.299   8.317   8.721  1.00  0.00    -0.506 OA
ATOM     27  H   UNL     1       2.689   8.980   8.349  1.00  0.00     0.293 HD
ENDBRANCH  22  26
ENDBRANCH  18  19
ENDBRANCH  17  18
BRANCH  17  28
ATOM     28  O   UNL     1       5.951   4.452   2.995  1.00  0.00    -0.383 OA
ATOM     29  H   UNL     1       6.583   4.446   2.242  1.00  0.00     0.211 HD
ENDBRANCH  17  28
ENDBRANCH  14  17
ENDBRANCH  12  13
BRANCH  12  30
ATOM     30  C   UNL     1       5.463  10.040   1.174  1.00  0.00     0.018 C 
ATOM     31  C   UNL     1       6.898  10.378   0.743  1.00  0.00     0.010 C 
BRANCH  30  32
ATOM     32  C   UNL     1       5.301  10.254   2.699  1.00  0.00     0.002 C 
ATOM     33  C   UNL     1       6.601  10.290   3.492  1.00  0.00     0.004 C 
ENDBRANCH  30  32
ENDBRANCH  12  30
ENDBRANCH  10  12
ENDBRANCH   1  10
BRANCH   5  34
ATOM     34  C   UNL     1       2.031   5.786   0.167  1.00  0.00     0.242 C 
ATOM     35  O   UNL     1       2.998   5.500   0.873  1.00  0.00    -0.273 OA
ATOM     36  N   UNL     1       0.846   5.085   0.217  1.00  0.00    -0.354 N 
ATOM     37  H   UNL     1       0.124   5.291  -0.475  1.00  0.00     0.163 HD
BRANCH  36  38
ATOM     38  C   UNL     1       0.549   4.143   1.276  1.00  0.00     0.116 C 
BRANCH  38  39
ATOM     39  C   UNL     1      -0.398   4.783   2.289  1.00  0.00     0.023 C 
BRANCH  39  40
ATOM     40  C   UNL     1       0.342   5.385   3.478  1.00  0.00     0.026 C 
BRANCH  40  41
ATOM     41  C   UNL     1       0.580   4.331   4.559  1.00  0.00     0.146 C 
BRANCH  41  42
ATOM     42  N   UNL     1       1.951   3.845   4.480  1.00  0.00    -0.254 NA
ATOM     43  C   UNL     1       2.757   4.063   5.451  1.00  0.00     0.185 C 
ATOM     44  N   UNL     1       2.554   4.704   6.617  1.00  0.00    -0.370 N 
ATOM     45  N   UNL     1       4.018   3.611   5.357  1.00  0.00    -0.370 N 
ATOM     46  H   UNL     1       3.332   5.012   7.175  1.00  0.00     0.159 HD
ATOM     47  H   UNL     1       1.650   5.098   6.858  1.00  0.00     0.159 HD
ATOM     48  H   UNL     1       4.252   3.109   4.512  1.00  0.00     0.159 HD
ATOM     49  H   UNL     1       4.628   3.531   6.151  1.00  0.00     0.159 HD
ENDBRANCH  41  42
ENDBRANCH  40  41
ENDBRANCH  39  40
ENDBRANCH  38  39
ENDBRANCH  36  38
ENDBRANCH   5  34
BRANCH   8  50
ATOM     50  O   UNL     1       5.765   4.140  -2.260  1.00  0.00    -0.245 OA
BRANCH  50  51
ATOM     51  S   UNL     1       6.622   3.678  -0.957  1.00  0.00     0.397 S 
ATOM     52  O   UNL     1       5.721   3.616   0.171  1.00  0.00    -0.169 OA
ATOM     53  O   UNL     1       7.860   4.428  -0.900  1.00  0.00    -0.169 OA
BRANCH  51  54
ATOM     54  O   UNL     1       6.982   2.153  -1.315  1.00  0.00    -0.264 OA
ATOM     55  H   UNL     1       7.955   2.057  -1.268  1.00  0.00     0.236 HD
ENDBRANCH  51  54
ENDBRANCH  50  51
ENDBRANCH   8  50
TORSDOF 19
ENDMDL
MODEL 3
REMARK VINA RESULT:    -6.570     16.461     20.989
REMARK INTER + INTRA:         -16.851
REMARK INTER:                 -12.370
REMARK INTRA:                  -4.481
REMARK UNBOUND:                -3.560
REMARK SMILES CC[C@@H](C)[C@@H](NC(=O)[C@@H](O)Cc1ccc(O)c(Cl)c1)C(=O)N1[C@H](C(=O)NCCCCN=C(N)N)C[C@H]2CC[C@H](OS(=O)(=O)O)C[C@@H]21
REMARK SMILES IDX 22 1 36 2 46 3 35 4 23 5 45 6 37 7 39 8 38 9 20 10 21 11
REMARK SMILES IDX 5 12 6 13 7 14 8 15 9 17 11 18 12 19 17 20 19 21 15 22 14 23
REMARK SMILES IDX 13 24 18 25 16 26 10 28 3 30 4 31 2 32 1 33 24 34 25 35
REMARK SMILES IDX 26 36 27 38 28 39 29 40 30 41 31 42 32 43 33 44 34 45 40 50
REMARK SMILES IDX 41 51 42 52 43 53 44 54
REMARK H PARENT 6 16 16 27 10 29 26 37 33 46 33 47 34 48 34 49 44 55
ROOT
ATOM      1  N   UNL     1       7.367   4.742  -2.337  1.00  0.00    -0.326 N 
ATOM      2  C   UNL     1       5.388   3.517  -2.691  1.00  0.00     0.014 C 
ATOM      3  C   UNL     1       5.935   4.942  -2.575  1.00  0.00     0.091 C 
ATOM      4  C   UNL     1       6.252   2.746  -1.705  1.00  0.00     0.041 C 
ATOM      5  C   UNL     1       7.640   3.310  -2.059  1.00  0.00     0.175 C 
ATOM      6  C   UNL     1       5.509   5.725  -3.816  1.00  0.00     0.059 C 
ATOM      7  C   UNL     1       3.881   3.499  -2.531  1.00  0.00     0.008 C 
ATOM      8  C   UNL     1       4.149   5.279  -4.395  1.00  0.00     0.143 C 
ATOM      9  C   UNL     1       3.236   4.658  -3.319  1.00  0.00     0.034 C 
ENDROOT
BRANCH   1  10
ATOM     10  C   UNL     1       8.372   5.673  -2.133  1.00  0.00     0.246 C 
ATOM     11  O   UNL     1       9.126   5.957  -3.069  1.00  0.00    -0.272 OA
BRANCH  10  12
ATOM     12  C   UNL     1       8.502   6.370  -0.748  1.00  0.00     0.174 C 
BRANCH  12  13
ATOM     13  N   UNL     1       7.292   6.141   0.041  1.00  0.00    -0.342 N 
ATOM     14  C   UNL     1       7.190   5.261   1.095  1.00  0.00     0.249 C 
ATOM     15  O   UNL     1       8.122   4.584   1.510  1.00  0.00    -0.272 OA
ATOM     16  H   UNL     1       6.402   6.512  -0.282  1.00  0.00     0.164 HD
BRANCH  14  17
ATOM     17  C   UNL     1       5.776   5.233   1.713  1.00  0.00     0.207 C 
BRANCH  17  18
ATOM     18  C   UNL     1       5.168   6.639   1.722  1.00  0.00     0.077 C 
BRANCH  18  19
ATOM     19  C   UNL     1       4.023   6.763   0.742  1.00  0.00    -0.043 A 
ATOM     20  C   UNL     1       1.893   5.978  -0.114  1.00  0.00     0.083 A 
ATOM     21  C   UNL     1       2.924   5.894   0.823  1.00  0.00     0.028 A 
ATOM     22  C   UNL     1       1.954   6.926  -1.135  1.00  0.00     0.134 A 
ATOM     23  C   UNL     1       3.036   7.793  -1.227  1.00  0.00     0.048 A 
ATOM     24  C   UNL     1       4.071   7.710  -0.292  1.00  0.00     0.008 A 
ATOM     25  Cl  UNL     1       0.551   4.901   0.003  1.00  0.00    -0.080 Cl
BRANCH  22  26
ATOM     26  O   UNL     1       0.972   7.040  -2.082  1.00  0.00    -0.506 OA
ATOM     27  H   UNL     1       0.277   7.606  -1.699  1.00  0.00     0.293 HD
ENDBRANCH  22  26
ENDBRANCH  18  19
ENDBRANCH  17  18
BRANCH  17  28
ATOM     28  O   UNL     1       5.808   4.720   3.055  1.00  0.00    -0.383 OA
ATOM     29  H   UNL     1       6.759   4.667   3.303  1.00  0.00     0.211 HD
ENDBRANCH  17  28
ENDBRANCH  14  17
ENDBRANCH  12  13
BRANCH  12  30
ATOM     30  C   UNL     1       8.857   7.877  -0.866  1.00  0.00     0.018 C 
ATOM     31  C   UNL     1       9.877   8.283   0.209  1.00  0.00     0.010 C 
BRANCH  30  32
ATOM     32  C   UNL     1       7.624   8.812  -0.810  1.00  0.00     0.002 C 
ATOM     33  C   UNL     1       7.854  10.153  -0.127  1.00  0.00     0.004 C 
ENDBRANCH  30  32
ENDBRANCH  12  30
ENDBRANCH  10  12
ENDBRANCH   1  10
BRANCH   5  34
ATOM     34  C   UNL     1       8.240   2.612  -3.309  1.00  0.00     0.242 C 
ATOM     35  O   UNL     1       7.632   1.740  -3.930  1.00  0.00    -0.273 OA
ATOM     36  N   UNL     1       9.519   3.000  -3.640  1.00  0.00    -0.354 N 
ATOM     37  H   UNL     1      10.015   3.639  -3.017  1.00  0.00     0.163 HD
BRANCH  36  38
ATOM     38  C   UNL     1      10.145   2.616  -4.888  1.00  0.00     0.116 C 
BRANCH  38  39
ATOM     39  C   UNL     1       9.925   3.706  -5.935  1.00  0.00     0.023 C 
BRANCH  39  40
ATOM     40  C   UNL     1       9.424   3.146  -7.262  1.00  0.00     0.026 C 
BRANCH  40  41
ATOM     41  C   UNL     1       9.053   4.277  -8.222  1.00  0.00     0.146 C 
BRANCH  41  42
ATOM     42  N   UNL     1       7.649   4.626  -8.052  1.00  0.00    -0.254 NA
ATOM     43  C   UNL     1       7.336   5.760  -7.547  1.00  0.00     0.185 C 
ATOM     44  N   UNL     1       8.123   6.762  -7.114  1.00  0.00    -0.370 N 
ATOM     45  N   UNL     1       6.036   6.062  -7.395  1.00  0.00    -0.370 N 
ATOM     46  H   UNL     1       7.753   7.485  -6.521  1.00  0.00     0.159 HD
ATOM     47  H   UNL     1       9.135   6.706  -7.168  1.00  0.00     0.159 HD
ATOM     48  H   UNL     1       5.374   5.363  -7.705  1.00  0.00     0.159 HD
ATOM     49  H   UNL     1       5.710   6.999  -7.235  1.00  0.00     0.159 HD
ENDBRANCH  41  42
ENDBRANCH  40  41
ENDBRANCH  39  40
ENDBRANCH  38  39
ENDBRANCH  36  38
ENDBRANCH   5  34
BRANCH   8  50
ATOM     50  O   UNL     1       4.349   4.317  -5.431  1.00  0.00    -0.245 OA
BRANCH  50  51
ATOM     51  S   UNL     1       3.161   4.034  -6.505  1.00  0.00     0.397 S 
ATOM     52  O   UNL     1       2.397   5.252  -6.656  1.00  0.00    -0.169 OA
ATOM     53  O   UNL     1       2.523   2.769  -6.202  1.00  0.00    -0.169 OA
BRANCH  51  54
ATOM     54  O   UNL     1       3.982   3.859  -7.876  1.00  0.00    -0.264 OA
ATOM     55  H   UNL     1       4.272   2.925  -7.933  1.00  0.00     0.236 HD
ENDBRANCH  51  54
ENDBRANCH  50  51
ENDBRANCH   8  50
TORSDOF 19
ENDMDL
MODEL 4
REMARK VINA RESULT:    -6.501     12.806     17.550
REMARK INTER + INTRA:         -16.712
REMARK INTER:                 -13.066
REMARK INTRA:                  -3.646
REMARK UNBOUND:                -3.560
REMARK SMILES CC[C@@H](C)[C@@H](NC(=O)[C@@H](O)Cc1ccc(O)c(Cl)c1)C(=O)N1[C@H](C(=O)NCCCCN=C(N)N)C[C@H]2CC[C@H](OS(=O)(=O)O)C[C@@H]21
REMARK SMILES IDX 22 1 36 2 46 3 35 4 23 5 45 6 37 7 39 8 38 9 20 10 21 11
REMARK SMILES IDX 5 12 6 13 7 14 8 15 9 17 11 18 12 19 17 20 19 21 15 22 14 23
REMARK SMILES IDX 13 24 18 25 16 26 10 28 3 30 4 31 2 32 1 33 24 34 25 35
REMARK SMILES IDX 26 36 27 38 28 39 29 40 30 41 31 42 32 43 33 44 34 45 40 50
REMARK SMILES IDX 41 51 42 52 43 53 44 54
REMARK H PARENT 6 16 16 27 10 29 26 37 33 46 33 47 34 48 34 49 44 55
ROOT
ATOM      1  N   UNL     1       5.100   6.400   1.944  1.00  0.00    -0.326 N 
ATOM      2  C   UNL     1       5.219   7.944   0.171  1.00  0.00     0.014 C 
ATOM      3  C   UNL     1       5.938   7.495   1.446  1.00  0.00     0.091 C 
ATOM      4  C   UNL     1       3.754   7.741   0.523  1.00  0.00     0.041 C 
ATOM      5  C   UNL     1       3.824   6.354   1.189  1.00  0.00     0.175 C 
ATOM      6  C   UNL     1       7.395   7.191   1.097  1.00  0.00     0.059 C 
ATOM      7  C   UNL     1       5.696   9.316  -0.266  1.00  0.00     0.008 C 
ATOM      8  C   UNL     1       7.956   8.066  -0.044  1.00  0.00     0.143 C 
ATOM      9  C   UNL     1       7.230   9.423  -0.145  1.00  0.00     0.034 C 
ENDROOT
BRANCH   1  10
ATOM     10  C   UNL     1       5.242   5.620   3.079  1.00  0.00     0.246 C 
ATOM     11  O   UNL     1       5.928   4.594   3.021  1.00  0.00    -0.272 OA
BRANCH  10  12
ATOM     12  C   UNL     1       4.572   6.072   4.409  1.00  0.00     0.174 C 
BRANCH  12  13
ATOM     13  N   UNL     1       3.139   5.781   4.369  1.00  0.00    -0.342 N 
ATOM     14  C   UNL     1       2.569   4.569   4.691  1.00  0.00     0.249 C 
ATOM     15  O   UNL     1       3.206   3.597   5.078  1.00  0.00    -0.272 OA
ATOM     16  H   UNL     1       2.504   6.437   3.921  1.00  0.00     0.164 HD
BRANCH  14  17
ATOM     17  C   UNL     1       1.034   4.573   4.533  1.00  0.00     0.207 C 
BRANCH  17  18
ATOM     18  C   UNL     1       0.646   4.829   3.073  1.00  0.00     0.077 C 
BRANCH  18  19
ATOM     19  C   UNL     1       0.009   3.613   2.439  1.00  0.00    -0.043 A 
ATOM     20  C   UNL     1      -0.666   1.286   2.565  1.00  0.00     0.083 A 
ATOM     21  C   UNL     1      -0.123   2.421   3.169  1.00  0.00     0.028 A 
ATOM     22  C   UNL     1      -1.079   1.334   1.233  1.00  0.00     0.134 A 
ATOM     23  C   UNL     1      -0.954   2.508   0.499  1.00  0.00     0.048 A 
ATOM     24  C   UNL     1      -0.409   3.644   1.100  1.00  0.00     0.008 A 
ATOM     25  Cl  UNL     1      -0.819  -0.169   3.478  1.00  0.00    -0.080 Cl
BRANCH  22  26
ATOM     26  O   UNL     1      -1.608   0.244   0.596  1.00  0.00    -0.506 OA
ATOM     27  H   UNL     1      -2.444   0.537   0.188  1.00  0.00     0.293 HD
ENDBRANCH  22  26
ENDBRANCH  18  19
ENDBRANCH  17  18
BRANCH  17  28
ATOM     28  O   UNL     1       0.430   5.573   5.369  1.00  0.00    -0.383 OA
ATOM     29  H   UNL     1      -0.509   5.300   5.484  1.00  0.00     0.211 HD
ENDBRANCH  17  28
ENDBRANCH  14  17
ENDBRANCH  12  13
BRANCH  12  30
ATOM     30  C   UNL     1       4.866   7.556   4.754  1.00  0.00     0.018 C 
ATOM     31  C   UNL     1       5.316   7.698   6.217  1.00  0.00     0.010 C 
BRANCH  30  32
ATOM     32  C   UNL     1       3.678   8.508   4.468  1.00  0.00     0.002 C 
ATOM     33  C   UNL     1       4.023   9.757   3.668  1.00  0.00     0.004 C 
ENDBRANCH  30  32
ENDBRANCH  12  30
ENDBRANCH  10  12
ENDBRANCH   1  10
BRANCH   5  34
ATOM     34  C   UNL     1       3.849   5.214   0.135  1.00  0.00     0.242 C 
ATOM     35  O   UNL     1       4.881   4.609  -0.155  1.00  0.00    -0.273 OA
ATOM     36  N   UNL     1       2.647   4.967  -0.489  1.00  0.00    -0.354 N 
ATOM     37  H   UNL     1       1.856   5.581  -0.293  1.00  0.00     0.163 HD
BRANCH  36  38
ATOM     38  C   UNL     1       2.437   3.809  -1.332  1.00  0.00     0.116 C 
BRANCH  38  39
ATOM     39  C   UNL     1       1.206   4.022  -2.210  1.00  0.00     0.023 C 
BRANCH  39  40
ATOM     40  C   UNL     1       0.651   5.438  -2.101  1.00  0.00     0.026 C 
BRANCH  40  41
ATOM     41  C   UNL     1       0.245   5.969  -3.475  1.00  0.00     0.146 C 
BRANCH  41  42
ATOM     42  N   UNL     1       1.435   6.218  -4.279  1.00  0.00    -0.254 NA
ATOM     43  C   UNL     1       1.834   7.420  -4.462  1.00  0.00     0.185 C 
ATOM     44  N   UNL     1       1.320   8.581  -4.015  1.00  0.00    -0.370 N 
ATOM     45  N   UNL     1       2.931   7.629  -5.209  1.00  0.00    -0.370 N 
ATOM     46  H   UNL     1       1.589   9.455  -4.434  1.00  0.00     0.159 HD
ATOM     47  H   UNL     1       0.496   8.606  -3.423  1.00  0.00     0.159 HD
ATOM     48  H   UNL     1       3.386   6.805  -5.578  1.00  0.00     0.159 HD
ATOM     49  H   UNL     1       3.436   8.497  -5.203  1.00  0.00     0.159 HD
ENDBRANCH  41  42
ENDBRANCH  40  41
ENDBRANCH  39  40
ENDBRANCH  38  39
ENDBRANCH  36  38
ENDBRANCH   5  34
BRANCH   8  50
ATOM     50  O   UNL     1       7.822   7.387  -1.293  1.00  0.00    -0.245 OA
BRANCH  50  51
ATOM     51  S   UNL     1       8.868   6.203  -1.680  1.00  0.00     0.397 S 
ATOM     52  O   UNL     1       8.233   4.936  -1.397  1.00  0.00    -0.169 OA
ATOM     53  O   UNL     1      10.182   6.527  -1.162  1.00  0.00    -0.169 OA
BRANCH  51  54
ATOM     54  O   UNL     1       8.926   6.316  -3.283  1.00  0.00    -0.264 OA
ATOM     55  H   UNL     1       9.801   5.988  -3.574  1.00  0.00     0.236 HD
ENDBRANCH  51  54
ENDBRANCH  50  51
ENDBRANCH   8  50
TORSDOF 19
ENDMDL
MODEL 5
REMARK VINA RESULT:    -6.486     14.836     18.998
REMARK INTER + INTRA:         -16.681
REMARK INTER:                 -12.342
REMARK INTRA:                  -4.339
REMARK UNBOUND:                -3.560
REMARK SMILES CC[C@@H](C)[C@@H](NC(=O)[C@@H](O)Cc1ccc(O)c(Cl)c1)C(=O)N1[C@H](C(=O)NCCCCN=C(N)N)C[C@H]2CC[C@H](OS(=O)(=O)O)C[C@@H]21
REMARK SMILES IDX 22 1 36 2 46 3 35 4 23 5 45 6 37 7 39 8 38 9 20 10 21 11
REMARK SMILES IDX 5 12 6 13 7 14 8 15 9 17 11 18 12 19 17 20 19 21 15 22 14 23
REMARK SMILES IDX 13 24 18 25 16 26 10 28 3 30 4 31 2 32 1 33 24 34 25 35
REMARK SMILES IDX 26 36 27 38 28 39 29 40 30 41 31 42 32 43 33 44 34 45 40 50
REMARK SMILES IDX 41 51 42 52 43 53 44 54
REMARK H PARENT 6 16 16 27 10 29 26 37 33 46 33 47 34 48 34 49 44 55
ROOT
ATOM      1  N   UNL     1       3.518   5.085  -1.592  1.00  0.00    -0.326 N 
ATOM      2  C   UNL     1       1.344   5.981  -1.707  1.00  0.00     0.014 C 
ATOM      3  C   UNL     1       2.121   4.661  -1.719  1.00  0.00     0.091 C 
ATOM      4  C   UNL     1       2.286   6.931  -2.431  1.00  0.00     0.041 C 
ATOM      5  C   UNL     1       3.620   6.556  -1.760  1.00  0.00     0.175 C 
ATOM      6  C   UNL     1       1.540   3.749  -0.641  1.00  0.00     0.059 C 
ATOM      7  C   UNL     1      -0.064   5.786  -2.233  1.00  0.00     0.008 C 
ATOM      8  C   UNL     1       0.027   3.952  -0.403  1.00  0.00     0.143 C 
ATOM      9  C   UNL     1      -0.687   4.498  -1.656  1.00  0.00     0.034 C 
ENDROOT
BRANCH   1  10
ATOM     10  C   UNL     1       4.676   4.328  -1.565  1.00  0.00     0.246 C 
ATOM     11  O   UNL     1       5.172   4.026  -0.474  1.00  0.00    -0.272 OA
BRANCH  10  12
ATOM     12  C   UNL     1       5.304   3.837  -2.902  1.00  0.00     0.174 C 
BRANCH  12  13
ATOM     13  N   UNL     1       6.613   4.460  -3.097  1.00  0.00    -0.342 N 
ATOM     14  C   UNL     1       7.823   3.847  -2.862  1.00  0.00     0.249 C 
ATOM     15  O   UNL     1       7.938   2.687  -2.486  1.00  0.00    -0.272 OA
ATOM     16  H   UNL     1       6.675   5.463  -3.254  1.00  0.00     0.164 HD
BRANCH  14  17
ATOM     17  C   UNL     1       9.025   4.773  -3.145  1.00  0.00     0.207 C 
BRANCH  17  18
ATOM     18  C   UNL     1      10.039   4.071  -4.054  1.00  0.00     0.077 C 
BRANCH  18  19
ATOM     19  C   UNL     1       9.583   4.052  -5.496  1.00  0.00    -0.043 A 
ATOM     20  C   UNL     1       9.373   2.899  -7.620  1.00  0.00     0.083 A 
ATOM     21  C   UNL     1       9.750   2.898  -6.276  1.00  0.00     0.028 A 
ATOM     22  C   UNL     1       8.830   4.050  -8.191  1.00  0.00     0.134 A 
ATOM     23  C   UNL     1       8.658   5.201  -7.430  1.00  0.00     0.048 A 
ATOM     24  C   UNL     1       9.036   5.203  -6.085  1.00  0.00     0.008 A 
ATOM     25  Cl  UNL     1       9.588   1.471  -8.563  1.00  0.00    -0.080 Cl
BRANCH  22  26
ATOM     26  O   UNL     1       8.455   4.103  -9.507  1.00  0.00    -0.506 OA
ATOM     27  H   UNL     1       8.904   3.363  -9.955  1.00  0.00     0.293 HD
ENDBRANCH  22  26
ENDBRANCH  18  19
ENDBRANCH  17  18
BRANCH  17  28
ATOM     28  O   UNL     1       9.672   5.168  -1.925  1.00  0.00    -0.383 OA
ATOM     29  H   UNL     1      10.582   5.445  -2.177  1.00  0.00     0.211 HD
ENDBRANCH  17  28
ENDBRANCH  14  17
ENDBRANCH  12  13
BRANCH  12  30
ATOM     30  C   UNL     1       4.362   4.045  -4.118  1.00  0.00     0.018 C 
ATOM     31  C   UNL     1       3.708   2.718  -4.535  1.00  0.00     0.010 C 
BRANCH  30  32
ATOM     32  C   UNL     1       5.056   4.701  -5.337  1.00  0.00     0.002 C 
ATOM     33  C   UNL     1       5.354   3.764  -6.500  1.00  0.00     0.004 C 
ENDBRANCH  30  32
ENDBRANCH  12  30
ENDBRANCH  10  12
ENDBRANCH   1  10
BRANCH   5  34
ATOM     34  C   UNL     1       3.784   7.256  -0.384  1.00  0.00     0.242 C 
ATOM     35  O   UNL     1       4.136   6.648   0.626  1.00  0.00    -0.273 OA
ATOM     36  N   UNL     1       3.455   8.593  -0.365  1.00  0.00    -0.354 N 
ATOM     37  H   UNL     1       3.055   9.013  -1.205  1.00  0.00     0.163 HD
BRANCH  36  38
ATOM     38  C   UNL     1       3.751   9.446   0.768  1.00  0.00     0.116 C 
BRANCH  38  39
ATOM     39  C   UNL     1       5.219   9.865   0.732  1.00  0.00     0.023 C 
BRANCH  39  40
ATOM     40  C   UNL     1       5.974   9.453   1.991  1.00  0.00     0.026 C 
BRANCH  40  41
ATOM     41  C   UNL     1       7.088   8.461   1.655  1.00  0.00     0.146 C 
BRANCH  41  42
ATOM     42  N   UNL     1       7.381   8.514   0.228  1.00  0.00    -0.254 NA
ATOM     43  C   UNL     1       7.444   7.428  -0.446  1.00  0.00     0.185 C 
ATOM     44  N   UNL     1       7.277   6.153  -0.050  1.00  0.00    -0.370 N 
ATOM     45  N   UNL     1       7.719   7.498  -1.759  1.00  0.00    -0.370 N 
ATOM     46  H   UNL     1       7.594   5.391  -0.625  1.00  0.00     0.159 HD
ATOM     47  H   UNL     1       7.049   5.919   0.912  1.00  0.00     0.159 HD
ATOM     48  H   UNL     1       7.851   8.425  -2.140  1.00  0.00     0.159 HD
ATOM     49  H   UNL     1       7.555   6.735  -2.390  1.00  0.00     0.159 HD
ENDBRANCH  41  42
ENDBRANCH  40  41
ENDBRANCH  39  40
ENDBRANCH  38  39
ENDBRANCH  36  38
ENDBRANCH   5  34
BRANCH   8  50
ATOM     50  O   UNL     1      -0.181   4.868   0.672  1.00  0.00    -0.245 OA
BRANCH  50  51
ATOM     51  S   UNL     1       0.258   4.448   2.181  1.00  0.00     0.397 S 
ATOM     52  O   UNL     1       1.573   4.994   2.431  1.00  0.00    -0.169 OA
ATOM     53  O   UNL     1      -0.038   3.047   2.401  1.00  0.00    -0.169 OA
BRANCH  51  54
ATOM     54  O   UNL     1      -0.755   5.315   3.079  1.00  0.00    -0.264 OA
ATOM     55  H   UNL     1      -0.382   5.369   3.982  1.00  0.00     0.236 HD
ENDBRANCH  51  54
ENDBRANCH  50  51
ENDBRANCH   8  50
TORSDOF 19
ENDMDL
MODEL 6
REMARK VINA RESULT:    -6.465     16.273     19.565
REMARK INTER + INTRA:         -16.639
REMARK INTER:                 -13.422
REMARK INTRA:                  -3.217
REMARK UNBOUND:                -3.560
REMARK SMILES CC[C@@H](C)[C@@H](NC(=O)[C@@H](O)Cc1ccc(O)c(Cl)c1)C(=O)N1[C@H](C(=O)NCCCCN=C(N)N)C[C@H]2CC[C@H](OS(=O)(=O)O)C[C@@H]21
REMARK SMILES IDX 22 1 36 2 46 3 35 4 23 5 45 6 37 7 39 8 38 9 20 10 21 11
REMARK SMILES IDX 5 12 6 13 7 14 8 15 9 17 11 18 12 19 17 20 19 21 15 22 14 23
REMARK SMILES IDX 13 24 18 25 16 26 10 28 3 30 4 31 2 32 1 33 24 34 25 35
REMARK SMILES IDX 26 36 27 38 28 39 29 40 30 41 31 42 32 43 33 44 34 45 40 50
REMARK SMILES IDX 41 51 42 52 43 53 44 54
REMARK H PARENT 6 16 16 27 10 29 26 37 33 46 33 47 34 48 34 49 44 55
ROOT
ATOM      1  N   UNL     1       6.238   4.262  -2.143  1.00  0.00    -0.326 N 
ATOM      2  C   UNL     1       5.410   4.281  -4.347  1.00  0.00     0.014 C 
ATOM      3  C   UNL     1       6.589   3.807  -3.492  1.00  0.00     0.091 C 
ATOM      4  C   UNL     1       5.022   5.594  -3.685  1.00  0.00     0.041 C 
ATOM      5  C   UNL     1       5.071   5.176  -2.203  1.00  0.00     0.175 C 
ATOM      6  C   UNL     1       6.783   2.310  -3.723  1.00  0.00     0.059 C 
ATOM      7  C   UNL     1       5.770   4.268  -5.820  1.00  0.00     0.008 C 
ATOM      8  C   UNL     1       6.403   1.847  -5.146  1.00  0.00     0.143 C 
ATOM      9  C   UNL     1       6.541   2.982  -6.181  1.00  0.00     0.034 C 
ENDROOT
BRANCH   1  10
ATOM     10  C   UNL     1       6.936   4.137  -0.954  1.00  0.00     0.246 C 
ATOM     11  O   UNL     1       7.006   3.029  -0.412  1.00  0.00    -0.272 OA
BRANCH  10  12
ATOM     12  C   UNL     1       7.653   5.380  -0.351  1.00  0.00     0.174 C 
BRANCH  12  13
ATOM     13  N   UNL     1       6.874   5.911   0.767  1.00  0.00    -0.342 N 
ATOM     14  C   UNL     1       7.078   5.596   2.092  1.00  0.00     0.249 C 
ATOM     15  O   UNL     1       7.963   4.848   2.487  1.00  0.00    -0.272 OA
ATOM     16  H   UNL     1       6.012   6.417   0.584  1.00  0.00     0.164 HD
BRANCH  14  17
ATOM     17  C   UNL     1       6.081   6.305   3.033  1.00  0.00     0.207 C 
BRANCH  17  18
ATOM     18  C   UNL     1       6.475   7.773   3.222  1.00  0.00     0.077 C 
BRANCH  18  19
ATOM     19  C   UNL     1       5.385   8.712   2.757  1.00  0.00    -0.043 A 
ATOM     20  C   UNL     1       4.273  10.865   2.874  1.00  0.00     0.083 A 
ATOM     21  C   UNL     1       5.309  10.017   3.268  1.00  0.00     0.028 A 
ATOM     22  C   UNL     1       3.308  10.416   1.971  1.00  0.00     0.134 A 
ATOM     23  C   UNL     1       3.372   9.126   1.457  1.00  0.00     0.048 A 
ATOM     24  C   UNL     1       4.406   8.274   1.851  1.00  0.00     0.008 A 
ATOM     25  Cl  UNL     1       4.196  12.465   3.512  1.00  0.00    -0.080 Cl
BRANCH  22  26
ATOM     26  O   UNL     1       2.268  11.206   1.563  1.00  0.00    -0.506 OA
ATOM     27  H   UNL     1       2.522  12.127   1.762  1.00  0.00     0.293 HD
ENDBRANCH  22  26
ENDBRANCH  18  19
ENDBRANCH  17  18
BRANCH  17  28
ATOM     28  O   UNL     1       6.027   5.656   4.314  1.00  0.00    -0.383 OA
ATOM     29  H   UNL     1       5.083   5.677   4.590  1.00  0.00     0.211 HD
ENDBRANCH  17  28
ENDBRANCH  14  17
ENDBRANCH  12  13
BRANCH  12  30
ATOM     30  C   UNL     1       7.974   6.463  -1.416  1.00  0.00     0.018 C 
ATOM     31  C   UNL     1       9.477   6.485  -1.737  1.00  0.00     0.010 C 
BRANCH  30  32
ATOM     32  C   UNL     1       7.493   7.881  -1.025  1.00  0.00     0.002 C 
ATOM     33  C   UNL     1       8.558   8.969  -1.080  1.00  0.00     0.004 C 
ENDBRANCH  30  32
ENDBRANCH  12  30
ENDBRANCH  10  12
ENDBRANCH   1  10
BRANCH   5  34
ATOM     34  C   UNL     1       3.773   4.441  -1.773  1.00  0.00     0.242 C 
ATOM     35  O   UNL     1       3.742   3.669  -0.815  1.00  0.00    -0.273 OA
ATOM     36  N   UNL     1       2.676   4.673  -2.572  1.00  0.00    -0.354 N 
ATOM     37  H   UNL     1       2.795   5.228  -3.421  1.00  0.00     0.163 HD
BRANCH  36  38
ATOM     38  C   UNL     1       1.344   4.247  -2.199  1.00  0.00     0.116 C 
BRANCH  38  39
ATOM     39  C   UNL     1       0.599   5.399  -1.528  1.00  0.00     0.023 C 
BRANCH  39  40
ATOM     40  C   UNL     1       1.301   6.738  -1.723  1.00  0.00     0.026 C 
BRANCH  40  41
ATOM     41  C   UNL     1       0.762   7.458  -2.959  1.00  0.00     0.146 C 
BRANCH  41  42
ATOM     42  N   UNL     1       1.771   7.452  -4.011  1.00  0.00    -0.254 NA
ATOM     43  C   UNL     1       1.566   6.778  -5.080  1.00  0.00     0.185 C 
ATOM     44  N   UNL     1       0.514   6.019  -5.437  1.00  0.00    -0.370 N 
ATOM     45  N   UNL     1       2.510   6.782  -6.036  1.00  0.00    -0.370 N 
ATOM     46  H   UNL     1       0.592   5.356  -6.189  1.00  0.00     0.159 HD
ATOM     47  H   UNL     1      -0.297   5.916  -4.835  1.00  0.00     0.159 HD
ATOM     48  H   UNL     1       3.334   7.338  -5.850  1.00  0.00     0.159 HD
ATOM     49  H   UNL     1       2.331   6.485  -6.978  1.00  0.00     0.159 HD
ENDBRANCH  41  42
ENDBRANCH  40  41
ENDBRANCH  39  40
ENDBRANCH  38  39
ENDBRANCH  36  38
ENDBRANCH   5  34
BRANCH   8  50
ATOM     50  O   UNL     1       5.055   1.377  -5.166  1.00  0.00    -0.245 OA
BRANCH  50  51
ATOM     51  S   UNL     1       4.678   0.052  -6.031  1.00  0.00     0.397 S 
ATOM     52  O   UNL     1       4.612   0.433  -7.424  1.00  0.00    -0.169 OA
ATOM     53  O   UNL     1       3.594  -0.658  -5.386  1.00  0.00    -0.169 OA
BRANCH  51  54
ATOM     54  O   UNL     1       6.011  -0.835  -5.883  1.00  0.00    -0.264 OA
ATOM     55  H   UNL     1       5.869  -1.671  -6.374  1.00  0.00     0.236 HD
ENDBRANCH  51  54
ENDBRANCH  50  51
ENDBRANCH   8  50
TORSDOF 19
ENDMDL
MODEL 7
REMARK VINA RESULT:    -6.442     14.546     18.579
REMARK INTER + INTRA:         -16.593
REMARK INTER:                 -12.098
REMARK INTRA:                  -4.496
REMARK UNBOUND:                -3.560
REMARK SMILES CC[C@@H](C)[C@@H](NC(=O)[C@@H](O)Cc1ccc(O)c(Cl)c1)C(=O)N1[C@H](C(=O)NCCCCN=C(N)N)C[C@H]2CC[C@H](OS(=O)(=O)O)C[C@@H]21
REMARK SMILES IDX 22 1 36 2 46 3 35 4 23 5 45 6 37 7 39 8 38 9 20 10 21 11
REMARK SMILES IDX 5 12 6 13 7 14 8 15 9 17 11 18 12 19 17 20 19 21 15 22 14 23
REMARK SMILES IDX 13 24 18 25 16 26 10 28 3 30 4 31 2 32 1 33 24 34 25 35
REMARK SMILES IDX 26 36 27 38 28 39 29 40 30 41 31 42 32 43 33 44 34 45 40 50
REMARK SMILES IDX 41 51 42 52 43 53 44 54
REMARK H PARENT 6 16 16 27 10 29 26 37 33 46 33 47 34 48 34 49 44 55
ROOT
ATOM      1  N   UNL     1       4.234   8.402   1.737  1.00  0.00    -0.326 N 
ATOM      2  C   UNL     1       3.610   9.021   3.921  1.00  0.00     0.014 C 
ATOM      3  C   UNL     1       3.215   8.116   2.751  1.00  0.00     0.091 C 
ATOM      4  C   UNL     1       4.163  10.252   3.220  1.00  0.00     0.041 C 
ATOM      5  C   UNL     1       5.036   9.583   2.143  1.00  0.00     0.175 C 
ATOM      6  C   UNL     1       3.089   6.684   3.269  1.00  0.00     0.059 C 
ATOM      7  C   UNL     1       2.461   9.176   4.899  1.00  0.00     0.008 C 
ATOM      8  C   UNL     1       2.614   6.593   4.735  1.00  0.00     0.143 C 
ATOM      9  C   UNL     1       1.772   7.817   5.148  1.00  0.00     0.034 C 
ENDROOT
BRANCH   1  10
ATOM     10  C   UNL     1       4.381   7.893   0.458  1.00  0.00     0.246 C 
ATOM     11  O   UNL     1       4.992   8.557  -0.386  1.00  0.00    -0.272 OA
BRANCH  10  12
ATOM     12  C   UNL     1       3.815   6.482   0.124  1.00  0.00     0.174 C 
BRANCH  12  13
ATOM     13  N   UNL     1       4.901   5.594  -0.288  1.00  0.00    -0.342 N 
ATOM     14  C   UNL     1       5.739   4.919   0.571  1.00  0.00     0.249 C 
ATOM     15  O   UNL     1       5.647   4.968   1.791  1.00  0.00    -0.272 OA
ATOM     16  H   UNL     1       5.196   5.577  -1.261  1.00  0.00     0.164 HD
BRANCH  14  17
ATOM     17  C   UNL     1       6.796   4.073  -0.170  1.00  0.00     0.207 C 
BRANCH  17  18
ATOM     18  C   UNL     1       6.230   3.545  -1.492  1.00  0.00     0.077 C 
BRANCH  18  19
ATOM     19  C   UNL     1       6.919   4.165  -2.686  1.00  0.00    -0.043 A 
ATOM     20  C   UNL     1       6.901   4.805  -5.026  1.00  0.00     0.083 A 
ATOM     21  C   UNL     1       6.245   4.278  -3.913  1.00  0.00     0.028 A 
ATOM     22  C   UNL     1       8.229   5.220  -4.923  1.00  0.00     0.134 A 
ATOM     23  C   UNL     1       8.908   5.113  -3.715  1.00  0.00     0.048 A 
ATOM     24  C   UNL     1       8.255   4.584  -2.599  1.00  0.00     0.008 A 
ATOM     25  Cl  UNL     1       6.056   4.936  -6.524  1.00  0.00    -0.080 Cl
BRANCH  22  26
ATOM     26  O   UNL     1       8.916   5.733  -5.990  1.00  0.00    -0.506 OA
ATOM     27  H   UNL     1       8.457   6.553  -6.250  1.00  0.00     0.293 HD
ENDBRANCH  22  26
ENDBRANCH  18  19
ENDBRANCH  17  18
BRANCH  17  28
ATOM     28  O   UNL     1       7.233   2.968   0.637  1.00  0.00    -0.383 OA
ATOM     29  H   UNL     1       8.208   3.067   0.729  1.00  0.00     0.211 HD
ENDBRANCH  17  28
ENDBRANCH  14  17
ENDBRANCH  12  13
BRANCH  12  30
ATOM     30  C   UNL     1       2.662   6.530  -0.914  1.00  0.00     0.018 C 
ATOM     31  C   UNL     1       1.454   5.714  -0.427  1.00  0.00     0.010 C 
BRANCH  30  32
ATOM     32  C   UNL     1       3.081   6.065  -2.330  1.00  0.00     0.002 C 
ATOM     33  C   UNL     1       3.085   7.151  -3.398  1.00  0.00     0.004 C 
ENDBRANCH  30  32
ENDBRANCH  12  30
ENDBRANCH  10  12
ENDBRANCH   1  10
BRANCH   5  34
ATOM     34  C   UNL     1       6.412   9.145   2.712  1.00  0.00     0.242 C 
ATOM     35  O   UNL     1       7.062   9.854   3.479  1.00  0.00    -0.273 OA
ATOM     36  N   UNL     1       6.875   7.932   2.254  1.00  0.00    -0.354 N 
ATOM     37  H   UNL     1       6.348   7.446   1.528  1.00  0.00     0.163 HD
BRANCH  36  38
ATOM     38  C   UNL     1       8.026   7.274   2.838  1.00  0.00     0.116 C 
BRANCH  38  39
ATOM     39  C   UNL     1       9.151   7.186   1.809  1.00  0.00     0.023 C 
BRANCH  39  40
ATOM     40  C   UNL     1       8.637   7.277   0.376  1.00  0.00     0.026 C 
BRANCH  40  41
ATOM     41  C   UNL     1       9.310   8.430  -0.369  1.00  0.00     0.146 C 
BRANCH  41  42
ATOM     42  N   UNL     1       9.229   9.646   0.430  1.00  0.00    -0.254 NA
ATOM     43  C   UNL     1       8.302  10.497   0.196  1.00  0.00     0.185 C 
ATOM     44  N   UNL     1       7.316  10.473  -0.719  1.00  0.00    -0.370 N 
ATOM     45  N   UNL     1       8.247  11.613   0.941  1.00  0.00    -0.370 N 
ATOM     46  H   UNL     1       6.813  11.311  -0.954  1.00  0.00     0.159 HD
ATOM     47  H   UNL     1       7.201   9.692  -1.359  1.00  0.00     0.159 HD
ATOM     48  H   UNL     1       8.951  11.707   1.661  1.00  0.00     0.159 HD
ATOM     49  H   UNL     1       7.433  12.201   0.982  1.00  0.00     0.159 HD
ENDBRANCH  41  42
ENDBRANCH  40  41
ENDBRANCH  39  40
ENDBRANCH  38  39
ENDBRANCH  36  38
ENDBRANCH   5  34
BRANCH   8  50
ATOM     50  O   UNL     1       3.738   6.499   5.610  1.00  0.00    -0.245 OA
BRANCH  50  51
ATOM     51  S   UNL     1       3.862   5.235   6.626  1.00  0.00     0.397 S 
ATOM     52  O   UNL     1       3.529   5.696   7.955  1.00  0.00    -0.169 OA
ATOM     53  O   UNL     1       5.089   4.514   6.357  1.00  0.00    -0.169 OA
BRANCH  51  54
ATOM     54  O   UNL     1       2.632   4.310   6.162  1.00  0.00    -0.264 OA
ATOM     55  H   UNL     1       2.116   4.811   5.497  1.00  0.00     0.236 HD
ENDBRANCH  51  54
ENDBRANCH  50  51
ENDBRANCH   8  50
TORSDOF 19
ENDMDL
MODEL 8
REMARK VINA RESULT:    -6.434     17.531     22.024
REMARK INTER + INTRA:         -16.577
REMARK INTER:                 -11.660
REMARK INTRA:                  -4.917
REMARK UNBOUND:                -3.560
REMARK SMILES CC[C@@H](C)[C@@H](NC(=O)[C@@H](O)Cc1ccc(O)c(Cl)c1)C(=O)N1[C@H](C(=O)NCCCCN=C(N)N)C[C@H]2CC[C@H](OS(=O)(=O)O)C[C@@H]21
REMARK SMILES IDX 22 1 36 2 46 3 35 4 23 5 45 6 37 7 39 8 38 9 20 10 21 11
REMARK SMILES IDX 5 12 6 13 7 14 8 15 9 17 11 18 12 19 17 20 19 21 15 22 14 23
REMARK SMILES IDX 13 24 18 25 16 26 10 28 3 30 4 31 2 32 1 33 24 34 25 35
REMARK SMILES IDX 26 36 27 38 28 39 29 40 30 41 31 42 32 43 33 44 34 45 40 50
REMARK SMILES IDX 41 51 42 52 43 53 44 54
REMARK H PARENT 6 16 16 27 10 29 26 37 33 46 33 47 34 48 34 49 44 55
ROOT
ATOM      1  N   UNL     1       8.149   4.656  -6.278  1.00  0.00    -0.326 N 
ATOM      2  C   UNL     1       8.383   3.825  -8.468  1.00  0.00     0.014 C 
ATOM      3  C   UNL     1       8.712   3.515  -7.005  1.00  0.00     0.091 C 
ATOM      4  C   UNL     1       8.497   5.341  -8.522  1.00  0.00     0.041 C 
ATOM      5  C   UNL     1       7.744   5.717  -7.233  1.00  0.00     0.175 C 
ATOM      6  C   UNL     1       8.188   2.118  -6.679  1.00  0.00     0.059 C 
ATOM      7  C   UNL     1       9.227   2.983  -9.405  1.00  0.00     0.008 C 
ATOM      8  C   UNL     1       8.215   1.147  -7.879  1.00  0.00     0.143 C 
ATOM      9  C   UNL     1       9.303   1.525  -8.905  1.00  0.00     0.034 C 
ENDROOT
BRANCH   1  10
ATOM     10  C   UNL     1       8.157   4.936  -4.922  1.00  0.00     0.246 C 
ATOM     11  O   UNL     1       9.078   5.614  -4.454  1.00  0.00    -0.272 OA
BRANCH  10  12
ATOM     12  C   UNL     1       6.989   4.429  -4.027  1.00  0.00     0.174 C 
BRANCH  12  13
ATOM     13  N   UNL     1       6.053   5.521  -3.764  1.00  0.00    -0.342 N 
ATOM     14  C   UNL     1       4.681   5.403  -3.763  1.00  0.00     0.249 C 
ATOM     15  O   UNL     1       4.087   4.350  -3.958  1.00  0.00    -0.272 OA
ATOM     16  H   UNL     1       6.391   6.480  -3.741  1.00  0.00     0.164 HD
BRANCH  14  17
ATOM     17  C   UNL     1       3.968   6.740  -3.468  1.00  0.00     0.207 C 
BRANCH  17  18
ATOM     18  C   UNL     1       2.973   6.574  -2.315  1.00  0.00     0.077 C 
BRANCH  18  19
ATOM     19  C   UNL     1       3.594   6.927  -0.982  1.00  0.00    -0.043 A 
ATOM     20  C   UNL     1       4.951   8.407   0.379  1.00  0.00     0.083 A 
ATOM     21  C   UNL     1       4.339   8.108  -0.839  1.00  0.00     0.028 A 
ATOM     22  C   UNL     1       4.825   7.530   1.457  1.00  0.00     0.134 A 
ATOM     23  C   UNL     1       4.091   6.358   1.329  1.00  0.00     0.048 A 
ATOM     24  C   UNL     1       3.478   6.055   0.111  1.00  0.00     0.008 A 
ATOM     25  Cl  UNL     1       5.863   9.862   0.535  1.00  0.00    -0.080 Cl
BRANCH  22  26
ATOM     26  O   UNL     1       5.417   7.775   2.667  1.00  0.00    -0.506 OA
ATOM     27  H   UNL     1       6.233   7.243   2.693  1.00  0.00     0.293 HD
ENDBRANCH  22  26
ENDBRANCH  18  19
ENDBRANCH  17  18
BRANCH  17  28
ATOM     28  O   UNL     1       3.275   7.224  -4.630  1.00  0.00    -0.383 OA
ATOM     29  H   UNL     1       2.676   7.937  -4.312  1.00  0.00     0.211 HD
ENDBRANCH  17  28
ENDBRANCH  14  17
ENDBRANCH  12  13
BRANCH  12  30
ATOM     30  C   UNL     1       7.484   3.746  -2.724  1.00  0.00     0.018 C 
ATOM     31  C   UNL     1       7.260   2.227  -2.784  1.00  0.00     0.010 C 
BRANCH  30  32
ATOM     32  C   UNL     1       6.849   4.328  -1.438  1.00  0.00     0.002 C 
ATOM     33  C   UNL     1       5.919   3.383  -0.686  1.00  0.00     0.004 C 
ENDBRANCH  30  32
ENDBRANCH  12  30
ENDBRANCH  10  12
ENDBRANCH   1  10
BRANCH   5  34
ATOM     34  C   UNL     1       6.206   5.708  -7.445  1.00  0.00     0.242 C 
ATOM     35  O   UNL     1       5.473   4.875  -6.912  1.00  0.00    -0.273 OA
ATOM     36  N   UNL     1       5.729   6.664  -8.314  1.00  0.00    -0.354 N 
ATOM     37  H   UNL     1       6.398   7.248  -8.817  1.00  0.00     0.163 HD
BRANCH  36  38
ATOM     38  C   UNL     1       4.315   6.938  -8.461  1.00  0.00     0.116 C 
BRANCH  38  39
ATOM     39  C   UNL     1       3.750   6.133  -9.629  1.00  0.00     0.023 C 
BRANCH  39  40
ATOM     40  C   UNL     1       2.225   6.138  -9.656  1.00  0.00     0.026 C 
BRANCH  40  41
ATOM     41  C   UNL     1       1.666   4.880  -8.992  1.00  0.00     0.146 C 
BRANCH  41  42
ATOM     42  N   UNL     1       1.252   5.185  -7.629  1.00  0.00    -0.254 NA
ATOM     43  C   UNL     1       1.841   4.617  -6.645  1.00  0.00     0.185 C 
ATOM     44  N   UNL     1       2.848   3.725  -6.638  1.00  0.00    -0.370 N 
ATOM     45  N   UNL     1       1.441   4.909  -5.397  1.00  0.00    -0.370 N 
ATOM     46  H   UNL     1       3.047   3.181  -5.815  1.00  0.00     0.159 HD
ATOM     47  H   UNL     1       3.281   3.403  -7.498  1.00  0.00     0.159 HD
ATOM     48  H   UNL     1       0.691   5.581  -5.312  1.00  0.00     0.159 HD
ATOM     49  H   UNL     1       1.994   4.697  -4.585  1.00  0.00     0.159 HD
ENDBRANCH  41  42
ENDBRANCH  40  41
ENDBRANCH  39  40
ENDBRANCH  38  39
ENDBRANCH  36  38
ENDBRANCH   5  34
BRANCH   8  50
ATOM     50  O   UNL     1       6.950   1.148  -8.540  1.00  0.00    -0.245 OA
BRANCH  50  51
ATOM     51  S   UNL     1       5.671   0.441  -7.826  1.00  0.00     0.397 S 
ATOM     52  O   UNL     1       4.925  -0.265  -8.844  1.00  0.00    -0.169 OA
ATOM     53  O   UNL     1       5.030   1.383  -6.932  1.00  0.00    -0.169 OA
BRANCH  51  54
ATOM     54  O   UNL     1       6.372  -0.695  -6.930  1.00  0.00    -0.264 OA
ATOM     55  H   UNL     1       6.811  -1.325  -7.537  1.00  0.00     0.236 HD
ENDBRANCH  51  54
ENDBRANCH  50  51
ENDBRANCH   8  50
TORSDOF 19
ENDMDL
MODEL 9
REMARK VINA RESULT:    -6.428     13.083     18.098
REMARK INTER + INTRA:         -16.565
REMARK INTER:                 -12.882
REMARK INTRA:                  -3.683
REMARK UNBOUND:                -3.560
REMARK SMILES CC[C@@H](C)[C@@H](NC(=O)[C@@H](O)Cc1ccc(O)c(Cl)c1)C(=O)N1[C@H](C(=O)NCCCCN=C(N)N)C[C@H]2CC[C@H](OS(=O)(=O)O)C[C@@H]21
REMARK SMILES IDX 22 1 36 2 46 3 35 4 23 5 45 6 37 7 39 8 38 9 20 10 21 11
REMARK SMILES IDX 5 12 6 13 7 14 8 15 9 17 11 18 12 19 17 20 19 21 15 22 14 23
REMARK SMILES IDX 13 24 18 25 16 26 10 28 3 30 4 31 2 32 1 33 24 34 25 35
REMARK SMILES IDX 26 36 27 38 28 39 29 40 30 41 31 42 32 43 33 44 34 45 40 50
REMARK SMILES IDX 41 51 42 52 43 53 44 54
REMARK H PARENT 6 16 16 27 10 29 26 37 33 46 33 47 34 48 34 49 44 55
ROOT
ATOM      1  N   UNL     1       5.271   6.727   0.342  1.00  0.00    -0.326 N 
ATOM      2  C   UNL     1       3.806   5.291  -0.813  1.00  0.00     0.014 C 
ATOM      3  C   UNL     1       3.844   6.546   0.064  1.00  0.00     0.091 C 
ATOM      4  C   UNL     1       4.942   4.453  -0.246  1.00  0.00     0.041 C 
ATOM      5  C   UNL     1       6.031   5.532  -0.101  1.00  0.00     0.175 C 
ATOM      6  C   UNL     1       3.099   7.665  -0.662  1.00  0.00     0.059 C 
ATOM      7  C   UNL     1       2.407   4.709  -0.866  1.00  0.00     0.008 C 
ATOM      8  C   UNL     1       1.936   7.166  -1.547  1.00  0.00     0.143 C 
ATOM      9  C   UNL     1       1.359   5.827  -1.043  1.00  0.00     0.034 C 
ENDROOT
BRANCH   1  10
ATOM     10  C   UNL     1       5.912   7.690   1.102  1.00  0.00     0.246 C 
ATOM     11  O   UNL     1       6.206   8.772   0.581  1.00  0.00    -0.272 OA
BRANCH  10  12
ATOM     12  C   UNL     1       6.210   7.409   2.604  1.00  0.00     0.174 C 
BRANCH  12  13
ATOM     13  N   UNL     1       4.996   6.947   3.275  1.00  0.00    -0.342 N 
ATOM     14  C   UNL     1       4.742   5.644   3.640  1.00  0.00     0.249 C 
ATOM     15  O   UNL     1       5.528   4.721   3.465  1.00  0.00    -0.272 OA
ATOM     16  H   UNL     1       4.192   7.566   3.344  1.00  0.00     0.164 HD
BRANCH  14  17
ATOM     17  C   UNL     1       3.365   5.472   4.316  1.00  0.00     0.207 C 
BRANCH  17  18
ATOM     18  C   UNL     1       3.469   4.519   5.510  1.00  0.00     0.077 C 
BRANCH  18  19
ATOM     19  C   UNL     1       2.427   4.821   6.563  1.00  0.00    -0.043 A 
ATOM     20  C   UNL     1       1.822   5.777   8.709  1.00  0.00     0.083 A 
ATOM     21  C   UNL     1       2.774   5.543   7.716  1.00  0.00     0.028 A 
ATOM     22  C   UNL     1       0.522   5.293   8.558  1.00  0.00     0.134 A 
ATOM     23  C   UNL     1       0.165   4.578   7.421  1.00  0.00     0.048 A 
ATOM     24  C   UNL     1       1.116   4.339   6.427  1.00  0.00     0.008 A 
ATOM     25  Cl  UNL     1       2.267   6.665  10.119  1.00  0.00    -0.080 Cl
BRANCH  22  26
ATOM     26  O   UNL     1      -0.443   5.489   9.509  1.00  0.00    -0.506 OA
ATOM     27  H   UNL     1      -0.470   4.679  10.051  1.00  0.00     0.293 HD
ENDBRANCH  22  26
ENDBRANCH  18  19
ENDBRANCH  17  18
BRANCH  17  28
ATOM     28  O   UNL     1       2.392   4.967   3.386  1.00  0.00    -0.383 OA
ATOM     29  H   UNL     1       2.298   4.008   3.585  1.00  0.00     0.211 HD
ENDBRANCH  17  28
ENDBRANCH  14  17
ENDBRANCH  12  13
BRANCH  12  30
ATOM     30  C   UNL     1       6.861   8.621   3.323  1.00  0.00     0.018 C 
ATOM     31  C   UNL     1       8.377   8.418   3.474  1.00  0.00     0.010 C 
BRANCH  30  32
ATOM     32  C   UNL     1       6.228   8.939   4.700  1.00  0.00     0.002 C 
ATOM     33  C   UNL     1       5.507  10.278   4.791  1.00  0.00     0.004 C 
ENDBRANCH  30  32
ENDBRANCH  12  30
ENDBRANCH  10  12
ENDBRANCH   1  10
BRANCH   5  34
ATOM     34  C   UNL     1       6.749   5.804  -1.449  1.00  0.00     0.242 C 
ATOM     35  O   UNL     1       6.450   6.753  -2.174  1.00  0.00    -0.273 OA
ATOM     36  N   UNL     1       7.707   4.879  -1.800  1.00  0.00    -0.354 N 
ATOM     37  H   UNL     1       7.826   4.050  -1.216  1.00  0.00     0.163 HD
BRANCH  36  38
ATOM     38  C   UNL     1       8.618   5.091  -2.906  1.00  0.00     0.116 C 
BRANCH  38  39
ATOM     39  C   UNL     1       8.837   3.778  -3.654  1.00  0.00     0.023 C 
BRANCH  39  40
ATOM     40  C   UNL     1       7.665   2.816  -3.499  1.00  0.00     0.026 C 
BRANCH  40  41
ATOM     41  C   UNL     1       6.696   2.947  -4.674  1.00  0.00     0.146 C 
BRANCH  41  42
ATOM     42  N   UNL     1       5.649   3.905  -4.345  1.00  0.00    -0.254 NA
ATOM     43  C   UNL     1       5.611   5.033  -4.947  1.00  0.00     0.185 C 
ATOM     44  N   UNL     1       6.419   5.534  -5.899  1.00  0.00    -0.370 N 
ATOM     45  N   UNL     1       4.640   5.904  -4.625  1.00  0.00    -0.370 N 
ATOM     46  H   UNL     1       6.420   6.519  -6.105  1.00  0.00     0.159 HD
ATOM     47  H   UNL     1       7.199   5.001  -6.270  1.00  0.00     0.159 HD
ATOM     48  H   UNL     1       3.981   5.601  -3.921  1.00  0.00     0.159 HD
ATOM     49  H   UNL     1       4.401   6.690  -5.203  1.00  0.00     0.159 HD
ENDBRANCH  41  42
ENDBRANCH  40  41
ENDBRANCH  39  40
ENDBRANCH  38  39
ENDBRANCH  36  38
ENDBRANCH   5  34
BRANCH   8  50
ATOM     50  O   UNL     1       2.383   6.989  -2.891  1.00  0.00    -0.245 OA
BRANCH  50  51
ATOM     51  S   UNL     1       1.440   7.478  -4.122  1.00  0.00     0.397 S 
ATOM     52  O   UNL     1       0.566   8.519  -3.629  1.00  0.00    -0.169 OA
ATOM     53  O   UNL     1       0.923   6.324  -4.827  1.00  0.00    -0.169 OA
BRANCH  51  54
ATOM     54  O   UNL     1       2.497   8.214  -5.084  1.00  0.00    -0.264 OA
ATOM     55  H   UNL     1       3.222   8.559  -4.523  1.00  0.00     0.236 HD
ENDBRANCH  51  54
ENDBRANCH  50  51
ENDBRANCH   8  50
TORSDOF 19
ENDMDL
MODEL 10
REMARK VINA RESULT:    -6.420     18.222     20.862
REMARK INTER + INTRA:         -16.549
REMARK INTER:                 -13.724
REMARK INTRA:                  -2.825
REMARK UNBOUND:                -3.560
REMARK SMILES CC[C@@H](C)[C@@H](NC(=O)[C@@H](O)Cc1ccc(O)c(Cl)c1)C(=O)N1[C@H](C(=O)NCCCCN=C(N)N)C[C@H]2CC[C@H](OS(=O)(=O)O)C[C@@H]21
REMARK SMILES IDX 22 1 36 2 46 3 35 4 23 5 45 6 37 7 39 8 38 9 20 10 21 11
REMARK SMILES IDX 5 12 6 13 7 14 8 15 9 17 11 18 12 19 17 20 19 21 15 22 14 23
REMARK SMILES IDX 13 24 18 25 16 26 10 28 3 30 4 31 2 32 1 33 24 34 25 35
REMARK SMILES IDX 26 36 27 38 28 39 29 40 30 41 31 42 32 43 33 44 34 45 40 50
REMARK SMILES IDX 41 51 42 52 43 53 44 54
REMARK H PARENT 6 16 16 27 10 29 26 37 33 46 33 47 34 48 34 49 44 55
ROOT
ATOM      1  N   UNL     1       4.983   2.733  -6.289  1.00  0.00    -0.326 N 
ATOM      2  C   UNL     1       2.893   3.495  -5.519  1.00  0.00     0.014 C 
ATOM      3  C   UNL     1       4.127   3.922  -6.319  1.00  0.00     0.091 C 
ATOM      4  C   UNL     1       3.483   2.579  -4.457  1.00  0.00     0.041 C 
ATOM      5  C   UNL     1       4.445   1.744  -5.323  1.00  0.00     0.175 C 
ATOM      6  C   UNL     1       3.663   4.447  -7.677  1.00  0.00     0.059 C 
ATOM      7  C   UNL     1       2.080   4.701  -5.091  1.00  0.00     0.008 C 
ATOM      8  C   UNL     1       2.279   5.130  -7.640  1.00  0.00     0.143 C 
ATOM      9  C   UNL     1       1.958   5.714  -6.250  1.00  0.00     0.034 C 
ENDROOT
BRANCH   1  10
ATOM     10  C   UNL     1       6.241   2.531  -6.831  1.00  0.00     0.246 C 
ATOM     11  O   UNL     1       6.342   2.262  -8.033  1.00  0.00    -0.272 OA
BRANCH  10  12
ATOM     12  C   UNL     1       7.500   2.690  -5.929  1.00  0.00     0.174 C 
BRANCH  12  13
ATOM     13  N   UNL     1       7.113   3.222  -4.623  1.00  0.00    -0.342 N 
ATOM     14  C   UNL     1       7.500   2.697  -3.410  1.00  0.00     0.249 C 
ATOM     15  O   UNL     1       8.242   1.731  -3.291  1.00  0.00    -0.272 OA
ATOM     16  H   UNL     1       6.379   3.922  -4.562  1.00  0.00     0.164 HD
BRANCH  14  17
ATOM     17  C   UNL     1       6.913   3.473  -2.212  1.00  0.00     0.207 C 
BRANCH  17  18
ATOM     18  C   UNL     1       7.294   4.955  -2.294  1.00  0.00     0.077 C 
BRANCH  18  19
ATOM     19  C   UNL     1       6.101   5.855  -2.066  1.00  0.00    -0.043 A 
ATOM     20  C   UNL     1       4.963   7.543  -0.747  1.00  0.00     0.083 A 
ATOM     21  C   UNL     1       6.085   6.749  -0.984  1.00  0.00     0.028 A 
ATOM     22  C   UNL     1       3.852   7.449  -1.586  1.00  0.00     0.134 A 
ATOM     23  C   UNL     1       3.854   6.569  -2.661  1.00  0.00     0.048 A 
ATOM     24  C   UNL     1       4.976   5.771  -2.900  1.00  0.00     0.008 A 
ATOM     25  Cl  UNL     1       4.962   8.635   0.588  1.00  0.00    -0.080 Cl
BRANCH  22  26
ATOM     26  O   UNL     1       2.724   8.200  -1.388  1.00  0.00    -0.506 OA
ATOM     27  H   UNL     1       2.008   7.766  -1.887  1.00  0.00     0.293 HD
ENDBRANCH  22  26
ENDBRANCH  18  19
ENDBRANCH  17  18
BRANCH  17  28
ATOM     28  O   UNL     1       7.379   2.930  -0.966  1.00  0.00    -0.383 OA
ATOM     29  H   UNL     1       6.573   2.671  -0.464  1.00  0.00     0.211 HD
ENDBRANCH  17  28
ENDBRANCH  14  17
ENDBRANCH  12  13
BRANCH  12  30
ATOM     30  C   UNL     1       8.619   3.528  -6.603  1.00  0.00     0.018 C 
ATOM     31  C   UNL     1      10.008   3.011  -6.198  1.00  0.00     0.010 C 
BRANCH  30  32
ATOM     32  C   UNL     1       8.513   5.047  -6.321  1.00  0.00     0.002 C 
ATOM     33  C   UNL     1       7.743   5.850  -7.361  1.00  0.00     0.004 C 
ENDBRANCH  30  32
ENDBRANCH  12  30
ENDBRANCH  10  12
ENDBRANCH   1  10
BRANCH   5  34
ATOM     34  C   UNL     1       3.702   0.600  -6.063  1.00  0.00     0.242 C 
ATOM     35  O   UNL     1       4.153   0.072  -7.079  1.00  0.00    -0.273 OA
ATOM     36  N   UNL     1       2.479   0.257  -5.531  1.00  0.00    -0.354 N 
ATOM     37  H   UNL     1       2.105   0.811  -4.761  1.00  0.00     0.163 HD
BRANCH  36  38
ATOM     38  C   UNL     1       1.754  -0.922  -5.959  1.00  0.00     0.116 C 
BRANCH  38  39
ATOM     39  C   UNL     1       1.683  -1.930  -4.814  1.00  0.00     0.023 C 
BRANCH  39  40
ATOM     40  C   UNL     1       0.329  -2.627  -4.735  1.00  0.00     0.026 C 
BRANCH  40  41
ATOM     41  C   UNL     1       0.458  -4.105  -5.103  1.00  0.00     0.146 C 
BRANCH  41  42
ATOM     42  N   UNL     1       1.343  -4.773  -4.158  1.00  0.00    -0.254 NA
ATOM     43  C   UNL     1       2.044  -5.772  -4.544  1.00  0.00     0.185 C 
ATOM     44  N   UNL     1       2.118  -6.362  -5.751  1.00  0.00    -0.370 N 
ATOM     45  N   UNL     1       2.850  -6.377  -3.656  1.00  0.00    -0.370 N 
ATOM     46  H   UNL     1       2.518  -7.280  -5.849  1.00  0.00     0.159 HD
ATOM     47  H   UNL     1       1.583  -6.023  -6.544  1.00  0.00     0.159 HD
ATOM     48  H   UNL     1       2.860  -5.988  -2.722  1.00  0.00     0.159 HD
ATOM     49  H   UNL     1       3.591  -6.997  -3.929  1.00  0.00     0.159 HD
ENDBRANCH  41  42
ENDBRANCH  40  41
ENDBRANCH  39  40
ENDBRANCH  38  39
ENDBRANCH  36  38
ENDBRANCH   5  34
BRANCH   8  50
ATOM     50  O   UNL     1       1.260   4.190  -7.984  1.00  0.00    -0.245 OA
BRANCH  50  51
ATOM     51  S   UNL     1       0.103   4.613  -9.046  1.00  0.00     0.397 S 
ATOM     52  O   UNL     1      -1.167   4.588  -8.357  1.00  0.00    -0.169 OA
ATOM     53  O   UNL     1       0.306   3.905 -10.293  1.00  0.00    -0.169 OA
BRANCH  51  54
ATOM     54  O   UNL     1       0.432   6.167  -9.300  1.00  0.00    -0.264 OA
ATOM     55  H   UNL     1      -0.315   6.552  -9.802  1.00  0.00     0.236 HD
ENDBRANCH  51  54
ENDBRANCH  50  51
ENDBRANCH   8  50
TORSDOF 19
ENDMDL
MODEL 11
REMARK VINA RESULT:    -6.392     13.409     18.472
REMARK INTER + INTRA:         -16.491
REMARK INTER:                 -14.041
REMARK INTRA:                  -2.450
REMARK UNBOUND:                -3.560
REMARK SMILES CC[C@@H](C)[C@@H](NC(=O)[C@@H](O)Cc1ccc(O)c(Cl)c1)C(=O)N1[C@H](C(=O)NCCCCN=C(N)N)C[C@H]2CC[C@H](OS(=O)(=O)O)C[C@@H]21
REMARK SMILES IDX 22 1 36 2 46 3 35 4 23 5 45 6 37 7 39 8 38 9 20 10 21 11
REMARK SMILES IDX 5 12 6 13 7 14 8 15 9 17 11 18 12 19 17 20 19 21 15 22 14 23
REMARK SMILES IDX 13 24 18 25 16 26 10 28 3 30 4 31 2 32 1 33 24 34 25 35
REMARK SMILES IDX 26 36 27 38 28 39 29 40 30 41 31 42 32 43 33 44 34 45 40 50
REMARK SMILES IDX 41 51 42 52 43 53 44 54
REMARK H PARENT 6 16 16 27 10 29 26 37 33 46 33 47 34 48 34 49 44 55
ROOT
ATOM      1  N   UNL     1       5.437   6.301  -0.188  1.00  0.00    -0.326 N 
ATOM      2  C   UNL     1       3.758   4.907  -1.073  1.00  0.00     0.014 C 
ATOM      3  C   UNL     1       3.977   6.183  -0.255  1.00  0.00     0.091 C 
ATOM      4  C   UNL     1       4.924   4.030  -0.643  1.00  0.00     0.041 C 
ATOM      5  C   UNL     1       6.070   5.057  -0.691  1.00  0.00     0.175 C 
ATOM      6  C   UNL     1       3.188   7.317  -0.907  1.00  0.00     0.059 C 
ATOM      7  C   UNL     1       2.341   4.394  -0.909  1.00  0.00     0.008 C 
ATOM      8  C   UNL     1       1.889   6.851  -1.601  1.00  0.00     0.143 C 
ATOM      9  C   UNL     1       1.330   5.558  -0.974  1.00  0.00     0.034 C 
ENDROOT
BRANCH   1  10
ATOM     10  C   UNL     1       6.222   7.251   0.441  1.00  0.00     0.246 C 
ATOM     11  O   UNL     1       6.359   8.361  -0.084  1.00  0.00    -0.272 OA
BRANCH  10  12
ATOM     12  C   UNL     1       6.880   6.919   1.812  1.00  0.00     0.174 C 
BRANCH  12  13
ATOM     13  N   UNL     1       5.847   6.746   2.832  1.00  0.00    -0.342 N 
ATOM     14  C   UNL     1       5.424   5.534   3.331  1.00  0.00     0.249 C 
ATOM     15  O   UNL     1       5.893   4.455   2.991  1.00  0.00    -0.272 OA
ATOM     16  H   UNL     1       5.261   7.535   3.094  1.00  0.00     0.164 HD
BRANCH  14  17
ATOM     17  C   UNL     1       4.306   5.682   4.385  1.00  0.00     0.207 C 
BRANCH  17  18
ATOM     18  C   UNL     1       3.945   4.316   4.978  1.00  0.00     0.077 C 
BRANCH  18  19
ATOM     19  C   UNL     1       2.588   4.335   5.646  1.00  0.00    -0.043 A 
ATOM     20  C   UNL     1       0.205   3.891   5.578  1.00  0.00     0.083 A 
ATOM     21  C   UNL     1       1.463   3.827   4.978  1.00  0.00     0.028 A 
ATOM     22  C   UNL     1       0.062   4.461   6.844  1.00  0.00     0.134 A 
ATOM     23  C   UNL     1       1.168   4.967   7.516  1.00  0.00     0.048 A 
ATOM     24  C   UNL     1       2.429   4.907   6.918  1.00  0.00     0.008 A 
ATOM     25  Cl  UNL     1      -1.166   3.262   4.742  1.00  0.00    -0.080 Cl
BRANCH  22  26
ATOM     26  O   UNL     1      -1.153   4.555   7.467  1.00  0.00    -0.506 OA
ATOM     27  H   UNL     1      -1.626   5.297   7.047  1.00  0.00     0.293 HD
ENDBRANCH  22  26
ENDBRANCH  18  19
ENDBRANCH  17  18
BRANCH  17  28
ATOM     28  O   UNL     1       3.131   6.279   3.813  1.00  0.00    -0.383 OA
ATOM     29  H   UNL     1       2.688   5.568   3.297  1.00  0.00     0.211 HD
ENDBRANCH  17  28
ENDBRANCH  14  17
ENDBRANCH  12  13
BRANCH  12  30
ATOM     30  C   UNL     1       7.956   7.957   2.228  1.00  0.00     0.018 C 
ATOM     31  C   UNL     1       9.330   7.287   2.387  1.00  0.00     0.010 C 
BRANCH  30  32
ATOM     32  C   UNL     1       7.597   8.743   3.513  1.00  0.00     0.002 C 
ATOM     33  C   UNL     1       7.391  10.240   3.324  1.00  0.00     0.004 C 
ENDBRANCH  30  32
ENDBRANCH  12  30
ENDBRANCH  10  12
ENDBRANCH   1  10
BRANCH   5  34
ATOM     34  C   UNL     1       6.601   5.255  -2.136  1.00  0.00     0.242 C 
ATOM     35  O   UNL     1       5.894   5.697  -3.041  1.00  0.00    -0.273 OA
ATOM     36  N   UNL     1       7.900   4.851  -2.343  1.00  0.00    -0.354 N 
ATOM     37  H   UNL     1       8.396   4.381  -1.584  1.00  0.00     0.163 HD
BRANCH  36  38
ATOM     38  C   UNL     1       8.621   5.158  -3.561  1.00  0.00     0.116 C 
BRANCH  38  39
ATOM     39  C   UNL     1       9.727   4.129  -3.783  1.00  0.00     0.023 C 
BRANCH  39  40
ATOM     40  C   UNL     1       9.485   3.271  -5.020  1.00  0.00     0.026 C 
BRANCH  40  41
ATOM     41  C   UNL     1       8.058   3.455  -5.537  1.00  0.00     0.146 C 
BRANCH  41  42
ATOM     42  N   UNL     1       7.412   2.156  -5.672  1.00  0.00    -0.254 NA
ATOM     43  C   UNL     1       6.352   1.903  -5.001  1.00  0.00     0.185 C 
ATOM     44  N   UNL     1       5.675   2.674  -4.130  1.00  0.00    -0.370 N 
ATOM     45  N   UNL     1       5.774   0.698  -5.136  1.00  0.00    -0.370 N 
ATOM     46  H   UNL     1       5.008   2.267  -3.496  1.00  0.00     0.159 HD
ATOM     47  H   UNL     1       5.967   3.623  -3.919  1.00  0.00     0.159 HD
ATOM     48  H   UNL     1       6.217   0.059  -5.782  1.00  0.00     0.159 HD
ATOM     49  H   UNL     1       4.833   0.509  -4.839  1.00  0.00     0.159 HD
ENDBRANCH  41  42
ENDBRANCH  40  41
ENDBRANCH  39  40
ENDBRANCH  38  39
ENDBRANCH  36  38
ENDBRANCH   5  34
BRANCH   8  50
ATOM     50  O   UNL     1       2.132   6.615  -2.988  1.00  0.00    -0.245 OA
BRANCH  50  51
ATOM     51  S   UNL     1       1.292   7.449  -4.103  1.00  0.00     0.397 S 
ATOM     52  O   UNL     1       0.412   8.362  -3.409  1.00  0.00    -0.169 OA
ATOM     53  O   UNL     1       0.798   6.542  -5.118  1.00  0.00    -0.169 OA
BRANCH  51  54
ATOM     54  O   UNL     1       2.435   8.363  -4.770  1.00  0.00    -0.264 OA
ATOM     55  H   UNL     1       2.490   8.127  -5.718  1.00  0.00     0.236 HD
ENDBRANCH  51  54
ENDBRANCH  50  51
ENDBRANCH   8  50
TORSDOF 19
ENDMDL
MODEL 12
REMARK VINA RESULT:    -6.350     12.701     17.664
REMARK INTER + INTRA:         -16.407
REMARK INTER:                 -13.353
REMARK INTRA:                  -3.054
REMARK UNBOUND:                -3.560
REMARK SMILES CC[C@@H](C)[C@@H](NC(=O)[C@@H](O)Cc1ccc(O)c(Cl)c1)C(=O)N1[C@H](C(=O)NCCCCN=C(N)N)C[C@H]2CC[C@H](OS(=O)(=O)O)C[C@@H]21
REMARK SMILES IDX 22 1 36 2 46 3 35 4 23 5 45 6 37 7 39 8 38 9 20 10 21 11
REMARK SMILES IDX 5 12 6 13 7 14 8 15 9 17 11 18 12 19 17 20 19 21 15 22 14 23
REMARK SMILES IDX 13 24 18 25 16 26 10 28 3 30 4 31 2 32 1 33 24 34 25 35
REMARK SMILES IDX 26 36 27 38 28 39 29 40 30 41 31 42 32 43 33 44 34 45 40 50
REMARK SMILES IDX 41 51 42 52 43 53 44 54
REMARK H PARENT 6 16 16 27 10 29 26 37 33 46 33 47 34 48 34 49 44 55
ROOT
ATOM      1  N   UNL     1       4.158   6.285   1.051  1.00  0.00    -0.326 N 
ATOM      2  C   UNL     1       3.833   5.065  -0.937  1.00  0.00     0.014 C 
ATOM      3  C   UNL     1       3.085   5.718   0.229  1.00  0.00     0.091 C 
ATOM      4  C   UNL     1       5.108   4.564  -0.277  1.00  0.00     0.041 C 
ATOM      5  C   UNL     1       5.475   5.792   0.577  1.00  0.00     0.175 C 
ATOM      6  C   UNL     1       2.033   6.667  -0.343  1.00  0.00     0.059 C 
ATOM      7  C   UNL     1       2.942   4.085  -1.673  1.00  0.00     0.008 C 
ATOM      8  C   UNL     1       1.453   6.207  -1.699  1.00  0.00     0.143 C 
ATOM      9  C   UNL     1       1.530   4.677  -1.873  1.00  0.00     0.034 C 
ENDROOT
BRANCH   1  10
ATOM     10  C   UNL     1       4.088   6.979   2.247  1.00  0.00     0.246 C 
ATOM     11  O   UNL     1       3.697   8.151   2.240  1.00  0.00    -0.272 OA
BRANCH  10  12
ATOM     12  C   UNL     1       4.460   6.258   3.575  1.00  0.00     0.174 C 
BRANCH  12  13
ATOM     13  N   UNL     1       3.285   5.578   4.119  1.00  0.00    -0.342 N 
ATOM     14  C   UNL     1       3.304   4.366   4.771  1.00  0.00     0.249 C 
ATOM     15  O   UNL     1       4.326   3.727   4.993  1.00  0.00    -0.272 OA
ATOM     16  H   UNL     1       2.354   5.908   3.876  1.00  0.00     0.164 HD
BRANCH  14  17
ATOM     17  C   UNL     1       1.899   3.904   5.212  1.00  0.00     0.207 C 
BRANCH  17  18
ATOM     18  C   UNL     1       0.822   4.559   4.341  1.00  0.00     0.077 C 
BRANCH  18  19
ATOM     19  C   UNL     1       0.302   3.612   3.283  1.00  0.00    -0.043 A 
ATOM     20  C   UNL     1      -0.556   1.433   2.650  1.00  0.00     0.083 A 
ATOM     21  C   UNL     1      -0.124   2.321   3.635  1.00  0.00     0.028 A 
ATOM     22  C   UNL     1      -0.565   1.826   1.311  1.00  0.00     0.134 A 
ATOM     23  C   UNL     1      -0.146   3.101   0.949  1.00  0.00     0.048 A 
ATOM     24  C   UNL     1       0.289   3.992   1.932  1.00  0.00     0.008 A 
ATOM     25  Cl  UNL     1      -1.075  -0.148   3.102  1.00  0.00    -0.080 Cl
BRANCH  22  26
ATOM     26  O   UNL     1      -0.971   0.987   0.309  1.00  0.00    -0.506 OA
ATOM     27  H   UNL     1      -0.722   1.413  -0.532  1.00  0.00     0.293 HD
ENDBRANCH  22  26
ENDBRANCH  18  19
ENDBRANCH  17  18
BRANCH  17  28
ATOM     28  O   UNL     1       1.658   4.226   6.591  1.00  0.00    -0.383 OA
ATOM     29  H   UNL     1       1.981   5.147   6.716  1.00  0.00     0.211 HD
ENDBRANCH  17  28
ENDBRANCH  14  17
ENDBRANCH  12  13
BRANCH  12  30
ATOM     30  C   UNL     1       5.126   7.207   4.607  1.00  0.00     0.018 C 
ATOM     31  C   UNL     1       6.448   6.615   5.120  1.00  0.00     0.010 C 
BRANCH  30  32
ATOM     32  C   UNL     1       4.208   7.572   5.799  1.00  0.00     0.002 C 
ATOM     33  C   UNL     1       3.437   8.878   5.651  1.00  0.00     0.004 C 
ENDBRANCH  30  32
ENDBRANCH  12  30
ENDBRANCH  10  12
ENDBRANCH   1  10
BRANCH   5  34
ATOM     34  C   UNL     1       6.198   6.877  -0.264  1.00  0.00     0.242 C 
ATOM     35  O   UNL     1       5.644   7.922  -0.607  1.00  0.00    -0.273 OA
ATOM     36  N   UNL     1       7.484   6.564  -0.643  1.00  0.00    -0.354 N 
ATOM     37  H   UNL     1       7.846   5.633  -0.430  1.00  0.00     0.163 HD
BRANCH  36  38
ATOM     38  C   UNL     1       8.374   7.539  -1.239  1.00  0.00     0.116 C 
BRANCH  38  39
ATOM     39  C   UNL     1       9.432   6.829  -2.080  1.00  0.00     0.023 C 
BRANCH  39  40
ATOM     40  C   UNL     1       8.940   5.494  -2.630  1.00  0.00     0.026 C 
BRANCH  40  41
ATOM     41  C   UNL     1      10.074   4.745  -3.330  1.00  0.00     0.146 C 
BRANCH  41  42
ATOM     42  N   UNL     1       9.588   4.174  -4.580  1.00  0.00    -0.254 NA
ATOM     43  C   UNL     1       9.286   2.931  -4.633  1.00  0.00     0.185 C 
ATOM     44  N   UNL     1       9.337   1.987  -3.676  1.00  0.00    -0.370 N 
ATOM     45  N   UNL     1       8.845   2.423  -5.795  1.00  0.00    -0.370 N 
ATOM     46  H   UNL     1       9.306   1.011  -3.916  1.00  0.00     0.159 HD
ATOM     47  H   UNL     1       9.636   2.202  -2.730  1.00  0.00     0.159 HD
ATOM     48  H   UNL     1       8.768   3.071  -6.567  1.00  0.00     0.159 HD
ATOM     49  H   UNL     1       8.371   1.539  -5.857  1.00  0.00     0.159 HD
ENDBRANCH  41  42
ENDBRANCH  40  41
ENDBRANCH  39  40
ENDBRANCH  38  39
ENDBRANCH  36  38
ENDBRANCH   5  34
BRANCH   8  50
ATOM     50  O   UNL     1       2.167   6.822  -2.771  1.00  0.00    -0.245 OA
BRANCH  50  51
ATOM     51  S   UNL     1       1.345   7.451  -4.026  1.00  0.00     0.397 S 
ATOM     52  O   UNL     1       0.374   8.385  -3.501  1.00  0.00    -0.169 OA
ATOM     53  O   UNL     1       0.965   6.393  -4.938  1.00  0.00    -0.169 OA
BRANCH  51  54
ATOM     54  O   UNL     1       2.469   8.348  -4.747  1.00  0.00    -0.264 OA
ATOM     55  H   UNL     1       2.350   9.272  -4.448  1.00  0.00     0.236 HD
ENDBRANCH  51  54
ENDBRANCH  50  51
ENDBRANCH   8  50
TORSDOF 19
ENDMDL
MODEL 13
REMARK VINA RESULT:    -6.343     12.678     18.022
REMARK INTER + INTRA:         -16.391
REMARK INTER:                 -13.602
REMARK INTRA:                  -2.789
REMARK UNBOUND:                -3.560
REMARK SMILES CC[C@@H](C)[C@@H](NC(=O)[C@@H](O)Cc1ccc(O)c(Cl)c1)C(=O)N1[C@H](C(=O)NCCCCN=C(N)N)C[C@H]2CC[C@H](OS(=O)(=O)O)C[C@@H]21
REMARK SMILES IDX 22 1 36 2 46 3 35 4 23 5 45 6 37 7 39 8 38 9 20 10 21 11
REMARK SMILES IDX 5 12 6 13 7 14 8 15 9 17 11 18 12 19 17 20 19 21 15 22 14 23
REMARK SMILES IDX 13 24 18 25 16 26 10 28 3 30 4 31 2 32 1 33 24 34 25 35
REMARK SMILES IDX 26 36 27 38 28 39 29 40 30 41 31 42 32 43 33 44 34 45 40 50
REMARK SMILES IDX 41 51 42 52 43 53 44 54
REMARK H PARENT 6 16 16 27 10 29 26 37 33 46 33 47 34 48 34 49 44 55
ROOT
ATOM      1  N   UNL     1       5.695   6.408   1.688  1.00  0.00    -0.326 N 
ATOM      2  C   UNL     1       6.049   7.856  -0.134  1.00  0.00     0.014 C 
ATOM      3  C   UNL     1       6.765   7.160   1.027  1.00  0.00     0.091 C 
ATOM      4  C   UNL     1       4.678   8.158   0.451  1.00  0.00     0.041 C 
ATOM      5  C   UNL     1       4.376   6.817   1.144  1.00  0.00     0.175 C 
ATOM      6  C   UNL     1       7.955   6.384   0.465  1.00  0.00     0.059 C 
ATOM      7  C   UNL     1       6.889   8.991  -0.686  1.00  0.00     0.008 C 
ATOM      8  C   UNL     1       8.592   7.039  -0.780  1.00  0.00     0.143 C 
ATOM      9  C   UNL     1       8.366   8.564  -0.812  1.00  0.00     0.034 C 
ENDROOT
BRANCH   1  10
ATOM     10  C   UNL     1       5.740   5.601   2.813  1.00  0.00     0.246 C 
ATOM     11  O   UNL     1       6.177   4.450   2.709  1.00  0.00    -0.272 OA
BRANCH  10  12
ATOM     12  C   UNL     1       5.284   6.174   4.186  1.00  0.00     0.174 C 
BRANCH  12  13
ATOM     13  N   UNL     1       3.967   5.641   4.535  1.00  0.00    -0.342 N 
ATOM     14  C   UNL     1       3.747   4.495   5.267  1.00  0.00     0.249 C 
ATOM     15  O   UNL     1       4.642   3.803   5.735  1.00  0.00    -0.272 OA
ATOM     16  H   UNL     1       3.136   6.018   4.087  1.00  0.00     0.164 HD
BRANCH  14  17
ATOM     17  C   UNL     1       2.246   4.187   5.453  1.00  0.00     0.207 C 
BRANCH  17  18
ATOM     18  C   UNL     1       1.394   5.160   4.633  1.00  0.00     0.077 C 
BRANCH  18  19
ATOM     19  C   UNL     1       0.236   4.461   3.957  1.00  0.00    -0.043 A 
ATOM     20  C   UNL     1      -1.950   4.547   2.909  1.00  0.00     0.083 A 
ATOM     21  C   UNL     1      -0.861   5.200   3.487  1.00  0.00     0.028 A 
ATOM     22  C   UNL     1      -1.951   3.157   2.796  1.00  0.00     0.134 A 
ATOM     23  C   UNL     1      -0.871   2.412   3.257  1.00  0.00     0.048 A 
ATOM     24  C   UNL     1       0.219   3.063   3.838  1.00  0.00     0.008 A 
ATOM     25  Cl  UNL     1      -3.289   5.473   2.338  1.00  0.00    -0.080 Cl
BRANCH  22  26
ATOM     26  O   UNL     1      -3.001   2.471   2.246  1.00  0.00    -0.506 OA
ATOM     27  H   UNL     1      -2.659   2.032   1.445  1.00  0.00     0.293 HD
ENDBRANCH  22  26
ENDBRANCH  18  19
ENDBRANCH  17  18
BRANCH  17  28
ATOM     28  O   UNL     1       1.868   4.271   6.836  1.00  0.00    -0.383 OA
ATOM     29  H   UNL     1       1.637   5.214   6.998  1.00  0.00     0.211 HD
ENDBRANCH  17  28
ENDBRANCH  14  17
ENDBRANCH  12  13
BRANCH  12  30
ATOM     30  C   UNL     1       5.326   7.725   4.233  1.00  0.00     0.018 C 
ATOM     31  C   UNL     1       6.775   8.229   4.332  1.00  0.00     0.010 C 
BRANCH  30  32
ATOM     32  C   UNL     1       4.472   8.335   5.371  1.00  0.00     0.002 C 
ATOM     33  C   UNL     1       5.067   8.217   6.768  1.00  0.00     0.004 C 
ENDBRANCH  30  32
ENDBRANCH  12  30
ENDBRANCH  10  12
ENDBRANCH   1  10
BRANCH   5  34
ATOM     34  C   UNL     1       3.843   5.761   0.140  1.00  0.00     0.242 C 
ATOM     35  O   UNL     1       4.395   4.673  -0.025  1.00  0.00    -0.273 OA
ATOM     36  N   UNL     1       2.743   6.150  -0.591  1.00  0.00    -0.354 N 
ATOM     37  H   UNL     1       2.404   7.108  -0.495  1.00  0.00     0.163 HD
BRANCH  36  38
ATOM     38  C   UNL     1       1.990   5.222  -1.409  1.00  0.00     0.116 C 
BRANCH  38  39
ATOM     39  C   UNL     1       0.940   5.978  -2.219  1.00  0.00     0.023 C 
BRANCH  39  40
ATOM     40  C   UNL     1       1.282   7.456  -2.380  1.00  0.00     0.026 C 
BRANCH  40  41
ATOM     41  C   UNL     1       1.387   7.830  -3.858  1.00  0.00     0.146 C 
BRANCH  41  42
ATOM     42  N   UNL     1       2.680   7.409  -4.382  1.00  0.00    -0.254 NA
ATOM     43  C   UNL     1       2.733   6.732  -5.467  1.00  0.00     0.185 C 
ATOM     44  N   UNL     1       1.741   6.308  -6.272  1.00  0.00    -0.370 N 
ATOM     45  N   UNL     1       3.934   6.349  -5.932  1.00  0.00    -0.370 N 
ATOM     46  H   UNL     1       1.906   5.584  -6.951  1.00  0.00     0.159 HD
ATOM     47  H   UNL     1       0.768   6.521  -6.077  1.00  0.00     0.159 HD
ATOM     48  H   UNL     1       4.737   6.636  -5.388  1.00  0.00     0.159 HD
ATOM     49  H   UNL     1       4.077   6.033  -6.874  1.00  0.00     0.159 HD
ENDBRANCH  41  42
ENDBRANCH  40  41
ENDBRANCH  39  40
ENDBRANCH  38  39
ENDBRANCH  36  38
ENDBRANCH   5  34
BRANCH   8  50
ATOM     50  O   UNL     1       8.038   6.474  -1.968  1.00  0.00    -0.245 OA
BRANCH  50  51
ATOM     51  S   UNL     1       8.764   5.196  -2.664  1.00  0.00     0.397 S 
ATOM     52  O   UNL     1      10.118   5.124  -2.162  1.00  0.00    -0.169 OA
ATOM     53  O   UNL     1       8.479   5.188  -4.084  1.00  0.00    -0.169 OA
BRANCH  51  54
ATOM     54  O   UNL     1       7.983   3.960  -1.994  1.00  0.00    -0.264 OA
ATOM     55  H   UNL     1       7.621   4.265  -1.137  1.00  0.00     0.236 HD
ENDBRANCH  51  54
ENDBRANCH  50  51
ENDBRANCH   8  50
TORSDOF 19
ENDMDL
MODEL 14
REMARK VINA RESULT:    -6.331     12.933     18.345
REMARK INTER + INTRA:         -16.368
REMARK INTER:                 -13.144
REMARK INTRA:                  -3.224
REMARK UNBOUND:                -3.560
REMARK SMILES CC[C@@H](C)[C@@H](NC(=O)[C@@H](O)Cc1ccc(O)c(Cl)c1)C(=O)N1[C@H](C(=O)NCCCCN=C(N)N)C[C@H]2CC[C@H](OS(=O)(=O)O)C[C@@H]21
REMARK SMILES IDX 22 1 36 2 46 3 35 4 23 5 45 6 37 7 39 8 38 9 20 10 21 11
REMARK SMILES IDX 5 12 6 13 7 14 8 15 9 17 11 18 12 19 17 20 19 21 15 22 14 23
REMARK SMILES IDX 13 24 18 25 16 26 10 28 3 30 4 31 2 32 1 33 24 34 25 35
REMARK SMILES IDX 26 36 27 38 28 39 29 40 30 41 31 42 32 43 33 44 34 45 40 50
REMARK SMILES IDX 41 51 42 52 43 53 44 54
REMARK H PARENT 6 16 16 27 10 29 26 37 33 46 33 47 34 48 34 49 44 55
ROOT
ATOM      1  N   UNL     1       5.140   7.237   1.645  1.00  0.00    -0.326 N 
ATOM      2  C   UNL     1       6.067   8.587  -0.046  1.00  0.00     0.014 C 
ATOM      3  C   UNL     1       6.424   7.797   1.216  1.00  0.00     0.091 C 
ATOM      4  C   UNL     1       4.676   9.115   0.272  1.00  0.00     0.041 C 
ATOM      5  C   UNL     1       4.034   7.849   0.868  1.00  0.00     0.175 C 
ATOM      6  C   UNL     1       7.559   6.832   0.876  1.00  0.00     0.059 C 
ATOM      7  C   UNL     1       7.169   9.565  -0.405  1.00  0.00     0.008 C 
ATOM      8  C   UNL     1       8.520   7.361  -0.211  1.00  0.00     0.143 C 
ATOM      9  C   UNL     1       8.554   8.902  -0.254  1.00  0.00     0.034 C 
ENDROOT
BRANCH   1  10
ATOM     10  C   UNL     1       4.838   6.446   2.741  1.00  0.00     0.246 C 
ATOM     11  O   UNL     1       4.721   5.226   2.588  1.00  0.00    -0.272 OA
BRANCH  10  12
ATOM     12  C   UNL     1       4.695   7.104   4.144  1.00  0.00     0.174 C 
BRANCH  12  13
ATOM     13  N   UNL     1       3.566   6.510   4.861  1.00  0.00    -0.342 N 
ATOM     14  C   UNL     1       3.657   5.459   5.746  1.00  0.00     0.249 C 
ATOM     15  O   UNL     1       4.710   4.917   6.056  1.00  0.00    -0.272 OA
ATOM     16  H   UNL     1       2.616   6.750   4.590  1.00  0.00     0.164 HD
BRANCH  14  17
ATOM     17  C   UNL     1       2.286   5.049   6.325  1.00  0.00     0.207 C 
BRANCH  17  18
ATOM     18  C   UNL     1       1.327   6.244   6.330  1.00  0.00     0.077 C 
BRANCH  18  19
ATOM     19  C   UNL     1       0.001   5.904   5.689  1.00  0.00    -0.043 A 
ATOM     20  C   UNL     1      -2.118   4.725   5.741  1.00  0.00     0.083 A 
ATOM     21  C   UNL     1      -0.917   5.077   6.356  1.00  0.00     0.028 A 
ATOM     22  C   UNL     1      -2.410   5.193   4.460  1.00  0.00     0.134 A 
ATOM     23  C   UNL     1      -1.511   6.012   3.788  1.00  0.00     0.048 A 
ATOM     24  C   UNL     1      -0.306   6.365   4.400  1.00  0.00     0.008 A 
ATOM     25  Cl  UNL     1      -3.233   3.708   6.577  1.00  0.00    -0.080 Cl
BRANCH  22  26
ATOM     26  O   UNL     1      -3.571   4.866   3.812  1.00  0.00    -0.506 OA
ATOM     27  H   UNL     1      -3.374   4.887   2.857  1.00  0.00     0.293 HD
ENDBRANCH  22  26
ENDBRANCH  18  19
ENDBRANCH  17  18
BRANCH  17  28
ATOM     28  O   UNL     1       2.420   4.540   7.661  1.00  0.00    -0.383 OA
ATOM     29  H   UNL     1       2.950   3.714   7.586  1.00  0.00     0.211 HD
ENDBRANCH  17  28
ENDBRANCH  14  17
ENDBRANCH  12  13
BRANCH  12  30
ATOM     30  C   UNL     1       4.605   8.652   4.075  1.00  0.00     0.018 C 
ATOM     31  C   UNL     1       5.486   9.299   5.155  1.00  0.00     0.010 C 
BRANCH  30  32
ATOM     32  C   UNL     1       3.158   9.195   4.173  1.00  0.00     0.002 C 
ATOM     33  C   UNL     1       2.879  10.454   3.362  1.00  0.00     0.004 C 
ENDBRANCH  30  32
ENDBRANCH  12  30
ENDBRANCH  10  12
ENDBRANCH   1  10
BRANCH   5  34
ATOM     34  C   UNL     1       3.540   6.882  -0.241  1.00  0.00     0.242 C 
ATOM     35  O   UNL     1       2.841   7.261  -1.180  1.00  0.00    -0.273 OA
ATOM     36  N   UNL     1       3.894   5.563  -0.069  1.00  0.00    -0.354 N 
ATOM     37  H   UNL     1       4.372   5.291   0.792  1.00  0.00     0.163 HD
BRANCH  36  38
ATOM     38  C   UNL     1       3.706   4.570  -1.106  1.00  0.00     0.116 C 
BRANCH  38  39
ATOM     39  C   UNL     1       4.848   4.652  -2.116  1.00  0.00     0.023 C 
BRANCH  39  40
ATOM     40  C   UNL     1       4.378   4.419  -3.548  1.00  0.00     0.026 C 
BRANCH  40  41
ATOM     41  C   UNL     1       5.408   3.607  -4.331  1.00  0.00     0.146 C 
BRANCH  41  42
ATOM     42  N   UNL     1       6.035   2.627  -3.453  1.00  0.00    -0.254 NA
ATOM     43  C   UNL     1       7.220   2.216  -3.707  1.00  0.00     0.185 C 
ATOM     44  N   UNL     1       8.055   2.548  -4.708  1.00  0.00    -0.370 N 
ATOM     45  N   UNL     1       7.778   1.310  -2.887  1.00  0.00    -0.370 N 
ATOM     46  H   UNL     1       8.852   1.973  -4.924  1.00  0.00     0.159 HD
ATOM     47  H   UNL     1       7.797   3.232  -5.413  1.00  0.00     0.159 HD
ATOM     48  H   UNL     1       7.218   1.013  -2.100  1.00  0.00     0.159 HD
ATOM     49  H   UNL     1       8.765   1.121  -2.877  1.00  0.00     0.159 HD
ENDBRANCH  41  42
ENDBRANCH  40  41
ENDBRANCH  39  40
ENDBRANCH  38  39
ENDBRANCH  36  38
ENDBRANCH   5  34
BRANCH   8  50
ATOM     50  O   UNL     1       8.119   6.880  -1.494  1.00  0.00    -0.245 OA
BRANCH  50  51
ATOM     51  S   UNL     1       8.797   5.527  -2.092  1.00  0.00     0.397 S 
ATOM     52  O   UNL     1       8.127   4.392  -1.499  1.00  0.00    -0.169 OA
ATOM     53  O   UNL     1      10.240   5.655  -2.069  1.00  0.00    -0.169 OA
BRANCH  51  54
ATOM     54  O   UNL     1       8.321   5.564  -3.628  1.00  0.00    -0.264 OA
ATOM     55  H   UNL     1       8.225   6.503  -3.888  1.00  0.00     0.236 HD
ENDBRANCH  51  54
ENDBRANCH  50  51
ENDBRANCH   8  50
TORSDOF 19
ENDMDL
MODEL 15
REMARK VINA RESULT:    -6.329     16.894     20.356
REMARK INTER + INTRA:         -16.364
REMARK INTER:                 -12.588
REMARK INTRA:                  -3.775
REMARK UNBOUND:                -3.560
REMARK SMILES CC[C@@H](C)[C@@H](NC(=O)[C@@H](O)Cc1ccc(O)c(Cl)c1)C(=O)N1[C@H](C(=O)NCCCCN=C(N)N)C[C@H]2CC[C@H](OS(=O)(=O)O)C[C@@H]21
REMARK SMILES IDX 22 1 36 2 46 3 35 4 23 5 45 6 37 7 39 8 38 9 20 10 21 11
REMARK SMILES IDX 5 12 6 13 7 14 8 15 9 17 11 18 12 19 17 20 19 21 15 22 14 23
REMARK SMILES IDX 13 24 18 25 16 26 10 28 3 30 4 31 2 32 1 33 24 34 25 35
REMARK SMILES IDX 26 36 27 38 28 39 29 40 30 41 31 42 32 43 33 44 34 45 40 50
REMARK SMILES IDX 41 51 42 52 43 53 44 54
REMARK H PARENT 6 16 16 27 10 29 26 37 33 46 33 47 34 48 34 49 44 55
ROOT
ATOM      1  N   UNL     1       6.565   7.597  -0.006  1.00  0.00    -0.326 N 
ATOM      2  C   UNL     1       8.300   8.490   1.311  1.00  0.00     0.014 C 
ATOM      3  C   UNL     1       7.411   8.789   0.101  1.00  0.00     0.091 C 
ATOM      4  C   UNL     1       8.507   6.986   1.211  1.00  0.00     0.041 C 
ATOM      5  C   UNL     1       7.070   6.533   0.897  1.00  0.00     0.175 C 
ATOM      6  C   UNL     1       6.734  10.140   0.320  1.00  0.00     0.059 C 
ATOM      7  C   UNL     1       9.506   9.407   1.338  1.00  0.00     0.008 C 
ATOM      8  C   UNL     1       7.587  11.137   1.135  1.00  0.00     0.143 C 
ATOM      9  C   UNL     1       9.097  10.855   0.997  1.00  0.00     0.034 C 
ENDROOT
BRANCH   1  10
ATOM     10  C   UNL     1       5.578   7.288  -0.927  1.00  0.00     0.246 C 
ATOM     11  O   UNL     1       4.584   8.018  -1.011  1.00  0.00    -0.272 OA
BRANCH  10  12
ATOM     12  C   UNL     1       5.760   6.058  -1.863  1.00  0.00     0.174 C 
BRANCH  12  13
ATOM     13  N   UNL     1       7.116   6.045  -2.411  1.00  0.00    -0.342 N 
ATOM     14  C   UNL     1       8.020   5.018  -2.260  1.00  0.00     0.249 C 
ATOM     15  O   UNL     1       7.775   3.976  -1.665  1.00  0.00    -0.272 OA
ATOM     16  H   UNL     1       7.513   6.900  -2.793  1.00  0.00     0.164 HD
BRANCH  14  17
ATOM     17  C   UNL     1       9.374   5.310  -2.941  1.00  0.00     0.207 C 
BRANCH  17  18
ATOM     18  C   UNL     1       9.848   4.090  -3.737  1.00  0.00     0.077 C 
BRANCH  18  19
ATOM     19  C   UNL     1       9.418   4.163  -5.185  1.00  0.00    -0.043 A 
ATOM     20  C   UNL     1       9.275   3.159  -7.389  1.00  0.00     0.083 A 
ATOM     21  C   UNL     1       9.627   3.071  -6.042  1.00  0.00     0.028 A 
ATOM     22  C   UNL     1       8.714   4.335  -7.888  1.00  0.00     0.134 A 
ATOM     23  C   UNL     1       8.501   5.424  -7.051  1.00  0.00     0.048 A 
ATOM     24  C   UNL     1       8.854   5.340  -5.703  1.00  0.00     0.008 A 
ATOM     25  Cl  UNL     1       9.540   1.807  -8.426  1.00  0.00    -0.080 Cl
BRANCH  22  26
ATOM     26  O   UNL     1       8.362   4.472  -9.204  1.00  0.00    -0.506 OA
ATOM     27  H   UNL     1       7.640   3.837  -9.369  1.00  0.00     0.293 HD
ENDBRANCH  22  26
ENDBRANCH  18  19
ENDBRANCH  17  18
BRANCH  17  28
ATOM     28  O   UNL     1      10.374   5.665  -1.973  1.00  0.00    -0.383 OA
ATOM     29  H   UNL     1      11.241   5.558  -2.426  1.00  0.00     0.211 HD
ENDBRANCH  17  28
ENDBRANCH  14  17
ENDBRANCH  12  13
BRANCH  12  30
ATOM     30  C   UNL     1       4.673   5.979  -2.968  1.00  0.00     0.018 C 
ATOM     31  C   UNL     1       3.537   5.032  -2.550  1.00  0.00     0.010 C 
BRANCH  30  32
ATOM     32  C   UNL     1       5.225   5.567  -4.355  1.00  0.00     0.002 C 
ATOM     33  C   UNL     1       5.278   4.068  -4.616  1.00  0.00     0.004 C 
ENDBRANCH  30  32
ENDBRANCH  12  30
ENDBRANCH  10  12
ENDBRANCH   1  10
BRANCH   5  34
ATOM     34  C   UNL     1       6.204   6.445   2.182  1.00  0.00     0.242 C 
ATOM     35  O   UNL     1       6.509   5.725   3.133  1.00  0.00    -0.273 OA
ATOM     36  N   UNL     1       5.045   7.187   2.159  1.00  0.00    -0.354 N 
ATOM     37  H   UNL     1       4.786   7.668   1.297  1.00  0.00     0.163 HD
BRANCH  36  38
ATOM     38  C   UNL     1       4.234   7.392   3.342  1.00  0.00     0.116 C 
BRANCH  38  39
ATOM     39  C   UNL     1       3.678   8.813   3.349  1.00  0.00     0.023 C 
BRANCH  39  40
ATOM     40  C   UNL     1       3.684   9.448   1.963  1.00  0.00     0.026 C 
BRANCH  40  41
ATOM     41  C   UNL     1       2.951  10.790   1.977  1.00  0.00     0.146 C 
BRANCH  41  42
ATOM     42  N   UNL     1       3.632  11.713   2.876  1.00  0.00    -0.254 NA
ATOM     43  C   UNL     1       3.187  12.905   3.016  1.00  0.00     0.185 C 
ATOM     44  N   UNL     1       2.127  13.506   2.444  1.00  0.00    -0.370 N 
ATOM     45  N   UNL     1       3.831  13.742   3.845  1.00  0.00    -0.370 N 
ATOM     46  H   UNL     1       2.038  14.507   2.454  1.00  0.00     0.159 HD
ATOM     47  H   UNL     1       1.519  13.012   1.797  1.00  0.00     0.159 HD
ATOM     48  H   UNL     1       4.638  13.365   4.325  1.00  0.00     0.159 HD
ATOM     49  H   UNL     1       3.421  14.593   4.187  1.00  0.00     0.159 HD
ENDBRANCH  41  42
ENDBRANCH  40  41
ENDBRANCH  39  40
ENDBRANCH  38  39
ENDBRANCH  36  38
ENDBRANCH   5  34
BRANCH   8  50
ATOM     50  O   UNL     1       7.237  11.067   2.517  1.00  0.00    -0.245 OA
BRANCH  50  51
ATOM     51  S   UNL     1       7.313  12.408   3.434  1.00  0.00     0.397 S 
ATOM     52  O   UNL     1       6.753  13.502   2.673  1.00  0.00    -0.169 OA
ATOM     53  O   UNL     1       8.621  12.502   4.049  1.00  0.00    -0.169 OA
BRANCH  51  54
ATOM     54  O   UNL     1       6.244  12.086   4.590  1.00  0.00    -0.264 OA
ATOM     55  H   UNL     1       5.582  11.467   4.220  1.00  0.00     0.236 HD
ENDBRANCH  51  54
ENDBRANCH  50  51
ENDBRANCH   8  50
TORSDOF 19
ENDMDL
MODEL 16
REMARK VINA RESULT:    -6.313     12.886     17.460
REMARK INTER + INTRA:         -16.332
REMARK INTER:                 -11.441
REMARK INTRA:                  -4.890
REMARK UNBOUND:                -3.560
REMARK SMILES CC[C@@H](C)[C@@H](NC(=O)[C@@H](O)Cc1ccc(O)c(Cl)c1)C(=O)N1[C@H](C(=O)NCCCCN=C(N)N)C[C@H]2CC[C@H](OS(=O)(=O)O)C[C@@H]21
REMARK SMILES IDX 22 1 36 2 46 3 35 4 23 5 45 6 37 7 39 8 38 9 20 10 21 11
REMARK SMILES IDX 5 12 6 13 7 14 8 15 9 17 11 18 12 19 17 20 19 21 15 22 14 23
REMARK SMILES IDX 13 24 18 25 16 26 10 28 3 30 4 31 2 32 1 33 24 34 25 35
REMARK SMILES IDX 26 36 27 38 28 39 29 40 30 41 31 42 32 43 33 44 34 45 40 50
REMARK SMILES IDX 41 51 42 52 43 53 44 54
REMARK H PARENT 6 16 16 27 10 29 26 37 33 46 33 47 34 48 34 49 44 55
ROOT
ATOM      1  N   UNL     1       4.371  10.925   5.270  1.00  0.00    -0.326 N 
ATOM      2  C   UNL     1       5.971  12.388   4.351  1.00  0.00     0.014 C 
ATOM      3  C   UNL     1       5.817  11.036   5.054  1.00  0.00     0.091 C 
ATOM      4  C   UNL     1       4.877  13.226   4.994  1.00  0.00     0.041 C 
ATOM      5  C   UNL     1       3.712  12.220   4.969  1.00  0.00     0.175 C 
ATOM      6  C   UNL     1       6.507   9.969   4.207  1.00  0.00     0.059 C 
ATOM      7  C   UNL     1       7.407  12.869   4.409  1.00  0.00     0.008 C 
ATOM      8  C   UNL     1       7.731  10.492   3.425  1.00  0.00     0.143 C 
ATOM      9  C   UNL     1       8.382  11.709   4.114  1.00  0.00     0.034 C 
ENDROOT
BRANCH   1  10
ATOM     10  C   UNL     1       3.640   9.921   5.882  1.00  0.00     0.246 C 
ATOM     11  O   UNL     1       2.405   9.967   5.841  1.00  0.00    -0.272 OA
BRANCH  10  12
ATOM     12  C   UNL     1       4.384   8.738   6.567  1.00  0.00     0.174 C 
BRANCH  12  13
ATOM     13  N   UNL     1       3.966   7.472   5.967  1.00  0.00    -0.342 N 
ATOM     14  C   UNL     1       4.817   6.539   5.417  1.00  0.00     0.249 C 
ATOM     15  O   UNL     1       6.036   6.658   5.394  1.00  0.00    -0.272 OA
ATOM     16  H   UNL     1       2.982   7.307   5.773  1.00  0.00     0.164 HD
BRANCH  14  17
ATOM     17  C   UNL     1       4.070   5.314   4.848  1.00  0.00     0.207 C 
BRANCH  17  18
ATOM     18  C   UNL     1       3.456   4.487   5.982  1.00  0.00     0.077 C 
BRANCH  18  19
ATOM     19  C   UNL     1       1.972   4.739   6.121  1.00  0.00    -0.043 A 
ATOM     20  C   UNL     1      -0.140   5.448   5.160  1.00  0.00     0.083 A 
ATOM     21  C   UNL     1       1.220   5.169   5.016  1.00  0.00     0.028 A 
ATOM     22  C   UNL     1      -0.755   5.302   6.403  1.00  0.00     0.134 A 
ATOM     23  C   UNL     1      -0.022   4.878   7.506  1.00  0.00     0.048 A 
ATOM     24  C   UNL     1       1.339   4.599   7.366  1.00  0.00     0.008 A 
ATOM     25  Cl  UNL     1      -1.047   5.975   3.791  1.00  0.00    -0.080 Cl
BRANCH  22  26
ATOM     26  O   UNL     1      -2.083   5.574   6.595  1.00  0.00    -0.506 OA
ATOM     27  H   UNL     1      -2.127   6.382   7.139  1.00  0.00     0.293 HD
ENDBRANCH  22  26
ENDBRANCH  18  19
ENDBRANCH  17  18
BRANCH  17  28
ATOM     28  O   UNL     1       4.952   4.483   4.076  1.00  0.00    -0.383 OA
ATOM     29  H   UNL     1       5.843   4.896   4.144  1.00  0.00     0.211 HD
ENDBRANCH  17  28
ENDBRANCH  14  17
ENDBRANCH  12  13
BRANCH  12  30
ATOM     30  C   UNL     1       4.224   8.743   8.111  1.00  0.00     0.018 C 
ATOM     31  C   UNL     1       5.572   8.482   8.801  1.00  0.00     0.010 C 
BRANCH  30  32
ATOM     32  C   UNL     1       3.159   7.746   8.629  1.00  0.00     0.002 C 
ATOM     33  C   UNL     1       3.704   6.563   9.418  1.00  0.00     0.004 C 
ENDBRANCH  30  32
ENDBRANCH  12  30
ENDBRANCH  10  12
ENDBRANCH   1  10
BRANCH   5  34
ATOM     34  C   UNL     1       3.023  12.176   3.579  1.00  0.00     0.242 C 
ATOM     35  O   UNL     1       2.500  13.169   3.073  1.00  0.00    -0.273 OA
ATOM     36  N   UNL     1       2.991  10.937   2.980  1.00  0.00    -0.354 N 
ATOM     37  H   UNL     1       3.334  10.130   3.502  1.00  0.00     0.163 HD
BRANCH  36  38
ATOM     38  C   UNL     1       2.585  10.755   1.601  1.00  0.00     0.116 C 
BRANCH  38  39
ATOM     39  C   UNL     1       3.584   9.852   0.882  1.00  0.00     0.023 C 
BRANCH  39  40
ATOM     40  C   UNL     1       4.186   8.798   1.804  1.00  0.00     0.026 C 
BRANCH  40  41
ATOM     41  C   UNL     1       5.188   7.924   1.048  1.00  0.00     0.146 C 
BRANCH  41  42
ATOM     42  N   UNL     1       5.662   6.854   1.916  1.00  0.00    -0.254 NA
ATOM     43  C   UNL     1       6.920   6.657   2.048  1.00  0.00     0.185 C 
ATOM     44  N   UNL     1       7.960   7.305   1.493  1.00  0.00    -0.370 N 
ATOM     45  N   UNL     1       7.336   5.663   2.850  1.00  0.00    -0.370 N 
ATOM     46  H   UNL     1       8.878   6.893   1.491  1.00  0.00     0.159 HD
ATOM     47  H   UNL     1       7.825   8.094   0.869  1.00  0.00     0.159 HD
ATOM     48  H   UNL     1       6.615   5.130   3.315  1.00  0.00     0.159 HD
ATOM     49  H   UNL     1       8.280   5.597   3.188  1.00  0.00     0.159 HD
ENDBRANCH  41  42
ENDBRANCH  40  41
ENDBRANCH  39  40
ENDBRANCH  38  39
ENDBRANCH  36  38
ENDBRANCH   5  34
BRANCH   8  50
ATOM     50  O   UNL     1       7.344  10.873   2.104  1.00  0.00    -0.245 OA
BRANCH  50  51
ATOM     51  S   UNL     1       8.477  11.030   0.949  1.00  0.00     0.397 S 
ATOM     52  O   UNL     1       9.463   9.991   1.147  1.00  0.00    -0.169 OA
ATOM     53  O   UNL     1       8.855  12.422   0.824  1.00  0.00    -0.169 OA
BRANCH  51  54
ATOM     54  O   UNL     1       7.666  10.616  -0.376  1.00  0.00    -0.264 OA
ATOM     55  H   UNL     1       6.801  11.074  -0.352  1.00  0.00     0.236 HD
ENDBRANCH  51  54
ENDBRANCH  50  51
ENDBRANCH   8  50
TORSDOF 19
ENDMDL
MODEL 17
REMARK VINA RESULT:    -6.297      9.663     12.363
REMARK INTER + INTRA:         -16.299
REMARK INTER:                 -12.155
REMARK INTRA:                  -4.144
REMARK UNBOUND:                -3.560
REMARK SMILES CC[C@@H](C)[C@@H](NC(=O)[C@@H](O)Cc1ccc(O)c(Cl)c1)C(=O)N1[C@H](C(=O)NCCCCN=C(N)N)C[C@H]2CC[C@H](OS(=O)(=O)O)C[C@@H]21
REMARK SMILES IDX 22 1 36 2 46 3 35 4 23 5 45 6 37 7 39 8 38 9 20 10 21 11
REMARK SMILES IDX 5 12 6 13 7 14 8 15 9 17 11 18 12 19 17 20 19 21 15 22 14 23
REMARK SMILES IDX 13 24 18 25 16 26 10 28 3 30 4 31 2 32 1 33 24 34 25 35
REMARK SMILES IDX 26 36 27 38 28 39 29 40 30 41 31 42 32 43 33 44 34 45 40 50
REMARK SMILES IDX 41 51 42 52 43 53 44 54
REMARK H PARENT 6 16 16 27 10 29 26 37 33 46 33 47 34 48 34 49 44 55
ROOT
ATOM      1  N   UNL     1      -3.761   1.204  -0.756  1.00  0.00    -0.326 N 
ATOM      2  C   UNL     1      -3.083   3.237  -1.730  1.00  0.00     0.014 C 
ATOM      3  C   UNL     1      -4.251   2.249  -1.660  1.00  0.00     0.091 C 
ATOM      4  C   UNL     1      -1.868   2.327  -1.640  1.00  0.00     0.041 C 
ATOM      5  C   UNL     1      -2.312   1.392  -0.500  1.00  0.00     0.175 C 
ATOM      6  C   UNL     1      -5.511   3.017  -1.265  1.00  0.00     0.059 C 
ATOM      7  C   UNL     1      -3.230   4.166  -2.919  1.00  0.00     0.008 C 
ATOM      8  C   UNL     1      -5.537   4.473  -1.777  1.00  0.00     0.143 C 
ATOM      9  C   UNL     1      -4.688   4.655  -3.051  1.00  0.00     0.034 C 
ENDROOT
BRANCH   1  10
ATOM     10  C   UNL     1      -4.376   0.039  -0.331  1.00  0.00     0.246 C 
ATOM     11  O   UNL     1      -5.603   0.026  -0.182  1.00  0.00    -0.272 OA
BRANCH  10  12
ATOM     12  C   UNL     1      -3.519  -1.238  -0.092  1.00  0.00     0.174 C 
BRANCH  12  13
ATOM     13  N   UNL     1      -4.187  -2.403  -0.670  1.00  0.00    -0.342 N 
ATOM     14  C   UNL     1      -3.567  -3.381  -1.415  1.00  0.00     0.249 C 
ATOM     15  O   UNL     1      -2.366  -3.396  -1.655  1.00  0.00    -0.272 OA
ATOM     16  H   UNL     1      -5.203  -2.444  -0.688  1.00  0.00     0.164 HD
BRANCH  14  17
ATOM     17  C   UNL     1      -4.546  -4.471  -1.900  1.00  0.00     0.207 C 
BRANCH  17  18
ATOM     18  C   UNL     1      -4.166  -5.833  -1.311  1.00  0.00     0.077 C 
BRANCH  18  19
ATOM     19  C   UNL     1      -4.903  -6.112  -0.020  1.00  0.00    -0.043 A 
ATOM     20  C   UNL     1      -6.905  -6.833   1.144  1.00  0.00     0.083 A 
ATOM     21  C   UNL     1      -6.210  -6.623  -0.047  1.00  0.00     0.028 A 
ATOM     22  C   UNL     1      -6.303  -6.533   2.366  1.00  0.00     0.134 A 
ATOM     23  C   UNL     1      -5.009  -6.026   2.408  1.00  0.00     0.048 A 
ATOM     24  C   UNL     1      -4.311  -5.814   1.217  1.00  0.00     0.008 A 
ATOM     25  Cl  UNL     1      -8.511  -7.461   1.090  1.00  0.00    -0.080 Cl
BRANCH  22  26
ATOM     26  O   UNL     1      -6.949  -6.712   3.560  1.00  0.00    -0.506 OA
ATOM     27  H   UNL     1      -6.284  -7.043   4.191  1.00  0.00     0.293 HD
ENDBRANCH  22  26
ENDBRANCH  18  19
ENDBRANCH  17  18
BRANCH  17  28
ATOM     28  O   UNL     1      -4.554  -4.558  -3.334  1.00  0.00    -0.383 OA
ATOM     29  H   UNL     1      -3.664  -4.892  -3.592  1.00  0.00     0.211 HD
ENDBRANCH  17  28
ENDBRANCH  14  17
ENDBRANCH  12  13
BRANCH  12  30
ATOM     30  C   UNL     1      -3.155  -1.445   1.403  1.00  0.00     0.018 C 
ATOM     31  C   UNL     1      -1.714  -1.957   1.549  1.00  0.00     0.010 C 
BRANCH  30  32
ATOM     32  C   UNL     1      -4.131  -2.381   2.156  1.00  0.00     0.002 C 
ATOM     33  C   UNL     1      -5.136  -1.682   3.062  1.00  0.00     0.004 C 
ENDBRANCH  30  32
ENDBRANCH  12  30
ENDBRANCH  10  12
ENDBRANCH   1  10
BRANCH   5  34
ATOM     34  C   UNL     1      -2.078   2.036   0.892  1.00  0.00     0.242 C 
ATOM     35  O   UNL     1      -2.977   2.149   1.724  1.00  0.00    -0.273 OA
ATOM     36  N   UNL     1      -0.807   2.519   1.107  1.00  0.00    -0.354 N 
ATOM     37  H   UNL     1      -0.138   2.504   0.336  1.00  0.00     0.163 HD
BRANCH  36  38
ATOM     38  C   UNL     1      -0.355   2.952   2.414  1.00  0.00     0.116 C 
BRANCH  38  39
ATOM     39  C   UNL     1       0.475   4.226   2.279  1.00  0.00     0.023 C 
BRANCH  39  40
ATOM     40  C   UNL     1       0.070   5.295   3.289  1.00  0.00     0.026 C 
BRANCH  40  41
ATOM     41  C   UNL     1      -1.280   4.959   3.921  1.00  0.00     0.146 C 
BRANCH  41  42
ATOM     42  N   UNL     1      -2.175   6.103   3.811  1.00  0.00    -0.254 NA
ATOM     43  C   UNL     1      -3.074   6.118   2.900  1.00  0.00     0.185 C 
ATOM     44  N   UNL     1      -3.368   5.203   1.958  1.00  0.00    -0.370 N 
ATOM     45  N   UNL     1      -3.886   7.185   2.812  1.00  0.00    -0.370 N 
ATOM     46  H   UNL     1      -3.931   5.449   1.162  1.00  0.00     0.159 HD
ATOM     47  H   UNL     1      -2.859   4.327   1.890  1.00  0.00     0.159 HD
ATOM     48  H   UNL     1      -3.738   7.918   3.492  1.00  0.00     0.159 HD
ATOM     49  H   UNL     1      -4.748   7.171   2.296  1.00  0.00     0.159 HD
ENDBRANCH  41  42
ENDBRANCH  40  41
ENDBRANCH  39  40
ENDBRANCH  38  39
ENDBRANCH  36  38
ENDBRANCH   5  34
BRANCH   8  50
ATOM     50  O   UNL     1      -5.038   5.355  -0.770  1.00  0.00    -0.245 OA
BRANCH  50  51
ATOM     51  S   UNL     1      -6.020   6.484  -0.133  1.00  0.00     0.397 S 
ATOM     52  O   UNL     1      -6.229   6.160   1.260  1.00  0.00    -0.169 OA
ATOM     53  O   UNL     1      -7.130   6.725  -1.032  1.00  0.00    -0.169 OA
BRANCH  51  54
ATOM     54  O   UNL     1      -5.082   7.790  -0.143  1.00  0.00    -0.264 OA
ATOM     55  H   UNL     1      -5.003   8.108   0.779  1.00  0.00     0.236 HD
ENDBRANCH  51  54
ENDBRANCH  50  51
ENDBRANCH   8  50
TORSDOF 19
ENDMDL
MODEL 18
REMARK VINA RESULT:    -6.283      9.479     12.407
REMARK INTER + INTRA:         -16.270
REMARK INTER:                 -13.702
REMARK INTRA:                  -2.568
REMARK UNBOUND:                -3.560
REMARK SMILES CC[C@@H](C)[C@@H](NC(=O)[C@@H](O)Cc1ccc(O)c(Cl)c1)C(=O)N1[C@H](C(=O)NCCCCN=C(N)N)C[C@H]2CC[C@H](OS(=O)(=O)O)C[C@@H]21
REMARK SMILES IDX 22 1 36 2 46 3 35 4 23 5 45 6 37 7 39 8 38 9 20 10 21 11
REMARK SMILES IDX 5 12 6 13 7 14 8 15 9 17 11 18 12 19 17 20 19 21 15 22 14 23
REMARK SMILES IDX 13 24 18 25 16 26 10 28 3 30 4 31 2 32 1 33 24 34 25 35
REMARK SMILES IDX 26 36 27 38 28 39 29 40 30 41 31 42 32 43 33 44 34 45 40 50
REMARK SMILES IDX 41 51 42 52 43 53 44 54
REMARK H PARENT 6 16 16 27 10 29 26 37 33 46 33 47 34 48 34 49 44 55
ROOT
ATOM      1  N   UNL     1      -2.425   0.577   0.982  1.00  0.00    -0.326 N 
ATOM      2  C   UNL     1      -2.082  -0.339   3.123  1.00  0.00     0.014 C 
ATOM      3  C   UNL     1      -2.878   0.728   2.367  1.00  0.00     0.091 C 
ATOM      4  C   UNL     1      -0.752  -0.349   2.386  1.00  0.00     0.041 C 
ATOM      5  C   UNL     1      -1.248  -0.325   0.928  1.00  0.00     0.175 C 
ATOM      6  C   UNL     1      -4.362   0.528   2.670  1.00  0.00     0.059 C 
ATOM      7  C   UNL     1      -2.102  -0.075   4.616  1.00  0.00     0.008 C 
ATOM      8  C   UNL     1      -4.638  -0.033   4.082  1.00  0.00     0.143 C 
ATOM      9  C   UNL     1      -3.518   0.329   5.078  1.00  0.00     0.034 C 
ENDROOT
BRANCH   1  10
ATOM     10  C   UNL     1      -2.784   1.285  -0.152  1.00  0.00     0.246 C 
ATOM     11  O   UNL     1      -3.696   0.855  -0.866  1.00  0.00    -0.272 OA
BRANCH  10  12
ATOM     12  C   UNL     1      -2.064   2.625  -0.480  1.00  0.00     0.174 C 
BRANCH  12  13
ATOM     13  N   UNL     1      -1.475   3.185   0.737  1.00  0.00    -0.342 N 
ATOM     14  C   UNL     1      -0.132   3.417   0.930  1.00  0.00     0.249 C 
ATOM     15  O   UNL     1       0.726   3.203   0.083  1.00  0.00    -0.272 OA
ATOM     16  H   UNL     1      -2.040   3.266   1.578  1.00  0.00     0.164 HD
BRANCH  14  17
ATOM     17  C   UNL     1       0.177   3.998   2.327  1.00  0.00     0.207 C 
BRANCH  17  18
ATOM     18  C   UNL     1       0.056   2.910   3.398  1.00  0.00     0.077 C 
BRANCH  18  19
ATOM     19  C   UNL     1      -0.158   3.498   4.775  1.00  0.00    -0.043 A 
ATOM     20  C   UNL     1       0.733   4.520   6.787  1.00  0.00     0.083 A 
ATOM     21  C   UNL     1       0.926   4.023   5.497  1.00  0.00     0.028 A 
ATOM     22  C   UNL     1      -0.537   4.495   7.362  1.00  0.00     0.134 A 
ATOM     23  C   UNL     1      -1.619   3.978   6.658  1.00  0.00     0.048 A 
ATOM     24  C   UNL     1      -1.429   3.479   5.368  1.00  0.00     0.008 A 
ATOM     25  Cl  UNL     1       2.077   5.160   7.658  1.00  0.00    -0.080 Cl
BRANCH  22  26
ATOM     26  O   UNL     1      -0.773   4.961   8.627  1.00  0.00    -0.506 OA
ATOM     27  H   UNL     1      -0.343   5.834   8.689  1.00  0.00     0.293 HD
ENDBRANCH  22  26
ENDBRANCH  18  19
ENDBRANCH  17  18
BRANCH  17  28
ATOM     28  O   UNL     1      -0.712   5.081   2.645  1.00  0.00    -0.383 OA
ATOM     29  H   UNL     1      -1.563   4.665   2.913  1.00  0.00     0.211 HD
ENDBRANCH  17  28
ENDBRANCH  14  17
ENDBRANCH  12  13
BRANCH  12  30
ATOM     30  C   UNL     1      -2.984   3.638  -1.213  1.00  0.00     0.018 C 
ATOM     31  C   UNL     1      -2.183   4.473  -2.223  1.00  0.00     0.010 C 
BRANCH  30  32
ATOM     32  C   UNL     1      -3.769   4.569  -0.257  1.00  0.00     0.002 C 
ATOM     33  C   UNL     1      -4.652   5.607  -0.938  1.00  0.00     0.004 C 
ENDBRANCH  30  32
ENDBRANCH  12  30
ENDBRANCH  10  12
ENDBRANCH   1  10
BRANCH   5  34
ATOM     34  C   UNL     1      -1.661  -1.740   0.442  1.00  0.00     0.242 C 
ATOM     35  O   UNL     1      -1.863  -1.995  -0.746  1.00  0.00    -0.273 OA
ATOM     36  N   UNL     1      -1.838  -2.674   1.438  1.00  0.00    -0.354 N 
ATOM     37  H   UNL     1      -1.773  -2.372   2.411  1.00  0.00     0.163 HD
BRANCH  36  38
ATOM     38  C   UNL     1      -2.010  -4.084   1.155  1.00  0.00     0.116 C 
BRANCH  38  39
ATOM     39  C   UNL     1      -3.496  -4.408   1.022  1.00  0.00     0.023 C 
BRANCH  39  40
ATOM     40  C   UNL     1      -4.003  -5.291   2.157  1.00  0.00     0.026 C 
BRANCH  40  41
ATOM     41  C   UNL     1      -5.170  -6.161   1.687  1.00  0.00     0.146 C 
BRANCH  41  42
ATOM     42  N   UNL     1      -6.012  -6.511   2.823  1.00  0.00    -0.254 NA
ATOM     43  C   UNL     1      -7.220  -6.885   2.624  1.00  0.00     0.185 C 
ATOM     44  N   UNL     1      -7.904  -7.025   1.474  1.00  0.00    -0.370 N 
ATOM     45  N   UNL     1      -7.981  -7.199   3.685  1.00  0.00    -0.370 N 
ATOM     46  H   UNL     1      -8.908  -7.089   1.479  1.00  0.00     0.159 HD
ATOM     47  H   UNL     1      -7.475  -6.842   0.573  1.00  0.00     0.159 HD
ATOM     48  H   UNL     1      -7.538  -7.129   4.591  1.00  0.00     0.159 HD
ATOM     49  H   UNL     1      -8.838  -7.717   3.605  1.00  0.00     0.159 HD
ENDBRANCH  41  42
ENDBRANCH  40  41
ENDBRANCH  39  40
ENDBRANCH  38  39
ENDBRANCH  36  38
ENDBRANCH   5  34
BRANCH   8  50
ATOM     50  O   UNL     1      -4.757  -1.455   4.030  1.00  0.00    -0.245 OA
BRANCH  50  51
ATOM     51  S   UNL     1      -6.043  -2.179   4.715  1.00  0.00     0.397 S 
ATOM     52  O   UNL     1      -6.276  -3.425   4.021  1.00  0.00    -0.169 OA
ATOM     53  O   UNL     1      -7.100  -1.209   4.910  1.00  0.00    -0.169 OA
BRANCH  51  54
ATOM     54  O   UNL     1      -5.468  -2.583   6.161  1.00  0.00    -0.264 OA
ATOM     55  H   UNL     1      -6.227  -2.644   6.778  1.00  0.00     0.236 HD
ENDBRANCH  51  54
ENDBRANCH  50  51
ENDBRANCH   8  50
TORSDOF 19
ENDMDL
MODEL 19
REMARK VINA RESULT:    -6.278     13.920     18.843
REMARK INTER + INTRA:         -16.261
REMARK INTER:                 -11.859
REMARK INTRA:                  -4.402
REMARK UNBOUND:                -3.560
REMARK SMILES CC[C@@H](C)[C@@H](NC(=O)[C@@H](O)Cc1ccc(O)c(Cl)c1)C(=O)N1[C@H](C(=O)NCCCCN=C(N)N)C[C@H]2CC[C@H](OS(=O)(=O)O)C[C@@H]21
REMARK SMILES IDX 22 1 36 2 46 3 35 4 23 5 45 6 37 7 39 8 38 9 20 10 21 11
REMARK SMILES IDX 5 12 6 13 7 14 8 15 9 17 11 18 12 19 17 20 19 21 15 22 14 23
REMARK SMILES IDX 13 24 18 25 16 26 10 28 3 30 4 31 2 32 1 33 24 34 25 35
REMARK SMILES IDX 26 36 27 38 28 39 29 40 30 41 31 42 32 43 33 44 34 45 40 50
REMARK SMILES IDX 41 51 42 52 43 53 44 54
REMARK H PARENT 6 16 16 27 10 29 26 37 33 46 33 47 34 48 34 49 44 55
ROOT
ATOM      1  N   UNL     1       6.504   8.977   2.010  1.00  0.00    -0.326 N 
ATOM      2  C   UNL     1       5.327   7.004   1.499  1.00  0.00     0.014 C 
ATOM      3  C   UNL     1       5.249   8.530   1.398  1.00  0.00     0.091 C 
ATOM      4  C   UNL     1       6.057   6.791   2.816  1.00  0.00     0.041 C 
ATOM      5  C   UNL     1       7.179   7.837   2.677  1.00  0.00     0.175 C 
ATOM      6  C   UNL     1       4.979   8.905  -0.058  1.00  0.00     0.059 C 
ATOM      7  C   UNL     1       3.961   6.377   1.296  1.00  0.00     0.008 C 
ATOM      8  C   UNL     1       4.131   7.864  -0.821  1.00  0.00     0.143 C 
ATOM      9  C   UNL     1       3.220   7.055   0.125  1.00  0.00     0.034 C 
ENDROOT
BRANCH   1  10
ATOM     10  C   UNL     1       6.981  10.260   2.218  1.00  0.00     0.246 C 
ATOM     11  O   UNL     1       7.550  10.848   1.292  1.00  0.00    -0.272 OA
BRANCH  10  12
ATOM     12  C   UNL     1       6.755  10.948   3.596  1.00  0.00     0.174 C 
BRANCH  12  13
ATOM     13  N   UNL     1       5.351  10.828   3.988  1.00  0.00    -0.342 N 
ATOM     14  C   UNL     1       4.870   9.972   4.954  1.00  0.00     0.249 C 
ATOM     15  O   UNL     1       5.580   9.227   5.618  1.00  0.00    -0.272 OA
ATOM     16  H   UNL     1       4.630  11.266   3.420  1.00  0.00     0.164 HD
BRANCH  14  17
ATOM     17  C   UNL     1       3.339  10.067   5.125  1.00  0.00     0.207 C 
BRANCH  17  18
ATOM     18  C   UNL     1       2.635   9.056   4.216  1.00  0.00     0.077 C 
BRANCH  18  19
ATOM     19  C   UNL     1       2.318   7.769   4.945  1.00  0.00    -0.043 A 
ATOM     20  C   UNL     1       2.867   5.469   5.486  1.00  0.00     0.083 A 
ATOM     21  C   UNL     1       3.187   6.671   4.853  1.00  0.00     0.028 A 
ATOM     22  C   UNL     1       1.681   5.357   6.213  1.00  0.00     0.134 A 
ATOM     23  C   UNL     1       0.812   6.437   6.313  1.00  0.00     0.048 A 
ATOM     24  C   UNL     1       1.128   7.641   5.678  1.00  0.00     0.008 A 
ATOM     25  Cl  UNL     1       3.947   4.130   5.361  1.00  0.00    -0.080 Cl
BRANCH  22  26
ATOM     26  O   UNL     1       1.320   4.197   6.842  1.00  0.00    -0.506 OA
ATOM     27  H   UNL     1       0.452   3.940   6.480  1.00  0.00     0.293 HD
ENDBRANCH  22  26
ENDBRANCH  18  19
ENDBRANCH  17  18
BRANCH  17  28
ATOM     28  O   UNL     1       2.866  11.390   4.824  1.00  0.00    -0.383 OA
ATOM     29  H   UNL     1       2.025  11.271   4.326  1.00  0.00     0.211 HD
ENDBRANCH  17  28
ENDBRANCH  14  17
ENDBRANCH  12  13
BRANCH  12  30
ATOM     30  C   UNL     1       7.254  12.418   3.621  1.00  0.00     0.018 C 
ATOM     31  C   UNL     1       8.188  12.657   4.818  1.00  0.00     0.010 C 
BRANCH  30  32
ATOM     32  C   UNL     1       6.111  13.462   3.622  1.00  0.00     0.002 C 
ATOM     33  C   UNL     1       6.554  14.913   3.490  1.00  0.00     0.004 C 
ENDBRANCH  30  32
ENDBRANCH  12  30
ENDBRANCH  10  12
ENDBRANCH   1  10
BRANCH   5  34
ATOM     34  C   UNL     1       8.350   7.306   1.808  1.00  0.00     0.242 C 
ATOM     35  O   UNL     1       8.756   6.147   1.887  1.00  0.00    -0.273 OA
ATOM     36  N   UNL     1       8.937   8.240   0.983  1.00  0.00    -0.354 N 
ATOM     37  H   UNL     1       8.636   9.213   1.050  1.00  0.00     0.163 HD
BRANCH  36  38
ATOM     38  C   UNL     1       9.891   7.873  -0.043  1.00  0.00     0.116 C 
BRANCH  38  39
ATOM     39  C   UNL     1       9.265   8.060  -1.423  1.00  0.00     0.023 C 
BRANCH  39  40
ATOM     40  C   UNL     1       8.096   7.112  -1.666  1.00  0.00     0.026 C 
BRANCH  40  41
ATOM     41  C   UNL     1       8.578   5.662  -1.731  1.00  0.00     0.146 C 
BRANCH  41  42
ATOM     42  N   UNL     1       7.735   4.824  -0.888  1.00  0.00    -0.254 NA
ATOM     43  C   UNL     1       7.074   3.862  -1.412  1.00  0.00     0.185 C 
ATOM     44  N   UNL     1       7.011   3.451  -2.691  1.00  0.00    -0.370 N 
ATOM     45  N   UNL     1       6.299   3.104  -0.618  1.00  0.00    -0.370 N 
ATOM     46  H   UNL     1       6.270   2.844  -2.999  1.00  0.00     0.159 HD
ATOM     47  H   UNL     1       7.546   3.906  -3.424  1.00  0.00     0.159 HD
ATOM     48  H   UNL     1       6.297   3.341   0.365  1.00  0.00     0.159 HD
ATOM     49  H   UNL     1       5.946   2.206  -0.899  1.00  0.00     0.159 HD
ENDBRANCH  41  42
ENDBRANCH  40  41
ENDBRANCH  39  40
ENDBRANCH  38  39
ENDBRANCH  36  38
ENDBRANCH   5  34
BRANCH   8  50
ATOM     50  O   UNL     1       4.981   6.955  -1.519  1.00  0.00    -0.245 OA
BRANCH  50  51
ATOM     51  S   UNL     1       4.381   6.078  -2.750  1.00  0.00     0.397 S 
ATOM     52  O   UNL     1       3.403   6.888  -3.441  1.00  0.00    -0.169 OA
ATOM     53  O   UNL     1       4.069   4.741  -2.288  1.00  0.00    -0.169 OA
BRANCH  51  54
ATOM     54  O   UNL     1       5.645   5.978  -3.739  1.00  0.00    -0.264 OA
ATOM     55  H   UNL     1       6.067   5.107  -3.597  1.00  0.00     0.236 HD
ENDBRANCH  51  54
ENDBRANCH  50  51
ENDBRANCH   8  50
TORSDOF 19
ENDMDL
MODEL 20
REMARK VINA RESULT:    -6.272     12.789     17.791
REMARK INTER + INTRA:         -16.248
REMARK INTER:                 -12.491
REMARK INTRA:                  -3.757
REMARK UNBOUND:                -3.560
REMARK SMILES CC[C@@H](C)[C@@H](NC(=O)[C@@H](O)Cc1ccc(O)c(Cl)c1)C(=O)N1[C@H](C(=O)NCCCCN=C(N)N)C[C@H]2CC[C@H](OS(=O)(=O)O)C[C@@H]21
REMARK SMILES IDX 22 1 36 2 46 3 35 4 23 5 45 6 37 7 39 8 38 9 20 10 21 11
REMARK SMILES IDX 5 12 6 13 7 14 8 15 9 17 11 18 12 19 17 20 19 21 15 22 14 23
REMARK SMILES IDX 13 24 18 25 16 26 10 28 3 30 4 31 2 32 1 33 24 34 25 35
REMARK SMILES IDX 26 36 27 38 28 39 29 40 30 41 31 42 32 43 33 44 34 45 40 50
REMARK SMILES IDX 41 51 42 52 43 53 44 54
REMARK H PARENT 6 16 16 27 10 29 26 37 33 46 33 47 34 48 34 49 44 55
ROOT
ATOM      1  N   UNL     1       4.676   7.853   1.498  1.00  0.00    -0.326 N 
ATOM      2  C   UNL     1       6.071   7.769  -0.396  1.00  0.00     0.014 C 
ATOM      3  C   UNL     1       6.058   7.544   1.118  1.00  0.00     0.091 C 
ATOM      4  C   UNL     1       5.105   8.931  -0.571  1.00  0.00     0.041 C 
ATOM      5  C   UNL     1       3.963   8.477   0.357  1.00  0.00     0.175 C 
ATOM      6  C   UNL     1       6.592   6.142   1.403  1.00  0.00     0.059 C 
ATOM      7  C   UNL     1       7.490   7.898  -0.913  1.00  0.00     0.008 C 
ATOM      8  C   UNL     1       7.650   5.661   0.387  1.00  0.00     0.143 C 
ATOM      9  C   UNL     1       8.404   6.838  -0.264  1.00  0.00     0.034 C 
ENDROOT
BRANCH   1  10
ATOM     10  C   UNL     1       4.076   7.844   2.746  1.00  0.00     0.246 C 
ATOM     11  O   UNL     1       2.878   7.553   2.834  1.00  0.00    -0.272 OA
BRANCH  10  12
ATOM     12  C   UNL     1       4.928   8.157   4.010  1.00  0.00     0.174 C 
BRANCH  12  13
ATOM     13  N   UNL     1       4.636   7.184   5.062  1.00  0.00    -0.342 N 
ATOM     14  C   UNL     1       5.479   6.168   5.454  1.00  0.00     0.249 C 
ATOM     15  O   UNL     1       6.592   5.983   4.977  1.00  0.00    -0.272 OA
ATOM     16  H   UNL     1       3.694   7.115   5.437  1.00  0.00     0.164 HD
BRANCH  14  17
ATOM     17  C   UNL     1       4.879   5.297   6.578  1.00  0.00     0.207 C 
BRANCH  17  18
ATOM     18  C   UNL     1       3.511   5.841   7.005  1.00  0.00     0.077 C 
BRANCH  18  19
ATOM     19  C   UNL     1       2.408   5.375   6.082  1.00  0.00    -0.043 A 
ATOM     20  C   UNL     1       0.278   5.762   4.987  1.00  0.00     0.083 A 
ATOM     21  C   UNL     1       1.319   6.214   5.800  1.00  0.00     0.028 A 
ATOM     22  C   UNL     1       0.317   4.473   4.455  1.00  0.00     0.134 A 
ATOM     23  C   UNL     1       1.390   3.632   4.726  1.00  0.00     0.048 A 
ATOM     24  C   UNL     1       2.432   4.080   5.540  1.00  0.00     0.008 A 
ATOM     25  Cl  UNL     1      -1.052   6.808   4.653  1.00  0.00    -0.080 Cl
BRANCH  22  26
ATOM     26  O   UNL     1      -0.685   3.983   3.662  1.00  0.00    -0.506 OA
ATOM     27  H   UNL     1      -0.650   3.011   3.735  1.00  0.00     0.293 HD
ENDBRANCH  22  26
ENDBRANCH  18  19
ENDBRANCH  17  18
BRANCH  17  28
ATOM     28  O   UNL     1       5.751   5.250   7.718  1.00  0.00    -0.383 OA
ATOM     29  H   UNL     1       6.199   6.126   7.753  1.00  0.00     0.211 HD
ENDBRANCH  17  28
ENDBRANCH  14  17
ENDBRANCH  12  13
BRANCH  12  30
ATOM     30  C   UNL     1       4.763   9.622   4.496  1.00  0.00     0.018 C 
ATOM     31  C   UNL     1       4.608  10.580   3.304  1.00  0.00     0.010 C 
BRANCH  30  32
ATOM     32  C   UNL     1       5.910  10.103   5.419  1.00  0.00     0.002 C 
ATOM     33  C   UNL     1       5.484  10.529   6.818  1.00  0.00     0.004 C 
ENDBRANCH  30  32
ENDBRANCH  12  30
ENDBRANCH  10  12
ENDBRANCH   1  10
BRANCH   5  34
ATOM     34  C   UNL     1       3.034   7.448  -0.340  1.00  0.00     0.242 C 
ATOM     35  O   UNL     1       2.952   6.277   0.032  1.00  0.00    -0.273 OA
ATOM     36  N   UNL     1       2.350   7.924  -1.437  1.00  0.00    -0.354 N 
ATOM     37  H   UNL     1       2.551   8.868  -1.769  1.00  0.00     0.163 HD
BRANCH  36  38
ATOM     38  C   UNL     1       1.287   7.173  -2.071  1.00  0.00     0.116 C 
BRANCH  38  39
ATOM     39  C   UNL     1       1.146   7.604  -3.529  1.00  0.00     0.023 C 
BRANCH  39  40
ATOM     40  C   UNL     1       2.482   7.615  -4.265  1.00  0.00     0.026 C 
BRANCH  40  41
ATOM     41  C   UNL     1       2.908   6.195  -4.638  1.00  0.00     0.146 C 
BRANCH  41  42
ATOM     42  N   UNL     1       4.360   6.088  -4.593  1.00  0.00    -0.254 NA
ATOM     43  C   UNL     1       4.929   5.626  -3.543  1.00  0.00     0.185 C 
ATOM     44  N   UNL     1       4.392   5.188  -2.390  1.00  0.00    -0.370 N 
ATOM     45  N   UNL     1       6.269   5.540  -3.520  1.00  0.00    -0.370 N 
ATOM     46  H   UNL     1       4.960   5.085  -1.566  1.00  0.00     0.159 HD
ATOM     47  H   UNL     1       3.387   5.171  -2.242  1.00  0.00     0.159 HD
ATOM     48  H   UNL     1       6.752   5.842  -4.355  1.00  0.00     0.159 HD
ATOM     49  H   UNL     1       6.766   4.981  -2.850  1.00  0.00     0.159 HD
ENDBRANCH  41  42
ENDBRANCH  40  41
ENDBRANCH  39  40
ENDBRANCH  38  39
ENDBRANCH  36  38
ENDBRANCH   5  34
BRANCH   8  50
ATOM     50  O   UNL     1       7.026   4.896  -0.645  1.00  0.00    -0.245 OA
BRANCH  50  51
ATOM     51  S   UNL     1       6.604   3.352  -0.356  1.00  0.00     0.397 S 
ATOM     52  O   UNL     1       5.168   3.251  -0.485  1.00  0.00    -0.169 OA
ATOM     53  O   UNL     1       7.297   2.871   0.820  1.00  0.00    -0.169 OA
BRANCH  51  54
ATOM     54  O   UNL     1       7.213   2.593  -1.636  1.00  0.00    -0.264 OA
ATOM     55  H   UNL     1       6.582   2.701  -2.376  1.00  0.00     0.236 HD
ENDBRANCH  51  54
ENDBRANCH  50  51
ENDBRANCH   8  50
TORSDOF 19
ENDMDL
MODEL 21
REMARK VINA RESULT:    -6.266      8.914     12.345
REMARK INTER + INTRA:         -16.236
REMARK INTER:                 -11.491
REMARK INTRA:                  -4.745
REMARK UNBOUND:                -3.560
REMARK SMILES CC[C@@H](C)[C@@H](NC(=O)[C@@H](O)Cc1ccc(O)c(Cl)c1)C(=O)N1[C@H](C(=O)NCCCCN=C(N)N)C[C@H]2CC[C@H](OS(=O)(=O)O)C[C@@H]21
REMARK SMILES IDX 22 1 36 2 46 3 35 4 23 5 45 6 37 7 39 8 38 9 20 10 21 11
REMARK SMILES IDX 5 12 6 13 7 14 8 15 9 17 11 18 12 19 17 20 19 21 15 22 14 23
REMARK SMILES IDX 13 24 18 25 16 26 10 28 3 30 4 31 2 32 1 33 24 34 25 35
REMARK SMILES IDX 26 36 27 38 28 39 29 40 30 41 31 42 32 43 33 44 34 45 40 50
REMARK SMILES IDX 41 51 42 52 43 53 44 54
REMARK H PARENT 6 16 16 27 10 29 26 37 33 46 33 47 34 48 34 49 44 55
ROOT
ATOM      1  N   UNL     1      -3.991   2.607   0.784  1.00  0.00    -0.326 N 
ATOM      2  C   UNL     1      -4.488   4.496  -0.531  1.00  0.00     0.014 C 
ATOM      3  C   UNL     1      -3.503   3.332  -0.393  1.00  0.00     0.091 C 
ATOM      4  C   UNL     1      -4.821   4.826   0.916  1.00  0.00     0.041 C 
ATOM      5  C   UNL     1      -5.031   3.407   1.477  1.00  0.00     0.175 C 
ATOM      6  C   UNL     1      -3.443   2.590  -1.727  1.00  0.00     0.059 C 
ATOM      7  C   UNL     1      -3.924   5.580  -1.429  1.00  0.00     0.008 C 
ATOM      8  C   UNL     1      -3.663   3.500  -2.955  1.00  0.00     0.143 C 
ATOM      9  C   UNL     1      -3.254   4.960  -2.674  1.00  0.00     0.034 C 
ENDROOT
BRANCH   1  10
ATOM     10  C   UNL     1      -3.488   1.474   1.400  1.00  0.00     0.246 C 
ATOM     11  O   UNL     1      -3.772   0.363   0.940  1.00  0.00    -0.272 OA
BRANCH  10  12
ATOM     12  C   UNL     1      -2.545   1.624   2.629  1.00  0.00     0.174 C 
BRANCH  12  13
ATOM     13  N   UNL     1      -1.390   2.447   2.273  1.00  0.00    -0.342 N 
ATOM     14  C   UNL     1      -1.222   3.768   2.625  1.00  0.00     0.249 C 
ATOM     15  O   UNL     1      -2.019   4.398   3.308  1.00  0.00    -0.272 OA
ATOM     16  H   UNL     1      -0.725   2.110   1.582  1.00  0.00     0.164 HD
BRANCH  14  17
ATOM     17  C   UNL     1       0.094   4.365   2.084  1.00  0.00     0.207 C 
BRANCH  17  18
ATOM     18  C   UNL     1       0.410   3.798   0.696  1.00  0.00     0.077 C 
BRANCH  18  19
ATOM     19  C   UNL     1       0.752   4.889  -0.293  1.00  0.00    -0.043 A 
ATOM     20  C   UNL     1       2.033   6.861  -0.888  1.00  0.00     0.083 A 
ATOM     21  C   UNL     1       1.754   5.826   0.005  1.00  0.00     0.028 A 
ATOM     22  C   UNL     1       1.315   6.968  -2.080  1.00  0.00     0.134 A 
ATOM     23  C   UNL     1       0.321   6.047  -2.387  1.00  0.00     0.048 A 
ATOM     24  C   UNL     1       0.038   5.011  -1.494  1.00  0.00     0.008 A 
ATOM     25  Cl  UNL     1       3.267   8.003  -0.504  1.00  0.00    -0.080 Cl
BRANCH  22  26
ATOM     26  O   UNL     1       1.546   7.972  -2.981  1.00  0.00    -0.506 OA
ATOM     27  H   UNL     1       2.290   8.496  -2.631  1.00  0.00     0.293 HD
ENDBRANCH  22  26
ENDBRANCH  18  19
ENDBRANCH  17  18
BRANCH  17  28
ATOM     28  O   UNL     1       1.191   4.091   2.971  1.00  0.00    -0.383 OA
ATOM     29  H   UNL     1       0.787   3.839   3.833  1.00  0.00     0.211 HD
ENDBRANCH  17  28
ENDBRANCH  14  17
ENDBRANCH  12  13
BRANCH  12  30
ATOM     30  C   UNL     1      -2.134   0.258   3.240  1.00  0.00     0.018 C 
ATOM     31  C   UNL     1      -2.309   0.267   4.767  1.00  0.00     0.010 C 
BRANCH  30  32
ATOM     32  C   UNL     1      -0.695  -0.179   2.872  1.00  0.00     0.002 C 
ATOM     33  C   UNL     1      -0.598  -1.346   1.898  1.00  0.00     0.004 C 
ENDBRANCH  30  32
ENDBRANCH  12  30
ENDBRANCH  10  12
ENDBRANCH   1  10
BRANCH   5  34
ATOM     34  C   UNL     1      -6.449   2.867   1.152  1.00  0.00     0.242 C 
ATOM     35  O   UNL     1      -6.632   1.908   0.403  1.00  0.00    -0.273 OA
ATOM     36  N   UNL     1      -7.488   3.572   1.717  1.00  0.00    -0.354 N 
ATOM     37  H   UNL     1      -7.278   4.429   2.230  1.00  0.00     0.163 HD
BRANCH  36  38
ATOM     38  C   UNL     1      -8.852   3.087   1.698  1.00  0.00     0.116 C 
BRANCH  38  39
ATOM     39  C   UNL     1      -9.761   4.123   1.041  1.00  0.00     0.023 C 
BRANCH  39  40
ATOM     40  C   UNL     1      -9.827   3.965  -0.474  1.00  0.00     0.026 C 
BRANCH  40  41
ATOM     41  C   UNL     1      -9.783   2.488  -0.867  1.00  0.00     0.146 C 
BRANCH  41  42
ATOM     42  N   UNL     1      -9.751   2.366  -2.319  1.00  0.00    -0.254 NA
ATOM     43  C   UNL     1      -8.677   1.981  -2.898  1.00  0.00     0.185 C 
ATOM     44  N   UNL     1      -7.484   1.643  -2.375  1.00  0.00    -0.370 N 
ATOM     45  N   UNL     1      -8.667   1.879  -4.238  1.00  0.00    -0.370 N 
ATOM     46  H   UNL     1      -6.664   1.597  -2.955  1.00  0.00     0.159 HD
ATOM     47  H   UNL     1      -7.321   1.651  -1.373  1.00  0.00     0.159 HD
ATOM     48  H   UNL     1      -9.531   2.107  -4.711  1.00  0.00     0.159 HD
ATOM     49  H   UNL     1      -7.962   1.368  -4.739  1.00  0.00     0.159 HD
ENDBRANCH  41  42
ENDBRANCH  40  41
ENDBRANCH  39  40
ENDBRANCH  38  39
ENDBRANCH  36  38
ENDBRANCH   5  34
BRANCH   8  50
ATOM     50  O   UNL     1      -5.038   3.480  -3.340  1.00  0.00    -0.245 OA
BRANCH  50  51
ATOM     51  S   UNL     1      -5.431   3.237  -4.899  1.00  0.00     0.397 S 
ATOM     52  O   UNL     1      -4.235   3.407  -5.693  1.00  0.00    -0.169 OA
ATOM     53  O   UNL     1      -6.655   3.947  -5.208  1.00  0.00    -0.169 OA
BRANCH  51  54
ATOM     54  O   UNL     1      -5.753   1.662  -4.923  1.00  0.00    -0.264 OA
ATOM     55  H   UNL     1      -5.923   1.406  -5.852  1.00  0.00     0.236 HD
ENDBRANCH  51  54
ENDBRANCH  50  51
ENDBRANCH   8  50
TORSDOF 19
ENDMDL
MODEL 22
REMARK VINA RESULT:    -6.244     16.815     21.881
REMARK INTER + INTRA:         -16.193
REMARK INTER:                 -11.524
REMARK INTRA:                  -4.669
REMARK UNBOUND:                -3.560
REMARK SMILES CC[C@@H](C)[C@@H](NC(=O)[C@@H](O)Cc1ccc(O)c(Cl)c1)C(=O)N1[C@H](C(=O)NCCCCN=C(N)N)C[C@H]2CC[C@H](OS(=O)(=O)O)C[C@@H]21
REMARK SMILES IDX 22 1 36 2 46 3 35 4 23 5 45 6 37 7 39 8 38 9 20 10 21 11
REMARK SMILES IDX 5 12 6 13 7 14 8 15 9 17 11 18 12 19 17 20 19 21 15 22 14 23
REMARK SMILES IDX 13 24 18 25 16 26 10 28 3 30 4 31 2 32 1 33 24 34 25 35
REMARK SMILES IDX 26 36 27 38 28 39 29 40 30 41 31 42 32 43 33 44 34 45 40 50
REMARK SMILES IDX 41 51 42 52 43 53 44 54
REMARK H PARENT 6 16 16 27 10 29 26 37 33 46 33 47 34 48 34 49 44 55
ROOT
ATOM      1  N   UNL     1       5.493   3.949  -3.666  1.00  0.00    -0.326 N 
ATOM      2  C   UNL     1       5.493   2.906  -5.776  1.00  0.00     0.014 C 
ATOM      3  C   UNL     1       4.922   4.100  -5.007  1.00  0.00     0.091 C 
ATOM      4  C   UNL     1       5.554   1.821  -4.712  1.00  0.00     0.041 C 
ATOM      5  C   UNL     1       6.147   2.623  -3.539  1.00  0.00     0.175 C 
ATOM      6  C   UNL     1       5.237   5.374  -5.789  1.00  0.00     0.059 C 
ATOM      7  C   UNL     1       4.708   2.655  -7.049  1.00  0.00     0.008 C 
ATOM      8  C   UNL     1       5.280   5.169  -7.319  1.00  0.00     0.143 C 
ATOM      9  C   UNL     1       4.401   3.985  -7.769  1.00  0.00     0.034 C 
ENDROOT
BRANCH   1  10
ATOM     10  C   UNL     1       5.318   4.725  -2.533  1.00  0.00     0.246 C 
ATOM     11  O   UNL     1       6.312   5.141  -1.929  1.00  0.00    -0.272 OA
BRANCH  10  12
ATOM     12  C   UNL     1       3.878   5.094  -2.071  1.00  0.00     0.174 C 
BRANCH  12  13
ATOM     13  N   UNL     1       2.917   4.144  -2.631  1.00  0.00    -0.342 N 
ATOM     14  C   UNL     1       2.072   3.347  -1.892  1.00  0.00     0.249 C 
ATOM     15  O   UNL     1       2.012   3.366  -0.669  1.00  0.00    -0.272 OA
ATOM     16  H   UNL     1       2.961   3.906  -3.618  1.00  0.00     0.164 HD
BRANCH  14  17
ATOM     17  C   UNL     1       1.188   2.438  -2.773  1.00  0.00     0.207 C 
BRANCH  17  18
ATOM     18  C   UNL     1       1.398   2.761  -4.255  1.00  0.00     0.077 C 
BRANCH  18  19
ATOM     19  C   UNL     1       1.437   1.510  -5.103  1.00  0.00    -0.043 A 
ATOM     20  C   UNL     1       1.749  -0.888  -5.301  1.00  0.00     0.083 A 
ATOM     21  C   UNL     1       1.665   0.259  -4.510  1.00  0.00     0.028 A 
ATOM     22  C   UNL     1       1.608  -0.792  -6.686  1.00  0.00     0.134 A 
ATOM     23  C   UNL     1       1.381   0.440  -7.287  1.00  0.00     0.048 A 
ATOM     24  C   UNL     1       1.298   1.590  -6.498  1.00  0.00     0.008 A 
ATOM     25  Cl  UNL     1       2.031  -2.416  -4.553  1.00  0.00    -0.080 Cl
BRANCH  22  26
ATOM     26  O   UNL     1       1.693  -1.887  -7.503  1.00  0.00    -0.506 OA
ATOM     27  H   UNL     1       2.329  -2.498  -7.088  1.00  0.00     0.293 HD
ENDBRANCH  22  26
ENDBRANCH  18  19
ENDBRANCH  17  18
BRANCH  17  28
ATOM     28  O   UNL     1      -0.202   2.592  -2.444  1.00  0.00    -0.383 OA
ATOM     29  H   UNL     1      -0.704   2.276  -3.230  1.00  0.00     0.211 HD
ENDBRANCH  17  28
ENDBRANCH  14  17
ENDBRANCH  12  13
BRANCH  12  30
ATOM     30  C   UNL     1       3.506   6.568  -2.385  1.00  0.00     0.018 C 
ATOM     31  C   UNL     1       3.248   7.354  -1.090  1.00  0.00     0.010 C 
BRANCH  30  32
ATOM     32  C   UNL     1       2.300   6.714  -3.345  1.00  0.00     0.002 C 
ATOM     33  C   UNL     1       2.510   7.665  -4.515  1.00  0.00     0.004 C 
ENDBRANCH  30  32
ENDBRANCH  12  30
ENDBRANCH  10  12
ENDBRANCH   1  10
BRANCH   5  34
ATOM     34  C   UNL     1       7.689   2.756  -3.658  1.00  0.00     0.242 C 
ATOM     35  O   UNL     1       8.444   1.792  -3.532  1.00  0.00    -0.273 OA
ATOM     36  N   UNL     1       8.152   4.037  -3.861  1.00  0.00    -0.354 N 
ATOM     37  H   UNL     1       7.486   4.810  -3.837  1.00  0.00     0.163 HD
BRANCH  36  38
ATOM     38  C   UNL     1       9.531   4.314  -4.208  1.00  0.00     0.116 C 
BRANCH  38  39
ATOM     39  C   UNL     1       9.668   4.442  -5.723  1.00  0.00     0.023 C 
BRANCH  39  40
ATOM     40  C   UNL     1      10.242   3.184  -6.365  1.00  0.00     0.026 C 
BRANCH  40  41
ATOM     41  C   UNL     1       9.159   2.424  -7.131  1.00  0.00     0.146 C 
BRANCH  41  42
ATOM     42  N   UNL     1       9.620   2.140  -8.484  1.00  0.00    -0.254 NA
ATOM     43  C   UNL     1       8.797   2.216  -9.461  1.00  0.00     0.185 C 
ATOM     44  N   UNL     1       7.490   2.534  -9.470  1.00  0.00    -0.370 N 
ATOM     45  N   UNL     1       9.240   1.947 -10.700  1.00  0.00    -0.370 N 
ATOM     46  H   UNL     1       6.914   2.318 -10.266  1.00  0.00     0.159 HD
ATOM     47  H   UNL     1       6.996   2.780  -8.617  1.00  0.00     0.159 HD
ATOM     48  H   UNL     1      10.219   1.706 -10.784  1.00  0.00     0.159 HD
ATOM     49  H   UNL     1       8.735   2.210 -11.528  1.00  0.00     0.159 HD
ENDBRANCH  41  42
ENDBRANCH  40  41
ENDBRANCH  39  40
ENDBRANCH  38  39
ENDBRANCH  36  38
ENDBRANCH   5  34
BRANCH   8  50
ATOM     50  O   UNL     1       6.621   4.926  -7.744  1.00  0.00    -0.245 OA
BRANCH  50  51
ATOM     51  S   UNL     1       7.423   6.076  -8.569  1.00  0.00     0.397 S 
ATOM     52  O   UNL     1       6.456   6.838  -9.327  1.00  0.00    -0.169 OA
ATOM     53  O   UNL     1       8.594   5.499  -9.194  1.00  0.00    -0.169 OA
BRANCH  51  54
ATOM     54  O   UNL     1       7.920   7.050  -7.389  1.00  0.00    -0.264 OA
ATOM     55  H   UNL     1       8.117   6.495  -6.608  1.00  0.00     0.236 HD
ENDBRANCH  51  54
ENDBRANCH  50  51
ENDBRANCH   8  50
TORSDOF 19
ENDMDL
MODEL 23
REMARK VINA RESULT:    -6.198     17.551     21.366
REMARK INTER + INTRA:         -16.100
REMARK INTER:                 -10.585
REMARK INTRA:                  -5.515
REMARK UNBOUND:                -3.560
REMARK SMILES CC[C@@H](C)[C@@H](NC(=O)[C@@H](O)Cc1ccc(O)c(Cl)c1)C(=O)N1[C@H](C(=O)NCCCCN=C(N)N)C[C@H]2CC[C@H](OS(=O)(=O)O)C[C@@H]21
REMARK SMILES IDX 22 1 36 2 46 3 35 4 23 5 45 6 37 7 39 8 38 9 20 10 21 11
REMARK SMILES IDX 5 12 6 13 7 14 8 15 9 17 11 18 12 19 17 20 19 21 15 22 14 23
REMARK SMILES IDX 13 24 18 25 16 26 10 28 3 30 4 31 2 32 1 33 24 34 25 35
REMARK SMILES IDX 26 36 27 38 28 39 29 40 30 41 31 42 32 43 33 44 34 45 40 50
REMARK SMILES IDX 41 51 42 52 43 53 44 54
REMARK H PARENT 6 16 16 27 10 29 26 37 33 46 33 47 34 48 34 49 44 55
ROOT
ATOM      1  N   UNL     1       4.692   5.057  -8.289  1.00  0.00    -0.326 N 
ATOM      2  C   UNL     1       2.511   4.175  -8.383  1.00  0.00     0.014 C 
ATOM      3  C   UNL     1       3.952   3.911  -8.827  1.00  0.00     0.091 C 
ATOM      4  C   UNL     1       2.412   5.691  -8.451  1.00  0.00     0.041 C 
ATOM      5  C   UNL     1       3.744   6.081  -7.785  1.00  0.00     0.175 C 
ATOM      6  C   UNL     1       4.351   2.510  -8.367  1.00  0.00     0.059 C 
ATOM      7  C   UNL     1       1.535   3.330  -9.178  1.00  0.00     0.008 C 
ATOM      8  C   UNL     1       3.176   1.510  -8.332  1.00  0.00     0.143 C 
ATOM      9  C   UNL     1       2.063   1.888  -9.331  1.00  0.00     0.034 C 
ENDROOT
BRANCH   1  10
ATOM     10  C   UNL     1       6.036   5.372  -8.390  1.00  0.00     0.246 C 
ATOM     11  O   UNL     1       6.363   6.532  -8.664  1.00  0.00    -0.272 OA
BRANCH  10  12
ATOM     12  C   UNL     1       7.104   4.274  -8.115  1.00  0.00     0.174 C 
BRANCH  12  13
ATOM     13  N   UNL     1       7.058   3.874  -6.709  1.00  0.00    -0.342 N 
ATOM     14  C   UNL     1       7.286   2.599  -6.242  1.00  0.00     0.249 C 
ATOM     15  O   UNL     1       7.585   1.653  -6.960  1.00  0.00    -0.272 OA
ATOM     16  H   UNL     1       6.671   4.511  -6.016  1.00  0.00     0.164 HD
BRANCH  14  17
ATOM     17  C   UNL     1       7.146   2.492  -4.709  1.00  0.00     0.207 C 
BRANCH  17  18
ATOM     18  C   UNL     1       8.506   2.693  -4.031  1.00  0.00     0.077 C 
BRANCH  18  19
ATOM     19  C   UNL     1       8.617   4.056  -3.387  1.00  0.00    -0.043 A 
ATOM     20  C   UNL     1       7.574   5.965  -2.313  1.00  0.00     0.083 A 
ATOM     21  C   UNL     1       7.477   4.687  -2.863  1.00  0.00     0.028 A 
ATOM     22  C   UNL     1       8.805   6.622  -2.285  1.00  0.00     0.134 A 
ATOM     23  C   UNL     1       9.941   6.009  -2.800  1.00  0.00     0.048 A 
ATOM     24  C   UNL     1       9.847   4.730  -3.352  1.00  0.00     0.008 A 
ATOM     25  Cl  UNL     1       6.163   6.724  -1.674  1.00  0.00    -0.080 Cl
BRANCH  22  26
ATOM     26  O   UNL     1       8.947   7.880  -1.766  1.00  0.00    -0.506 OA
ATOM     27  H   UNL     1       8.671   7.831  -0.832  1.00  0.00     0.293 HD
ENDBRANCH  22  26
ENDBRANCH  18  19
ENDBRANCH  17  18
BRANCH  17  28
ATOM     28  O   UNL     1       6.607   1.217  -4.326  1.00  0.00    -0.383 OA
ATOM     29  H   UNL     1       6.078   0.903  -5.095  1.00  0.00     0.211 HD
ENDBRANCH  17  28
ENDBRANCH  14  17
ENDBRANCH  12  13
BRANCH  12  30
ATOM     30  C   UNL     1       8.529   4.697  -8.563  1.00  0.00     0.018 C 
ATOM     31  C   UNL     1       9.160   3.623  -9.464  1.00  0.00     0.010 C 
BRANCH  30  32
ATOM     32  C   UNL     1       9.478   5.029  -7.386  1.00  0.00     0.002 C 
ATOM     33  C   UNL     1       9.246   6.380  -6.723  1.00  0.00     0.004 C 
ENDBRANCH  30  32
ENDBRANCH  12  30
ENDBRANCH  10  12
ENDBRANCH   1  10
BRANCH   5  34
ATOM     34  C   UNL     1       3.648   6.028  -6.237  1.00  0.00     0.242 C 
ATOM     35  O   UNL     1       4.177   5.135  -5.575  1.00  0.00    -0.273 OA
ATOM     36  N   UNL     1       2.884   7.019  -5.663  1.00  0.00    -0.354 N 
ATOM     37  H   UNL     1       2.372   7.660  -6.272  1.00  0.00     0.163 HD
BRANCH  36  38
ATOM     38  C   UNL     1       2.862   7.249  -4.234  1.00  0.00     0.116 C 
BRANCH  38  39
ATOM     39  C   UNL     1       1.547   7.917  -3.836  1.00  0.00     0.023 C 
BRANCH  39  40
ATOM     40  C   UNL     1       0.329   7.170  -4.369  1.00  0.00     0.026 C 
BRANCH  40  41
ATOM     41  C   UNL     1       0.060   5.913  -3.541  1.00  0.00     0.146 C 
BRANCH  41  42
ATOM     42  N   UNL     1      -0.043   4.757  -4.421  1.00  0.00    -0.254 NA
ATOM     43  C   UNL     1       0.893   3.884  -4.431  1.00  0.00     0.185 C 
ATOM     44  N   UNL     1       2.038   3.834  -3.726  1.00  0.00    -0.370 N 
ATOM     45  N   UNL     1       0.782   2.827  -5.253  1.00  0.00    -0.370 N 
ATOM     46  H   UNL     1       2.789   3.228  -4.009  1.00  0.00     0.159 HD
ATOM     47  H   UNL     1       2.276   4.550  -3.046  1.00  0.00     0.159 HD
ATOM     48  H   UNL     1      -0.058   2.783  -5.815  1.00  0.00     0.159 HD
ATOM     49  H   UNL     1       1.339   1.998  -5.151  1.00  0.00     0.159 HD
ENDBRANCH  41  42
ENDBRANCH  40  41
ENDBRANCH  39  40
ENDBRANCH  38  39
ENDBRANCH  36  38
ENDBRANCH   5  34
BRANCH   8  50
ATOM     50  O   UNL     1       2.611   1.461  -7.021  1.00  0.00    -0.245 OA
BRANCH  50  51
ATOM     51  S   UNL     1       3.470   0.815  -5.801  1.00  0.00     0.397 S 
ATOM     52  O   UNL     1       3.837   1.883  -4.898  1.00  0.00    -0.169 OA
ATOM     53  O   UNL     1       4.456  -0.102  -6.332  1.00  0.00    -0.169 OA
BRANCH  51  54
ATOM     54  O   UNL     1       2.356  -0.049  -5.027  1.00  0.00    -0.264 OA
ATOM     55  H   UNL     1       2.821  -0.709  -4.474  1.00  0.00     0.236 HD
ENDBRANCH  51  54
ENDBRANCH  50  51
ENDBRANCH   8  50
TORSDOF 19
ENDMDL
MODEL 24
REMARK VINA RESULT:    -6.151      9.128     14.116
REMARK INTER + INTRA:         -16.005
REMARK INTER:                 -13.628
REMARK INTRA:                  -2.377
REMARK UNBOUND:                -3.560
REMARK SMILES CC[C@@H](C)[C@@H](NC(=O)[C@@H](O)Cc1ccc(O)c(Cl)c1)C(=O)N1[C@H](C(=O)NCCCCN=C(N)N)C[C@H]2CC[C@H](OS(=O)(=O)O)C[C@@H]21
REMARK SMILES IDX 22 1 36 2 46 3 35 4 23 5 45 6 37 7 39 8 38 9 20 10 21 11
REMARK SMILES IDX 5 12 6 13 7 14 8 15 9 17 11 18 12 19 17 20 19 21 15 22 14 23
REMARK SMILES IDX 13 24 18 25 16 26 10 28 3 30 4 31 2 32 1 33 24 34 25 35
REMARK SMILES IDX 26 36 27 38 28 39 29 40 30 41 31 42 32 43 33 44 34 45 40 50
REMARK SMILES IDX 41 51 42 52 43 53 44 54
REMARK H PARENT 6 16 16 27 10 29 26 37 33 46 33 47 34 48 34 49 44 55
ROOT
ATOM      1  N   UNL     1      -3.440  -1.840   1.288  1.00  0.00    -0.326 N 
ATOM      2  C   UNL     1      -3.360  -4.193   1.280  1.00  0.00     0.014 C 
ATOM      3  C   UNL     1      -4.045  -2.998   1.951  1.00  0.00     0.091 C 
ATOM      4  C   UNL     1      -1.956  -3.671   1.020  1.00  0.00     0.041 C 
ATOM      5  C   UNL     1      -2.282  -2.273   0.466  1.00  0.00     0.175 C 
ATOM      6  C   UNL     1      -5.557  -3.186   1.845  1.00  0.00     0.059 C 
ATOM      7  C   UNL     1      -3.545  -5.454   2.100  1.00  0.00     0.008 C 
ATOM      8  C   UNL     1      -6.003  -4.664   1.867  1.00  0.00     0.143 C 
ATOM      9  C   UNL     1      -4.996  -5.562   2.614  1.00  0.00     0.034 C 
ENDROOT
BRANCH   1  10
ATOM     10  C   UNL     1      -3.653  -0.487   1.493  1.00  0.00     0.246 C 
ATOM     11  O   UNL     1      -4.540   0.085   0.851  1.00  0.00    -0.272 OA
BRANCH  10  12
ATOM     12  C   UNL     1      -2.804   0.270   2.555  1.00  0.00     0.174 C 
BRANCH  12  13
ATOM     13  N   UNL     1      -3.657   1.183   3.316  1.00  0.00    -0.342 N 
ATOM     14  C   UNL     1      -3.965   1.049   4.651  1.00  0.00     0.249 C 
ATOM     15  O   UNL     1      -3.530   0.153   5.364  1.00  0.00    -0.272 OA
ATOM     16  H   UNL     1      -4.212   1.880   2.826  1.00  0.00     0.164 HD
BRANCH  14  17
ATOM     17  C   UNL     1      -4.903   2.163   5.161  1.00  0.00     0.207 C 
BRANCH  17  18
ATOM     18  C   UNL     1      -4.220   2.974   6.267  1.00  0.00     0.077 C 
BRANCH  18  19
ATOM     19  C   UNL     1      -3.024   3.739   5.745  1.00  0.00    -0.043 A 
ATOM     20  C   UNL     1      -0.731   4.487   6.003  1.00  0.00     0.083 A 
ATOM     21  C   UNL     1      -1.817   3.740   6.461  1.00  0.00     0.028 A 
ATOM     22  C   UNL     1      -0.844   5.237   4.832  1.00  0.00     0.134 A 
ATOM     23  C   UNL     1      -2.034   5.246   4.113  1.00  0.00     0.048 A 
ATOM     24  C   UNL     1      -3.123   4.500   4.570  1.00  0.00     0.008 A 
ATOM     25  Cl  UNL     1       0.744   4.475   6.896  1.00  0.00    -0.080 Cl
BRANCH  22  26
ATOM     26  O   UNL     1       0.190   5.993   4.349  1.00  0.00    -0.506 OA
ATOM     27  H   UNL     1       0.892   5.973   5.026  1.00  0.00     0.293 HD
ENDBRANCH  22  26
ENDBRANCH  18  19
ENDBRANCH  17  18
BRANCH  17  28
ATOM     28  O   UNL     1      -6.133   1.615   5.662  1.00  0.00    -0.383 OA
ATOM     29  H   UNL     1      -5.880   0.844   6.218  1.00  0.00     0.211 HD
ENDBRANCH  17  28
ENDBRANCH  14  17
ENDBRANCH  12  13
BRANCH  12  30
ATOM     30  C   UNL     1      -1.572   0.986   1.938  1.00  0.00     0.018 C 
ATOM     31  C   UNL     1      -0.707   1.626   3.035  1.00  0.00     0.010 C 
BRANCH  30  32
ATOM     32  C   UNL     1      -1.938   2.041   0.866  1.00  0.00     0.002 C 
ATOM     33  C   UNL     1      -1.377   1.778  -0.525  1.00  0.00     0.004 C 
ENDBRANCH  30  32
ENDBRANCH  12  30
ENDBRANCH  10  12
ENDBRANCH   1  10
BRANCH   5  34
ATOM     34  C   UNL     1      -2.665  -2.328  -1.037  1.00  0.00     0.242 C 
ATOM     35  O   UNL     1      -3.824  -2.184  -1.427  1.00  0.00    -0.273 OA
ATOM     36  N   UNL     1      -1.626  -2.605  -1.897  1.00  0.00    -0.354 N 
ATOM     37  H   UNL     1      -0.712  -2.834  -1.505  1.00  0.00     0.163 HD
BRANCH  36  38
ATOM     38  C   UNL     1      -1.757  -2.482  -3.334  1.00  0.00     0.116 C 
BRANCH  38  39
ATOM     39  C   UNL     1      -1.319  -3.781  -4.007  1.00  0.00     0.023 C 
BRANCH  39  40
ATOM     40  C   UNL     1      -0.715  -3.547  -5.387  1.00  0.00     0.026 C 
BRANCH  40  41
ATOM     41  C   UNL     1       0.808  -3.664  -5.340  1.00  0.00     0.146 C 
BRANCH  41  42
ATOM     42  N   UNL     1       1.203  -4.509  -4.220  1.00  0.00    -0.254 NA
ATOM     43  C   UNL     1       1.772  -5.633  -4.446  1.00  0.00     0.185 C 
ATOM     44  N   UNL     1       2.098  -6.219  -5.613  1.00  0.00    -0.370 N 
ATOM     45  N   UNL     1       2.124  -6.400  -3.401  1.00  0.00    -0.370 N 
ATOM     46  H   UNL     1       2.316  -7.200  -5.650  1.00  0.00     0.159 HD
ATOM     47  H   UNL     1       1.915  -5.770  -6.504  1.00  0.00     0.159 HD
ATOM     48  H   UNL     1       1.921  -6.027  -2.483  1.00  0.00     0.159 HD
ATOM     49  H   UNL     1       2.773  -7.163  -3.480  1.00  0.00     0.159 HD
ENDBRANCH  41  42
ENDBRANCH  40  41
ENDBRANCH  39  40
ENDBRANCH  38  39
ENDBRANCH  36  38
ENDBRANCH   5  34
BRANCH   8  50
ATOM     50  O   UNL     1      -6.144  -5.153   0.533  1.00  0.00    -0.245 OA
BRANCH  50  51
ATOM     51  S   UNL     1      -6.856  -6.593   0.277  1.00  0.00     0.397 S 
ATOM     52  O   UNL     1      -7.617  -6.502  -0.949  1.00  0.00    -0.169 OA
ATOM     53  O   UNL     1      -7.454  -7.065   1.508  1.00  0.00    -0.169 OA
BRANCH  51  54
ATOM     54  O   UNL     1      -5.597  -7.536  -0.057  1.00  0.00    -0.264 OA
ATOM     55  H   UNL     1      -4.819  -6.957  -0.194  1.00  0.00     0.236 HD
ENDBRANCH  51  54
ENDBRANCH  50  51
ENDBRANCH   8  50
TORSDOF 19
ENDMDL
MODEL 25
REMARK VINA RESULT:    -6.148     18.953     22.017
REMARK INTER + INTRA:         -15.999
REMARK INTER:                 -11.757
REMARK INTRA:                  -4.242
REMARK UNBOUND:                -3.560
REMARK SMILES CC[C@@H](C)[C@@H](NC(=O)[C@@H](O)Cc1ccc(O)c(Cl)c1)C(=O)N1[C@H](C(=O)NCCCCN=C(N)N)C[C@H]2CC[C@H](OS(=O)(=O)O)C[C@@H]21
REMARK SMILES IDX 22 1 36 2 46 3 35 4 23 5 45 6 37 7 39 8 38 9 20 10 21 11
REMARK SMILES IDX 5 12 6 13 7 14 8 15 9 17 11 18 12 19 17 20 19 21 15 22 14 23
REMARK SMILES IDX 13 24 18 25 16 26 10 28 3 30 4 31 2 32 1 33 24 34 25 35
REMARK SMILES IDX 26 36 27 38 28 39 29 40 30 41 31 42 32 43 33 44 34 45 40 50
REMARK SMILES IDX 41 51 42 52 43 53 44 54
REMARK H PARENT 6 16 16 27 10 29 26 37 33 46 33 47 34 48 34 49 44 55
ROOT
ATOM      1  N   UNL     1       5.320   2.500  -7.166  1.00  0.00    -0.326 N 
ATOM      2  C   UNL     1       3.096   1.944  -6.630  1.00  0.00     0.014 C 
ATOM      3  C   UNL     1       4.132   3.066  -6.520  1.00  0.00     0.091 C 
ATOM      4  C   UNL     1       3.945   0.689  -6.489  1.00  0.00     0.041 C 
ATOM      5  C   UNL     1       5.121   1.051  -7.415  1.00  0.00     0.175 C 
ATOM      6  C   UNL     1       3.527   4.341  -7.105  1.00  0.00     0.059 C 
ATOM      7  C   UNL     1       1.944   2.173  -5.671  1.00  0.00     0.008 C 
ATOM      8  C   UNL     1       1.998   4.446  -6.918  1.00  0.00     0.143 C 
ATOM      9  C   UNL     1       1.510   3.654  -5.688  1.00  0.00     0.034 C 
ENDROOT
BRANCH   1  10
ATOM     10  C   UNL     1       6.577   3.050  -7.350  1.00  0.00     0.246 C 
ATOM     11  O   UNL     1       6.741   3.892  -8.239  1.00  0.00    -0.272 OA
BRANCH  10  12
ATOM     12  C   UNL     1       7.743   2.629  -6.410  1.00  0.00     0.174 C 
BRANCH  12  13
ATOM     13  N   UNL     1       7.520   3.165  -5.067  1.00  0.00    -0.342 N 
ATOM     14  C   UNL     1       6.939   2.474  -4.027  1.00  0.00     0.249 C 
ATOM     15  O   UNL     1       6.565   1.310  -4.106  1.00  0.00    -0.272 OA
ATOM     16  H   UNL     1       7.634   4.161  -4.897  1.00  0.00     0.164 HD
BRANCH  14  17
ATOM     17  C   UNL     1       6.826   3.319  -2.741  1.00  0.00     0.207 C 
BRANCH  17  18
ATOM     18  C   UNL     1       7.101   4.796  -3.044  1.00  0.00     0.077 C 
BRANCH  18  19
ATOM     19  C   UNL     1       5.848   5.634  -2.935  1.00  0.00    -0.043 A 
ATOM     20  C   UNL     1       4.428   7.139  -1.668  1.00  0.00     0.083 A 
ATOM     21  C   UNL     1       5.609   6.405  -1.786  1.00  0.00     0.028 A 
ATOM     22  C   UNL     1       3.480   7.107  -2.692  1.00  0.00     0.134 A 
ATOM     23  C   UNL     1       3.705   6.349  -3.835  1.00  0.00     0.048 A 
ATOM     24  C   UNL     1       4.885   5.611  -3.955  1.00  0.00     0.008 A 
ATOM     25  Cl  UNL     1       4.152   8.079  -0.249  1.00  0.00    -0.080 Cl
BRANCH  22  26
ATOM     26  O   UNL     1       2.303   7.801  -2.616  1.00  0.00    -0.506 OA
ATOM     27  H   UNL     1       1.753   7.348  -1.951  1.00  0.00     0.293 HD
ENDBRANCH  22  26
ENDBRANCH  18  19
ENDBRANCH  17  18
BRANCH  17  28
ATOM     28  O   UNL     1       7.747   2.859  -1.738  1.00  0.00    -0.383 OA
ATOM     29  H   UNL     1       7.423   3.225  -0.883  1.00  0.00     0.211 HD
ENDBRANCH  17  28
ENDBRANCH  14  17
ENDBRANCH  12  13
BRANCH  12  30
ATOM     30  C   UNL     1       9.138   3.011  -6.975  1.00  0.00     0.018 C 
ATOM     31  C   UNL     1       9.346   4.533  -6.935  1.00  0.00     0.010 C 
BRANCH  30  32
ATOM     32  C   UNL     1       9.396   2.476  -8.405  1.00  0.00     0.002 C 
ATOM     33  C   UNL     1      10.027   3.472  -9.369  1.00  0.00     0.004 C 
ENDBRANCH  30  32
ENDBRANCH  12  30
ENDBRANCH  10  12
ENDBRANCH   1  10
BRANCH   5  34
ATOM     34  C   UNL     1       4.776   0.790  -8.905  1.00  0.00     0.242 C 
ATOM     35  O   UNL     1       4.369  -0.300  -9.306  1.00  0.00    -0.273 OA
ATOM     36  N   UNL     1       5.011   1.849  -9.754  1.00  0.00    -0.354 N 
ATOM     37  H   UNL     1       5.462   2.686  -9.383  1.00  0.00     0.163 HD
BRANCH  36  38
ATOM     38  C   UNL     1       4.549   1.856 -11.127  1.00  0.00     0.116 C 
BRANCH  38  39
ATOM     39  C   UNL     1       4.593   3.278 -11.681  1.00  0.00     0.023 C 
BRANCH  39  40
ATOM     40  C   UNL     1       3.867   4.276 -10.785  1.00  0.00     0.026 C 
BRANCH  40  41
ATOM     41  C   UNL     1       4.561   5.638 -10.816  1.00  0.00     0.146 C 
BRANCH  41  42
ATOM     42  N   UNL     1       3.843   6.576  -9.964  1.00  0.00    -0.254 NA
ATOM     43  C   UNL     1       4.436   7.097  -8.955  1.00  0.00     0.185 C 
ATOM     44  N   UNL     1       5.693   6.925  -8.506  1.00  0.00    -0.370 N 
ATOM     45  N   UNL     1       3.755   7.956  -8.179  1.00  0.00    -0.370 N 
ATOM     46  H   UNL     1       5.946   7.202  -7.574  1.00  0.00     0.159 HD
ATOM     47  H   UNL     1       6.351   6.317  -8.984  1.00  0.00     0.159 HD
ATOM     48  H   UNL     1       2.801   8.149  -8.453  1.00  0.00     0.159 HD
ATOM     49  H   UNL     1       4.205   8.576  -7.529  1.00  0.00     0.159 HD
ENDBRANCH  41  42
ENDBRANCH  40  41
ENDBRANCH  39  40
ENDBRANCH  38  39
ENDBRANCH  36  38
ENDBRANCH   5  34
BRANCH   8  50
ATOM     50  O   UNL     1       1.327   3.946  -8.075  1.00  0.00    -0.245 OA
BRANCH  50  51
ATOM     51  S   UNL     1       0.333   4.924  -8.911  1.00  0.00     0.397 S 
ATOM     52  O   UNL     1      -0.912   5.024  -8.183  1.00  0.00    -0.169 OA
ATOM     53  O   UNL     1       0.365   4.566 -10.314  1.00  0.00    -0.169 OA
BRANCH  51  54
ATOM     54  O   UNL     1       1.052   6.353  -8.748  1.00  0.00    -0.264 OA
ATOM     55  H   UNL     1       1.782   6.248  -8.104  1.00  0.00     0.236 HD
ENDBRANCH  51  54
ENDBRANCH  50  51
ENDBRANCH   8  50
TORSDOF 19
ENDMDL
MODEL 26
REMARK VINA RESULT:    -6.138     16.088     19.864
REMARK INTER + INTRA:         -15.977
REMARK INTER:                 -12.310
REMARK INTRA:                  -3.667
REMARK UNBOUND:                -3.560
REMARK SMILES CC[C@@H](C)[C@@H](NC(=O)[C@@H](O)Cc1ccc(O)c(Cl)c1)C(=O)N1[C@H](C(=O)NCCCCN=C(N)N)C[C@H]2CC[C@H](OS(=O)(=O)O)C[C@@H]21
REMARK SMILES IDX 22 1 36 2 46 3 35 4 23 5 45 6 37 7 39 8 38 9 20 10 21 11
REMARK SMILES IDX 5 12 6 13 7 14 8 15 9 17 11 18 12 19 17 20 19 21 15 22 14 23
REMARK SMILES IDX 13 24 18 25 16 26 10 28 3 30 4 31 2 32 1 33 24 34 25 35
REMARK SMILES IDX 26 36 27 38 28 39 29 40 30 41 31 42 32 43 33 44 34 45 40 50
REMARK SMILES IDX 41 51 42 52 43 53 44 54
REMARK H PARENT 6 16 16 27 10 29 26 37 33 46 33 47 34 48 34 49 44 55
ROOT
ATOM      1  N   UNL     1       6.328   5.756  -0.448  1.00  0.00    -0.326 N 
ATOM      2  C   UNL     1       4.373   4.800  -1.346  1.00  0.00     0.014 C 
ATOM      3  C   UNL     1       4.910   6.059  -0.659  1.00  0.00     0.091 C 
ATOM      4  C   UNL     1       5.186   3.692  -0.696  1.00  0.00     0.041 C 
ATOM      5  C   UNL     1       6.589   4.324  -0.734  1.00  0.00     0.175 C 
ATOM      6  C   UNL     1       4.548   7.270  -1.519  1.00  0.00     0.059 C 
ATOM      7  C   UNL     1       2.860   4.749  -1.280  1.00  0.00     0.008 C 
ATOM      8  C   UNL     1       3.221   7.109  -2.292  1.00  0.00     0.143 C 
ATOM      9  C   UNL     1       2.255   6.136  -1.587  1.00  0.00     0.034 C 
ENDROOT
BRANCH   1  10
ATOM     10  C   UNL     1       7.319   6.516   0.151  1.00  0.00     0.246 C 
ATOM     11  O   UNL     1       8.020   7.251  -0.553  1.00  0.00    -0.272 OA
BRANCH  10  12
ATOM     12  C   UNL     1       7.499   6.463   1.696  1.00  0.00     0.174 C 
BRANCH  12  13
ATOM     13  N   UNL     1       6.207   6.652   2.355  1.00  0.00    -0.342 N 
ATOM     14  C   UNL     1       5.479   5.657   2.967  1.00  0.00     0.249 C 
ATOM     15  O   UNL     1       5.851   4.493   3.051  1.00  0.00    -0.272 OA
ATOM     16  H   UNL     1       5.701   7.525   2.231  1.00  0.00     0.164 HD
BRANCH  14  17
ATOM     17  C   UNL     1       4.147   6.169   3.556  1.00  0.00     0.207 C 
BRANCH  17  18
ATOM     18  C   UNL     1       4.403   6.979   4.831  1.00  0.00     0.077 C 
BRANCH  18  19
ATOM     19  C   UNL     1       4.465   8.464   4.551  1.00  0.00    -0.043 A 
ATOM     20  C   UNL     1       3.801  10.383   3.224  1.00  0.00     0.083 A 
ATOM     21  C   UNL     1       3.704   9.021   3.511  1.00  0.00     0.028 A 
ATOM     22  C   UNL     1       4.657  11.194   3.969  1.00  0.00     0.134 A 
ATOM     23  C   UNL     1       5.417  10.656   5.001  1.00  0.00     0.048 A 
ATOM     24  C   UNL     1       5.323   9.293   5.290  1.00  0.00     0.008 A 
ATOM     25  Cl  UNL     1       2.858  11.048   1.942  1.00  0.00    -0.080 Cl
BRANCH  22  26
ATOM     26  O   UNL     1       4.794  12.533   3.717  1.00  0.00    -0.506 OA
ATOM     27  H   UNL     1       4.719  12.645   2.751  1.00  0.00     0.293 HD
ENDBRANCH  22  26
ENDBRANCH  18  19
ENDBRANCH  17  18
BRANCH  17  28
ATOM     28  O   UNL     1       3.260   5.080   3.854  1.00  0.00    -0.383 OA
ATOM     29  H   UNL     1       2.561   5.450   4.439  1.00  0.00     0.211 HD
ENDBRANCH  17  28
ENDBRANCH  14  17
ENDBRANCH  12  13
BRANCH  12  30
ATOM     30  C   UNL     1       8.577   7.455   2.209  1.00  0.00     0.018 C 
ATOM     31  C   UNL     1       9.587   6.740   3.120  1.00  0.00     0.010 C 
BRANCH  30  32
ATOM     32  C   UNL     1       7.990   8.691   2.931  1.00  0.00     0.002 C 
ATOM     33  C   UNL     1       7.624   9.861   2.027  1.00  0.00     0.004 C 
ENDBRANCH  30  32
ENDBRANCH  12  30
ENDBRANCH  10  12
ENDBRANCH   1  10
BRANCH   5  34
ATOM     34  C   UNL     1       7.255   4.154  -2.126  1.00  0.00     0.242 C 
ATOM     35  O   UNL     1       6.789   3.414  -2.992  1.00  0.00    -0.273 OA
ATOM     36  N   UNL     1       8.432   4.848  -2.301  1.00  0.00    -0.354 N 
ATOM     37  H   UNL     1       8.830   5.348  -1.506  1.00  0.00     0.163 HD
BRANCH  36  38
ATOM     38  C   UNL     1       9.068   4.976  -3.595  1.00  0.00     0.116 C 
BRANCH  38  39
ATOM     39  C   UNL     1      10.317   4.099  -3.649  1.00  0.00     0.023 C 
BRANCH  39  40
ATOM     40  C   UNL     1      10.374   3.243  -4.909  1.00  0.00     0.026 C 
BRANCH  40  41
ATOM     41  C   UNL     1       9.219   3.585  -5.850  1.00  0.00     0.146 C 
BRANCH  41  42
ATOM     42  N   UNL     1       8.520   2.366  -6.236  1.00  0.00    -0.254 NA
ATOM     43  C   UNL     1       7.241   2.358  -6.283  1.00  0.00     0.185 C 
ATOM     44  N   UNL     1       6.359   3.340  -6.023  1.00  0.00    -0.370 N 
ATOM     45  N   UNL     1       6.615   1.223  -6.636  1.00  0.00    -0.370 N 
ATOM     46  H   UNL     1       5.389   3.129  -5.862  1.00  0.00     0.159 HD
ATOM     47  H   UNL     1       6.662   4.271  -5.754  1.00  0.00     0.159 HD
ATOM     48  H   UNL     1       7.208   0.434  -6.858  1.00  0.00     0.159 HD
ATOM     49  H   UNL     1       5.653   1.199  -6.923  1.00  0.00     0.159 HD
ENDBRANCH  41  42
ENDBRANCH  40  41
ENDBRANCH  39  40
ENDBRANCH  38  39
ENDBRANCH  36  38
ENDBRANCH   5  34
BRANCH   8  50
ATOM     50  O   UNL     1       3.478   6.619  -3.609  1.00  0.00    -0.245 OA
BRANCH  50  51
ATOM     51  S   UNL     1       2.373   6.849  -4.780  1.00  0.00     0.397 S 
ATOM     52  O   UNL     1       1.477   7.898  -4.349  1.00  0.00    -0.169 OA
ATOM     53  O   UNL     1       1.878   5.568  -5.240  1.00  0.00    -0.169 OA
BRANCH  51  54
ATOM     54  O   UNL     1       3.261   7.489  -5.958  1.00  0.00    -0.264 OA
ATOM     55  H   UNL     1       3.668   8.310  -5.613  1.00  0.00     0.236 HD
ENDBRANCH  51  54
ENDBRANCH  50  51
ENDBRANCH   8  50
TORSDOF 19
ENDMDL
MODEL 27
REMARK VINA RESULT:    -6.134     17.225     21.804
REMARK INTER + INTRA:         -15.970
REMARK INTER:                 -12.292
REMARK INTRA:                  -3.678
REMARK UNBOUND:                -3.560
REMARK SMILES CC[C@@H](C)[C@@H](NC(=O)[C@@H](O)Cc1ccc(O)c(Cl)c1)C(=O)N1[C@H](C(=O)NCCCCN=C(N)N)C[C@H]2CC[C@H](OS(=O)(=O)O)C[C@@H]21
REMARK SMILES IDX 22 1 36 2 46 3 35 4 23 5 45 6 37 7 39 8 38 9 20 10 21 11
REMARK SMILES IDX 5 12 6 13 7 14 8 15 9 17 11 18 12 19 17 20 19 21 15 22 14 23
REMARK SMILES IDX 13 24 18 25 16 26 10 28 3 30 4 31 2 32 1 33 24 34 25 35
REMARK SMILES IDX 26 36 27 38 28 39 29 40 30 41 31 42 32 43 33 44 34 45 40 50
REMARK SMILES IDX 41 51 42 52 43 53 44 54
REMARK H PARENT 6 16 16 27 10 29 26 37 33 46 33 47 34 48 34 49 44 55
ROOT
ATOM      1  N   UNL     1       7.405   2.626  -5.871  1.00  0.00    -0.326 N 
ATOM      2  C   UNL     1       9.076   3.150  -7.445  1.00  0.00     0.014 C 
ATOM      3  C   UNL     1       7.663   2.575  -7.313  1.00  0.00     0.091 C 
ATOM      4  C   UNL     1       9.757   2.657  -6.177  1.00  0.00     0.041 C 
ATOM      5  C   UNL     1       8.656   2.954  -5.143  1.00  0.00     0.175 C 
ATOM      6  C   UNL     1       6.735   3.355  -8.243  1.00  0.00     0.059 C 
ATOM      7  C   UNL     1       9.677   2.807  -8.794  1.00  0.00     0.008 C 
ATOM      8  C   UNL     1       7.429   3.872  -9.522  1.00  0.00     0.143 C 
ATOM      9  C   UNL     1       8.638   3.001  -9.918  1.00  0.00     0.034 C 
ENDROOT
BRANCH   1  10
ATOM     10  C   UNL     1       6.293   2.221  -5.153  1.00  0.00     0.246 C 
ATOM     11  O   UNL     1       6.279   1.091  -4.653  1.00  0.00    -0.272 OA
BRANCH  10  12
ATOM     12  C   UNL     1       5.106   3.208  -4.955  1.00  0.00     0.174 C 
BRANCH  12  13
ATOM     13  N   UNL     1       4.622   3.136  -3.577  1.00  0.00    -0.342 N 
ATOM     14  C   UNL     1       4.879   4.071  -2.600  1.00  0.00     0.249 C 
ATOM     15  O   UNL     1       5.526   5.094  -2.787  1.00  0.00    -0.272 OA
ATOM     16  H   UNL     1       4.207   2.274  -3.234  1.00  0.00     0.164 HD
BRANCH  14  17
ATOM     17  C   UNL     1       4.243   3.704  -1.242  1.00  0.00     0.207 C 
BRANCH  17  18
ATOM     18  C   UNL     1       2.715   3.689  -1.352  1.00  0.00     0.077 C 
BRANCH  18  19
ATOM     19  C   UNL     1       2.179   4.990  -1.906  1.00  0.00    -0.043 A 
ATOM     20  C   UNL     1       1.200   6.255  -3.729  1.00  0.00     0.083 A 
ATOM     21  C   UNL     1       1.649   5.042  -3.204  1.00  0.00     0.028 A 
ATOM     22  C   UNL     1       1.280   7.419  -2.964  1.00  0.00     0.134 A 
ATOM     23  C   UNL     1       1.802   7.381  -1.677  1.00  0.00     0.048 A 
ATOM     24  C   UNL     1       2.254   6.170  -1.149  1.00  0.00     0.008 A 
ATOM     25  Cl  UNL     1       0.553   6.299  -5.327  1.00  0.00    -0.080 Cl
BRANCH  22  26
ATOM     26  O   UNL     1       0.862   8.633  -3.440  1.00  0.00    -0.506 OA
ATOM     27  H   UNL     1      -0.097   8.557  -3.598  1.00  0.00     0.293 HD
ENDBRANCH  22  26
ENDBRANCH  18  19
ENDBRANCH  17  18
BRANCH  17  28
ATOM     28  O   UNL     1       4.638   4.631  -0.218  1.00  0.00    -0.383 OA
ATOM     29  H   UNL     1       5.053   4.091   0.493  1.00  0.00     0.211 HD
ENDBRANCH  17  28
ENDBRANCH  14  17
ENDBRANCH  12  13
BRANCH  12  30
ATOM     30  C   UNL     1       3.971   2.997  -5.994  1.00  0.00     0.018 C 
ATOM     31  C   UNL     1       3.422   4.346  -6.484  1.00  0.00     0.010 C 
BRANCH  30  32
ATOM     32  C   UNL     1       2.814   2.108  -5.478  1.00  0.00     0.002 C 
ATOM     33  C   UNL     1       1.419   2.539  -5.908  1.00  0.00     0.004 C 
ENDBRANCH  30  32
ENDBRANCH  12  30
ENDBRANCH  10  12
ENDBRANCH   1  10
BRANCH   5  34
ATOM     34  C   UNL     1       8.666   4.444  -4.708  1.00  0.00     0.242 C 
ATOM     35  O   UNL     1       7.883   5.270  -5.176  1.00  0.00    -0.273 OA
ATOM     36  N   UNL     1       9.647   4.783  -3.804  1.00  0.00    -0.354 N 
ATOM     37  H   UNL     1      10.341   4.081  -3.545  1.00  0.00     0.163 HD
BRANCH  36  38
ATOM     38  C   UNL     1       9.668   6.066  -3.132  1.00  0.00     0.116 C 
BRANCH  38  39
ATOM     39  C   UNL     1       8.854   5.989  -1.842  1.00  0.00     0.023 C 
BRANCH  39  40
ATOM     40  C   UNL     1       9.207   7.103  -0.863  1.00  0.00     0.026 C 
BRANCH  40  41
ATOM     41  C   UNL     1       8.248   7.102   0.328  1.00  0.00     0.146 C 
BRANCH  41  42
ATOM     42  N   UNL     1       7.488   8.345   0.348  1.00  0.00    -0.254 NA
ATOM     43  C   UNL     1       6.321   8.382  -0.176  1.00  0.00     0.185 C 
ATOM     44  N   UNL     1       5.615   7.413  -0.787  1.00  0.00    -0.370 N 
ATOM     45  N   UNL     1       5.638   9.539  -0.151  1.00  0.00    -0.370 N 
ATOM     46  H   UNL     1       4.823   7.640  -1.363  1.00  0.00     0.159 HD
ATOM     47  H   UNL     1       5.978   6.469  -0.882  1.00  0.00     0.159 HD
ATOM     48  H   UNL     1       6.095  10.320   0.300  1.00  0.00     0.159 HD
ATOM     49  H   UNL     1       4.649   9.590  -0.320  1.00  0.00     0.159 HD
ENDBRANCH  41  42
ENDBRANCH  40  41
ENDBRANCH  39  40
ENDBRANCH  38  39
ENDBRANCH  36  38
ENDBRANCH   5  34
BRANCH   8  50
ATOM     50  O   UNL     1       7.881   5.213  -9.327  1.00  0.00    -0.245 OA
BRANCH  50  51
ATOM     51  S   UNL     1       6.929   6.454  -9.776  1.00  0.00     0.397 S 
ATOM     52  O   UNL     1       5.562   5.985  -9.790  1.00  0.00    -0.169 OA
ATOM     53  O   UNL     1       7.514   7.127 -10.917  1.00  0.00    -0.169 OA
BRANCH  51  54
ATOM     54  O   UNL     1       7.042   7.437  -8.509  1.00  0.00    -0.264 OA
ATOM     55  H   UNL     1       7.960   7.388  -8.173  1.00  0.00     0.236 HD
ENDBRANCH  51  54
ENDBRANCH  50  51
ENDBRANCH   8  50
TORSDOF 19
ENDMDL
MODEL 28
REMARK VINA RESULT:    -6.131      7.159     10.441
REMARK INTER + INTRA:         -15.964
REMARK INTER:                 -12.523
REMARK INTRA:                  -3.441
REMARK UNBOUND:                -3.560
REMARK SMILES CC[C@@H](C)[C@@H](NC(=O)[C@@H](O)Cc1ccc(O)c(Cl)c1)C(=O)N1[C@H](C(=O)NCCCCN=C(N)N)C[C@H]2CC[C@H](OS(=O)(=O)O)C[C@@H]21
REMARK SMILES IDX 22 1 36 2 46 3 35 4 23 5 45 6 37 7 39 8 38 9 20 10 21 11
REMARK SMILES IDX 5 12 6 13 7 14 8 15 9 17 11 18 12 19 17 20 19 21 15 22 14 23
REMARK SMILES IDX 13 24 18 25 16 26 10 28 3 30 4 31 2 32 1 33 24 34 25 35
REMARK SMILES IDX 26 36 27 38 28 39 29 40 30 41 31 42 32 43 33 44 34 45 40 50
REMARK SMILES IDX 41 51 42 52 43 53 44 54
REMARK H PARENT 6 16 16 27 10 29 26 37 33 46 33 47 34 48 34 49 44 55
ROOT
ATOM      1  N   UNL     1      -1.835   1.313   3.444  1.00  0.00    -0.326 N 
ATOM      2  C   UNL     1      -2.277   3.606   3.742  1.00  0.00     0.014 C 
ATOM      3  C   UNL     1      -1.803   2.580   2.708  1.00  0.00     0.091 C 
ATOM      4  C   UNL     1      -1.703   3.062   5.041  1.00  0.00     0.041 C 
ATOM      5  C   UNL     1      -2.051   1.570   4.889  1.00  0.00     0.175 C 
ATOM      6  C   UNL     1      -2.673   2.715   1.460  1.00  0.00     0.059 C 
ATOM      7  C   UNL     1      -1.927   5.015   3.307  1.00  0.00     0.008 C 
ATOM      8  C   UNL     1      -3.171   4.154   1.203  1.00  0.00     0.143 C 
ATOM      9  C   UNL     1      -2.225   5.212   1.806  1.00  0.00     0.034 C 
ENDROOT
BRANCH   1  10
ATOM     10  C   UNL     1      -1.493   0.037   3.029  1.00  0.00     0.246 C 
ATOM     11  O   UNL     1      -0.465  -0.485   3.475  1.00  0.00    -0.272 OA
BRANCH  10  12
ATOM     12  C   UNL     1      -2.428  -0.727   2.047  1.00  0.00     0.174 C 
BRANCH  12  13
ATOM     13  N   UNL     1      -3.481  -1.413   2.794  1.00  0.00    -0.342 N 
ATOM     14  C   UNL     1      -4.832  -1.271   2.567  1.00  0.00     0.249 C 
ATOM     15  O   UNL     1      -5.304  -0.565   1.685  1.00  0.00    -0.272 OA
ATOM     16  H   UNL     1      -3.250  -1.907   3.652  1.00  0.00     0.164 HD
BRANCH  14  17
ATOM     17  C   UNL     1      -5.690  -2.115   3.533  1.00  0.00     0.207 C 
BRANCH  17  18
ATOM     18  C   UNL     1      -6.819  -2.817   2.772  1.00  0.00     0.077 C 
BRANCH  18  19
ATOM     19  C   UNL     1      -6.320  -4.031   2.021  1.00  0.00    -0.043 A 
ATOM     20  C   UNL     1      -6.358  -5.447   0.052  1.00  0.00     0.083 A 
ATOM     21  C   UNL     1      -6.782  -4.300   0.723  1.00  0.00     0.028 A 
ATOM     22  C   UNL     1      -5.473  -6.331   0.671  1.00  0.00     0.134 A 
ATOM     23  C   UNL     1      -5.008  -6.077   1.956  1.00  0.00     0.048 A 
ATOM     24  C   UNL     1      -5.432  -4.930   2.631  1.00  0.00     0.008 A 
ATOM     25  Cl  UNL     1      -6.936  -5.761  -1.542  1.00  0.00    -0.080 Cl
BRANCH  22  26
ATOM     26  O   UNL     1      -5.037  -7.474   0.057  1.00  0.00    -0.506 OA
ATOM     27  H   UNL     1      -4.346  -7.854   0.630  1.00  0.00     0.293 HD
ENDBRANCH  22  26
ENDBRANCH  18  19
ENDBRANCH  17  18
BRANCH  17  28
ATOM     28  O   UNL     1      -6.252  -1.298   4.573  1.00  0.00    -0.383 OA
ATOM     29  H   UNL     1      -5.548  -0.661   4.829  1.00  0.00     0.211 HD
ENDBRANCH  17  28
ENDBRANCH  14  17
ENDBRANCH  12  13
BRANCH  12  30
ATOM     30  C   UNL     1      -1.652  -1.684   1.102  1.00  0.00     0.018 C 
ATOM     31  C   UNL     1      -1.749  -1.209  -0.356  1.00  0.00     0.010 C 
BRANCH  30  32
ATOM     32  C   UNL     1      -2.098  -3.162   1.211  1.00  0.00     0.002 C 
ATOM     33  C   UNL     1      -2.896  -3.690   0.026  1.00  0.00     0.004 C 
ENDBRANCH  30  32
ENDBRANCH  12  30
ENDBRANCH  10  12
ENDBRANCH   1  10
BRANCH   5  34
ATOM     34  C   UNL     1      -3.525   1.283   5.284  1.00  0.00     0.242 C 
ATOM     35  O   UNL     1      -4.421   1.175   4.448  1.00  0.00    -0.273 OA
ATOM     36  N   UNL     1      -3.764   1.211   6.638  1.00  0.00    -0.354 N 
ATOM     37  H   UNL     1      -3.004   1.428   7.284  1.00  0.00     0.163 HD
BRANCH  36  38
ATOM     38  C   UNL     1      -5.024   0.742   7.177  1.00  0.00     0.116 C 
BRANCH  38  39
ATOM     39  C   UNL     1      -5.274   1.378   8.542  1.00  0.00     0.023 C 
BRANCH  39  40
ATOM     40  C   UNL     1      -4.179   1.042   9.550  1.00  0.00     0.026 C 
BRANCH  40  41
ATOM     41  C   UNL     1      -4.644   1.343  10.975  1.00  0.00     0.146 C 
BRANCH  41  42
ATOM     42  N   UNL     1      -3.865   2.444  11.525  1.00  0.00    -0.254 NA
ATOM     43  C   UNL     1      -4.377   3.616  11.581  1.00  0.00     0.185 C 
ATOM     44  N   UNL     1      -5.592   4.049  11.197  1.00  0.00    -0.370 N 
ATOM     45  N   UNL     1      -3.640   4.619  12.087  1.00  0.00    -0.370 N 
ATOM     46  H   UNL     1      -5.770   5.031  11.072  1.00  0.00     0.159 HD
ATOM     47  H   UNL     1      -6.282   3.417  10.804  1.00  0.00     0.159 HD
ATOM     48  H   UNL     1      -2.713   4.376  12.408  1.00  0.00     0.159 HD
ATOM     49  H   UNL     1      -4.040   5.492  12.381  1.00  0.00     0.159 HD
ENDBRANCH  41  42
ENDBRANCH  40  41
ENDBRANCH  39  40
ENDBRANCH  38  39
ENDBRANCH  36  38
ENDBRANCH   5  34
BRANCH   8  50
ATOM     50  O   UNL     1      -4.470   4.331   1.769  1.00  0.00    -0.245 OA
BRANCH  50  51
ATOM     51  S   UNL     1      -5.572   5.234   0.984  1.00  0.00     0.397 S 
ATOM     52  O   UNL     1      -6.885   4.740   1.334  1.00  0.00    -0.169 OA
ATOM     53  O   UNL     1      -5.167   5.403  -0.396  1.00  0.00    -0.169 OA
BRANCH  51  54
ATOM     54  O   UNL     1      -5.428   6.656   1.721  1.00  0.00    -0.264 OA
ATOM     55  H   UNL     1      -5.972   7.304   1.229  1.00  0.00     0.236 HD
ENDBRANCH  51  54
ENDBRANCH  50  51
ENDBRANCH   8  50
TORSDOF 19
ENDMDL
MODEL 29
REMARK VINA RESULT:    -6.121     14.340     19.702
REMARK INTER + INTRA:         -15.944
REMARK INTER:                 -12.145
REMARK INTRA:                  -3.799
REMARK UNBOUND:                -3.560
REMARK SMILES CC[C@@H](C)[C@@H](NC(=O)[C@@H](O)Cc1ccc(O)c(Cl)c1)C(=O)N1[C@H](C(=O)NCCCCN=C(N)N)C[C@H]2CC[C@H](OS(=O)(=O)O)C[C@@H]21
REMARK SMILES IDX 22 1 36 2 46 3 35 4 23 5 45 6 37 7 39 8 38 9 20 10 21 11
REMARK SMILES IDX 5 12 6 13 7 14 8 15 9 17 11 18 12 19 17 20 19 21 15 22 14 23
REMARK SMILES IDX 13 24 18 25 16 26 10 28 3 30 4 31 2 32 1 33 24 34 25 35
REMARK SMILES IDX 26 36 27 38 28 39 29 40 30 41 31 42 32 43 33 44 34 45 40 50
REMARK SMILES IDX 41 51 42 52 43 53 44 54
REMARK H PARENT 6 16 16 27 10 29 26 37 33 46 33 47 34 48 34 49 44 55
ROOT
ATOM      1  N   UNL     1       3.112   3.544  -4.617  1.00  0.00    -0.326 N 
ATOM      2  C   UNL     1       4.623   5.099  -3.699  1.00  0.00     0.014 C 
ATOM      3  C   UNL     1       3.293   4.389  -3.433  1.00  0.00     0.091 C 
ATOM      4  C   UNL     1       4.603   5.292  -5.208  1.00  0.00     0.041 C 
ATOM      5  C   UNL     1       4.111   3.903  -5.654  1.00  0.00     0.175 C 
ATOM      6  C   UNL     1       3.372   3.712  -2.066  1.00  0.00     0.059 C 
ATOM      7  C   UNL     1       4.783   6.306  -2.797  1.00  0.00     0.008 C 
ATOM      8  C   UNL     1       4.261   4.463  -1.051  1.00  0.00     0.143 C 
ATOM      9  C   UNL     1       4.341   5.972  -1.357  1.00  0.00     0.034 C 
ENDROOT
BRANCH   1  10
ATOM     10  C   UNL     1       2.076   2.687  -4.946  1.00  0.00     0.246 C 
ATOM     11  O   UNL     1       2.204   1.477  -4.730  1.00  0.00    -0.272 OA
BRANCH  10  12
ATOM     12  C   UNL     1       0.759   3.268  -5.540  1.00  0.00     0.174 C 
BRANCH  12  13
ATOM     13  N   UNL     1      -0.348   3.044  -4.611  1.00  0.00    -0.342 N 
ATOM     14  C   UNL     1      -0.697   3.888  -3.580  1.00  0.00     0.249 C 
ATOM     15  O   UNL     1      -0.128   4.946  -3.343  1.00  0.00    -0.272 OA
ATOM     16  H   UNL     1      -0.809   2.138  -4.586  1.00  0.00     0.164 HD
BRANCH  14  17
ATOM     17  C   UNL     1      -1.900   3.366  -2.766  1.00  0.00     0.207 C 
BRANCH  17  18
ATOM     18  C   UNL     1      -2.263   4.356  -1.654  1.00  0.00     0.077 C 
BRANCH  18  19
ATOM     19  C   UNL     1      -3.694   4.831  -1.770  1.00  0.00    -0.043 A 
ATOM     20  C   UNL     1      -5.688   5.193  -3.103  1.00  0.00     0.083 A 
ATOM     21  C   UNL     1      -4.385   4.709  -2.985  1.00  0.00     0.028 A 
ATOM     22  C   UNL     1      -6.307   5.802  -2.011  1.00  0.00     0.134 A 
ATOM     23  C   UNL     1      -5.635   5.929  -0.801  1.00  0.00     0.048 A 
ATOM     24  C   UNL     1      -4.330   5.447  -0.681  1.00  0.00     0.008 A 
ATOM     25  Cl  UNL     1      -6.520   5.034  -4.605  1.00  0.00    -0.080 Cl
BRANCH  22  26
ATOM     26  O   UNL     1      -7.580   6.302  -2.081  1.00  0.00    -0.506 OA
ATOM     27  H   UNL     1      -8.149   5.689  -1.580  1.00  0.00     0.293 HD
ENDBRANCH  22  26
ENDBRANCH  18  19
ENDBRANCH  17  18
BRANCH  17  28
ATOM     28  O   UNL     1      -1.615   2.082  -2.187  1.00  0.00    -0.383 OA
ATOM     29  H   UNL     1      -0.801   2.202  -1.647  1.00  0.00     0.211 HD
ENDBRANCH  17  28
ENDBRANCH  14  17
ENDBRANCH  12  13
BRANCH  12  30
ATOM     30  C   UNL     1       0.455   2.730  -6.964  1.00  0.00     0.018 C 
ATOM     31  C   UNL     1       1.445   3.307  -7.989  1.00  0.00     0.010 C 
BRANCH  30  32
ATOM     32  C   UNL     1      -1.000   2.986  -7.427  1.00  0.00     0.002 C 
ATOM     33  C   UNL     1      -1.334   2.491  -8.828  1.00  0.00     0.004 C 
ENDBRANCH  30  32
ENDBRANCH  12  30
ENDBRANCH  10  12
ENDBRANCH   1  10
BRANCH   5  34
ATOM     34  C   UNL     1       5.268   2.869  -5.685  1.00  0.00     0.242 C 
ATOM     35  O   UNL     1       5.261   1.853  -4.990  1.00  0.00    -0.273 OA
ATOM     36  N   UNL     1       6.325   3.197  -6.503  1.00  0.00    -0.354 N 
ATOM     37  H   UNL     1       6.327   4.109  -6.962  1.00  0.00     0.163 HD
BRANCH  36  38
ATOM     38  C   UNL     1       7.381   2.256  -6.818  1.00  0.00     0.116 C 
BRANCH  38  39
ATOM     39  C   UNL     1       8.741   2.929  -6.652  1.00  0.00     0.023 C 
BRANCH  39  40
ATOM     40  C   UNL     1       8.651   4.245  -5.887  1.00  0.00     0.026 C 
BRANCH  40  41
ATOM     41  C   UNL     1       9.095   4.061  -4.436  1.00  0.00     0.146 C 
BRANCH  41  42
ATOM     42  N   UNL     1       8.002   3.497  -3.654  1.00  0.00    -0.254 NA
ATOM     43  C   UNL     1       8.123   2.326  -3.151  1.00  0.00     0.185 C 
ATOM     44  N   UNL     1       9.149   1.458  -3.216  1.00  0.00    -0.370 N 
ATOM     45  N   UNL     1       7.103   1.822  -2.437  1.00  0.00    -0.370 N 
ATOM     46  H   UNL     1       9.015   0.488  -2.986  1.00  0.00     0.159 HD
ATOM     47  H   UNL     1      10.008   1.684  -3.706  1.00  0.00     0.159 HD
ATOM     48  H   UNL     1       6.292   2.417  -2.333  1.00  0.00     0.159 HD
ATOM     49  H   UNL     1       7.205   1.033  -1.824  1.00  0.00     0.159 HD
ENDBRANCH  41  42
ENDBRANCH  40  41
ENDBRANCH  39  40
ENDBRANCH  38  39
ENDBRANCH  36  38
ENDBRANCH   5  34
BRANCH   8  50
ATOM     50  O   UNL     1       5.584   3.926  -1.067  1.00  0.00    -0.245 OA
BRANCH  50  51
ATOM     51  S   UNL     1       6.549   4.133   0.226  1.00  0.00     0.397 S 
ATOM     52  O   UNL     1       5.718   4.494   1.351  1.00  0.00    -0.169 OA
ATOM     53  O   UNL     1       7.703   4.922  -0.151  1.00  0.00    -0.169 OA
BRANCH  51  54
ATOM     54  O   UNL     1       7.049   2.632   0.514  1.00  0.00    -0.264 OA
ATOM     55  H   UNL     1       6.379   2.198   1.082  1.00  0.00     0.236 HD
ENDBRANCH  51  54
ENDBRANCH  50  51
ENDBRANCH   8  50
TORSDOF 19
ENDMDL
MODEL 30
REMARK VINA RESULT:    -6.106     12.674     17.299
REMARK INTER + INTRA:         -15.913
REMARK INTER:                 -12.101
REMARK INTRA:                  -3.812
REMARK UNBOUND:                -3.560
REMARK SMILES CC[C@@H](C)[C@@H](NC(=O)[C@@H](O)Cc1ccc(O)c(Cl)c1)C(=O)N1[C@H](C(=O)NCCCCN=C(N)N)C[C@H]2CC[C@H](OS(=O)(=O)O)C[C@@H]21
REMARK SMILES IDX 22 1 36 2 46 3 35 4 23 5 45 6 37 7 39 8 38 9 20 10 21 11
REMARK SMILES IDX 5 12 6 13 7 14 8 15 9 17 11 18 12 19 17 20 19 21 15 22 14 23
REMARK SMILES IDX 13 24 18 25 16 26 10 28 3 30 4 31 2 32 1 33 24 34 25 35
REMARK SMILES IDX 26 36 27 38 28 39 29 40 30 41 31 42 32 43 33 44 34 45 40 50
REMARK SMILES IDX 41 51 42 52 43 53 44 54
REMARK H PARENT 6 16 16 27 10 29 26 37 33 46 33 47 34 48 34 49 44 55
ROOT
ATOM      1  N   UNL     1       4.593   9.708   4.635  1.00  0.00    -0.326 N 
ATOM      2  C   UNL     1       5.196  11.977   4.457  1.00  0.00     0.014 C 
ATOM      3  C   UNL     1       5.743  10.596   4.831  1.00  0.00     0.091 C 
ATOM      4  C   UNL     1       3.754  11.906   4.935  1.00  0.00     0.041 C 
ATOM      5  C   UNL     1       3.363  10.509   4.419  1.00  0.00     0.175 C 
ATOM      6  C   UNL     1       7.005  10.338   4.011  1.00  0.00     0.059 C 
ATOM      7  C   UNL     1       6.099  13.077   4.979  1.00  0.00     0.008 C 
ATOM      8  C   UNL     1       7.809  11.617   3.690  1.00  0.00     0.143 C 
ATOM      9  C   UNL     1       7.582  12.723   4.739  1.00  0.00     0.034 C 
ENDROOT
BRANCH   1  10
ATOM     10  C   UNL     1       4.483   8.342   4.836  1.00  0.00     0.246 C 
ATOM     11  O   UNL     1       4.445   7.592   3.855  1.00  0.00    -0.272 OA
BRANCH  10  12
ATOM     12  C   UNL     1       4.451   7.780   6.286  1.00  0.00     0.174 C 
BRANCH  12  13
ATOM     13  N   UNL     1       3.396   6.774   6.408  1.00  0.00    -0.342 N 
ATOM     14  C   UNL     1       3.582   5.483   6.848  1.00  0.00     0.249 C 
ATOM     15  O   UNL     1       4.661   5.037   7.217  1.00  0.00    -0.272 OA
ATOM     16  H   UNL     1       2.483   6.949   5.994  1.00  0.00     0.164 HD
BRANCH  14  17
ATOM     17  C   UNL     1       2.276   4.660   6.848  1.00  0.00     0.207 C 
BRANCH  17  18
ATOM     18  C   UNL     1       1.196   5.369   6.024  1.00  0.00     0.077 C 
BRANCH  18  19
ATOM     19  C   UNL     1       0.144   4.403   5.527  1.00  0.00    -0.043 A 
ATOM     20  C   UNL     1      -2.069   3.428   5.711  1.00  0.00     0.083 A 
ATOM     21  C   UNL     1      -1.118   4.354   6.140  1.00  0.00     0.028 A 
ATOM     22  C   UNL     1      -1.767   2.547   4.672  1.00  0.00     0.134 A 
ATOM     23  C   UNL     1      -0.522   2.585   4.056  1.00  0.00     0.048 A 
ATOM     24  C   UNL     1       0.433   3.510   4.484  1.00  0.00     0.008 A 
ATOM     25  Cl  UNL     1      -3.614   3.382   6.476  1.00  0.00    -0.080 Cl
BRANCH  22  26
ATOM     26  O   UNL     1      -2.664   1.614   4.224  1.00  0.00    -0.506 OA
ATOM     27  H   UNL     1      -2.630   0.869   4.851  1.00  0.00     0.293 HD
ENDBRANCH  22  26
ENDBRANCH  18  19
ENDBRANCH  17  18
BRANCH  17  28
ATOM     28  O   UNL     1       1.795   4.451   8.185  1.00  0.00    -0.383 OA
ATOM     29  H   UNL     1       1.141   3.718   8.128  1.00  0.00     0.211 HD
ENDBRANCH  17  28
ENDBRANCH  14  17
ENDBRANCH  12  13
BRANCH  12  30
ATOM     30  C   UNL     1       4.333   8.895   7.360  1.00  0.00     0.018 C 
ATOM     31  C   UNL     1       5.483   8.801   8.374  1.00  0.00     0.010 C 
BRANCH  30  32
ATOM     32  C   UNL     1       2.972   8.906   8.098  1.00  0.00     0.002 C 
ATOM     33  C   UNL     1       2.131  10.159   7.895  1.00  0.00     0.004 C 
ENDBRANCH  30  32
ENDBRANCH  12  30
ENDBRANCH  10  12
ENDBRANCH   1  10
BRANCH   5  34
ATOM     34  C   UNL     1       2.986  10.541   2.914  1.00  0.00     0.242 C 
ATOM     35  O   UNL     1       2.098  11.271   2.473  1.00  0.00    -0.273 OA
ATOM     36  N   UNL     1       3.677   9.655   2.118  1.00  0.00    -0.354 N 
ATOM     37  H   UNL     1       4.315   8.992   2.559  1.00  0.00     0.163 HD
BRANCH  36  38
ATOM     38  C   UNL     1       3.608   9.699   0.672  1.00  0.00     0.116 C 
BRANCH  38  39
ATOM     39  C   UNL     1       3.247   8.319   0.127  1.00  0.00     0.023 C 
BRANCH  39  40
ATOM     40  C   UNL     1       4.232   7.834  -0.931  1.00  0.00     0.026 C 
BRANCH  40  41
ATOM     41  C   UNL     1       5.327   6.975  -0.299  1.00  0.00     0.146 C 
BRANCH  41  42
ATOM     42  N   UNL     1       6.546   7.760  -0.153  1.00  0.00    -0.254 NA
ATOM     43  C   UNL     1       7.142   7.800   0.979  1.00  0.00     0.185 C 
ATOM     44  N   UNL     1       6.826   7.206   2.144  1.00  0.00    -0.370 N 
ATOM     45  N   UNL     1       8.262   8.533   1.094  1.00  0.00    -0.370 N 
ATOM     46  H   UNL     1       7.239   7.517   3.007  1.00  0.00     0.159 HD
ATOM     47  H   UNL     1       6.015   6.602   2.232  1.00  0.00     0.159 HD
ATOM     48  H   UNL     1       8.574   9.007   0.258  1.00  0.00     0.159 HD
ATOM     49  H   UNL     1       8.904   8.428   1.859  1.00  0.00     0.159 HD
ENDBRANCH  41  42
ENDBRANCH  40  41
ENDBRANCH  39  40
ENDBRANCH  38  39
ENDBRANCH  36  38
ENDBRANCH   5  34
BRANCH   8  50
ATOM     50  O   UNL     1       7.434  12.123   2.408  1.00  0.00    -0.245 OA
BRANCH  50  51
ATOM     51  S   UNL     1       8.526  12.149   1.203  1.00  0.00     0.397 S 
ATOM     52  O   UNL     1       9.648  11.329   1.601  1.00  0.00    -0.169 OA
ATOM     53  O   UNL     1       8.705  13.509   0.739  1.00  0.00    -0.169 OA
BRANCH  51  54
ATOM     54  O   UNL     1       7.770  11.326   0.047  1.00  0.00    -0.264 OA
ATOM     55  H   UNL     1       6.946  11.808  -0.172  1.00  0.00     0.236 HD
ENDBRANCH  51  54
ENDBRANCH  50  51
ENDBRANCH   8  50
TORSDOF 19
ENDMDL
MODEL 31
REMARK VINA RESULT:    -6.088      4.975     10.081
REMARK INTER + INTRA:         -15.876
REMARK INTER:                 -13.543
REMARK INTRA:                  -2.333
REMARK UNBOUND:                -3.560
REMARK SMILES CC[C@@H](C)[C@@H](NC(=O)[C@@H](O)Cc1ccc(O)c(Cl)c1)C(=O)N1[C@H](C(=O)NCCCCN=C(N)N)C[C@H]2CC[C@H](OS(=O)(=O)O)C[C@@H]21
REMARK SMILES IDX 22 1 36 2 46 3 35 4 23 5 45 6 37 7 39 8 38 9 20 10 21 11
REMARK SMILES IDX 5 12 6 13 7 14 8 15 9 17 11 18 12 19 17 20 19 21 15 22 14 23
REMARK SMILES IDX 13 24 18 25 16 26 10 28 3 30 4 31 2 32 1 33 24 34 25 35
REMARK SMILES IDX 26 36 27 38 28 39 29 40 30 41 31 42 32 43 33 44 34 45 40 50
REMARK SMILES IDX 41 51 42 52 43 53 44 54
REMARK H PARENT 6 16 16 27 10 29 26 37 33 46 33 47 34 48 34 49 44 55
ROOT
ATOM      1  N   UNL     1      -5.959   1.143   9.152  1.00  0.00    -0.326 N 
ATOM      2  C   UNL     1      -4.248   0.408   7.713  1.00  0.00     0.014 C 
ATOM      3  C   UNL     1      -5.519   1.260   7.759  1.00  0.00     0.091 C 
ATOM      4  C   UNL     1      -4.563  -0.717   8.687  1.00  0.00     0.041 C 
ATOM      5  C   UNL     1      -5.177   0.090   9.845  1.00  0.00     0.175 C 
ATOM      6  C   UNL     1      -5.190   2.650   7.217  1.00  0.00     0.059 C 
ATOM      7  C   UNL     1      -3.873   0.070   6.283  1.00  0.00     0.008 C 
ATOM      8  C   UNL     1      -4.093   2.649   6.130  1.00  0.00     0.143 C 
ATOM      9  C   UNL     1      -4.029   1.307   5.373  1.00  0.00     0.034 C 
ENDROOT
BRANCH   1  10
ATOM     10  C   UNL     1      -7.067   1.686   9.781  1.00  0.00     0.246 C 
ATOM     11  O   UNL     1      -6.903   2.566  10.633  1.00  0.00    -0.272 OA
BRANCH  10  12
ATOM     12  C   UNL     1      -8.491   1.209   9.374  1.00  0.00     0.174 C 
BRANCH  12  13
ATOM     13  N   UNL     1      -9.155   2.242   8.580  1.00  0.00    -0.342 N 
ATOM     14  C   UNL     1      -9.237   2.252   7.205  1.00  0.00     0.249 C 
ATOM     15  O   UNL     1      -8.781   1.370   6.489  1.00  0.00    -0.272 OA
ATOM     16  H   UNL     1      -9.441   3.112   9.023  1.00  0.00     0.164 HD
BRANCH  14  17
ATOM     17  C   UNL     1      -9.986   3.487   6.662  1.00  0.00     0.207 C 
BRANCH  17  18
ATOM     18  C   UNL     1     -11.146   3.862   7.591  1.00  0.00     0.077 C 
BRANCH  18  19
ATOM     19  C   UNL     1     -11.156   5.340   7.910  1.00  0.00    -0.043 A 
ATOM     20  C   UNL     1     -11.548   7.151   9.475  1.00  0.00     0.083 A 
ATOM     21  C   UNL     1     -11.491   5.784   9.198  1.00  0.00     0.028 A 
ATOM     22  C   UNL     1     -11.272   8.079   8.471  1.00  0.00     0.134 A 
ATOM     23  C   UNL     1     -10.937   7.653   7.191  1.00  0.00     0.048 A 
ATOM     24  C   UNL     1     -10.882   6.286   6.910  1.00  0.00     0.008 A 
ATOM     25  Cl  UNL     1     -11.963   7.677  11.064  1.00  0.00    -0.080 Cl
BRANCH  22  26
ATOM     26  O   UNL     1     -11.324   9.429   8.692  1.00  0.00    -0.506 OA
ATOM     27  H   UNL     1     -10.932   9.584   9.572  1.00  0.00     0.293 HD
ENDBRANCH  22  26
ENDBRANCH  18  19
ENDBRANCH  17  18
BRANCH  17  28
ATOM     28  O   UNL     1     -10.494   3.244   5.340  1.00  0.00    -0.383 OA
ATOM     29  H   UNL     1     -10.042   3.891   4.752  1.00  0.00     0.211 HD
ENDBRANCH  17  28
ENDBRANCH  14  17
ENDBRANCH  12  13
BRANCH  12  30
ATOM     30  C   UNL     1      -9.344   0.758  10.590  1.00  0.00     0.018 C 
ATOM     31  C   UNL     1      -9.426  -0.775  10.661  1.00  0.00     0.010 C 
BRANCH  30  32
ATOM     32  C   UNL     1     -10.766   1.369  10.613  1.00  0.00     0.002 C 
ATOM     33  C   UNL     1     -10.984   2.472  11.640  1.00  0.00     0.004 C 
ENDBRANCH  30  32
ENDBRANCH  12  30
ENDBRANCH  10  12
ENDBRANCH   1  10
BRANCH   5  34
ATOM     34  C   UNL     1      -4.083   0.721  10.747  1.00  0.00     0.242 C 
ATOM     35  O   UNL     1      -3.119   1.330  10.283  1.00  0.00    -0.273 OA
ATOM     36  N   UNL     1      -4.240   0.504  12.097  1.00  0.00    -0.354 N 
ATOM     37  H   UNL     1      -4.992  -0.109  12.412  1.00  0.00     0.163 HD
BRANCH  36  38
ATOM     38  C   UNL     1      -3.441   1.194  13.089  1.00  0.00     0.116 C 
BRANCH  38  39
ATOM     39  C   UNL     1      -3.107   0.245  14.237  1.00  0.00     0.023 C 
BRANCH  39  40
ATOM     40  C   UNL     1      -3.905  -1.053  14.172  1.00  0.00     0.026 C 
BRANCH  40  41
ATOM     41  C   UNL     1      -3.424  -2.039  15.236  1.00  0.00     0.146 C 
BRANCH  41  42
ATOM     42  N   UNL     1      -2.183  -2.667  14.801  1.00  0.00    -0.254 NA
ATOM     43  C   UNL     1      -2.107  -3.943  14.740  1.00  0.00     0.185 C 
ATOM     44  N   UNL     1      -3.030  -4.880  15.023  1.00  0.00    -0.370 N 
ATOM     45  N   UNL     1      -0.953  -4.502  14.341  1.00  0.00    -0.370 N 
ATOM     46  H   UNL     1      -2.761  -5.839  15.165  1.00  0.00     0.159 HD
ATOM     47  H   UNL     1      -3.967  -4.631  15.326  1.00  0.00     0.159 HD
ATOM     48  H   UNL     1      -0.206  -3.865  14.099  1.00  0.00     0.159 HD
ATOM     49  H   UNL     1      -0.886  -5.459  14.042  1.00  0.00     0.159 HD
ENDBRANCH  41  42
ENDBRANCH  40  41
ENDBRANCH  39  40
ENDBRANCH  38  39
ENDBRANCH  36  38
ENDBRANCH   5  34
BRANCH   8  50
ATOM     50  O   UNL     1      -2.817   2.898   6.721  1.00  0.00    -0.245 OA
BRANCH  50  51
ATOM     51  S   UNL     1      -1.907   4.131   6.177  1.00  0.00     0.397 S 
ATOM     52  O   UNL     1      -2.794   5.134   5.631  1.00  0.00    -0.169 OA
ATOM     53  O   UNL     1      -0.789   3.611   5.417  1.00  0.00    -0.169 OA
BRANCH  51  54
ATOM     54  O   UNL     1      -1.331   4.752   7.544  1.00  0.00    -0.264 OA
ATOM     55  H   UNL     1      -0.505   5.231   7.329  1.00  0.00     0.236 HD
ENDBRANCH  51  54
ENDBRANCH  50  51
ENDBRANCH   8  50
TORSDOF 19
ENDMDL
MODEL 32
REMARK VINA RESULT:    -6.079     15.960     19.953
REMARK INTER + INTRA:         -15.858
REMARK INTER:                 -12.885
REMARK INTRA:                  -2.973
REMARK UNBOUND:                -3.560
REMARK SMILES CC[C@@H](C)[C@@H](NC(=O)[C@@H](O)Cc1ccc(O)c(Cl)c1)C(=O)N1[C@H](C(=O)NCCCCN=C(N)N)C[C@H]2CC[C@H](OS(=O)(=O)O)C[C@@H]21
REMARK SMILES IDX 22 1 36 2 46 3 35 4 23 5 45 6 37 7 39 8 38 9 20 10 21 11
REMARK SMILES IDX 5 12 6 13 7 14 8 15 9 17 11 18 12 19 17 20 19 21 15 22 14 23
REMARK SMILES IDX 13 24 18 25 16 26 10 28 3 30 4 31 2 32 1 33 24 34 25 35
REMARK SMILES IDX 26 36 27 38 28 39 29 40 30 41 31 42 32 43 33 44 34 45 40 50
REMARK SMILES IDX 41 51 42 52 43 53 44 54
REMARK H PARENT 6 16 16 27 10 29 26 37 33 46 33 47 34 48 34 49 44 55
ROOT
ATOM      1  N   UNL     1       4.228   7.538  -0.616  1.00  0.00    -0.326 N 
ATOM      2  C   UNL     1       4.994   8.700   1.283  1.00  0.00     0.014 C 
ATOM      3  C   UNL     1       3.763   8.005   0.693  1.00  0.00     0.091 C 
ATOM      4  C   UNL     1       5.653   9.312   0.056  1.00  0.00     0.041 C 
ATOM      5  C   UNL     1       5.554   8.129  -0.925  1.00  0.00     0.175 C 
ATOM      6  C   UNL     1       3.267   6.967   1.698  1.00  0.00     0.059 C 
ATOM      7  C   UNL     1       4.607   9.595   2.443  1.00  0.00     0.008 C 
ATOM      8  C   UNL     1       3.514   7.360   3.171  1.00  0.00     0.143 C 
ATOM      9  C   UNL     1       3.584   8.889   3.358  1.00  0.00     0.034 C 
ENDROOT
BRANCH   1  10
ATOM     10  C   UNL     1       3.545   6.857  -1.609  1.00  0.00     0.246 C 
ATOM     11  O   UNL     1       2.445   7.280  -1.981  1.00  0.00    -0.272 OA
BRANCH  10  12
ATOM     12  C   UNL     1       4.194   5.603  -2.265  1.00  0.00     0.174 C 
BRANCH  12  13
ATOM     13  N   UNL     1       3.811   5.522  -3.674  1.00  0.00    -0.342 N 
ATOM     14  C   UNL     1       4.692   5.474  -4.731  1.00  0.00     0.249 C 
ATOM     15  O   UNL     1       5.910   5.465  -4.603  1.00  0.00    -0.272 OA
ATOM     16  H   UNL     1       2.842   5.678  -3.942  1.00  0.00     0.164 HD
BRANCH  14  17
ATOM     17  C   UNL     1       3.979   5.410  -6.098  1.00  0.00     0.207 C 
BRANCH  17  18
ATOM     18  C   UNL     1       4.893   4.775  -7.150  1.00  0.00     0.077 C 
BRANCH  18  19
ATOM     19  C   UNL     1       5.080   3.293  -6.912  1.00  0.00    -0.043 A 
ATOM     20  C   UNL     1       4.244   1.177  -6.071  1.00  0.00     0.083 A 
ATOM     21  C   UNL     1       4.050   2.533  -6.336  1.00  0.00     0.028 A 
ATOM     22  C   UNL     1       5.464   0.573  -6.378  1.00  0.00     0.134 A 
ATOM     23  C   UNL     1       6.492   1.314  -6.949  1.00  0.00     0.048 A 
ATOM     24  C   UNL     1       6.302   2.672  -7.213  1.00  0.00     0.008 A 
ATOM     25  Cl  UNL     1       2.967   0.260  -5.363  1.00  0.00    -0.080 Cl
BRANCH  22  26
ATOM     26  O   UNL     1       5.704  -0.751  -6.128  1.00  0.00    -0.506 OA
ATOM     27  H   UNL     1       6.617  -0.930  -6.420  1.00  0.00     0.293 HD
ENDBRANCH  22  26
ENDBRANCH  18  19
ENDBRANCH  17  18
BRANCH  17  28
ATOM     28  O   UNL     1       3.584   6.720  -6.537  1.00  0.00    -0.383 OA
ATOM     29  H   UNL     1       2.791   6.589  -7.105  1.00  0.00     0.211 HD
ENDBRANCH  17  28
ENDBRANCH  14  17
ENDBRANCH  12  13
BRANCH  12  30
ATOM     30  C   UNL     1       3.884   4.294  -1.490  1.00  0.00     0.018 C 
ATOM     31  C   UNL     1       5.182   3.589  -1.066  1.00  0.00     0.010 C 
BRANCH  30  32
ATOM     32  C   UNL     1       2.976   3.311  -2.270  1.00  0.00     0.002 C 
ATOM     33  C   UNL     1       1.483   3.459  -2.011  1.00  0.00     0.004 C 
ENDBRANCH  30  32
ENDBRANCH  12  30
ENDBRANCH  10  12
ENDBRANCH   1  10
BRANCH   5  34
ATOM     34  C   UNL     1       6.686   7.094  -0.689  1.00  0.00     0.242 C 
ATOM     35  O   UNL     1       6.826   6.505   0.383  1.00  0.00    -0.273 OA
ATOM     36  N   UNL     1       7.553   6.923  -1.745  1.00  0.00    -0.354 N 
ATOM     37  H   UNL     1       7.457   7.527  -2.562  1.00  0.00     0.163 HD
BRANCH  36  38
ATOM     38  C   UNL     1       8.528   5.852  -1.780  1.00  0.00     0.116 C 
BRANCH  38  39
ATOM     39  C   UNL     1       9.200   5.808  -3.150  1.00  0.00     0.023 C 
BRANCH  39  40
ATOM     40  C   UNL     1      10.301   4.756  -3.225  1.00  0.00     0.026 C 
BRANCH  40  41
ATOM     41  C   UNL     1       9.998   3.731  -4.318  1.00  0.00     0.146 C 
BRANCH  41  42
ATOM     42  N   UNL     1       8.605   3.312  -4.227  1.00  0.00    -0.254 NA
ATOM     43  C   UNL     1       8.310   2.222  -3.623  1.00  0.00     0.185 C 
ATOM     44  N   UNL     1       9.108   1.328  -3.011  1.00  0.00    -0.370 N 
ATOM     45  N   UNL     1       7.021   1.851  -3.554  1.00  0.00    -0.370 N 
ATOM     46  H   UNL     1       8.773   0.405  -2.795  1.00  0.00     0.159 HD
ATOM     47  H   UNL     1      10.114   1.460  -2.957  1.00  0.00     0.159 HD
ATOM     48  H   UNL     1       6.351   2.475  -3.983  1.00  0.00     0.159 HD
ATOM     49  H   UNL     1       6.689   1.156  -2.909  1.00  0.00     0.159 HD
ENDBRANCH  41  42
ENDBRANCH  40  41
ENDBRANCH  39  40
ENDBRANCH  38  39
ENDBRANCH  36  38
ENDBRANCH   5  34
BRANCH   8  50
ATOM     50  O   UNL     1       4.739   6.790   3.631  1.00  0.00    -0.245 OA
BRANCH  50  51
ATOM     51  S   UNL     1       4.784   5.221   4.060  1.00  0.00     0.397 S 
ATOM     52  O   UNL     1       5.709   4.544   3.181  1.00  0.00    -0.169 OA
ATOM     53  O   UNL     1       3.435   4.735   4.265  1.00  0.00    -0.169 OA
BRANCH  51  54
ATOM     54  O   UNL     1       5.510   5.286   5.494  1.00  0.00    -0.264 OA
ATOM     55  H   UNL     1       6.376   5.726   5.370  1.00  0.00     0.236 HD
ENDBRANCH  51  54
ENDBRANCH  50  51
ENDBRANCH   8  50
TORSDOF 19
ENDMDL
MODEL 33
REMARK VINA RESULT:    -6.069      2.603      4.186
REMARK INTER + INTRA:         -15.838
REMARK INTER:                 -13.450
REMARK INTRA:                  -2.388
REMARK UNBOUND:                -3.560
REMARK SMILES CC[C@@H](C)[C@@H](NC(=O)[C@@H](O)Cc1ccc(O)c(Cl)c1)C(=O)N1[C@H](C(=O)NCCCCN=C(N)N)C[C@H]2CC[C@H](OS(=O)(=O)O)C[C@@H]21
REMARK SMILES IDX 22 1 36 2 46 3 35 4 23 5 45 6 37 7 39 8 38 9 20 10 21 11
REMARK SMILES IDX 5 12 6 13 7 14 8 15 9 17 11 18 12 19 17 20 19 21 15 22 14 23
REMARK SMILES IDX 13 24 18 25 16 26 10 28 3 30 4 31 2 32 1 33 24 34 25 35
REMARK SMILES IDX 26 36 27 38 28 39 29 40 30 41 31 42 32 43 33 44 34 45 40 50
REMARK SMILES IDX 41 51 42 52 43 53 44 54
REMARK H PARENT 6 16 16 27 10 29 26 37 33 46 33 47 34 48 34 49 44 55
ROOT
ATOM      1  N   UNL     1     -10.841   2.929   8.872  1.00  0.00    -0.326 N 
ATOM      2  C   UNL     1     -10.658   5.276   8.934  1.00  0.00     0.014 C 
ATOM      3  C   UNL     1     -10.994   4.103   8.008  1.00  0.00     0.091 C 
ATOM      4  C   UNL     1      -9.579   4.693   9.834  1.00  0.00     0.041 C 
ATOM      5  C   UNL     1     -10.201   3.321  10.152  1.00  0.00     0.175 C 
ATOM      6  C   UNL     1     -12.359   4.364   7.375  1.00  0.00     0.059 C 
ATOM      7  C   UNL     1     -10.363   6.530   8.136  1.00  0.00     0.008 C 
ATOM      8  C   UNL     1     -12.666   5.860   7.152  1.00  0.00     0.143 C 
ATOM      9  C   UNL     1     -11.381   6.697   6.988  1.00  0.00     0.034 C 
ENDROOT
BRANCH   1  10
ATOM     10  C   UNL     1     -10.996   1.585   8.579  1.00  0.00     0.246 C 
ATOM     11  O   UNL     1     -11.255   1.249   7.418  1.00  0.00    -0.272 OA
BRANCH  10  12
ATOM     12  C   UNL     1     -10.800   0.527   9.703  1.00  0.00     0.174 C 
BRANCH  12  13
ATOM     13  N   UNL     1      -9.407   0.082   9.731  1.00  0.00    -0.342 N 
ATOM     14  C   UNL     1      -8.576   0.154  10.827  1.00  0.00     0.249 C 
ATOM     15  O   UNL     1      -8.926   0.578  11.921  1.00  0.00    -0.272 OA
ATOM     16  H   UNL     1      -8.933  -0.146   8.861  1.00  0.00     0.164 HD
BRANCH  14  17
ATOM     17  C   UNL     1      -7.158  -0.380  10.535  1.00  0.00     0.207 C 
BRANCH  17  18
ATOM     18  C   UNL     1      -6.682   0.091   9.157  1.00  0.00     0.077 C 
BRANCH  18  19
ATOM     19  C   UNL     1      -5.398   0.885   9.247  1.00  0.00    -0.043 A 
ATOM     20  C   UNL     1      -3.536   1.732  10.552  1.00  0.00     0.083 A 
ATOM     21  C   UNL     1      -4.694   0.959  10.460  1.00  0.00     0.028 A 
ATOM     22  C   UNL     1      -3.076   2.436   9.438  1.00  0.00     0.134 A 
ATOM     23  C   UNL     1      -3.763   2.372   8.232  1.00  0.00     0.048 A 
ATOM     24  C   UNL     1      -4.923   1.600   8.137  1.00  0.00     0.008 A 
ATOM     25  Cl  UNL     1      -2.686   1.811  12.050  1.00  0.00    -0.080 Cl
BRANCH  22  26
ATOM     26  O   UNL     1      -1.952   3.216   9.484  1.00  0.00    -0.506 OA
ATOM     27  H   UNL     1      -1.445   3.023   8.673  1.00  0.00     0.293 HD
ENDBRANCH  22  26
ENDBRANCH  18  19
ENDBRANCH  17  18
BRANCH  17  28
ATOM     28  O   UNL     1      -7.124  -1.815  10.587  1.00  0.00    -0.383 OA
ATOM     29  H   UNL     1      -6.611  -2.046  11.394  1.00  0.00     0.211 HD
ENDBRANCH  17  28
ENDBRANCH  14  17
ENDBRANCH  12  13
BRANCH  12  30
ATOM     30  C   UNL     1     -11.798  -0.657   9.593  1.00  0.00     0.018 C 
ATOM     31  C   UNL     1     -13.209  -0.222  10.018  1.00  0.00     0.010 C 
BRANCH  30  32
ATOM     32  C   UNL     1     -11.365  -1.911  10.392  1.00  0.00     0.002 C 
ATOM     33  C   UNL     1     -12.504  -2.758  10.943  1.00  0.00     0.004 C 
ENDBRANCH  30  32
ENDBRANCH  12  30
ENDBRANCH  10  12
ENDBRANCH   1  10
BRANCH   5  34
ATOM     34  C   UNL     1     -11.257   3.421  11.286  1.00  0.00     0.242 C 
ATOM     35  O   UNL     1     -12.394   2.964  11.168  1.00  0.00    -0.273 OA
ATOM     36  N   UNL     1     -10.846   4.103  12.409  1.00  0.00    -0.354 N 
ATOM     37  H   UNL     1      -9.935   4.562  12.400  1.00  0.00     0.163 HD
BRANCH  36  38
ATOM     38  C   UNL     1     -11.616   4.106  13.636  1.00  0.00     0.116 C 
BRANCH  38  39
ATOM     39  C   UNL     1     -11.993   5.538  14.008  1.00  0.00     0.023 C 
BRANCH  39  40
ATOM     40  C   UNL     1     -11.172   6.573  13.247  1.00  0.00     0.026 C 
BRANCH  40  41
ATOM     41  C   UNL     1     -12.039   7.309  12.225  1.00  0.00     0.146 C 
BRANCH  41  42
ATOM     42  N   UNL     1     -11.345   8.503  11.760  1.00  0.00    -0.254 NA
ATOM     43  C   UNL     1     -11.672   9.029  10.639  1.00  0.00     0.185 C 
ATOM     44  N   UNL     1     -12.607   8.654   9.748  1.00  0.00    -0.370 N 
ATOM     45  N   UNL     1     -11.017  10.126  10.226  1.00  0.00    -0.370 N 
ATOM     46  H   UNL     1     -12.590   9.008   8.807  1.00  0.00     0.159 HD
ATOM     47  H   UNL     1     -13.205   7.849   9.909  1.00  0.00     0.159 HD
ATOM     48  H   UNL     1     -10.301  10.481  10.845  1.00  0.00     0.159 HD
ATOM     49  H   UNL     1     -11.364  10.724   9.496  1.00  0.00     0.159 HD
ENDBRANCH  41  42
ENDBRANCH  40  41
ENDBRANCH  39  40
ENDBRANCH  38  39
ENDBRANCH  36  38
ENDBRANCH   5  34
BRANCH   8  50
ATOM     50  O   UNL     1     -13.406   6.379   8.257  1.00  0.00    -0.245 OA
BRANCH  50  51
ATOM     51  S   UNL     1     -14.680   7.353   7.985  1.00  0.00     0.397 S 
ATOM     52  O   UNL     1     -14.314   8.287   6.944  1.00  0.00    -0.169 OA
ATOM     53  O   UNL     1     -15.229   7.800   9.248  1.00  0.00    -0.169 OA
BRANCH  51  54
ATOM     54  O   UNL     1     -15.737   6.343   7.315  1.00  0.00    -0.264 OA
ATOM     55  H   UNL     1     -15.231   5.628   6.878  1.00  0.00     0.236 HD
ENDBRANCH  51  54
ENDBRANCH  50  51
ENDBRANCH   8  50
TORSDOF 19
ENDMDL
MODEL 34
REMARK VINA RESULT:    -6.048     15.038     18.944
REMARK INTER + INTRA:         -15.795
REMARK INTER:                 -11.859
REMARK INTRA:                  -3.936
REMARK UNBOUND:                -3.560
REMARK SMILES CC[C@@H](C)[C@@H](NC(=O)[C@@H](O)Cc1ccc(O)c(Cl)c1)C(=O)N1[C@H](C(=O)NCCCCN=C(N)N)C[C@H]2CC[C@H](OS(=O)(=O)O)C[C@@H]21
REMARK SMILES IDX 22 1 36 2 46 3 35 4 23 5 45 6 37 7 39 8 38 9 20 10 21 11
REMARK SMILES IDX 5 12 6 13 7 14 8 15 9 17 11 18 12 19 17 20 19 21 15 22 14 23
REMARK SMILES IDX 13 24 18 25 16 26 10 28 3 30 4 31 2 32 1 33 24 34 25 35
REMARK SMILES IDX 26 36 27 38 28 39 29 40 30 41 31 42 32 43 33 44 34 45 40 50
REMARK SMILES IDX 41 51 42 52 43 53 44 54
REMARK H PARENT 6 16 16 27 10 29 26 37 33 46 33 47 34 48 34 49 44 55
ROOT
ATOM      1  N   UNL     1       4.995   7.965   0.029  1.00  0.00    -0.326 N 
ATOM      2  C   UNL     1       3.831   6.379  -1.265  1.00  0.00     0.014 C 
ATOM      3  C   UNL     1       4.985   7.385  -1.318  1.00  0.00     0.091 C 
ATOM      4  C   UNL     1       2.833   7.062  -0.342  1.00  0.00     0.041 C 
ATOM      5  C   UNL     1       3.780   7.548   0.770  1.00  0.00     0.175 C 
ATOM      6  C   UNL     1       6.237   6.659  -1.804  1.00  0.00     0.059 C 
ATOM      7  C   UNL     1       3.399   5.977  -2.661  1.00  0.00     0.008 C 
ATOM      8  C   UNL     1       5.945   5.506  -2.788  1.00  0.00     0.143 C 
ATOM      9  C   UNL     1       4.627   5.724  -3.560  1.00  0.00     0.034 C 
ENDROOT
BRANCH   1  10
ATOM     10  C   UNL     1       5.811   8.946   0.566  1.00  0.00     0.246 C 
ATOM     11  O   UNL     1       5.818  10.070   0.053  1.00  0.00    -0.272 OA
BRANCH  10  12
ATOM     12  C   UNL     1       6.666   8.627   1.827  1.00  0.00     0.174 C 
BRANCH  12  13
ATOM     13  N   UNL     1       6.543   9.711   2.801  1.00  0.00    -0.342 N 
ATOM     14  C   UNL     1       6.031   9.576   4.072  1.00  0.00     0.249 C 
ATOM     15  O   UNL     1       5.643   8.514   4.542  1.00  0.00    -0.272 OA
ATOM     16  H   UNL     1       6.677  10.674   2.502  1.00  0.00     0.164 HD
BRANCH  14  17
ATOM     17  C   UNL     1       6.017  10.908   4.852  1.00  0.00     0.207 C 
BRANCH  17  18
ATOM     18  C   UNL     1       7.335  11.662   4.648  1.00  0.00     0.077 C 
BRANCH  18  19
ATOM     19  C   UNL     1       7.142  12.919   3.829  1.00  0.00    -0.043 A 
ATOM     20  C   UNL     1       7.742  14.304   1.930  1.00  0.00     0.083 A 
ATOM     21  C   UNL     1       7.886  13.121   2.656  1.00  0.00     0.028 A 
ATOM     22  C   UNL     1       6.858  15.290   2.369  1.00  0.00     0.134 A 
ATOM     23  C   UNL     1       6.115  15.103   3.529  1.00  0.00     0.048 A 
ATOM     24  C   UNL     1       6.258  13.921   4.259  1.00  0.00     0.008 A 
ATOM     25  Cl  UNL     1       8.665  14.534   0.492  1.00  0.00    -0.080 Cl
BRANCH  22  26
ATOM     26  O   UNL     1       6.690  16.470   1.697  1.00  0.00    -0.506 OA
ATOM     27  H   UNL     1       7.583  16.822   1.523  1.00  0.00     0.293 HD
ENDBRANCH  22  26
ENDBRANCH  18  19
ENDBRANCH  17  18
BRANCH  17  28
ATOM     28  O   UNL     1       5.809  10.683   6.256  1.00  0.00    -0.383 OA
ATOM     29  H   UNL     1       5.182  11.381   6.553  1.00  0.00     0.211 HD
ENDBRANCH  17  28
ENDBRANCH  14  17
ENDBRANCH  12  13
BRANCH  12  30
ATOM     30  C   UNL     1       8.146   8.306   1.482  1.00  0.00     0.018 C 
ATOM     31  C   UNL     1       8.535   6.909   1.993  1.00  0.00     0.010 C 
BRANCH  30  32
ATOM     32  C   UNL     1       9.149   9.362   2.006  1.00  0.00     0.002 C 
ATOM     33  C   UNL     1       9.586  10.406   0.986  1.00  0.00     0.004 C 
ENDBRANCH  30  32
ENDBRANCH  12  30
ENDBRANCH  10  12
ENDBRANCH   1  10
BRANCH   5  34
ATOM     34  C   UNL     1       4.110   6.414   1.777  1.00  0.00     0.242 C 
ATOM     35  O   UNL     1       4.821   5.455   1.477  1.00  0.00    -0.273 OA
ATOM     36  N   UNL     1       3.508   6.530   3.009  1.00  0.00    -0.354 N 
ATOM     37  H   UNL     1       2.835   7.283   3.158  1.00  0.00     0.163 HD
BRANCH  36  38
ATOM     38  C   UNL     1       3.871   5.688   4.130  1.00  0.00     0.116 C 
BRANCH  38  39
ATOM     39  C   UNL     1       2.611   5.158   4.810  1.00  0.00     0.023 C 
BRANCH  39  40
ATOM     40  C   UNL     1       2.861   4.733   6.252  1.00  0.00     0.026 C 
BRANCH  40  41
ATOM     41  C   UNL     1       2.594   5.892   7.213  1.00  0.00     0.146 C 
BRANCH  41  42
ATOM     42  N   UNL     1       3.858   6.452   7.673  1.00  0.00    -0.254 NA
ATOM     43  C   UNL     1       4.182   7.644   7.337  1.00  0.00     0.185 C 
ATOM     44  N   UNL     1       3.520   8.541   6.583  1.00  0.00    -0.370 N 
ATOM     45  N   UNL     1       5.354   8.140   7.768  1.00  0.00    -0.370 N 
ATOM     46  H   UNL     1       3.996   9.340   6.201  1.00  0.00     0.159 HD
ATOM     47  H   UNL     1       2.609   8.334   6.187  1.00  0.00     0.159 HD
ATOM     48  H   UNL     1       5.912   7.530   8.351  1.00  0.00     0.159 HD
ATOM     49  H   UNL     1       5.568   9.121   7.751  1.00  0.00     0.159 HD
ENDBRANCH  41  42
ENDBRANCH  40  41
ENDBRANCH  39  40
ENDBRANCH  38  39
ENDBRANCH  36  38
ENDBRANCH   5  34
BRANCH   8  50
ATOM     50  O   UNL     1       5.857   4.268  -2.082  1.00  0.00    -0.245 OA
BRANCH  50  51
ATOM     51  S   UNL     1       7.089   3.209  -2.162  1.00  0.00     0.397 S 
ATOM     52  O   UNL     1       8.317   3.961  -2.289  1.00  0.00    -0.169 OA
ATOM     53  O   UNL     1       6.753   2.142  -3.082  1.00  0.00    -0.169 OA
BRANCH  51  54
ATOM     54  O   UNL     1       7.102   2.596  -0.676  1.00  0.00    -0.264 OA
ATOM     55  H   UNL     1       6.178   2.387  -0.431  1.00  0.00     0.236 HD
ENDBRANCH  51  54
ENDBRANCH  50  51
ENDBRANCH   8  50
TORSDOF 19
ENDMDL
MODEL 35
REMARK VINA RESULT:    -6.042     12.397     17.327
REMARK INTER + INTRA:         -15.783
REMARK INTER:                 -11.917
REMARK INTRA:                  -3.866
REMARK UNBOUND:                -3.560
REMARK SMILES CC[C@@H](C)[C@@H](NC(=O)[C@@H](O)Cc1ccc(O)c(Cl)c1)C(=O)N1[C@H](C(=O)NCCCCN=C(N)N)C[C@H]2CC[C@H](OS(=O)(=O)O)C[C@@H]21
REMARK SMILES IDX 22 1 36 2 46 3 35 4 23 5 45 6 37 7 39 8 38 9 20 10 21 11
REMARK SMILES IDX 5 12 6 13 7 14 8 15 9 17 11 18 12 19 17 20 19 21 15 22 14 23
REMARK SMILES IDX 13 24 18 25 16 26 10 28 3 30 4 31 2 32 1 33 24 34 25 35
REMARK SMILES IDX 26 36 27 38 28 39 29 40 30 41 31 42 32 43 33 44 34 45 40 50
REMARK SMILES IDX 41 51 42 52 43 53 44 54
REMARK H PARENT 6 16 16 27 10 29 26 37 33 46 33 47 34 48 34 49 44 55
ROOT
ATOM      1  N   UNL     1       4.117   7.780  -0.551  1.00  0.00    -0.326 N 
ATOM      2  C   UNL     1       3.611   6.117  -2.139  1.00  0.00     0.014 C 
ATOM      3  C   UNL     1       4.612   7.230  -1.816  1.00  0.00     0.091 C 
ATOM      4  C   UNL     1       2.301   6.681  -1.610  1.00  0.00     0.041 C 
ATOM      5  C   UNL     1       2.771   7.233  -0.252  1.00  0.00     0.175 C 
ATOM      6  C   UNL     1       6.020   6.639  -1.848  1.00  0.00     0.059 C 
ATOM      7  C   UNL     1       3.710   5.704  -3.594  1.00  0.00     0.008 C 
ATOM      8  C   UNL     1       6.186   5.484  -2.859  1.00  0.00     0.143 C 
ATOM      9  C   UNL     1       5.186   5.590  -4.029  1.00  0.00     0.034 C 
ENDROOT
BRANCH   1  10
ATOM     10  C   UNL     1       4.607   8.823   0.216  1.00  0.00     0.246 C 
ATOM     11  O   UNL     1       3.854   9.757   0.511  1.00  0.00    -0.272 OA
BRANCH  10  12
ATOM     12  C   UNL     1       6.077   8.778   0.724  1.00  0.00     0.174 C 
BRANCH  12  13
ATOM     13  N   UNL     1       6.123   8.202   2.067  1.00  0.00    -0.342 N 
ATOM     14  C   UNL     1       6.603   6.949   2.375  1.00  0.00     0.249 C 
ATOM     15  O   UNL     1       7.076   6.179   1.548  1.00  0.00    -0.272 OA
ATOM     16  H   UNL     1       5.625   8.658   2.828  1.00  0.00     0.164 HD
BRANCH  14  17
ATOM     17  C   UNL     1       6.501   6.624   3.880  1.00  0.00     0.207 C 
BRANCH  17  18
ATOM     18  C   UNL     1       6.314   7.909   4.694  1.00  0.00     0.077 C 
BRANCH  18  19
ATOM     19  C   UNL     1       5.029   7.888   5.490  1.00  0.00    -0.043 A 
ATOM     20  C   UNL     1       3.689   6.981   7.297  1.00  0.00     0.083 A 
ATOM     21  C   UNL     1       4.894   7.033   6.595  1.00  0.00     0.028 A 
ATOM     22  C   UNL     1       2.614   7.778   6.900  1.00  0.00     0.134 A 
ATOM     23  C   UNL     1       2.734   8.629   5.808  1.00  0.00     0.048 A 
ATOM     24  C   UNL     1       3.938   8.683   5.102  1.00  0.00     0.008 A 
ATOM     25  Cl  UNL     1       3.542   5.924   8.651  1.00  0.00    -0.080 Cl
BRANCH  22  26
ATOM     26  O   UNL     1       1.410   7.753   7.551  1.00  0.00    -0.506 OA
ATOM     27  H   UNL     1       1.162   6.815   7.644  1.00  0.00     0.293 HD
ENDBRANCH  22  26
ENDBRANCH  18  19
ENDBRANCH  17  18
BRANCH  17  28
ATOM     28  O   UNL     1       7.673   5.934   4.341  1.00  0.00    -0.383 OA
ATOM     29  H   UNL     1       7.771   6.170   5.292  1.00  0.00     0.211 HD
ENDBRANCH  17  28
ENDBRANCH  14  17
ENDBRANCH  12  13
BRANCH  12  30
ATOM     30  C   UNL     1       6.782  10.159   0.646  1.00  0.00     0.018 C 
ATOM     31  C   UNL     1       7.977  10.109  -0.318  1.00  0.00     0.010 C 
BRANCH  30  32
ATOM     32  C   UNL     1       7.231  10.705   2.023  1.00  0.00     0.002 C 
ATOM     33  C   UNL     1       6.210  11.576   2.743  1.00  0.00     0.004 C 
ENDBRANCH  30  32
ENDBRANCH  12  30
ENDBRANCH  10  12
ENDBRANCH   1  10
BRANCH   5  34
ATOM     34  C   UNL     1       2.857   6.114   0.821  1.00  0.00     0.242 C 
ATOM     35  O   UNL     1       2.882   4.920   0.526  1.00  0.00    -0.273 OA
ATOM     36  N   UNL     1       2.848   6.553   2.126  1.00  0.00    -0.354 N 
ATOM     37  H   UNL     1       2.704   7.547   2.310  1.00  0.00     0.163 HD
BRANCH  36  38
ATOM     38  C   UNL     1       3.136   5.673   3.240  1.00  0.00     0.116 C 
BRANCH  38  39
ATOM     39  C   UNL     1       1.833   5.213   3.888  1.00  0.00     0.023 C 
BRANCH  39  40
ATOM     40  C   UNL     1       2.059   4.539   5.237  1.00  0.00     0.026 C 
BRANCH  40  41
ATOM     41  C   UNL     1       0.732   4.090   5.849  1.00  0.00     0.146 C 
BRANCH  41  42
ATOM     42  N   UNL     1       0.641   4.558   7.225  1.00  0.00    -0.254 NA
ATOM     43  C   UNL     1      -0.407   5.183   7.614  1.00  0.00     0.185 C 
ATOM     44  N   UNL     1      -1.522   5.509   6.935  1.00  0.00    -0.370 N 
ATOM     45  N   UNL     1      -0.469   5.610   8.886  1.00  0.00    -0.370 N 
ATOM     46  H   UNL     1      -2.153   6.206   7.291  1.00  0.00     0.159 HD
ATOM     47  H   UNL     1      -1.648   5.250   5.961  1.00  0.00     0.159 HD
ATOM     48  H   UNL     1       0.328   5.397   9.470  1.00  0.00     0.159 HD
ATOM     49  H   UNL     1      -1.329   5.887   9.325  1.00  0.00     0.159 HD
ENDBRANCH  41  42
ENDBRANCH  40  41
ENDBRANCH  39  40
ENDBRANCH  38  39
ENDBRANCH  36  38
ENDBRANCH   5  34
BRANCH   8  50
ATOM     50  O   UNL     1       5.990   4.229  -2.207  1.00  0.00    -0.245 OA
BRANCH  50  51
ATOM     51  S   UNL     1       7.098   3.051  -2.382  1.00  0.00     0.397 S 
ATOM     52  O   UNL     1       8.407   3.666  -2.380  1.00  0.00    -0.169 OA
ATOM     53  O   UNL     1       6.685   2.148  -3.436  1.00  0.00    -0.169 OA
BRANCH  51  54
ATOM     54  O   UNL     1       6.979   2.268  -0.983  1.00  0.00    -0.264 OA
ATOM     55  H   UNL     1       6.885   1.314  -1.182  1.00  0.00     0.236 HD
ENDBRANCH  51  54
ENDBRANCH  50  51
ENDBRANCH   8  50
TORSDOF 19
ENDMDL
MODEL 36
REMARK VINA RESULT:    -6.041     13.961     19.376
REMARK INTER + INTRA:         -15.781
REMARK INTER:                 -12.918
REMARK INTRA:                  -2.863
REMARK UNBOUND:                -3.560
REMARK SMILES CC[C@@H](C)[C@@H](NC(=O)[C@@H](O)Cc1ccc(O)c(Cl)c1)C(=O)N1[C@H](C(=O)NCCCCN=C(N)N)C[C@H]2CC[C@H](OS(=O)(=O)O)C[C@@H]21
REMARK SMILES IDX 22 1 36 2 46 3 35 4 23 5 45 6 37 7 39 8 38 9 20 10 21 11
REMARK SMILES IDX 5 12 6 13 7 14 8 15 9 17 11 18 12 19 17 20 19 21 15 22 14 23
REMARK SMILES IDX 13 24 18 25 16 26 10 28 3 30 4 31 2 32 1 33 24 34 25 35
REMARK SMILES IDX 26 36 27 38 28 39 29 40 30 41 31 42 32 43 33 44 34 45 40 50
REMARK SMILES IDX 41 51 42 52 43 53 44 54
REMARK H PARENT 6 16 16 27 10 29 26 37 33 46 33 47 34 48 34 49 44 55
ROOT
ATOM      1  N   UNL     1       3.431   1.439  -5.533  1.00  0.00    -0.326 N 
ATOM      2  C   UNL     1       3.645   3.763  -5.223  1.00  0.00     0.014 C 
ATOM      3  C   UNL     1       2.815   2.548  -4.798  1.00  0.00     0.091 C 
ATOM      4  C   UNL     1       3.987   3.445  -6.671  1.00  0.00     0.041 C 
ATOM      5  C   UNL     1       4.388   1.965  -6.537  1.00  0.00     0.175 C 
ATOM      6  C   UNL     1       2.799   2.484  -3.272  1.00  0.00     0.059 C 
ATOM      7  C   UNL     1       2.922   5.054  -4.896  1.00  0.00     0.008 C 
ATOM      8  C   UNL     1       2.862   3.868  -2.591  1.00  0.00     0.143 C 
ATOM      9  C   UNL     1       2.288   4.982  -3.490  1.00  0.00     0.034 C 
ENDROOT
BRANCH   1  10
ATOM     10  C   UNL     1       3.092   0.097  -5.562  1.00  0.00     0.246 C 
ATOM     11  O   UNL     1       3.991  -0.749  -5.629  1.00  0.00    -0.272 OA
BRANCH  10  12
ATOM     12  C   UNL     1       1.596  -0.320  -5.465  1.00  0.00     0.174 C 
BRANCH  12  13
ATOM     13  N   UNL     1       1.220  -0.507  -4.064  1.00  0.00    -0.342 N 
ATOM     14  C   UNL     1       0.166   0.119  -3.438  1.00  0.00     0.249 C 
ATOM     15  O   UNL     1      -0.600   0.891  -4.001  1.00  0.00    -0.272 OA
ATOM     16  H   UNL     1       1.852  -0.994  -3.434  1.00  0.00     0.164 HD
BRANCH  14  17
ATOM     17  C   UNL     1       0.038  -0.274  -1.951  1.00  0.00     0.207 C 
BRANCH  17  18
ATOM     18  C   UNL     1      -0.774   0.778  -1.188  1.00  0.00     0.077 C 
BRANCH  18  19
ATOM     19  C   UNL     1      -0.795   0.501   0.299  1.00  0.00    -0.043 A 
ATOM     20  C   UNL     1      -0.513   1.264   2.584  1.00  0.00     0.083 A 
ATOM     21  C   UNL     1      -0.542   1.534   1.215  1.00  0.00     0.028 A 
ATOM     22  C   UNL     1      -0.735  -0.034   3.045  1.00  0.00     0.134 A 
ATOM     23  C   UNL     1      -0.986  -1.066   2.149  1.00  0.00     0.048 A 
ATOM     24  C   UNL     1      -1.014  -0.800   0.778  1.00  0.00     0.008 A 
ATOM     25  Cl  UNL     1      -0.200   2.546   3.694  1.00  0.00    -0.080 Cl
BRANCH  22  26
ATOM     26  O   UNL     1      -0.706  -0.348   4.377  1.00  0.00    -0.506 OA
ATOM     27  H   UNL     1      -0.076  -1.086   4.477  1.00  0.00     0.293 HD
ENDBRANCH  22  26
ENDBRANCH  18  19
ENDBRANCH  17  18
BRANCH  17  28
ATOM     28  O   UNL     1       1.330  -0.414  -1.340  1.00  0.00    -0.383 OA
ATOM     29  H   UNL     1       1.630   0.499  -1.125  1.00  0.00     0.211 HD
ENDBRANCH  17  28
ENDBRANCH  14  17
ENDBRANCH  12  13
BRANCH  12  30
ATOM     30  C   UNL     1       1.260  -1.557  -6.340  1.00  0.00     0.018 C 
ATOM     31  C   UNL     1       0.358  -1.164  -7.520  1.00  0.00     0.010 C 
BRANCH  30  32
ATOM     32  C   UNL     1       0.620  -2.723  -5.547  1.00  0.00     0.002 C 
ATOM     33  C   UNL     1       1.605  -3.673  -4.877  1.00  0.00     0.004 C 
ENDBRANCH  30  32
ENDBRANCH  12  30
ENDBRANCH  10  12
ENDBRANCH   1  10
BRANCH   5  34
ATOM     34  C   UNL     1       5.850   1.811  -6.037  1.00  0.00     0.242 C 
ATOM     35  O   UNL     1       6.125   1.270  -4.966  1.00  0.00    -0.273 OA
ATOM     36  N   UNL     1       6.809   2.372  -6.850  1.00  0.00    -0.354 N 
ATOM     37  H   UNL     1       6.510   2.912  -7.663  1.00  0.00     0.163 HD
BRANCH  36  38
ATOM     38  C   UNL     1       8.224   2.138  -6.651  1.00  0.00     0.116 C 
BRANCH  38  39
ATOM     39  C   UNL     1       8.863   3.355  -5.987  1.00  0.00     0.023 C 
BRANCH  39  40
ATOM     40  C   UNL     1      10.284   3.079  -5.507  1.00  0.00     0.026 C 
BRANCH  40  41
ATOM     41  C   UNL     1      10.301   2.779  -4.008  1.00  0.00     0.146 C 
BRANCH  41  42
ATOM     42  N   UNL     1       9.068   3.257  -3.396  1.00  0.00    -0.254 NA
ATOM     43  C   UNL     1       8.222   2.414  -2.936  1.00  0.00     0.185 C 
ATOM     44  N   UNL     1       8.266   1.069  -2.911  1.00  0.00    -0.370 N 
ATOM     45  N   UNL     1       7.089   2.874  -2.379  1.00  0.00    -0.370 N 
ATOM     46  H   UNL     1       7.433   0.532  -2.744  1.00  0.00     0.159 HD
ATOM     47  H   UNL     1       9.060   0.555  -3.279  1.00  0.00     0.159 HD
ATOM     48  H   UNL     1       6.980   3.879  -2.350  1.00  0.00     0.159 HD
ATOM     49  H   UNL     1       6.501   2.307  -1.795  1.00  0.00     0.159 HD
ENDBRANCH  41  42
ENDBRANCH  40  41
ENDBRANCH  39  40
ENDBRANCH  38  39
ENDBRANCH  36  38
ENDBRANCH   5  34
BRANCH   8  50
ATOM     50  O   UNL     1       4.214   4.196  -2.271  1.00  0.00    -0.245 OA
BRANCH  50  51
ATOM     51  S   UNL     1       4.558   4.862  -0.827  1.00  0.00     0.397 S 
ATOM     52  O   UNL     1       4.819   6.269  -1.036  1.00  0.00    -0.169 OA
ATOM     53  O   UNL     1       5.489   4.015  -0.110  1.00  0.00    -0.169 OA
BRANCH  51  54
ATOM     54  O   UNL     1       3.139   4.787  -0.076  1.00  0.00    -0.264 OA
ATOM     55  H   UNL     1       2.454   5.105  -0.699  1.00  0.00     0.236 HD
ENDBRANCH  51  54
ENDBRANCH  50  51
ENDBRANCH   8  50
TORSDOF 19
ENDMDL
MODEL 37
REMARK VINA RESULT:    -6.014     16.993     21.685
REMARK INTER + INTRA:         -15.727
REMARK INTER:                 -11.261
REMARK INTRA:                  -4.466
REMARK UNBOUND:                -3.560
REMARK SMILES CC[C@@H](C)[C@@H](NC(=O)[C@@H](O)Cc1ccc(O)c(Cl)c1)C(=O)N1[C@H](C(=O)NCCCCN=C(N)N)C[C@H]2CC[C@H](OS(=O)(=O)O)C[C@@H]21
REMARK SMILES IDX 22 1 36 2 46 3 35 4 23 5 45 6 37 7 39 8 38 9 20 10 21 11
REMARK SMILES IDX 5 12 6 13 7 14 8 15 9 17 11 18 12 19 17 20 19 21 15 22 14 23
REMARK SMILES IDX 13 24 18 25 16 26 10 28 3 30 4 31 2 32 1 33 24 34 25 35
REMARK SMILES IDX 26 36 27 38 28 39 29 40 30 41 31 42 32 43 33 44 34 45 40 50
REMARK SMILES IDX 41 51 42 52 43 53 44 54
REMARK H PARENT 6 16 16 27 10 29 26 37 33 46 33 47 34 48 34 49 44 55
ROOT
ATOM      1  N   UNL     1       5.051   2.563  -5.267  1.00  0.00    -0.326 N 
ATOM      2  C   UNL     1       3.453   2.049  -6.918  1.00  0.00     0.014 C 
ATOM      3  C   UNL     1       3.965   3.187  -6.030  1.00  0.00     0.091 C 
ATOM      4  C   UNL     1       3.626   0.827  -6.030  1.00  0.00     0.041 C 
ATOM      5  C   UNL     1       5.035   1.093  -5.470  1.00  0.00     0.175 C 
ATOM      6  C   UNL     1       4.299   4.382  -6.920  1.00  0.00     0.059 C 
ATOM      7  C   UNL     1       2.083   2.374  -7.478  1.00  0.00     0.008 C 
ATOM      8  C   UNL     1       3.404   4.493  -8.173  1.00  0.00     0.143 C 
ATOM      9  C   UNL     1       2.024   3.839  -7.959  1.00  0.00     0.034 C 
ENDROOT
BRANCH   1  10
ATOM     10  C   UNL     1       5.872   3.101  -4.290  1.00  0.00     0.246 C 
ATOM     11  O   UNL     1       7.055   3.333  -4.561  1.00  0.00    -0.272 OA
BRANCH  10  12
ATOM     12  C   UNL     1       5.280   3.440  -2.891  1.00  0.00     0.174 C 
BRANCH  12  13
ATOM     13  N   UNL     1       4.340   4.555  -3.005  1.00  0.00    -0.342 N 
ATOM     14  C   UNL     1       3.011   4.508  -2.647  1.00  0.00     0.249 C 
ATOM     15  O   UNL     1       2.470   3.522  -2.162  1.00  0.00    -0.272 OA
ATOM     16  H   UNL     1       4.603   5.384  -3.532  1.00  0.00     0.164 HD
BRANCH  14  17
ATOM     17  C   UNL     1       2.278   5.842  -2.903  1.00  0.00     0.207 C 
BRANCH  17  18
ATOM     18  C   UNL     1       1.653   6.367  -1.607  1.00  0.00     0.077 C 
BRANCH  18  19
ATOM     19  C   UNL     1       2.705   6.740  -0.586  1.00  0.00    -0.043 A 
ATOM     20  C   UNL     1       4.609   8.089   0.074  1.00  0.00     0.083 A 
ATOM     21  C   UNL     1       3.609   7.780  -0.848  1.00  0.00     0.028 A 
ATOM     22  C   UNL     1       4.714   7.361   1.260  1.00  0.00     0.134 A 
ATOM     23  C   UNL     1       3.825   6.328   1.533  1.00  0.00     0.048 A 
ATOM     24  C   UNL     1       2.823   6.016   0.611  1.00  0.00     0.008 A 
ATOM     25  Cl  UNL     1       5.712   9.371  -0.266  1.00  0.00    -0.080 Cl
BRANCH  22  26
ATOM     26  O   UNL     1       5.684   7.620   2.190  1.00  0.00    -0.506 OA
ATOM     27  H   UNL     1       6.176   8.400   1.872  1.00  0.00     0.293 HD
ENDBRANCH  22  26
ENDBRANCH  18  19
ENDBRANCH  17  18
BRANCH  17  28
ATOM     28  O   UNL     1       1.254   5.687  -3.898  1.00  0.00    -0.383 OA
ATOM     29  H   UNL     1       1.456   4.846  -4.368  1.00  0.00     0.211 HD
ENDBRANCH  17  28
ENDBRANCH  14  17
ENDBRANCH  12  13
BRANCH  12  30
ATOM     30  C   UNL     1       6.376   3.695  -1.822  1.00  0.00     0.018 C 
ATOM     31  C   UNL     1       6.127   2.838  -0.570  1.00  0.00     0.010 C 
BRANCH  30  32
ATOM     32  C   UNL     1       6.523   5.184  -1.426  1.00  0.00     0.002 C 
ATOM     33  C   UNL     1       7.950   5.719  -1.423  1.00  0.00     0.004 C 
ENDBRANCH  30  32
ENDBRANCH  12  30
ENDBRANCH  10  12
ENDBRANCH   1  10
BRANCH   5  34
ATOM     34  C   UNL     1       6.139   0.665  -6.472  1.00  0.00     0.242 C 
ATOM     35  O   UNL     1       6.237  -0.489  -6.890  1.00  0.00    -0.273 OA
ATOM     36  N   UNL     1       7.033   1.654  -6.817  1.00  0.00    -0.354 N 
ATOM     37  H   UNL     1       6.972   2.557  -6.346  1.00  0.00     0.163 HD
BRANCH  36  38
ATOM     38  C   UNL     1       7.987   1.492  -7.895  1.00  0.00     0.116 C 
BRANCH  38  39
ATOM     39  C   UNL     1       9.278   2.236  -7.560  1.00  0.00     0.023 C 
BRANCH  39  40
ATOM     40  C   UNL     1       9.675   3.232  -8.645  1.00  0.00     0.026 C 
BRANCH  40  41
ATOM     41  C   UNL     1       9.917   4.618  -8.047  1.00  0.00     0.146 C 
BRANCH  41  42
ATOM     42  N   UNL     1       8.823   5.509  -8.411  1.00  0.00    -0.254 NA
ATOM     43  C   UNL     1       8.012   5.917  -7.508  1.00  0.00     0.185 C 
ATOM     44  N   UNL     1       7.983   5.657  -6.189  1.00  0.00    -0.370 N 
ATOM     45  N   UNL     1       7.007   6.735  -7.865  1.00  0.00    -0.370 N 
ATOM     46  H   UNL     1       7.156   5.843  -5.647  1.00  0.00     0.159 HD
ATOM     47  H   UNL     1       8.680   5.065  -5.747  1.00  0.00     0.159 HD
ATOM     48  H   UNL     1       6.962   6.988  -8.843  1.00  0.00     0.159 HD
ATOM     49  H   UNL     1       6.486   7.278  -7.201  1.00  0.00     0.159 HD
ENDBRANCH  41  42
ENDBRANCH  40  41
ENDBRANCH  39  40
ENDBRANCH  38  39
ENDBRANCH  36  38
ENDBRANCH   5  34
BRANCH   8  50
ATOM     50  O   UNL     1       4.038   3.861  -9.285  1.00  0.00    -0.245 OA
BRANCH  50  51
ATOM     51  S   UNL     1       4.951   4.746 -10.299  1.00  0.00     0.397 S 
ATOM     52  O   UNL     1       4.843   6.132  -9.903  1.00  0.00    -0.169 OA
ATOM     53  O   UNL     1       4.710   4.325 -11.664  1.00  0.00    -0.169 OA
BRANCH  51  54
ATOM     54  O   UNL     1       6.439   4.290  -9.896  1.00  0.00    -0.264 OA
ATOM     55  H   UNL     1       6.867   3.925 -10.697  1.00  0.00     0.236 HD
ENDBRANCH  51  54
ENDBRANCH  50  51
ENDBRANCH   8  50
TORSDOF 19
ENDMDL
MODEL 38
REMARK VINA RESULT:    -6.005     13.249     17.713
REMARK INTER + INTRA:         -15.709
REMARK INTER:                 -11.598
REMARK INTRA:                  -4.111
REMARK UNBOUND:                -3.560
REMARK SMILES CC[C@@H](C)[C@@H](NC(=O)[C@@H](O)Cc1ccc(O)c(Cl)c1)C(=O)N1[C@H](C(=O)NCCCCN=C(N)N)C[C@H]2CC[C@H](OS(=O)(=O)O)C[C@@H]21
REMARK SMILES IDX 22 1 36 2 46 3 35 4 23 5 45 6 37 7 39 8 38 9 20 10 21 11
REMARK SMILES IDX 5 12 6 13 7 14 8 15 9 17 11 18 12 19 17 20 19 21 15 22 14 23
REMARK SMILES IDX 13 24 18 25 16 26 10 28 3 30 4 31 2 32 1 33 24 34 25 35
REMARK SMILES IDX 26 36 27 38 28 39 29 40 30 41 31 42 32 43 33 44 34 45 40 50
REMARK SMILES IDX 41 51 42 52 43 53 44 54
REMARK H PARENT 6 16 16 27 10 29 26 37 33 46 33 47 34 48 34 49 44 55
ROOT
ATOM      1  N   UNL     1       4.432  10.678   5.054  1.00  0.00    -0.326 N 
ATOM      2  C   UNL     1       5.693  12.461   4.175  1.00  0.00     0.014 C 
ATOM      3  C   UNL     1       5.817  11.146   4.950  1.00  0.00     0.091 C 
ATOM      4  C   UNL     1       4.367  13.018   4.671  1.00  0.00     0.041 C 
ATOM      5  C   UNL     1       3.500  11.747   4.617  1.00  0.00     0.175 C 
ATOM      6  C   UNL     1       6.830  10.256   4.233  1.00  0.00     0.059 C 
ATOM      7  C   UNL     1       6.950  13.295   4.318  1.00  0.00     0.008 C 
ATOM      8  C   UNL     1       7.953  11.042   3.521  1.00  0.00     0.143 C 
ATOM      9  C   UNL     1       8.208  12.412   4.180  1.00  0.00     0.034 C 
ENDROOT
BRANCH   1  10
ATOM     10  C   UNL     1       3.921   9.547   5.668  1.00  0.00     0.246 C 
ATOM     11  O   UNL     1       3.439   8.649   4.969  1.00  0.00    -0.272 OA
BRANCH  10  12
ATOM     12  C   UNL     1       4.002   9.412   7.216  1.00  0.00     0.174 C 
BRANCH  12  13
ATOM     13  N   UNL     1       3.956   8.001   7.597  1.00  0.00    -0.342 N 
ATOM     14  C   UNL     1       4.889   7.364   8.384  1.00  0.00     0.249 C 
ATOM     15  O   UNL     1       5.858   7.924   8.882  1.00  0.00    -0.272 OA
ATOM     16  H   UNL     1       3.300   7.376   7.135  1.00  0.00     0.164 HD
BRANCH  14  17
ATOM     17  C   UNL     1       4.571   5.868   8.592  1.00  0.00     0.207 C 
BRANCH  17  18
ATOM     18  C   UNL     1       3.268   5.701   9.380  1.00  0.00     0.077 C 
BRANCH  18  19
ATOM     19  C   UNL     1       2.131   5.239   8.496  1.00  0.00    -0.043 A 
ATOM     20  C   UNL     1       1.323   4.460   6.346  1.00  0.00     0.083 A 
ATOM     21  C   UNL     1       2.380   4.838   7.174  1.00  0.00     0.028 A 
ATOM     22  C   UNL     1       0.015   4.481   6.830  1.00  0.00     0.134 A 
ATOM     23  C   UNL     1      -0.246   4.876   8.137  1.00  0.00     0.048 A 
ATOM     24  C   UNL     1       0.810   5.257   8.968  1.00  0.00     0.008 A 
ATOM     25  Cl  UNL     1       1.649   3.970   4.725  1.00  0.00    -0.080 Cl
BRANCH  22  26
ATOM     26  O   UNL     1      -1.055   4.128   6.052  1.00  0.00    -0.506 OA
ATOM     27  H   UNL     1      -1.555   4.947   5.876  1.00  0.00     0.293 HD
ENDBRANCH  22  26
ENDBRANCH  18  19
ENDBRANCH  17  18
BRANCH  17  28
ATOM     28  O   UNL     1       5.638   5.204   9.289  1.00  0.00    -0.383 OA
ATOM     29  H   UNL     1       6.299   5.902   9.501  1.00  0.00     0.211 HD
ENDBRANCH  17  28
ENDBRANCH  14  17
ENDBRANCH  12  13
BRANCH  12  30
ATOM     30  C   UNL     1       2.926  10.259   7.949  1.00  0.00     0.018 C 
ATOM     31  C   UNL     1       3.539  11.004   9.145  1.00  0.00     0.010 C 
BRANCH  30  32
ATOM     32  C   UNL     1       1.696   9.439   8.408  1.00  0.00     0.002 C 
ATOM     33  C   UNL     1       1.561   9.253   9.913  1.00  0.00     0.004 C 
ENDBRANCH  30  32
ENDBRANCH  12  30
ENDBRANCH  10  12
ENDBRANCH   1  10
BRANCH   5  34
ATOM     34  C   UNL     1       2.980  11.470   3.181  1.00  0.00     0.242 C 
ATOM     35  O   UNL     1       2.154  12.196   2.629  1.00  0.00    -0.273 OA
ATOM     36  N   UNL     1       3.468  10.325   2.592  1.00  0.00    -0.354 N 
ATOM     37  H   UNL     1       4.056   9.700   3.145  1.00  0.00     0.163 HD
BRANCH  36  38
ATOM     38  C   UNL     1       3.260  10.028   1.190  1.00  0.00     0.116 C 
BRANCH  38  39
ATOM     39  C   UNL     1       4.543   9.464   0.584  1.00  0.00     0.023 C 
BRANCH  39  40
ATOM     40  C   UNL     1       5.219   8.445   1.495  1.00  0.00     0.026 C 
BRANCH  40  41
ATOM     41  C   UNL     1       6.091   7.487   0.684  1.00  0.00     0.146 C 
BRANCH  41  42
ATOM     42  N   UNL     1       7.415   8.065   0.496  1.00  0.00    -0.254 NA
ATOM     43  C   UNL     1       8.411   7.589   1.144  1.00  0.00     0.185 C 
ATOM     44  N   UNL     1       8.464   6.578   2.031  1.00  0.00    -0.370 N 
ATOM     45  N   UNL     1       9.623   8.139   0.959  1.00  0.00    -0.370 N 
ATOM     46  H   UNL     1       9.257   6.472   2.641  1.00  0.00     0.159 HD
ATOM     47  H   UNL     1       7.638   6.042   2.278  1.00  0.00     0.159 HD
ATOM     48  H   UNL     1       9.673   8.902   0.299  1.00  0.00     0.159 HD
ATOM     49  H   UNL     1      10.475   7.684   1.237  1.00  0.00     0.159 HD
ENDBRANCH  41  42
ENDBRANCH  40  41
ENDBRANCH  39  40
ENDBRANCH  38  39
ENDBRANCH  36  38
ENDBRANCH   5  34
BRANCH   8  50
ATOM     50  O   UNL     1       7.610  11.254   2.151  1.00  0.00    -0.245 OA
BRANCH  50  51
ATOM     51  S   UNL     1       8.770  11.659   1.086  1.00  0.00     0.397 S 
ATOM     52  O   UNL     1      10.007  11.049   1.520  1.00  0.00    -0.169 OA
ATOM     53  O   UNL     1       8.685  13.074   0.788  1.00  0.00    -0.169 OA
BRANCH  51  54
ATOM     54  O   UNL     1       8.319  10.848  -0.227  1.00  0.00    -0.264 OA
ATOM     55  H   UNL     1       9.126  10.640  -0.741  1.00  0.00     0.236 HD
ENDBRANCH  51  54
ENDBRANCH  50  51
ENDBRANCH   8  50
TORSDOF 19
ENDMDL
MODEL 39
REMARK VINA RESULT:    -6.005      8.121     11.038
REMARK INTER + INTRA:         -15.708
REMARK INTER:                 -13.149
REMARK INTRA:                  -2.559
REMARK UNBOUND:                -3.560
REMARK SMILES CC[C@@H](C)[C@@H](NC(=O)[C@@H](O)Cc1ccc(O)c(Cl)c1)C(=O)N1[C@H](C(=O)NCCCCN=C(N)N)C[C@H]2CC[C@H](OS(=O)(=O)O)C[C@@H]21
REMARK SMILES IDX 22 1 36 2 46 3 35 4 23 5 45 6 37 7 39 8 38 9 20 10 21 11
REMARK SMILES IDX 5 12 6 13 7 14 8 15 9 17 11 18 12 19 17 20 19 21 15 22 14 23
REMARK SMILES IDX 13 24 18 25 16 26 10 28 3 30 4 31 2 32 1 33 24 34 25 35
REMARK SMILES IDX 26 36 27 38 28 39 29 40 30 41 31 42 32 43 33 44 34 45 40 50
REMARK SMILES IDX 41 51 42 52 43 53 44 54
REMARK H PARENT 6 16 16 27 10 29 26 37 33 46 33 47 34 48 34 49 44 55
ROOT
ATOM      1  N   UNL     1      -3.083   1.911   1.896  1.00  0.00    -0.326 N 
ATOM      2  C   UNL     1      -4.217   2.377  -0.114  1.00  0.00     0.014 C 
ATOM      3  C   UNL     1      -4.430   2.193   1.391  1.00  0.00     0.091 C 
ATOM      4  C   UNL     1      -3.103   1.388  -0.418  1.00  0.00     0.041 C 
ATOM      5  C   UNL     1      -2.156   1.673   0.762  1.00  0.00     0.175 C 
ATOM      6  C   UNL     1      -5.162   3.421   1.929  1.00  0.00     0.059 C 
ATOM      7  C   UNL     1      -5.530   2.272  -0.864  1.00  0.00     0.008 C 
ATOM      8  C   UNL     1      -6.129   4.064   0.911  1.00  0.00     0.143 C 
ATOM      9  C   UNL     1      -6.643   3.043  -0.124  1.00  0.00     0.034 C 
ENDROOT
BRANCH   1  10
ATOM     10  C   UNL     1      -2.656   1.640   3.185  1.00  0.00     0.246 C 
ATOM     11  O   UNL     1      -2.259   2.570   3.894  1.00  0.00    -0.272 OA
BRANCH  10  12
ATOM     12  C   UNL     1      -2.727   0.182   3.725  1.00  0.00     0.174 C 
BRANCH  12  13
ATOM     13  N   UNL     1      -2.836  -0.758   2.610  1.00  0.00    -0.342 N 
ATOM     14  C   UNL     1      -1.775  -1.398   2.009  1.00  0.00     0.249 C 
ATOM     15  O   UNL     1      -0.610  -1.269   2.366  1.00  0.00    -0.272 OA
ATOM     16  H   UNL     1      -3.716  -0.845   2.108  1.00  0.00     0.164 HD
BRANCH  14  17
ATOM     17  C   UNL     1      -2.213  -2.315   0.848  1.00  0.00     0.207 C 
BRANCH  17  18
ATOM     18  C   UNL     1      -1.902  -3.779   1.175  1.00  0.00     0.077 C 
BRANCH  18  19
ATOM     19  C   UNL     1      -3.129  -4.655   1.057  1.00  0.00    -0.043 A 
ATOM     20  C   UNL     1      -4.908  -5.611  -0.287  1.00  0.00     0.083 A 
ATOM     21  C   UNL     1      -3.747  -4.843  -0.190  1.00  0.00     0.028 A 
ATOM     22  C   UNL     1      -5.459  -6.193   0.856  1.00  0.00     0.134 A 
ATOM     23  C   UNL     1      -4.857  -6.014   2.096  1.00  0.00     0.048 A 
ATOM     24  C   UNL     1      -3.696  -5.244   2.197  1.00  0.00     0.008 A 
ATOM     25  Cl  UNL     1      -5.653  -5.832  -1.827  1.00  0.00    -0.080 Cl
BRANCH  22  26
ATOM     26  O   UNL     1      -6.601  -6.945   0.811  1.00  0.00    -0.506 OA
ATOM     27  H   UNL     1      -6.327  -7.860   0.616  1.00  0.00     0.293 HD
ENDBRANCH  22  26
ENDBRANCH  18  19
ENDBRANCH  17  18
BRANCH  17  28
ATOM     28  O   UNL     1      -1.555  -1.950  -0.376  1.00  0.00    -0.383 OA
ATOM     29  H   UNL     1      -0.628  -1.727  -0.130  1.00  0.00     0.211 HD
ENDBRANCH  17  28
ENDBRANCH  14  17
ENDBRANCH  12  13
BRANCH  12  30
ATOM     30  C   UNL     1      -3.852  -0.014   4.777  1.00  0.00     0.018 C 
ATOM     31  C   UNL     1      -5.230   0.282   4.165  1.00  0.00     0.010 C 
BRANCH  30  32
ATOM     32  C   UNL     1      -3.651   0.822   6.065  1.00  0.00     0.002 C 
ATOM     33  C   UNL     1      -4.787   1.777   6.405  1.00  0.00     0.004 C 
ENDBRANCH  30  32
ENDBRANCH  12  30
ENDBRANCH  10  12
ENDBRANCH   1  10
BRANCH   5  34
ATOM     34  C   UNL     1      -1.275   2.924   0.499  1.00  0.00     0.242 C 
ATOM     35  O   UNL     1      -1.433   3.644  -0.486  1.00  0.00    -0.273 OA
ATOM     36  N   UNL     1      -0.272   3.137   1.418  1.00  0.00    -0.354 N 
ATOM     37  H   UNL     1      -0.115   2.438   2.145  1.00  0.00     0.163 HD
BRANCH  36  38
ATOM     38  C   UNL     1       0.500   4.362   1.450  1.00  0.00     0.116 C 
BRANCH  38  39
ATOM     39  C   UNL     1       0.087   5.203   2.655  1.00  0.00     0.023 C 
BRANCH  39  40
ATOM     40  C   UNL     1       0.388   4.510   3.980  1.00  0.00     0.026 C 
BRANCH  40  41
ATOM     41  C   UNL     1       0.088   5.438   5.157  1.00  0.00     0.146 C 
BRANCH  41  42
ATOM     42  N   UNL     1      -0.231   4.647   6.339  1.00  0.00    -0.254 NA
ATOM     43  C   UNL     1      -1.454   4.481   6.678  1.00  0.00     0.185 C 
ATOM     44  N   UNL     1      -2.581   4.934   6.101  1.00  0.00    -0.370 N 
ATOM     45  N   UNL     1      -1.726   3.752   7.773  1.00  0.00    -0.370 N 
ATOM     46  H   UNL     1      -3.451   4.934   6.605  1.00  0.00     0.159 HD
ATOM     47  H   UNL     1      -2.559   5.492   5.253  1.00  0.00     0.159 HD
ATOM     48  H   UNL     1      -0.932   3.365   8.263  1.00  0.00     0.159 HD
ATOM     49  H   UNL     1      -2.640   3.382   7.966  1.00  0.00     0.159 HD
ENDBRANCH  41  42
ENDBRANCH  40  41
ENDBRANCH  39  40
ENDBRANCH  38  39
ENDBRANCH  36  38
ENDBRANCH   5  34
BRANCH   8  50
ATOM     50  O   UNL     1      -5.473   5.124   0.214  1.00  0.00    -0.245 OA
BRANCH  50  51
ATOM     51  S   UNL     1      -6.143   6.605   0.191  1.00  0.00     0.397 S 
ATOM     52  O   UNL     1      -7.406   6.513  -0.507  1.00  0.00    -0.169 OA
ATOM     53  O   UNL     1      -5.143   7.586  -0.174  1.00  0.00    -0.169 OA
BRANCH  51  54
ATOM     54  O   UNL     1      -6.515   6.830   1.740  1.00  0.00    -0.264 OA
ATOM     55  H   UNL     1      -6.033   7.623   2.050  1.00  0.00     0.236 HD
ENDBRANCH  51  54
ENDBRANCH  50  51
ENDBRANCH   8  50
TORSDOF 19
ENDMDL
MODEL 40
REMARK VINA RESULT:    -5.986     12.814     17.592
REMARK INTER + INTRA:         -15.669
REMARK INTER:                 -11.878
REMARK INTRA:                  -3.791
REMARK UNBOUND:                -3.560
REMARK SMILES CC[C@@H](C)[C@@H](NC(=O)[C@@H](O)Cc1ccc(O)c(Cl)c1)C(=O)N1[C@H](C(=O)NCCCCN=C(N)N)C[C@H]2CC[C@H](OS(=O)(=O)O)C[C@@H]21
REMARK SMILES IDX 22 1 36 2 46 3 35 4 23 5 45 6 37 7 39 8 38 9 20 10 21 11
REMARK SMILES IDX 5 12 6 13 7 14 8 15 9 17 11 18 12 19 17 20 19 21 15 22 14 23
REMARK SMILES IDX 13 24 18 25 16 26 10 28 3 30 4 31 2 32 1 33 24 34 25 35
REMARK SMILES IDX 26 36 27 38 28 39 29 40 30 41 31 42 32 43 33 44 34 45 40 50
REMARK SMILES IDX 41 51 42 52 43 53 44 54
REMARK H PARENT 6 16 16 27 10 29 26 37 33 46 33 47 34 48 34 49 44 55
ROOT
ATOM      1  N   UNL     1       5.160   8.753   4.175  1.00  0.00    -0.326 N 
ATOM      2  C   UNL     1       5.527  11.043   4.578  1.00  0.00     0.014 C 
ATOM      3  C   UNL     1       6.240   9.690   4.497  1.00  0.00     0.091 C 
ATOM      4  C   UNL     1       4.170  10.673   5.156  1.00  0.00     0.041 C 
ATOM      5  C   UNL     1       3.845   9.427   4.311  1.00  0.00     0.175 C 
ATOM      6  C   UNL     1       7.406   9.816   3.518  1.00  0.00     0.059 C 
ATOM      7  C   UNL     1       6.387  12.066   5.294  1.00  0.00     0.008 C 
ATOM      8  C   UNL     1       8.043  11.222   3.488  1.00  0.00     0.143 C 
ATOM      9  C   UNL     1       7.853  11.973   4.821  1.00  0.00     0.034 C 
ENDROOT
BRANCH   1  10
ATOM     10  C   UNL     1       5.199   7.381   3.997  1.00  0.00     0.246 C 
ATOM     11  O   UNL     1       5.457   6.927   2.877  1.00  0.00    -0.272 OA
BRANCH  10  12
ATOM     12  C   UNL     1       4.961   6.442   5.215  1.00  0.00     0.174 C 
BRANCH  12  13
ATOM     13  N   UNL     1       3.527   6.228   5.407  1.00  0.00    -0.342 N 
ATOM     14  C   UNL     1       2.882   5.020   5.267  1.00  0.00     0.249 C 
ATOM     15  O   UNL     1       3.451   3.971   4.990  1.00  0.00    -0.272 OA
ATOM     16  H   UNL     1       2.905   7.029   5.485  1.00  0.00     0.164 HD
BRANCH  14  17
ATOM     17  C   UNL     1       1.363   5.123   5.519  1.00  0.00     0.207 C 
BRANCH  17  18
ATOM     18  C   UNL     1       1.009   4.557   6.898  1.00  0.00     0.077 C 
BRANCH  18  19
ATOM     19  C   UNL     1       1.444   5.481   8.013  1.00  0.00    -0.043 A 
ATOM     20  C   UNL     1       3.010   6.061   9.772  1.00  0.00     0.083 A 
ATOM     21  C   UNL     1       2.636   5.235   8.711  1.00  0.00     0.028 A 
ATOM     22  C   UNL     1       2.197   7.133  10.142  1.00  0.00     0.134 A 
ATOM     23  C   UNL     1       1.013   7.387   9.459  1.00  0.00     0.048 A 
ATOM     24  C   UNL     1       0.636   6.561   8.398  1.00  0.00     0.008 A 
ATOM     25  Cl  UNL     1       4.479   5.744  10.618  1.00  0.00    -0.080 Cl
BRANCH  22  26
ATOM     26  O   UNL     1       2.516   7.963  11.182  1.00  0.00    -0.506 OA
ATOM     27  H   UNL     1       3.486   8.061  11.175  1.00  0.00     0.293 HD
ENDBRANCH  22  26
ENDBRANCH  18  19
ENDBRANCH  17  18
BRANCH  17  28
ATOM     28  O   UNL     1       0.623   4.417   4.509  1.00  0.00    -0.383 OA
ATOM     29  H   UNL     1       1.211   4.372   3.722  1.00  0.00     0.211 HD
ENDBRANCH  17  28
ENDBRANCH  14  17
ENDBRANCH  12  13
BRANCH  12  30
ATOM     30  C   UNL     1       5.663   6.943   6.505  1.00  0.00     0.018 C 
ATOM     31  C   UNL     1       6.197   5.763   7.331  1.00  0.00     0.010 C 
BRANCH  30  32
ATOM     32  C   UNL     1       4.769   7.848   7.388  1.00  0.00     0.002 C 
ATOM     33  C   UNL     1       5.508   8.667   8.438  1.00  0.00     0.004 C 
ENDBRANCH  30  32
ENDBRANCH  12  30
ENDBRANCH  10  12
ENDBRANCH   1  10
BRANCH   5  34
ATOM     34  C   UNL     1       3.277   9.812   2.919  1.00  0.00     0.242 C 
ATOM     35  O   UNL     1       2.491  10.746   2.765  1.00  0.00    -0.273 OA
ATOM     36  N   UNL     1       3.674   9.000   1.880  1.00  0.00    -0.354 N 
ATOM     37  H   UNL     1       4.230   8.171   2.089  1.00  0.00     0.163 HD
BRANCH  36  38
ATOM     38  C   UNL     1       3.417   9.337   0.495  1.00  0.00     0.116 C 
BRANCH  38  39
ATOM     39  C   UNL     1       3.876   8.195  -0.409  1.00  0.00     0.023 C 
BRANCH  39  40
ATOM     40  C   UNL     1       2.857   7.063  -0.482  1.00  0.00     0.026 C 
BRANCH  40  41
ATOM     41  C   UNL     1       3.524   5.761  -0.923  1.00  0.00     0.146 C 
BRANCH  41  42
ATOM     42  N   UNL     1       4.352   5.240   0.157  1.00  0.00    -0.254 NA
ATOM     43  C   UNL     1       5.599   5.036  -0.043  1.00  0.00     0.185 C 
ATOM     44  N   UNL     1       6.342   5.230  -1.148  1.00  0.00    -0.370 N 
ATOM     45  N   UNL     1       6.344   4.551   0.965  1.00  0.00    -0.370 N 
ATOM     46  H   UNL     1       7.247   4.801  -1.240  1.00  0.00     0.159 HD
ATOM     47  H   UNL     1       5.939   5.605  -2.001  1.00  0.00     0.159 HD
ATOM     48  H   UNL     1       5.862   4.385   1.838  1.00  0.00     0.159 HD
ATOM     49  H   UNL     1       7.348   4.589   0.966  1.00  0.00     0.159 HD
ENDBRANCH  41  42
ENDBRANCH  40  41
ENDBRANCH  39  40
ENDBRANCH  38  39
ENDBRANCH  36  38
ENDBRANCH   5  34
BRANCH   8  50
ATOM     50  O   UNL     1       7.463  12.001   2.442  1.00  0.00    -0.245 OA
BRANCH  50  51
ATOM     51  S   UNL     1       8.311  12.277   1.081  1.00  0.00     0.397 S 
ATOM     52  O   UNL     1       8.093  13.652   0.691  1.00  0.00    -0.169 OA
ATOM     53  O   UNL     1       8.111  11.183   0.154  1.00  0.00    -0.169 OA
BRANCH  51  54
ATOM     54  O   UNL     1       9.828  12.207   1.611  1.00  0.00    -0.264 OA
ATOM     55  H   UNL     1       9.826  11.714   2.457  1.00  0.00     0.236 HD
ENDBRANCH  51  54
ENDBRANCH  50  51
ENDBRANCH   8  50
TORSDOF 19
ENDMDL
MODEL 41
REMARK VINA RESULT:    -5.984      9.758     14.607
REMARK INTER + INTRA:         -15.667
REMARK INTER:                 -13.623
REMARK INTRA:                  -2.044
REMARK UNBOUND:                -3.560
REMARK SMILES CC[C@@H](C)[C@@H](NC(=O)[C@@H](O)Cc1ccc(O)c(Cl)c1)C(=O)N1[C@H](C(=O)NCCCCN=C(N)N)C[C@H]2CC[C@H](OS(=O)(=O)O)C[C@@H]21
REMARK SMILES IDX 22 1 36 2 46 3 35 4 23 5 45 6 37 7 39 8 38 9 20 10 21 11
REMARK SMILES IDX 5 12 6 13 7 14 8 15 9 17 11 18 12 19 17 20 19 21 15 22 14 23
REMARK SMILES IDX 13 24 18 25 16 26 10 28 3 30 4 31 2 32 1 33 24 34 25 35
REMARK SMILES IDX 26 36 27 38 28 39 29 40 30 41 31 42 32 43 33 44 34 45 40 50
REMARK SMILES IDX 41 51 42 52 43 53 44 54
REMARK H PARENT 6 16 16 27 10 29 26 37 33 46 33 47 34 48 34 49 44 55
ROOT
ATOM      1  N   UNL     1      -3.471  -1.393   1.150  1.00  0.00    -0.326 N 
ATOM      2  C   UNL     1      -2.986  -3.696   1.084  1.00  0.00     0.014 C 
ATOM      3  C   UNL     1      -3.945  -2.669   1.694  1.00  0.00     0.091 C 
ATOM      4  C   UNL     1      -1.671  -2.934   1.027  1.00  0.00     0.041 C 
ATOM      5  C   UNL     1      -2.163  -1.583   0.475  1.00  0.00     0.175 C 
ATOM      6  C   UNL     1      -5.377  -3.101   1.385  1.00  0.00     0.059 C 
ATOM      7  C   UNL     1      -3.051  -5.011   1.836  1.00  0.00     0.008 C 
ATOM      8  C   UNL     1      -5.560  -4.632   1.305  1.00  0.00     0.143 C 
ATOM      9  C   UNL     1      -4.514  -5.386   2.151  1.00  0.00     0.034 C 
ENDROOT
BRANCH   1  10
ATOM     10  C   UNL     1      -3.939  -0.108   1.365  1.00  0.00     0.246 C 
ATOM     11  O   UNL     1      -4.864   0.320   0.667  1.00  0.00    -0.272 OA
BRANCH  10  12
ATOM     12  C   UNL     1      -3.321   0.752   2.506  1.00  0.00     0.174 C 
BRANCH  12  13
ATOM     13  N   UNL     1      -3.509   2.174   2.216  1.00  0.00    -0.342 N 
ATOM     14  C   UNL     1      -3.931   3.117   3.126  1.00  0.00     0.249 C 
ATOM     15  O   UNL     1      -4.173   2.870   4.301  1.00  0.00    -0.272 OA
ATOM     16  H   UNL     1      -3.499   2.497   1.252  1.00  0.00     0.164 HD
BRANCH  14  17
ATOM     17  C   UNL     1      -4.049   4.527   2.511  1.00  0.00     0.207 C 
BRANCH  17  18
ATOM     18  C   UNL     1      -3.702   4.492   1.019  1.00  0.00     0.077 C 
BRANCH  18  19
ATOM     19  C   UNL     1      -4.829   5.031   0.167  1.00  0.00    -0.043 A 
ATOM     20  C   UNL     1      -5.899   5.275  -1.996  1.00  0.00     0.083 A 
ATOM     21  C   UNL     1      -4.885   4.735  -1.204  1.00  0.00     0.028 A 
ATOM     22  C   UNL     1      -6.859   6.113  -1.427  1.00  0.00     0.134 A 
ATOM     23  C   UNL     1      -6.816   6.414  -0.071  1.00  0.00     0.048 A 
ATOM     24  C   UNL     1      -5.801   5.876   0.724  1.00  0.00     0.008 A 
ATOM     25  Cl  UNL     1      -5.951   4.900  -3.679  1.00  0.00    -0.080 Cl
BRANCH  22  26
ATOM     26  O   UNL     1      -7.865   6.674  -2.166  1.00  0.00    -0.506 OA
ATOM     27  H   UNL     1      -7.443   7.104  -2.933  1.00  0.00     0.293 HD
ENDBRANCH  22  26
ENDBRANCH  18  19
ENDBRANCH  17  18
BRANCH  17  28
ATOM     28  O   UNL     1      -3.181   5.457   3.179  1.00  0.00    -0.383 OA
ATOM     29  H   UNL     1      -3.317   6.324   2.734  1.00  0.00     0.211 HD
ENDBRANCH  17  28
ENDBRANCH  14  17
ENDBRANCH  12  13
BRANCH  12  30
ATOM     30  C   UNL     1      -1.837   0.397   2.789  1.00  0.00     0.018 C 
ATOM     31  C   UNL     1      -1.638   0.017   4.264  1.00  0.00     0.010 C 
BRANCH  30  32
ATOM     32  C   UNL     1      -0.843   1.514   2.388  1.00  0.00     0.002 C 
ATOM     33  C   UNL     1      -0.433   1.526   0.921  1.00  0.00     0.004 C 
ENDBRANCH  30  32
ENDBRANCH  12  30
ENDBRANCH  10  12
ENDBRANCH   1  10
BRANCH   5  34
ATOM     34  C   UNL     1      -2.341  -1.625  -1.066  1.00  0.00     0.242 C 
ATOM     35  O   UNL     1      -3.316  -2.152  -1.602  1.00  0.00    -0.273 OA
ATOM     36  N   UNL     1      -1.305  -1.079  -1.790  1.00  0.00    -0.354 N 
ATOM     37  H   UNL     1      -0.470  -0.766  -1.294  1.00  0.00     0.163 HD
BRANCH  36  38
ATOM     38  C   UNL     1      -1.399  -0.840  -3.216  1.00  0.00     0.116 C 
BRANCH  38  39
ATOM     39  C   UNL     1      -0.273  -1.572  -3.940  1.00  0.00     0.023 C 
BRANCH  39  40
ATOM     40  C   UNL     1      -0.695  -2.954  -4.427  1.00  0.00     0.026 C 
BRANCH  40  41
ATOM     41  C   UNL     1       0.389  -3.572  -5.310  1.00  0.00     0.146 C 
BRANCH  41  42
ATOM     42  N   UNL     1       1.384  -4.235  -4.478  1.00  0.00    -0.254 NA
ATOM     43  C   UNL     1       1.306  -5.498  -4.282  1.00  0.00     0.185 C 
ATOM     44  N   UNL     1       0.408  -6.391  -4.738  1.00  0.00    -0.370 N 
ATOM     45  N   UNL     1       2.230  -6.090  -3.507  1.00  0.00    -0.370 N 
ATOM     46  H   UNL     1       0.324  -7.297  -4.311  1.00  0.00     0.159 HD
ATOM     47  H   UNL     1      -0.354  -6.115  -5.350  1.00  0.00     0.159 HD
ATOM     48  H   UNL     1       2.950  -5.488  -3.130  1.00  0.00     0.159 HD
ATOM     49  H   UNL     1       2.377  -7.083  -3.499  1.00  0.00     0.159 HD
ENDBRANCH  41  42
ENDBRANCH  40  41
ENDBRANCH  39  40
ENDBRANCH  38  39
ENDBRANCH  36  38
ENDBRANCH   5  34
BRANCH   8  50
ATOM     50  O   UNL     1      -5.447  -5.069  -0.050  1.00  0.00    -0.245 OA
BRANCH  50  51
ATOM     51  S   UNL     1      -6.281  -6.375  -0.544  1.00  0.00     0.397 S 
ATOM     52  O   UNL     1      -6.332  -6.352  -1.989  1.00  0.00    -0.169 OA
ATOM     53  O   UNL     1      -7.479  -6.519   0.256  1.00  0.00    -0.169 OA
BRANCH  51  54
ATOM     54  O   UNL     1      -5.282  -7.576  -0.161  1.00  0.00    -0.264 OA
ATOM     55  H   UNL     1      -5.797  -8.247   0.331  1.00  0.00     0.236 HD
ENDBRANCH  51  54
ENDBRANCH  50  51
ENDBRANCH   8  50
TORSDOF 19
ENDMDL
MODEL 42
REMARK VINA RESULT:    -5.935     18.420     22.641
REMARK INTER + INTRA:         -15.568
REMARK INTER:                 -11.224
REMARK INTRA:                  -4.343
REMARK UNBOUND:                -3.560
REMARK SMILES CC[C@@H](C)[C@@H](NC(=O)[C@@H](O)Cc1ccc(O)c(Cl)c1)C(=O)N1[C@H](C(=O)NCCCCN=C(N)N)C[C@H]2CC[C@H](OS(=O)(=O)O)C[C@@H]21
REMARK SMILES IDX 22 1 36 2 46 3 35 4 23 5 45 6 37 7 39 8 38 9 20 10 21 11
REMARK SMILES IDX 5 12 6 13 7 14 8 15 9 17 11 18 12 19 17 20 19 21 15 22 14 23
REMARK SMILES IDX 13 24 18 25 16 26 10 28 3 30 4 31 2 32 1 33 24 34 25 35
REMARK SMILES IDX 26 36 27 38 28 39 29 40 30 41 31 42 32 43 33 44 34 45 40 50
REMARK SMILES IDX 41 51 42 52 43 53 44 54
REMARK H PARENT 6 16 16 27 10 29 26 37 33 46 33 47 34 48 34 49 44 55
ROOT
ATOM      1  N   UNL     1       4.578   2.513  -7.922  1.00  0.00    -0.326 N 
ATOM      2  C   UNL     1       5.289   4.062  -6.298  1.00  0.00     0.014 C 
ATOM      3  C   UNL     1       4.615   2.698  -6.468  1.00  0.00     0.091 C 
ATOM      4  C   UNL     1       4.782   4.839  -7.502  1.00  0.00     0.041 C 
ATOM      5  C   UNL     1       4.952   3.777  -8.604  1.00  0.00     0.175 C 
ATOM      6  C   UNL     1       5.376   1.674  -5.627  1.00  0.00     0.059 C 
ATOM      7  C   UNL     1       5.055   4.612  -4.905  1.00  0.00     0.008 C 
ATOM      8  C   UNL     1       6.001   2.265  -4.345  1.00  0.00     0.143 C 
ATOM      9  C   UNL     1       5.233   3.505  -3.845  1.00  0.00     0.034 C 
ENDROOT
BRANCH   1  10
ATOM     10  C   UNL     1       4.063   1.469  -8.671  1.00  0.00     0.246 C 
ATOM     11  O   UNL     1       4.807   0.535  -8.990  1.00  0.00    -0.272 OA
BRANCH  10  12
ATOM     12  C   UNL     1       2.556   1.471  -9.057  1.00  0.00     0.174 C 
BRANCH  12  13
ATOM     13  N   UNL     1       1.925   2.706  -8.594  1.00  0.00    -0.342 N 
ATOM     14  C   UNL     1       1.135   3.528  -9.367  1.00  0.00     0.249 C 
ATOM     15  O   UNL     1       0.849   3.297 -10.535  1.00  0.00    -0.272 OA
ATOM     16  H   UNL     1       2.197   3.107  -7.700  1.00  0.00     0.164 HD
BRANCH  14  17
ATOM     17  C   UNL     1       0.630   4.766  -8.596  1.00  0.00     0.207 C 
BRANCH  17  18
ATOM     18  C   UNL     1      -0.259   4.341  -7.423  1.00  0.00     0.077 C 
BRANCH  18  19
ATOM     19  C   UNL     1       0.345   4.725  -6.092  1.00  0.00    -0.043 A 
ATOM     20  C   UNL     1       0.940   6.422  -4.464  1.00  0.00     0.083 A 
ATOM     21  C   UNL     1       0.338   6.064  -5.670  1.00  0.00     0.028 A 
ATOM     22  C   UNL     1       1.553   5.450  -3.673  1.00  0.00     0.134 A 
ATOM     23  C   UNL     1       1.567   4.120  -4.078  1.00  0.00     0.048 A 
ATOM     24  C   UNL     1       0.967   3.758  -5.286  1.00  0.00     0.008 A 
ATOM     25  Cl  UNL     1       0.921   8.073  -3.964  1.00  0.00    -0.080 Cl
BRANCH  22  26
ATOM     26  O   UNL     1       2.165   5.755  -2.488  1.00  0.00    -0.506 OA
ATOM     27  H   UNL     1       2.851   6.418  -2.689  1.00  0.00     0.293 HD
ENDBRANCH  22  26
ENDBRANCH  18  19
ENDBRANCH  17  18
BRANCH  17  28
ATOM     28  O   UNL     1      -0.108   5.647  -9.458  1.00  0.00    -0.383 OA
ATOM     29  H   UNL     1      -0.399   6.399  -8.894  1.00  0.00     0.211 HD
ENDBRANCH  17  28
ENDBRANCH  14  17
ENDBRANCH  12  13
BRANCH  12  30
ATOM     30  C   UNL     1       1.808   0.203  -8.564  1.00  0.00     0.018 C 
ATOM     31  C   UNL     1       0.802  -0.283  -9.619  1.00  0.00     0.010 C 
BRANCH  30  32
ATOM     32  C   UNL     1       1.101   0.390  -7.200  1.00  0.00     0.002 C 
ATOM     33  C   UNL     1       1.958   0.097  -5.976  1.00  0.00     0.004 C 
ENDBRANCH  30  32
ENDBRANCH  12  30
ENDBRANCH  10  12
ENDBRANCH   1  10
BRANCH   5  34
ATOM     34  C   UNL     1       6.416   3.713  -9.115  1.00  0.00     0.242 C 
ATOM     35  O   UNL     1       7.032   4.717  -9.472  1.00  0.00    -0.273 OA
ATOM     36  N   UNL     1       6.954   2.448  -9.193  1.00  0.00    -0.354 N 
ATOM     37  H   UNL     1       6.355   1.646  -8.998  1.00  0.00     0.163 HD
BRANCH  36  38
ATOM     38  C   UNL     1       8.363   2.222  -9.440  1.00  0.00     0.116 C 
BRANCH  38  39
ATOM     39  C   UNL     1       9.018   1.621  -8.199  1.00  0.00     0.023 C 
BRANCH  39  40
ATOM     40  C   UNL     1       8.944   2.552  -6.993  1.00  0.00     0.026 C 
BRANCH  40  41
ATOM     41  C   UNL     1       9.987   3.664  -7.102  1.00  0.00     0.146 C 
BRANCH  41  42
ATOM     42  N   UNL     1       9.348   4.896  -7.546  1.00  0.00    -0.254 NA
ATOM     43  C   UNL     1       8.732   5.631  -6.698  1.00  0.00     0.185 C 
ATOM     44  N   UNL     1       8.555   5.463  -5.375  1.00  0.00    -0.370 N 
ATOM     45  N   UNL     1       8.146   6.761  -7.128  1.00  0.00    -0.370 N 
ATOM     46  H   UNL     1       7.850   5.984  -4.881  1.00  0.00     0.159 HD
ATOM     47  H   UNL     1       8.945   4.665  -4.882  1.00  0.00     0.159 HD
ATOM     48  H   UNL     1       8.240   6.967  -8.113  1.00  0.00     0.159 HD
ATOM     49  H   UNL     1       7.857   7.495  -6.506  1.00  0.00     0.159 HD
ENDBRANCH  41  42
ENDBRANCH  40  41
ENDBRANCH  39  40
ENDBRANCH  38  39
ENDBRANCH  36  38
ENDBRANCH   5  34
BRANCH   8  50
ATOM     50  O   UNL     1       7.358   2.638  -4.588  1.00  0.00    -0.245 OA
BRANCH  50  51
ATOM     51  S   UNL     1       8.432   2.601  -3.367  1.00  0.00     0.397 S 
ATOM     52  O   UNL     1       8.553   3.941  -2.838  1.00  0.00    -0.169 OA
ATOM     53  O   UNL     1       9.593   1.833  -3.764  1.00  0.00    -0.169 OA
BRANCH  51  54
ATOM     54  O   UNL     1       7.640   1.759  -2.249  1.00  0.00    -0.264 OA
ATOM     55  H   UNL     1       8.156   1.806  -1.418  1.00  0.00     0.236 HD
ENDBRANCH  51  54
ENDBRANCH  50  51
ENDBRANCH   8  50
TORSDOF 19
ENDMDL
MODEL 43
REMARK VINA RESULT:    -5.927     13.006     17.556
REMARK INTER + INTRA:         -15.550
REMARK INTER:                 -11.950
REMARK INTRA:                  -3.600
REMARK UNBOUND:                -3.560
REMARK SMILES CC[C@@H](C)[C@@H](NC(=O)[C@@H](O)Cc1ccc(O)c(Cl)c1)C(=O)N1[C@H](C(=O)NCCCCN=C(N)N)C[C@H]2CC[C@H](OS(=O)(=O)O)C[C@@H]21
REMARK SMILES IDX 22 1 36 2 46 3 35 4 23 5 45 6 37 7 39 8 38 9 20 10 21 11
REMARK SMILES IDX 5 12 6 13 7 14 8 15 9 17 11 18 12 19 17 20 19 21 15 22 14 23
REMARK SMILES IDX 13 24 18 25 16 26 10 28 3 30 4 31 2 32 1 33 24 34 25 35
REMARK SMILES IDX 26 36 27 38 28 39 29 40 30 41 31 42 32 43 33 44 34 45 40 50
REMARK SMILES IDX 41 51 42 52 43 53 44 54
REMARK H PARENT 6 16 16 27 10 29 26 37 33 46 33 47 34 48 34 49 44 55
ROOT
ATOM      1  N   UNL     1       4.933   9.615   4.436  1.00  0.00    -0.326 N 
ATOM      2  C   UNL     1       5.187  11.952   4.317  1.00  0.00     0.014 C 
ATOM      3  C   UNL     1       5.924  10.664   4.691  1.00  0.00     0.091 C 
ATOM      4  C   UNL     1       3.755  11.653   4.735  1.00  0.00     0.041 C 
ATOM      5  C   UNL     1       3.604  10.224   4.181  1.00  0.00     0.175 C 
ATOM      6  C   UNL     1       7.241  10.619   3.919  1.00  0.00     0.059 C 
ATOM      7  C   UNL     1       5.890  13.166   4.891  1.00  0.00     0.008 C 
ATOM      8  C   UNL     1       7.852  12.012   3.650  1.00  0.00     0.143 C 
ATOM      9  C   UNL     1       7.418  13.048   4.707  1.00  0.00     0.034 C 
ENDROOT
BRANCH   1  10
ATOM     10  C   UNL     1       5.025   8.245   4.610  1.00  0.00     0.246 C 
ATOM     11  O   UNL     1       5.384   7.540   3.661  1.00  0.00    -0.272 OA
BRANCH  10  12
ATOM     12  C   UNL     1       4.717   7.627   6.005  1.00  0.00     0.174 C 
BRANCH  12  13
ATOM     13  N   UNL     1       3.621   6.665   5.894  1.00  0.00    -0.342 N 
ATOM     14  C   UNL     1       3.666   5.361   6.335  1.00  0.00     0.249 C 
ATOM     15  O   UNL     1       4.632   4.866   6.901  1.00  0.00    -0.272 OA
ATOM     16  H   UNL     1       2.817   6.883   5.310  1.00  0.00     0.164 HD
BRANCH  14  17
ATOM     17  C   UNL     1       2.356   4.593   6.057  1.00  0.00     0.207 C 
BRANCH  17  18
ATOM     18  C   UNL     1       1.427   5.423   5.165  1.00  0.00     0.077 C 
BRANCH  18  19
ATOM     19  C   UNL     1       0.964   4.642   3.956  1.00  0.00    -0.043 A 
ATOM     20  C   UNL     1       0.629   4.480   1.559  1.00  0.00     0.083 A 
ATOM     21  C   UNL     1       1.103   5.182   2.668  1.00  0.00     0.028 A 
ATOM     22  C   UNL     1       0.013   3.239   1.729  1.00  0.00     0.134 A 
ATOM     23  C   UNL     1      -0.131   2.693   2.999  1.00  0.00     0.048 A 
ATOM     24  C   UNL     1       0.341   3.394   4.111  1.00  0.00     0.008 A 
ATOM     25  Cl  UNL     1       0.808   5.160  -0.016  1.00  0.00    -0.080 Cl
BRANCH  22  26
ATOM     26  O   UNL     1      -0.476   2.519   0.673  1.00  0.00    -0.506 OA
ATOM     27  H   UNL     1      -1.349   2.180   0.946  1.00  0.00     0.293 HD
ENDBRANCH  22  26
ENDBRANCH  18  19
ENDBRANCH  17  18
BRANCH  17  28
ATOM     28  O   UNL     1       1.677   4.270   7.281  1.00  0.00    -0.383 OA
ATOM     29  H   UNL     1       2.186   3.532   7.687  1.00  0.00     0.211 HD
ENDBRANCH  17  28
ENDBRANCH  14  17
ENDBRANCH  12  13
BRANCH  12  30
ATOM     30  C   UNL     1       4.453   8.702   7.093  1.00  0.00     0.018 C 
ATOM     31  C   UNL     1       5.481   8.594   8.230  1.00  0.00     0.010 C 
BRANCH  30  32
ATOM     32  C   UNL     1       3.017   8.664   7.669  1.00  0.00     0.002 C 
ATOM     33  C   UNL     1       2.321  10.015   7.773  1.00  0.00     0.004 C 
ENDBRANCH  30  32
ENDBRANCH  12  30
ENDBRANCH  10  12
ENDBRANCH   1  10
BRANCH   5  34
ATOM     34  C   UNL     1       3.282  10.229   2.663  1.00  0.00     0.242 C 
ATOM     35  O   UNL     1       2.435  10.975   2.173  1.00  0.00    -0.273 OA
ATOM     36  N   UNL     1       3.975   9.304   1.914  1.00  0.00    -0.354 N 
ATOM     37  H   UNL     1       4.575   8.633   2.395  1.00  0.00     0.163 HD
BRANCH  36  38
ATOM     38  C   UNL     1       3.961   9.314   0.466  1.00  0.00     0.116 C 
BRANCH  38  39
ATOM     39  C   UNL     1       3.181   8.109  -0.053  1.00  0.00     0.023 C 
BRANCH  39  40
ATOM     40  C   UNL     1       3.925   7.364  -1.156  1.00  0.00     0.026 C 
BRANCH  40  41
ATOM     41  C   UNL     1       5.426   7.332  -0.870  1.00  0.00     0.146 C 
BRANCH  41  42
ATOM     42  N   UNL     1       5.899   5.953  -0.877  1.00  0.00    -0.254 NA
ATOM     43  C   UNL     1       5.940   5.293   0.219  1.00  0.00     0.185 C 
ATOM     44  N   UNL     1       5.602   5.665   1.467  1.00  0.00    -0.370 N 
ATOM     45  N   UNL     1       6.384   4.025   0.192  1.00  0.00    -0.370 N 
ATOM     46  H   UNL     1       5.913   5.134   2.263  1.00  0.00     0.159 HD
ATOM     47  H   UNL     1       5.234   6.590   1.666  1.00  0.00     0.159 HD
ATOM     48  H   UNL     1       6.652   3.663  -0.713  1.00  0.00     0.159 HD
ATOM     49  H   UNL     1       6.226   3.378   0.944  1.00  0.00     0.159 HD
ENDBRANCH  41  42
ENDBRANCH  40  41
ENDBRANCH  39  40
ENDBRANCH  38  39
ENDBRANCH  36  38
ENDBRANCH   5  34
BRANCH   8  50
ATOM     50  O   UNL     1       7.452  12.482   2.363  1.00  0.00    -0.245 OA
BRANCH  50  51
ATOM     51  S   UNL     1       8.546  12.563   1.162  1.00  0.00     0.397 S 
ATOM     52  O   UNL     1       9.788  12.009   1.651  1.00  0.00    -0.169 OA
ATOM     53  O   UNL     1       8.490  13.871   0.541  1.00  0.00    -0.169 OA
BRANCH  51  54
ATOM     54  O   UNL     1       7.971  11.491   0.111  1.00  0.00    -0.264 OA
ATOM     55  H   UNL     1       8.734  11.020  -0.283  1.00  0.00     0.236 HD
ENDBRANCH  51  54
ENDBRANCH  50  51
ENDBRANCH   8  50
TORSDOF 19
ENDMDL
MODEL 44
REMARK VINA RESULT:    -5.910     14.084     18.518
REMARK INTER + INTRA:         -15.516
REMARK INTER:                 -12.681
REMARK INTRA:                  -2.835
REMARK UNBOUND:                -3.560
REMARK SMILES CC[C@@H](C)[C@@H](NC(=O)[C@@H](O)Cc1ccc(O)c(Cl)c1)C(=O)N1[C@H](C(=O)NCCCCN=C(N)N)C[C@H]2CC[C@H](OS(=O)(=O)O)C[C@@H]21
REMARK SMILES IDX 22 1 36 2 46 3 35 4 23 5 45 6 37 7 39 8 38 9 20 10 21 11
REMARK SMILES IDX 5 12 6 13 7 14 8 15 9 17 11 18 12 19 17 20 19 21 15 22 14 23
REMARK SMILES IDX 13 24 18 25 16 26 10 28 3 30 4 31 2 32 1 33 24 34 25 35
REMARK SMILES IDX 26 36 27 38 28 39 29 40 30 41 31 42 32 43 33 44 34 45 40 50
REMARK SMILES IDX 41 51 42 52 43 53 44 54
REMARK H PARENT 6 16 16 27 10 29 26 37 33 46 33 47 34 48 34 49 44 55
ROOT
ATOM      1  N   UNL     1       5.074   8.164   0.273  1.00  0.00    -0.326 N 
ATOM      2  C   UNL     1       3.874   6.739  -1.167  1.00  0.00     0.014 C 
ATOM      3  C   UNL     1       5.123   7.622  -1.088  1.00  0.00     0.091 C 
ATOM      4  C   UNL     1       2.873   7.499  -0.310  1.00  0.00     0.041 C 
ATOM      5  C   UNL     1       3.763   7.858   0.895  1.00  0.00     0.175 C 
ATOM      6  C   UNL     1       6.334   6.782  -1.490  1.00  0.00     0.059 C 
ATOM      7  C   UNL     1       3.527   6.418  -2.607  1.00  0.00     0.008 C 
ATOM      8  C   UNL     1       6.014   5.690  -2.534  1.00  0.00     0.143 C 
ATOM      9  C   UNL     1       4.798   6.061  -3.406  1.00  0.00     0.034 C 
ENDROOT
BRANCH   1  10
ATOM     10  C   UNL     1       5.934   9.043   0.909  1.00  0.00     0.246 C 
ATOM     11  O   UNL     1       6.073  10.184   0.456  1.00  0.00    -0.272 OA
BRANCH  10  12
ATOM     12  C   UNL     1       6.673   8.591   2.203  1.00  0.00     0.174 C 
BRANCH  12  13
ATOM     13  N   UNL     1       6.678   9.679   3.180  1.00  0.00    -0.342 N 
ATOM     14  C   UNL     1       5.714   9.882   4.142  1.00  0.00     0.249 C 
ATOM     15  O   UNL     1       4.747   9.148   4.304  1.00  0.00    -0.272 OA
ATOM     16  H   UNL     1       7.329  10.453   3.069  1.00  0.00     0.164 HD
BRANCH  14  17
ATOM     17  C   UNL     1       5.993  11.127   5.011  1.00  0.00     0.207 C 
BRANCH  17  18
ATOM     18  C   UNL     1       7.353  11.735   4.654  1.00  0.00     0.077 C 
BRANCH  18  19
ATOM     19  C   UNL     1       7.211  12.940   3.752  1.00  0.00    -0.043 A 
ATOM     20  C   UNL     1       7.962  14.241   1.847  1.00  0.00     0.083 A 
ATOM     21  C   UNL     1       8.063  13.103   2.648  1.00  0.00     0.028 A 
ATOM     22  C   UNL     1       7.013  15.221   2.142  1.00  0.00     0.134 A 
ATOM     23  C   UNL     1       6.163  15.072   3.231  1.00  0.00     0.048 A 
ATOM     24  C   UNL     1       6.263  13.936   4.037  1.00  0.00     0.008 A 
ATOM     25  Cl  UNL     1       9.018  14.423   0.495  1.00  0.00    -0.080 Cl
BRANCH  22  26
ATOM     26  O   UNL     1       6.884  16.358   1.391  1.00  0.00    -0.506 OA
ATOM     27  H   UNL     1       7.761  16.541   1.007  1.00  0.00     0.293 HD
ENDBRANCH  22  26
ENDBRANCH  18  19
ENDBRANCH  17  18
BRANCH  17  28
ATOM     28  O   UNL     1       5.969  10.798   6.409  1.00  0.00    -0.383 OA
ATOM     29  H   UNL     1       5.057  10.996   6.720  1.00  0.00     0.211 HD
ENDBRANCH  17  28
ENDBRANCH  14  17
ENDBRANCH  12  13
BRANCH  12  30
ATOM     30  C   UNL     1       8.097   8.042   1.920  1.00  0.00     0.018 C 
ATOM     31  C   UNL     1       8.301   6.677   2.596  1.00  0.00     0.010 C 
BRANCH  30  32
ATOM     32  C   UNL     1       9.231   9.013   2.330  1.00  0.00     0.002 C 
ATOM     33  C   UNL     1       9.710   9.955   1.234  1.00  0.00     0.004 C 
ENDBRANCH  30  32
ENDBRANCH  12  30
ENDBRANCH  10  12
ENDBRANCH   1  10
BRANCH   5  34
ATOM     34  C   UNL     1       3.888   6.671   1.887  1.00  0.00     0.242 C 
ATOM     35  O   UNL     1       4.561   5.672   1.636  1.00  0.00    -0.273 OA
ATOM     36  N   UNL     1       3.149   6.794   3.043  1.00  0.00    -0.354 N 
ATOM     37  H   UNL     1       2.517   7.590   3.140  1.00  0.00     0.163 HD
BRANCH  36  38
ATOM     38  C   UNL     1       3.313   5.892   4.164  1.00  0.00     0.116 C 
BRANCH  38  39
ATOM     39  C   UNL     1       2.030   5.856   4.992  1.00  0.00     0.023 C 
BRANCH  39  40
ATOM     40  C   UNL     1       0.782   6.059   4.140  1.00  0.00     0.026 C 
BRANCH  40  41
ATOM     41  C   UNL     1      -0.449   6.268   5.023  1.00  0.00     0.146 C 
BRANCH  41  42
ATOM     42  N   UNL     1      -1.354   7.217   4.389  1.00  0.00    -0.254 NA
ATOM     43  C   UNL     1      -2.584   6.902   4.220  1.00  0.00     0.185 C 
ATOM     44  N   UNL     1      -3.241   5.774   4.545  1.00  0.00    -0.370 N 
ATOM     45  N   UNL     1      -3.402   7.790   3.630  1.00  0.00    -0.370 N 
ATOM     46  H   UNL     1      -4.137   5.567   4.137  1.00  0.00     0.159 HD
ATOM     47  H   UNL     1      -2.776   5.002   5.012  1.00  0.00     0.159 HD
ATOM     48  H   UNL     1      -2.987   8.671   3.361  1.00  0.00     0.159 HD
ATOM     49  H   UNL     1      -4.403   7.720   3.675  1.00  0.00     0.159 HD
ENDBRANCH  41  42
ENDBRANCH  40  41
ENDBRANCH  39  40
ENDBRANCH  38  39
ENDBRANCH  36  38
ENDBRANCH   5  34
BRANCH   8  50
ATOM     50  O   UNL     1       5.741   4.451  -1.878  1.00  0.00    -0.245 OA
BRANCH  50  51
ATOM     51  S   UNL     1       6.966   3.440  -1.530  1.00  0.00     0.397 S 
ATOM     52  O   UNL     1       6.800   2.245  -2.326  1.00  0.00    -0.169 OA
ATOM     53  O   UNL     1       7.151   3.377  -0.095  1.00  0.00    -0.169 OA
BRANCH  51  54
ATOM     54  O   UNL     1       8.229   4.213  -2.158  1.00  0.00    -0.264 OA
ATOM     55  H   UNL     1       8.841   3.540  -2.520  1.00  0.00     0.236 HD
ENDBRANCH  51  54
ENDBRANCH  50  51
ENDBRANCH   8  50
TORSDOF 19
ENDMDL
MODEL 45
REMARK VINA RESULT:    -5.907      8.838     12.362
REMARK INTER + INTRA:         -15.509
REMARK INTER:                 -11.465
REMARK INTRA:                  -4.044
REMARK UNBOUND:                -3.560
REMARK SMILES CC[C@@H](C)[C@@H](NC(=O)[C@@H](O)Cc1ccc(O)c(Cl)c1)C(=O)N1[C@H](C(=O)NCCCCN=C(N)N)C[C@H]2CC[C@H](OS(=O)(=O)O)C[C@@H]21
REMARK SMILES IDX 22 1 36 2 46 3 35 4 23 5 45 6 37 7 39 8 38 9 20 10 21 11
REMARK SMILES IDX 5 12 6 13 7 14 8 15 9 17 11 18 12 19 17 20 19 21 15 22 14 23
REMARK SMILES IDX 13 24 18 25 16 26 10 28 3 30 4 31 2 32 1 33 24 34 25 35
REMARK SMILES IDX 26 36 27 38 28 39 29 40 30 41 31 42 32 43 33 44 34 45 40 50
REMARK SMILES IDX 41 51 42 52 43 53 44 54
REMARK H PARENT 6 16 16 27 10 29 26 37 33 46 33 47 34 48 34 49 44 55
ROOT
ATOM      1  N   UNL     1      -2.739   1.879   0.457  1.00  0.00    -0.326 N 
ATOM      2  C   UNL     1      -1.908   4.050   0.830  1.00  0.00     0.014 C 
ATOM      3  C   UNL     1      -1.581   2.568   1.034  1.00  0.00     0.091 C 
ATOM      4  C   UNL     1      -3.419   4.086   1.000  1.00  0.00     0.041 C 
ATOM      5  C   UNL     1      -3.816   2.856   0.163  1.00  0.00     0.175 C 
ATOM      6  C   UNL     1      -0.202   2.291   0.439  1.00  0.00     0.059 C 
ATOM      7  C   UNL     1      -1.040   4.923   1.715  1.00  0.00     0.008 C 
ATOM      8  C   UNL     1       0.765   3.491   0.526  1.00  0.00     0.143 C 
ATOM      9  C   UNL     1       0.422   4.428   1.702  1.00  0.00     0.034 C 
ENDROOT
BRANCH   1  10
ATOM     10  C   UNL     1      -3.014   0.525   0.370  1.00  0.00     0.246 C 
ATOM     11  O   UNL     1      -2.859  -0.052  -0.712  1.00  0.00    -0.272 OA
BRANCH  10  12
ATOM     12  C   UNL     1      -3.468  -0.249   1.641  1.00  0.00     0.174 C 
BRANCH  12  13
ATOM     13  N   UNL     1      -3.534   0.663   2.783  1.00  0.00    -0.342 N 
ATOM     14  C   UNL     1      -4.695   1.108   3.373  1.00  0.00     0.249 C 
ATOM     15  O   UNL     1      -5.816   0.762   3.020  1.00  0.00    -0.272 OA
ATOM     16  H   UNL     1      -2.696   1.155   3.084  1.00  0.00     0.164 HD
BRANCH  14  17
ATOM     17  C   UNL     1      -4.434   2.076   4.547  1.00  0.00     0.207 C 
BRANCH  17  18
ATOM     18  C   UNL     1      -2.978   1.973   5.012  1.00  0.00     0.077 C 
BRANCH  18  19
ATOM     19  C   UNL     1      -2.302   3.325   5.043  1.00  0.00    -0.043 A 
ATOM     20  C   UNL     1      -0.302   4.670   5.323  1.00  0.00     0.083 A 
ATOM     21  C   UNL     1      -0.916   3.419   5.246  1.00  0.00     0.028 A 
ATOM     22  C   UNL     1      -1.066   5.831   5.199  1.00  0.00     0.134 A 
ATOM     23  C   UNL     1      -2.439   5.753   4.998  1.00  0.00     0.048 A 
ATOM     24  C   UNL     1      -3.057   4.502   4.922  1.00  0.00     0.008 A 
ATOM     25  Cl  UNL     1       1.401   4.765   5.574  1.00  0.00    -0.080 Cl
BRANCH  22  26
ATOM     26  O   UNL     1      -0.511   7.080   5.279  1.00  0.00    -0.506 OA
ATOM     27  H   UNL     1      -0.651   7.504   4.412  1.00  0.00     0.293 HD
ENDBRANCH  22  26
ENDBRANCH  18  19
ENDBRANCH  17  18
BRANCH  17  28
ATOM     28  O   UNL     1      -5.309   1.797   5.652  1.00  0.00    -0.383 OA
ATOM     29  H   UNL     1      -4.932   2.276   6.425  1.00  0.00     0.211 HD
ENDBRANCH  17  28
ENDBRANCH  14  17
ENDBRANCH  12  13
BRANCH  12  30
ATOM     30  C   UNL     1      -2.590  -1.497   1.930  1.00  0.00     0.018 C 
ATOM     31  C   UNL     1      -1.097  -1.144   1.853  1.00  0.00     0.010 C 
BRANCH  30  32
ATOM     32  C   UNL     1      -2.901  -2.701   1.008  1.00  0.00     0.002 C 
ATOM     33  C   UNL     1      -1.966  -3.894   1.159  1.00  0.00     0.004 C 
ENDBRANCH  30  32
ENDBRANCH  12  30
ENDBRANCH  10  12
ENDBRANCH   1  10
BRANCH   5  34
ATOM     34  C   UNL     1      -3.861   3.186  -1.353  1.00  0.00     0.242 C 
ATOM     35  O   UNL     1      -3.173   2.585  -2.178  1.00  0.00    -0.273 OA
ATOM     36  N   UNL     1      -4.686   4.233  -1.700  1.00  0.00    -0.354 N 
ATOM     37  H   UNL     1      -5.138   4.769  -0.959  1.00  0.00     0.163 HD
BRANCH  36  38
ATOM     38  C   UNL     1      -5.013   4.535  -3.078  1.00  0.00     0.116 C 
BRANCH  38  39
ATOM     39  C   UNL     1      -6.438   5.076  -3.166  1.00  0.00     0.023 C 
BRANCH  39  40
ATOM     40  C   UNL     1      -7.235   4.828  -1.889  1.00  0.00     0.026 C 
BRANCH  40  41
ATOM     41  C   UNL     1      -7.627   6.150  -1.230  1.00  0.00     0.146 C 
BRANCH  41  42
ATOM     42  N   UNL     1      -6.531   6.630  -0.398  1.00  0.00    -0.254 NA
ATOM     43  C   UNL     1      -6.550   6.408   0.862  1.00  0.00     0.185 C 
ATOM     44  N   UNL     1      -7.461   5.765   1.615  1.00  0.00    -0.370 N 
ATOM     45  N   UNL     1      -5.532   6.863   1.612  1.00  0.00    -0.370 N 
ATOM     46  H   UNL     1      -7.472   5.878   2.614  1.00  0.00     0.159 HD
ATOM     47  H   UNL     1      -8.290   5.346   1.205  1.00  0.00     0.159 HD
ATOM     48  H   UNL     1      -4.796   7.352   1.121  1.00  0.00     0.159 HD
ATOM     49  H   UNL     1      -5.354   6.533   2.544  1.00  0.00     0.159 HD
ENDBRANCH  41  42
ENDBRANCH  40  41
ENDBRANCH  39  40
ENDBRANCH  38  39
ENDBRANCH  36  38
ENDBRANCH   5  34
BRANCH   8  50
ATOM     50  O   UNL     1       0.718   4.248  -0.684  1.00  0.00    -0.245 OA
BRANCH  50  51
ATOM     51  S   UNL     1       2.062   4.404  -1.587  1.00  0.00     0.397 S 
ATOM     52  O   UNL     1       1.746   3.984  -2.934  1.00  0.00    -0.169 OA
ATOM     53  O   UNL     1       3.196   3.861  -0.868  1.00  0.00    -0.169 OA
BRANCH  51  54
ATOM     54  O   UNL     1       2.237   6.001  -1.656  1.00  0.00    -0.264 OA
ATOM     55  H   UNL     1       2.945   6.250  -1.028  1.00  0.00     0.236 HD
ENDBRANCH  51  54
ENDBRANCH  50  51
ENDBRANCH   8  50
TORSDOF 19
ENDMDL
MODEL 46
REMARK VINA RESULT:    -5.858      2.442      4.306
REMARK INTER + INTRA:         -15.412
REMARK INTER:                 -12.259
REMARK INTRA:                  -3.153
REMARK UNBOUND:                -3.560
REMARK SMILES CC[C@@H](C)[C@@H](NC(=O)[C@@H](O)Cc1ccc(O)c(Cl)c1)C(=O)N1[C@H](C(=O)NCCCCN=C(N)N)C[C@H]2CC[C@H](OS(=O)(=O)O)C[C@@H]21
REMARK SMILES IDX 22 1 36 2 46 3 35 4 23 5 45 6 37 7 39 8 38 9 20 10 21 11
REMARK SMILES IDX 5 12 6 13 7 14 8 15 9 17 11 18 12 19 17 20 19 21 15 22 14 23
REMARK SMILES IDX 13 24 18 25 16 26 10 28 3 30 4 31 2 32 1 33 24 34 25 35
REMARK SMILES IDX 26 36 27 38 28 39 29 40 30 41 31 42 32 43 33 44 34 45 40 50
REMARK SMILES IDX 41 51 42 52 43 53 44 54
REMARK H PARENT 6 16 16 27 10 29 26 37 33 46 33 47 34 48 34 49 44 55
ROOT
ATOM      1  N   UNL     1     -10.778   3.134   8.314  1.00  0.00    -0.326 N 
ATOM      2  C   UNL     1     -10.418   5.415   8.772  1.00  0.00     0.014 C 
ATOM      3  C   UNL     1     -10.798   4.442   7.652  1.00  0.00     0.091 C 
ATOM      4  C   UNL     1      -9.432   4.605   9.600  1.00  0.00     0.041 C 
ATOM      5  C   UNL     1     -10.174   3.257   9.664  1.00  0.00     0.175 C 
ATOM      6  C   UNL     1     -12.106   4.917   7.024  1.00  0.00     0.059 C 
ATOM      7  C   UNL     1      -9.987   6.753   8.205  1.00  0.00     0.008 C 
ATOM      8  C   UNL     1     -12.284   6.450   7.042  1.00  0.00     0.143 C 
ATOM      9  C   UNL     1     -10.932   7.190   7.065  1.00  0.00     0.034 C 
ENDROOT
BRANCH   1  10
ATOM     10  C   UNL     1     -11.023   1.874   7.796  1.00  0.00     0.246 C 
ATOM     11  O   UNL     1     -11.917   1.182   8.296  1.00  0.00    -0.272 OA
BRANCH  10  12
ATOM     12  C   UNL     1     -10.200   1.374   6.574  1.00  0.00     0.174 C 
BRANCH  12  13
ATOM     13  N   UNL     1      -8.787   1.705   6.754  1.00  0.00    -0.342 N 
ATOM     14  C   UNL     1      -7.762   0.788   6.812  1.00  0.00     0.249 C 
ATOM     15  O   UNL     1      -7.919  -0.420   6.688  1.00  0.00    -0.272 OA
ATOM     16  H   UNL     1      -8.522   2.649   7.026  1.00  0.00     0.164 HD
BRANCH  14  17
ATOM     17  C   UNL     1      -6.384   1.449   7.028  1.00  0.00     0.207 C 
BRANCH  17  18
ATOM     18  C   UNL     1      -5.361   0.412   7.501  1.00  0.00     0.077 C 
BRANCH  18  19
ATOM     19  C   UNL     1      -5.191   0.435   9.004  1.00  0.00    -0.043 A 
ATOM     20  C   UNL     1      -3.926   1.091  10.967  1.00  0.00     0.083 A 
ATOM     21  C   UNL     1      -4.107   1.113   9.583  1.00  0.00     0.028 A 
ATOM     22  C   UNL     1      -4.821   0.392  11.777  1.00  0.00     0.134 A 
ATOM     23  C   UNL     1      -5.898  -0.284  11.216  1.00  0.00     0.048 A 
ATOM     24  C   UNL     1      -6.082  -0.265   9.832  1.00  0.00     0.008 A 
ATOM     25  Cl  UNL     1      -2.589   1.930  11.661  1.00  0.00    -0.080 Cl
BRANCH  22  26
ATOM     26  O   UNL     1      -4.679   0.333  13.137  1.00  0.00    -0.506 OA
ATOM     27  H   UNL     1      -5.568   0.180  13.506  1.00  0.00     0.293 HD
ENDBRANCH  22  26
ENDBRANCH  18  19
ENDBRANCH  17  18
BRANCH  17  28
ATOM     28  O   UNL     1      -6.465   2.512   7.991  1.00  0.00    -0.383 OA
ATOM     29  H   UNL     1      -7.235   3.063   7.724  1.00  0.00     0.211 HD
ENDBRANCH  17  28
ENDBRANCH  14  17
ENDBRANCH  12  13
BRANCH  12  30
ATOM     30  C   UNL     1     -10.761   1.890   5.221  1.00  0.00     0.018 C 
ATOM     31  C   UNL     1     -12.262   1.583   5.100  1.00  0.00     0.010 C 
BRANCH  30  32
ATOM     32  C   UNL     1     -10.005   1.344   3.986  1.00  0.00     0.002 C 
ATOM     33  C   UNL     1      -9.815   2.338   2.847  1.00  0.00     0.004 C 
ENDBRANCH  30  32
ENDBRANCH  12  30
ENDBRANCH  10  12
ENDBRANCH   1  10
BRANCH   5  34
ATOM     34  C   UNL     1     -11.273   3.259  10.760  1.00  0.00     0.242 C 
ATOM     35  O   UNL     1     -12.454   3.494  10.507  1.00  0.00    -0.273 OA
ATOM     36  N   UNL     1     -10.822   3.035  12.042  1.00  0.00    -0.354 N 
ATOM     37  H   UNL     1      -9.816   2.967  12.204  1.00  0.00     0.163 HD
BRANCH  36  38
ATOM     38  C   UNL     1     -11.725   2.791  13.147  1.00  0.00     0.116 C 
BRANCH  38  39
ATOM     39  C   UNL     1     -11.914   4.072  13.955  1.00  0.00     0.023 C 
BRANCH  39  40
ATOM     40  C   UNL     1     -10.974   5.187  13.508  1.00  0.00     0.026 C 
BRANCH  40  41
ATOM     41  C   UNL     1     -11.719   6.518  13.411  1.00  0.00     0.146 C 
BRANCH  41  42
ATOM     42  N   UNL     1     -11.317   7.220  12.199  1.00  0.00    -0.254 NA
ATOM     43  C   UNL     1     -12.170   7.940  11.572  1.00  0.00     0.185 C 
ATOM     44  N   UNL     1     -13.464   8.186  11.848  1.00  0.00    -0.370 N 
ATOM     45  N   UNL     1     -11.782   8.575  10.454  1.00  0.00    -0.370 N 
ATOM     46  H   UNL     1     -14.075   8.566  11.146  1.00  0.00     0.159 HD
ATOM     47  H   UNL     1     -13.918   7.795  12.668  1.00  0.00     0.159 HD
ATOM     48  H   UNL     1     -10.817   8.449  10.180  1.00  0.00     0.159 HD
ATOM     49  H   UNL     1     -12.305   9.330  10.048  1.00  0.00     0.159 HD
ENDBRANCH  41  42
ENDBRANCH  40  41
ENDBRANCH  39  40
ENDBRANCH  38  39
ENDBRANCH  36  38
ENDBRANCH   5  34
BRANCH   8  50
ATOM     50  O   UNL     1     -13.035   6.843   8.192  1.00  0.00    -0.245 OA
BRANCH  50  51
ATOM     51  S   UNL     1     -14.522   7.475   8.002  1.00  0.00     0.397 S 
ATOM     52  O   UNL     1     -15.478   6.393   8.059  1.00  0.00    -0.169 OA
ATOM     53  O   UNL     1     -14.511   8.423   6.907  1.00  0.00    -0.169 OA
BRANCH  51  54
ATOM     54  O   UNL     1     -14.712   8.300   9.369  1.00  0.00    -0.264 OA
ATOM     55  H   UNL     1     -15.212   7.734   9.992  1.00  0.00     0.236 HD
ENDBRANCH  51  54
ENDBRANCH  50  51
ENDBRANCH   8  50
TORSDOF 19
ENDMDL
MODEL 47
REMARK VINA RESULT:    -5.814     12.578     17.846
REMARK INTER + INTRA:         -15.323
REMARK INTER:                 -12.788
REMARK INTRA:                  -2.535
REMARK UNBOUND:                -3.560
REMARK SMILES CC[C@@H](C)[C@@H](NC(=O)[C@@H](O)Cc1ccc(O)c(Cl)c1)C(=O)N1[C@H](C(=O)NCCCCN=C(N)N)C[C@H]2CC[C@H](OS(=O)(=O)O)C[C@@H]21
REMARK SMILES IDX 22 1 36 2 46 3 35 4 23 5 45 6 37 7 39 8 38 9 20 10 21 11
REMARK SMILES IDX 5 12 6 13 7 14 8 15 9 17 11 18 12 19 17 20 19 21 15 22 14 23
REMARK SMILES IDX 13 24 18 25 16 26 10 28 3 30 4 31 2 32 1 33 24 34 25 35
REMARK SMILES IDX 26 36 27 38 28 39 29 40 30 41 31 42 32 43 33 44 34 45 40 50
REMARK SMILES IDX 41 51 42 52 43 53 44 54
REMARK H PARENT 6 16 16 27 10 29 26 37 33 46 33 47 34 48 34 49 44 55
ROOT
ATOM      1  N   UNL     1       4.660   6.922   3.596  1.00  0.00    -0.326 N 
ATOM      2  C   UNL     1       4.741   8.795   2.172  1.00  0.00     0.014 C 
ATOM      3  C   UNL     1       5.266   8.254   3.505  1.00  0.00     0.091 C 
ATOM      4  C   UNL     1       3.341   8.206   2.099  1.00  0.00     0.041 C 
ATOM      5  C   UNL     1       3.631   6.759   2.539  1.00  0.00     0.175 C 
ATOM      6  C   UNL     1       6.790   8.357   3.501  1.00  0.00     0.059 C 
ATOM      7  C   UNL     1       4.920  10.298   2.089  1.00  0.00     0.008 C 
ATOM      8  C   UNL     1       7.330   9.556   2.691  1.00  0.00     0.143 C 
ATOM      9  C   UNL     1       6.310  10.711   2.617  1.00  0.00     0.034 C 
ENDROOT
BRANCH   1  10
ATOM     10  C   UNL     1       4.758   5.969   4.595  1.00  0.00     0.246 C 
ATOM     11  O   UNL     1       5.256   4.869   4.330  1.00  0.00    -0.272 OA
BRANCH  10  12
ATOM     12  C   UNL     1       4.281   6.315   6.035  1.00  0.00     0.174 C 
BRANCH  12  13
ATOM     13  N   UNL     1       2.931   5.794   6.252  1.00  0.00    -0.342 N 
ATOM     14  C   UNL     1       2.468   5.270   7.438  1.00  0.00     0.249 C 
ATOM     15  O   UNL     1       3.135   5.208   8.463  1.00  0.00    -0.272 OA
ATOM     16  H   UNL     1       2.318   5.637   5.456  1.00  0.00     0.164 HD
BRANCH  14  17
ATOM     17  C   UNL     1       1.004   4.788   7.343  1.00  0.00     0.207 C 
BRANCH  17  18
ATOM     18  C   UNL     1       0.054   5.982   7.208  1.00  0.00     0.077 C 
BRANCH  18  19
ATOM     19  C   UNL     1      -0.940   5.784   6.086  1.00  0.00    -0.043 A 
ATOM     20  C   UNL     1      -2.754   4.525   5.082  1.00  0.00     0.083 A 
ATOM     21  C   UNL     1      -1.870   4.734   6.141  1.00  0.00     0.028 A 
ATOM     22  C   UNL     1      -2.713   5.359   3.964  1.00  0.00     0.134 A 
ATOM     23  C   UNL     1      -1.798   6.402   3.896  1.00  0.00     0.048 A 
ATOM     24  C   UNL     1      -0.911   6.613   4.955  1.00  0.00     0.008 A 
ATOM     25  Cl  UNL     1      -3.889   3.230   5.167  1.00  0.00    -0.080 Cl
BRANCH  22  26
ATOM     26  O   UNL     1      -3.552   5.186   2.896  1.00  0.00    -0.506 OA
ATOM     27  H   UNL     1      -3.187   4.452   2.368  1.00  0.00     0.293 HD
ENDBRANCH  22  26
ENDBRANCH  18  19
ENDBRANCH  17  18
BRANCH  17  28
ATOM     28  O   UNL     1       0.639   4.016   8.499  1.00  0.00    -0.383 OA
ATOM     29  H   UNL     1       1.455   3.938   9.043  1.00  0.00     0.211 HD
ENDBRANCH  17  28
ENDBRANCH  14  17
ENDBRANCH  12  13
BRANCH  12  30
ATOM     30  C   UNL     1       4.389   7.830   6.355  1.00  0.00     0.018 C 
ATOM     31  C   UNL     1       5.360   8.074   7.521  1.00  0.00     0.010 C 
BRANCH  30  32
ATOM     32  C   UNL     1       3.026   8.503   6.648  1.00  0.00     0.002 C 
ATOM     33  C   UNL     1       2.393   9.231   5.469  1.00  0.00     0.004 C 
ENDBRANCH  30  32
ENDBRANCH  12  30
ENDBRANCH  10  12
ENDBRANCH   1  10
BRANCH   5  34
ATOM     34  C   UNL     1       4.179   5.903   1.366  1.00  0.00     0.242 C 
ATOM     35  O   UNL     1       3.443   5.418   0.506  1.00  0.00    -0.273 OA
ATOM     36  N   UNL     1       5.537   5.681   1.387  1.00  0.00    -0.354 N 
ATOM     37  H   UNL     1       6.076   6.008   2.190  1.00  0.00     0.163 HD
BRANCH  36  38
ATOM     38  C   UNL     1       6.242   5.093   0.267  1.00  0.00     0.116 C 
BRANCH  38  39
ATOM     39  C   UNL     1       6.629   6.182  -0.732  1.00  0.00     0.023 C 
BRANCH  39  40
ATOM     40  C   UNL     1       7.571   5.670  -1.816  1.00  0.00     0.026 C 
BRANCH  40  41
ATOM     41  C   UNL     1       7.306   4.194  -2.113  1.00  0.00     0.146 C 
BRANCH  41  42
ATOM     42  N   UNL     1       8.455   3.614  -2.795  1.00  0.00    -0.254 NA
ATOM     43  C   UNL     1       8.459   2.366  -3.080  1.00  0.00     0.185 C 
ATOM     44  N   UNL     1       7.527   1.423  -2.850  1.00  0.00    -0.370 N 
ATOM     45  N   UNL     1       9.530   1.850  -3.705  1.00  0.00    -0.370 N 
ATOM     46  H   UNL     1       7.762   0.447  -2.905  1.00  0.00     0.159 HD
ATOM     47  H   UNL     1       6.646   1.644  -2.397  1.00  0.00     0.159 HD
ATOM     48  H   UNL     1      10.276   2.497  -3.923  1.00  0.00     0.159 HD
ATOM     49  H   UNL     1       9.513   0.958  -4.166  1.00  0.00     0.159 HD
ENDBRANCH  41  42
ENDBRANCH  40  41
ENDBRANCH  39  40
ENDBRANCH  38  39
ENDBRANCH  36  38
ENDBRANCH   5  34
BRANCH   8  50
ATOM     50  O   UNL     1       7.648   9.145   1.361  1.00  0.00    -0.245 OA
BRANCH  50  51
ATOM     51  S   UNL     1       8.993   9.714   0.645  1.00  0.00     0.397 S 
ATOM     52  O   UNL     1      10.134   9.123   1.306  1.00  0.00    -0.169 OA
ATOM     53  O   UNL     1       8.878  11.146   0.463  1.00  0.00    -0.169 OA
BRANCH  51  54
ATOM     54  O   UNL     1       8.919   9.022  -0.805  1.00  0.00    -0.264 OA
ATOM     55  H   UNL     1       7.985   9.042  -1.098  1.00  0.00     0.236 HD
ENDBRANCH  51  54
ENDBRANCH  50  51
ENDBRANCH   8  50
TORSDOF 19
ENDMDL
MODEL 48
REMARK VINA RESULT:    -5.789     15.404     19.557
REMARK INTER + INTRA:         -15.271
REMARK INTER:                 -12.970
REMARK INTRA:                  -2.302
REMARK UNBOUND:                -3.560
REMARK SMILES CC[C@@H](C)[C@@H](NC(=O)[C@@H](O)Cc1ccc(O)c(Cl)c1)C(=O)N1[C@H](C(=O)NCCCCN=C(N)N)C[C@H]2CC[C@H](OS(=O)(=O)O)C[C@@H]21
REMARK SMILES IDX 22 1 36 2 46 3 35 4 23 5 45 6 37 7 39 8 38 9 20 10 21 11
REMARK SMILES IDX 5 12 6 13 7 14 8 15 9 17 11 18 12 19 17 20 19 21 15 22 14 23
REMARK SMILES IDX 13 24 18 25 16 26 10 28 3 30 4 31 2 32 1 33 24 34 25 35
REMARK SMILES IDX 26 36 27 38 28 39 29 40 30 41 31 42 32 43 33 44 34 45 40 50
REMARK SMILES IDX 41 51 42 52 43 53 44 54
REMARK H PARENT 6 16 16 27 10 29 26 37 33 46 33 47 34 48 34 49 44 55
ROOT
ATOM      1  N   UNL     1       5.103   7.174   0.397  1.00  0.00    -0.326 N 
ATOM      2  C   UNL     1       4.680   8.187   2.480  1.00  0.00     0.014 C 
ATOM      3  C   UNL     1       4.048   7.294   1.408  1.00  0.00     0.091 C 
ATOM      4  C   UNL     1       5.544   9.133   1.660  1.00  0.00     0.041 C 
ATOM      5  C   UNL     1       6.197   8.133   0.689  1.00  0.00     0.175 C 
ATOM      6  C   UNL     1       3.541   6.019   2.080  1.00  0.00     0.059 C 
ATOM      7  C   UNL     1       3.621   8.759   3.403  1.00  0.00     0.008 C 
ATOM      8  C   UNL     1       3.065   6.230   3.534  1.00  0.00     0.143 C 
ATOM      9  C   UNL     1       2.590   7.676   3.784  1.00  0.00     0.034 C 
ENDROOT
BRANCH   1  10
ATOM     10  C   UNL     1       5.100   6.501  -0.812  1.00  0.00     0.246 C 
ATOM     11  O   UNL     1       5.446   7.101  -1.836  1.00  0.00    -0.272 OA
BRANCH  10  12
ATOM     12  C   UNL     1       4.705   4.996  -0.851  1.00  0.00     0.174 C 
BRANCH  12  13
ATOM     13  N   UNL     1       5.568   4.277  -1.788  1.00  0.00    -0.342 N 
ATOM     14  C   UNL     1       6.653   3.509  -1.431  1.00  0.00     0.249 C 
ATOM     15  O   UNL     1       7.002   3.317  -0.273  1.00  0.00    -0.272 OA
ATOM     16  H   UNL     1       5.498   4.467  -2.784  1.00  0.00     0.164 HD
BRANCH  14  17
ATOM     17  C   UNL     1       7.373   2.894  -2.650  1.00  0.00     0.207 C 
BRANCH  17  18
ATOM     18  C   UNL     1       6.583   3.168  -3.934  1.00  0.00     0.077 C 
BRANCH  18  19
ATOM     19  C   UNL     1       7.490   3.549  -5.082  1.00  0.00    -0.043 A 
ATOM     20  C   UNL     1       8.753   2.931  -7.059  1.00  0.00     0.083 A 
ATOM     21  C   UNL     1       7.876   2.588  -6.029  1.00  0.00     0.028 A 
ATOM     22  C   UNL     1       9.250   4.232  -7.148  1.00  0.00     0.134 A 
ATOM     23  C   UNL     1       8.875   5.194  -6.217  1.00  0.00     0.048 A 
ATOM     24  C   UNL     1       7.999   4.853  -5.184  1.00  0.00     0.008 A 
ATOM     25  Cl  UNL     1       9.216   1.736  -8.213  1.00  0.00    -0.080 Cl
BRANCH  22  26
ATOM     26  O   UNL     1      10.120   4.613  -8.134  1.00  0.00    -0.506 OA
ATOM     27  H   UNL     1      10.629   3.819  -8.380  1.00  0.00     0.293 HD
ENDBRANCH  22  26
ENDBRANCH  18  19
ENDBRANCH  17  18
BRANCH  17  28
ATOM     28  O   UNL     1       7.545   1.476  -2.489  1.00  0.00    -0.383 OA
ATOM     29  H   UNL     1       8.092   1.359  -1.680  1.00  0.00     0.211 HD
ENDBRANCH  17  28
ENDBRANCH  14  17
ENDBRANCH  12  13
BRANCH  12  30
ATOM     30  C   UNL     1       3.197   4.779  -1.150  1.00  0.00     0.018 C 
ATOM     31  C   UNL     1       2.948   3.372  -1.715  1.00  0.00     0.010 C 
BRANCH  30  32
ATOM     32  C   UNL     1       2.591   5.846  -2.095  1.00  0.00     0.002 C 
ATOM     33  C   UNL     1       1.738   6.909  -1.415  1.00  0.00     0.004 C 
ENDBRANCH  30  32
ENDBRANCH  12  30
ENDBRANCH  10  12
ENDBRANCH   1  10
BRANCH   5  34
ATOM     34  C   UNL     1       7.405   7.408   1.340  1.00  0.00     0.242 C 
ATOM     35  O   UNL     1       7.536   6.184   1.303  1.00  0.00    -0.273 OA
ATOM     36  N   UNL     1       8.288   8.226   2.009  1.00  0.00    -0.354 N 
ATOM     37  H   UNL     1       8.062   9.216   2.107  1.00  0.00     0.163 HD
BRANCH  36  38
ATOM     38  C   UNL     1       9.571   7.752   2.486  1.00  0.00     0.116 C 
BRANCH  38  39
ATOM     39  C   UNL     1      10.199   8.796   3.406  1.00  0.00     0.023 C 
BRANCH  39  40
ATOM     40  C   UNL     1       9.632  10.193   3.175  1.00  0.00     0.026 C 
BRANCH  40  41
ATOM     41  C   UNL     1      10.303  10.858   1.973  1.00  0.00     0.146 C 
BRANCH  41  42
ATOM     42  N   UNL     1       9.659  12.135   1.695  1.00  0.00    -0.254 NA
ATOM     43  C   UNL     1       8.701  12.190   0.848  1.00  0.00     0.185 C 
ATOM     44  N   UNL     1       8.137  11.213   0.115  1.00  0.00    -0.370 N 
ATOM     45  N   UNL     1       8.124  13.378   0.602  1.00  0.00    -0.370 N 
ATOM     46  H   UNL     1       7.565  11.435  -0.682  1.00  0.00     0.159 HD
ATOM     47  H   UNL     1       8.443  10.248   0.187  1.00  0.00     0.159 HD
ATOM     48  H   UNL     1       8.485  14.167   1.121  1.00  0.00     0.159 HD
ATOM     49  H   UNL     1       7.234  13.466   0.146  1.00  0.00     0.159 HD
ENDBRANCH  41  42
ENDBRANCH  40  41
ENDBRANCH  39  40
ENDBRANCH  38  39
ENDBRANCH  36  38
ENDBRANCH   5  34
BRANCH   8  50
ATOM     50  O   UNL     1       4.126   5.937   4.444  1.00  0.00    -0.245 OA
BRANCH  50  51
ATOM     51  S   UNL     1       3.860   4.924   5.688  1.00  0.00     0.397 S 
ATOM     52  O   UNL     1       2.894   5.541   6.568  1.00  0.00    -0.169 OA
ATOM     53  O   UNL     1       5.124   4.419   6.182  1.00  0.00    -0.169 OA
BRANCH  51  54
ATOM     54  O   UNL     1       3.087   3.709   4.972  1.00  0.00    -0.264 OA
ATOM     55  H   UNL     1       3.589   3.469   4.167  1.00  0.00     0.236 HD
ENDBRANCH  51  54
ENDBRANCH  50  51
ENDBRANCH   8  50
TORSDOF 19
ENDMDL
MODEL 49
REMARK VINA RESULT:    -5.750      9.186     11.459
REMARK INTER + INTRA:         -15.193
REMARK INTER:                 -11.216
REMARK INTRA:                  -3.977
REMARK UNBOUND:                -3.560
REMARK SMILES CC[C@@H](C)[C@@H](NC(=O)[C@@H](O)Cc1ccc(O)c(Cl)c1)C(=O)N1[C@H](C(=O)NCCCCN=C(N)N)C[C@H]2CC[C@H](OS(=O)(=O)O)C[C@@H]21
REMARK SMILES IDX 22 1 36 2 46 3 35 4 23 5 45 6 37 7 39 8 38 9 20 10 21 11
REMARK SMILES IDX 5 12 6 13 7 14 8 15 9 17 11 18 12 19 17 20 19 21 15 22 14 23
REMARK SMILES IDX 13 24 18 25 16 26 10 28 3 30 4 31 2 32 1 33 24 34 25 35
REMARK SMILES IDX 26 36 27 38 28 39 29 40 30 41 31 42 32 43 33 44 34 45 40 50
REMARK SMILES IDX 41 51 42 52 43 53 44 54
REMARK H PARENT 6 16 16 27 10 29 26 37 33 46 33 47 34 48 34 49 44 55
ROOT
ATOM      1  N   UNL     1      -5.538   0.889  -1.318  1.00  0.00    -0.326 N 
ATOM      2  C   UNL     1      -7.220   1.125  -2.948  1.00  0.00     0.014 C 
ATOM      3  C   UNL     1      -6.867   0.375  -1.660  1.00  0.00     0.091 C 
ATOM      4  C   UNL     1      -5.872   1.260  -3.638  1.00  0.00     0.041 C 
ATOM      5  C   UNL     1      -4.998   1.690  -2.445  1.00  0.00     0.175 C 
ATOM      6  C   UNL     1      -8.001   0.576  -0.657  1.00  0.00     0.059 C 
ATOM      7  C   UNL     1      -8.362   0.443  -3.676  1.00  0.00     0.008 C 
ATOM      8  C   UNL     1      -9.392   0.723  -1.313  1.00  0.00     0.143 C 
ATOM      9  C   UNL     1      -9.464   0.017  -2.682  1.00  0.00     0.034 C 
ENDROOT
BRANCH   1  10
ATOM     10  C   UNL     1      -4.704   0.563  -0.262  1.00  0.00     0.246 C 
ATOM     11  O   UNL     1      -5.102   0.739   0.894  1.00  0.00    -0.272 OA
BRANCH  10  12
ATOM     12  C   UNL     1      -3.306  -0.057  -0.552  1.00  0.00     0.174 C 
BRANCH  12  13
ATOM     13  N   UNL     1      -3.424  -1.506  -0.702  1.00  0.00    -0.342 N 
ATOM     14  C   UNL     1      -3.652  -2.161  -1.892  1.00  0.00     0.249 C 
ATOM     15  O   UNL     1      -3.753  -1.596  -2.973  1.00  0.00    -0.272 OA
ATOM     16  H   UNL     1      -3.518  -2.093   0.123  1.00  0.00     0.164 HD
BRANCH  14  17
ATOM     17  C   UNL     1      -3.744  -3.693  -1.721  1.00  0.00     0.207 C 
BRANCH  17  18
ATOM     18  C   UNL     1      -2.978  -4.139  -0.471  1.00  0.00     0.077 C 
BRANCH  18  19
ATOM     19  C   UNL     1      -3.867  -4.890   0.494  1.00  0.00    -0.043 A 
ATOM     20  C   UNL     1      -5.809  -6.282   0.917  1.00  0.00     0.083 A 
ATOM     21  C   UNL     1      -4.962  -5.630   0.020  1.00  0.00     0.028 A 
ATOM     22  C   UNL     1      -5.570  -6.198   2.289  1.00  0.00     0.134 A 
ATOM     23  C   UNL     1      -4.490  -5.469   2.773  1.00  0.00     0.048 A 
ATOM     24  C   UNL     1      -3.641  -4.814   1.877  1.00  0.00     0.008 A 
ATOM     25  Cl  UNL     1      -7.148  -7.186   0.315  1.00  0.00    -0.080 Cl
BRANCH  22  26
ATOM     26  O   UNL     1      -6.379  -6.811   3.207  1.00  0.00    -0.506 OA
ATOM     27  H   UNL     1      -5.997  -7.693   3.373  1.00  0.00     0.293 HD
ENDBRANCH  22  26
ENDBRANCH  18  19
ENDBRANCH  17  18
BRANCH  17  28
ATOM     28  O   UNL     1      -3.218  -4.375  -2.871  1.00  0.00    -0.383 OA
ATOM     29  H   UNL     1      -3.195  -5.329  -2.634  1.00  0.00     0.211 HD
ENDBRANCH  17  28
ENDBRANCH  14  17
ENDBRANCH  12  13
BRANCH  12  30
ATOM     30  C   UNL     1      -2.242   0.344   0.505  1.00  0.00     0.018 C 
ATOM     31  C   UNL     1      -1.730   1.771   0.251  1.00  0.00     0.010 C 
BRANCH  30  32
ATOM     32  C   UNL     1      -1.051  -0.641   0.592  1.00  0.00     0.002 C 
ATOM     33  C   UNL     1      -0.868  -1.324   1.941  1.00  0.00     0.004 C 
ENDBRANCH  30  32
ENDBRANCH  12  30
ENDBRANCH  10  12
ENDBRANCH   1  10
BRANCH   5  34
ATOM     34  C   UNL     1      -5.133   3.209  -2.155  1.00  0.00     0.242 C 
ATOM     35  O   UNL     1      -4.326   3.819  -1.454  1.00  0.00    -0.273 OA
ATOM     36  N   UNL     1      -6.248   3.811  -2.694  1.00  0.00    -0.354 N 
ATOM     37  H   UNL     1      -6.942   3.229  -3.164  1.00  0.00     0.163 HD
BRANCH  36  38
ATOM     38  C   UNL     1      -6.420   5.249  -2.707  1.00  0.00     0.116 C 
BRANCH  38  39
ATOM     39  C   UNL     1      -7.487   5.652  -1.692  1.00  0.00     0.023 C 
BRANCH  39  40
ATOM     40  C   UNL     1      -6.959   6.629  -0.647  1.00  0.00     0.026 C 
BRANCH  40  41
ATOM     41  C   UNL     1      -7.072   6.036   0.757  1.00  0.00     0.146 C 
BRANCH  41  42
ATOM     42  N   UNL     1      -5.828   5.366   1.111  1.00  0.00    -0.254 NA
ATOM     43  C   UNL     1      -5.850   4.135   1.462  1.00  0.00     0.185 C 
ATOM     44  N   UNL     1      -6.887   3.284   1.572  1.00  0.00    -0.370 N 
ATOM     45  N   UNL     1      -4.692   3.536   1.789  1.00  0.00    -0.370 N 
ATOM     46  H   UNL     1      -6.794   2.427   2.089  1.00  0.00     0.159 HD
ATOM     47  H   UNL     1      -7.835   3.569   1.350  1.00  0.00     0.159 HD
ATOM     48  H   UNL     1      -3.860   4.106   1.724  1.00  0.00     0.159 HD
ATOM     49  H   UNL     1      -4.592   2.538   1.841  1.00  0.00     0.159 HD
ENDBRANCH  41  42
ENDBRANCH  40  41
ENDBRANCH  39  40
ENDBRANCH  38  39
ENDBRANCH  36  38
ENDBRANCH   5  34
BRANCH   8  50
ATOM     50  O   UNL     1      -9.703   2.104  -1.498  1.00  0.00    -0.245 OA
BRANCH  50  51
ATOM     51  S   UNL     1     -10.610   2.877  -0.391  1.00  0.00     0.397 S 
ATOM     52  O   UNL     1     -11.753   3.446  -1.069  1.00  0.00    -0.169 OA
ATOM     53  O   UNL     1      -9.758   3.678   0.463  1.00  0.00    -0.169 OA
BRANCH  51  54
ATOM     54  O   UNL     1     -11.184   1.657   0.485  1.00  0.00    -0.264 OA
ATOM     55  H   UNL     1     -12.107   1.496   0.204  1.00  0.00     0.236 HD
ENDBRANCH  51  54
ENDBRANCH  50  51
ENDBRANCH   8  50
TORSDOF 19
ENDMDL
