MODEL 1
REMARK VINA RESULT:    -5.247      0.000      0.000
REMARK INTER + INTRA:         -10.633
REMARK INTER:                  -8.929
REMARK INTRA:                  -1.705
REMARK UNBOUND:                -1.705
REMARK SMILES CC[C@H](C)[C@@H]1NC(=O)[C@H]2CSC(=N2)[C@@H]([C@@H](C)CC)NC(=O)c2csc(n2)CNC(=O)[C@H]2N=C1O[C@@H]2C
REMARK SMILES IDX 27 1 25 2 22 3 26 4 23 5 24 6 20 7 19 8 21 9 14 11 12 12
REMARK SMILES IDX 11 13 10 14 13 15 9 16 15 18 16 19 17 20 18 21 28 22 29 23
REMARK SMILES IDX 30 24 31 26 32 27 35 28 33 29 34 30 36 31 5 32 6 33 7 34
REMARK SMILES IDX 8 35 3 38 4 39 2 40 1 41
REMARK H PARENT 19 10 28 25 6 36
REMARK Flexibility Score:   91.900
ROOT
ATOM      1  C   UNL     1       3.966  -1.792   3.309  1.00  0.00     0.183 C 
ENDROOT
BRANCH   1   2
ATOM      2  C   UNL     1       3.986  -2.943   4.273  1.00  0.00     0.113 A 
ATOM      3  C   UNL     1       3.935  -4.039   6.213  1.00  0.00     0.139 A 
ATOM      4  N   UNL     1       3.724  -2.822   5.562  1.00  0.00    -0.234 NA
ATOM      5  C   UNL     1       4.298  -5.078   5.379  1.00  0.00     0.101 A 
ATOM      6  S   UNL     1       4.405  -4.525   3.758  1.00  0.00    -0.125 S 
BRANCH   3   7
ATOM      7  C   UNL     1       3.803  -4.124   7.669  1.00  0.00     0.271 C 
ATOM      8  N   UNL     1       4.169  -2.949   8.279  1.00  0.00    -0.341 N 
ATOM      9  O   UNL     1       3.444  -5.133   8.262  1.00  0.00    -0.267 OA
ATOM     10  H   UNL     1       4.423  -2.187   7.652  1.00  0.00     0.164 HD
BRANCH   8  11
ATOM     11  C   UNL     1       4.322  -2.788   9.716  1.00  0.00     0.140 C 
BRANCH  11  12
ATOM     12  C   UNL     1       5.689  -2.148   9.974  1.00  0.00     0.091 C 
ATOM     13  S   UNL     1       5.968  -1.202  11.417  1.00  0.00    -0.106 SA
ATOM     14  C   UNL     1       7.743  -1.198  11.086  1.00  0.00     0.113 C 
ATOM     15  N   UNL     1       6.653  -2.217   9.111  1.00  0.00    -0.267 NA
ATOM     16  C   UNL     1       7.824  -1.413   9.583  1.00  0.00     0.205 CG0
ATOM     17  G   UNL     1       7.899  -0.067   8.844  1.00  0.00     0.000 G0
ENDBRANCH  11  12
BRANCH  11  18
ATOM     18  C   UNL     1       3.106  -2.120  10.408  1.00  0.00     0.015 C 
ATOM     19  C   UNL     1       2.167  -1.504   9.363  1.00  0.00     0.010 C 
BRANCH  18  20
ATOM     20  C   UNL     1       2.340  -3.032  11.387  1.00  0.00     0.002 C 
ATOM     21  C   UNL     1       1.131  -3.708  10.749  1.00  0.00     0.004 C 
ENDBRANCH  18  20
ENDBRANCH  11  18
ENDBRANCH   8  11
ENDBRANCH   3   7
ENDBRANCH   1   2
BRANCH   1  22
ATOM     22  N   UNL     1       5.257  -1.144   3.381  1.00  0.00    -0.348 N 
ATOM     23  C   UNL     1       5.489   0.169   3.072  1.00  0.00     0.249 C 
ATOM     24  O   UNL     1       4.597   0.958   2.781  1.00  0.00    -0.272 OA
ATOM     25  H   UNL     1       6.074  -1.715   3.593  1.00  0.00     0.163 HD
BRANCH  23  26
ATOM     26  C   UNL     1       6.971   0.555   3.190  1.00  0.00     0.238 C 
ATOM     27  N   UNL     1       7.158   1.422   4.387  1.00  0.00    -0.236 NA
ATOM     28  C   UNL     1       7.857  -0.656   3.423  1.00  0.00     0.206 C 
ATOM     29  C   UNL     1       7.833   0.666   5.200  1.00  0.00     0.208 C 
ATOM     30  O   UNL     1       8.186  -0.584   4.810  1.00  0.00    -0.474 OA
ATOM     31  C   UNL     1       9.146  -0.601   2.614  1.00  0.00     0.056 C 
BRANCH  29  32
ATOM     32  C   UNL     1       8.249   1.016   6.626  1.00  0.00     0.171 C 
BRANCH  32  33
ATOM     33  N   UNL     1       8.165  -0.149   7.492  1.00  0.00    -0.342 N 
ATOM     34  C   UNL     1       7.925  -0.053   8.842  1.00  0.00     0.246 CG0
ATOM     35  O   UNL     1       7.790   1.021   9.424  1.00  0.00    -0.273 OA
ATOM     36  H   UNL     1       8.319  -1.084   7.131  1.00  0.00     0.164 HD
ATOM     37  G   UNL     1       7.814  -1.404   9.568  1.00  0.00     0.000 G0
ENDBRANCH  32  33
BRANCH  32  38
ATOM     38  C   UNL     1       9.659   1.663   6.636  1.00  0.00     0.017 C 
ATOM     39  C   UNL     1      10.739   0.574   6.606  1.00  0.00     0.010 C 
BRANCH  38  40
ATOM     40  C   UNL     1       9.858   2.693   5.500  1.00  0.00     0.002 C 
ATOM     41  C   UNL     1       9.956   4.131   5.992  1.00  0.00     0.004 C 
ENDBRANCH  38  40
ENDBRANCH  32  38
ENDBRANCH  29  32
ENDBRANCH  23  26
ENDBRANCH   1  22
TORSDOF 4
ENDMDL
MODEL 2
REMARK VINA RESULT:    -5.110      5.216      7.887
REMARK INTER + INTRA:         -10.400
REMARK INTER:                  -8.620
REMARK INTRA:                  -1.780
REMARK UNBOUND:                -1.705
REMARK SMILES CC[C@H](C)[C@@H]1NC(=O)[C@H]2CSC(=N2)[C@@H]([C@@H](C)CC)NC(=O)c2csc(n2)CNC(=O)[C@H]2N=C1O[C@@H]2C
REMARK SMILES IDX 27 1 25 2 22 3 26 4 23 5 24 6 20 7 19 8 21 9 14 11 12 12
REMARK SMILES IDX 11 13 10 14 13 15 9 16 15 18 16 19 17 20 18 21 28 22 29 23
REMARK SMILES IDX 30 24 31 26 32 27 35 28 33 29 34 30 36 31 5 32 6 33 7 34
REMARK SMILES IDX 8 35 3 38 4 39 2 40 1 41
REMARK H PARENT 19 10 28 25 6 36
REMARK Flexibility Score:   91.900
ROOT
ATOM      1  C   UNL     1       5.184  -0.148  -0.588  1.00  0.00     0.183 C 
ENDROOT
BRANCH   1   2
ATOM      2  C   UNL     1       5.300   0.182   0.873  1.00  0.00     0.113 A 
ATOM      3  C   UNL     1       6.211   0.402   2.895  1.00  0.00     0.139 A 
ATOM      4  N   UNL     1       6.441   0.165   1.538  1.00  0.00    -0.234 NA
ATOM      5  C   UNL     1       4.891   0.653   3.216  1.00  0.00     0.101 A 
ATOM      6  S   UNL     1       3.913   0.568   1.808  1.00  0.00    -0.125 S 
BRANCH   3   7
ATOM      7  C   UNL     1       7.320   0.333   3.849  1.00  0.00     0.271 C 
ATOM      8  N   UNL     1       8.515   0.665   3.261  1.00  0.00    -0.341 N 
ATOM      9  O   UNL     1       7.192  -0.013   5.017  1.00  0.00    -0.267 OA
ATOM     10  H   UNL     1       8.460   0.955   2.285  1.00  0.00     0.164 HD
BRANCH   8  11
ATOM     11  C   UNL     1       9.811   0.510   3.900  1.00  0.00     0.140 C 
BRANCH  11  12
ATOM     12  C   UNL     1      10.723  -0.252   2.933  1.00  0.00     0.091 C 
ATOM     13  S   UNL     1      10.859   0.246   1.263  1.00  0.00    -0.106 SA
ATOM     14  C   UNL     1      12.276  -0.851   1.038  1.00  0.00     0.113 C 
ATOM     15  N   UNL     1      11.361  -1.322   3.290  1.00  0.00    -0.267 NA
ATOM     16  C   UNL     1      12.082  -1.907   2.116  1.00  0.00     0.205 CG0
ATOM     17  G   UNL     1      11.323  -3.121   1.557  1.00  0.00     0.000 G0
ENDBRANCH  11  12
BRANCH  11  18
ATOM     18  C   UNL     1      10.382   1.822   4.495  1.00  0.00     0.015 C 
ATOM     19  C   UNL     1      10.314   2.953   3.461  1.00  0.00     0.010 C 
BRANCH  18  20
ATOM     20  C   UNL     1       9.752   2.248   5.837  1.00  0.00     0.002 C 
ATOM     21  C   UNL     1       9.897   3.740   6.116  1.00  0.00     0.004 C 
ENDBRANCH  18  20
ENDBRANCH  11  18
ENDBRANCH   8  11
ENDBRANCH   3   7
ENDBRANCH   1   2
BRANCH   1  22
ATOM     22  N   UNL     1       5.940  -1.359  -0.819  1.00  0.00    -0.348 N 
ATOM     23  C   UNL     1       7.101  -1.428  -1.542  1.00  0.00     0.249 C 
ATOM     24  O   UNL     1       7.667  -0.441  -1.999  1.00  0.00    -0.272 OA
ATOM     25  H   UNL     1       5.548  -2.244  -0.500  1.00  0.00     0.163 HD
BRANCH  23  26
ATOM     26  C   UNL     1       7.643  -2.860  -1.661  1.00  0.00     0.238 C 
ATOM     27  N   UNL     1       8.819  -3.016  -0.761  1.00  0.00    -0.236 NA
ATOM     28  C   UNL     1       6.632  -3.892  -1.193  1.00  0.00     0.206 C 
ATOM     29  C   UNL     1       8.382  -3.820   0.162  1.00  0.00     0.208 C 
ATOM     30  O   UNL     1       7.113  -4.291   0.089  1.00  0.00    -0.474 OA
ATOM     31  C   UNL     1       6.586  -5.116  -2.098  1.00  0.00     0.056 C 
BRANCH  29  32
ATOM     32  C   UNL     1       9.148  -4.276   1.401  1.00  0.00     0.171 C 
BRANCH  32  33
ATOM     33  N   UNL     1      10.021  -3.221   1.890  1.00  0.00    -0.342 N 
ATOM     34  C   UNL     1      11.349  -3.138   1.543  1.00  0.00     0.246 CG0
ATOM     35  O   UNL     1      11.905  -3.959   0.818  1.00  0.00    -0.273 OA
ATOM     36  H   UNL     1       9.684  -2.521   2.542  1.00  0.00     0.164 HD
ATOM     37  G   UNL     1      12.082  -1.915   2.119  1.00  0.00     0.000 G0
ENDBRANCH  32  33
BRANCH  32  38
ATOM     38  C   UNL     1       8.166  -4.787   2.488  1.00  0.00     0.017 C 
ATOM     39  C   UNL     1       8.850  -5.850   3.358  1.00  0.00     0.010 C 
BRANCH  38  40
ATOM     40  C   UNL     1       7.571  -3.647   3.346  1.00  0.00     0.002 C 
ATOM     41  C   UNL     1       7.820  -3.814   4.840  1.00  0.00     0.004 C 
ENDBRANCH  38  40
ENDBRANCH  32  38
ENDBRANCH  29  32
ENDBRANCH  23  26
ENDBRANCH   1  22
TORSDOF 4
ENDMDL
MODEL 3
REMARK VINA RESULT:    -4.939      4.637      6.602
REMARK INTER + INTRA:         -10.109
REMARK INTER:                  -8.434
REMARK INTRA:                  -1.675
REMARK UNBOUND:                -1.705
REMARK SMILES CC[C@H](C)[C@@H]1NC(=O)[C@H]2CSC(=N2)[C@@H]([C@@H](C)CC)NC(=O)c2csc(n2)CNC(=O)[C@H]2N=C1O[C@@H]2C
REMARK SMILES IDX 27 1 25 2 22 3 26 4 23 5 24 6 20 7 19 8 21 9 14 11 12 12
REMARK SMILES IDX 11 13 10 14 13 15 9 16 15 18 16 19 17 20 18 21 28 22 29 23
REMARK SMILES IDX 30 24 31 26 32 27 35 28 33 29 34 30 36 31 5 32 6 33 7 34
REMARK SMILES IDX 8 35 3 38 4 39 2 40 1 41
REMARK H PARENT 19 10 28 25 6 36
REMARK Flexibility Score:   91.900
ROOT
ATOM      1  C   UNL     1       3.739  -4.175   0.616  1.00  0.00     0.183 C 
ENDROOT
BRANCH   1   2
ATOM      2  C   UNL     1       5.046  -4.869   0.364  1.00  0.00     0.113 A 
ATOM      3  C   UNL     1       7.183  -5.447   0.619  1.00  0.00     0.139 A 
ATOM      4  N   UNL     1       6.083  -4.795   1.178  1.00  0.00    -0.234 NA
ATOM      5  C   UNL     1       6.931  -6.058  -0.594  1.00  0.00     0.101 A 
ATOM      6  S   UNL     1       5.300  -5.793  -1.061  1.00  0.00    -0.125 S 
BRANCH   3   7
ATOM      7  C   UNL     1       8.480  -5.411   1.298  1.00  0.00     0.271 C 
ATOM      8  N   UNL     1       8.336  -5.291   2.658  1.00  0.00    -0.341 N 
ATOM      9  O   UNL     1       9.556  -5.449   0.714  1.00  0.00    -0.267 OA
ATOM     10  H   UNL     1       7.376  -5.296   3.001  1.00  0.00     0.164 HD
BRANCH   8  11
ATOM     11  C   UNL     1       9.434  -5.043   3.578  1.00  0.00     0.140 C 
BRANCH  11  12
ATOM     12  C   UNL     1       9.175  -3.701   4.268  1.00  0.00     0.091 C 
ATOM     13  S   UNL     1       7.683  -3.421   5.134  1.00  0.00    -0.106 SA
ATOM     14  C   UNL     1       8.368  -1.911   5.850  1.00  0.00     0.113 C 
ATOM     15  N   UNL     1      10.006  -2.710   4.175  1.00  0.00    -0.267 NA
ATOM     16  C   UNL     1       9.442  -1.501   4.855  1.00  0.00     0.205 CG0
ATOM     17  G   UNL     1       8.881  -0.506   3.827  1.00  0.00     0.000 G0
ENDBRANCH  11  12
BRANCH  11  18
ATOM     18  C   UNL     1       9.762  -6.242   4.505  1.00  0.00     0.015 C 
ATOM     19  C   UNL     1      10.092  -7.488   3.672  1.00  0.00     0.010 C 
BRANCH  18  20
ATOM     20  C   UNL     1      10.854  -5.963   5.557  1.00  0.00     0.002 C 
ATOM     21  C   UNL     1      10.310  -5.907   6.980  1.00  0.00     0.004 C 
ENDBRANCH  18  20
ENDBRANCH  11  18
ENDBRANCH   8  11
ENDBRANCH   3   7
ENDBRANCH   1   2
BRANCH   1  22
ATOM     22  N   UNL     1       4.040  -2.841   1.085  1.00  0.00    -0.348 N 
ATOM     23  C   UNL     1       3.430  -2.232   2.148  1.00  0.00     0.249 C 
ATOM     24  O   UNL     1       2.616  -2.796   2.869  1.00  0.00    -0.272 OA
ATOM     25  H   UNL     1       4.690  -2.273   0.543  1.00  0.00     0.163 HD
BRANCH  23  26
ATOM     26  C   UNL     1       3.922  -0.794   2.371  1.00  0.00     0.238 C 
ATOM     27  N   UNL     1       5.329  -0.825   2.857  1.00  0.00    -0.236 NA
ATOM     28  C   UNL     1       3.956   0.003   1.079  1.00  0.00     0.206 C 
ATOM     29  C   UNL     1       6.001  -0.340   1.856  1.00  0.00     0.208 C 
ATOM     30  O   UNL     1       5.341   0.055   0.740  1.00  0.00    -0.474 OA
ATOM     31  C   UNL     1       3.445   1.427   1.256  1.00  0.00     0.056 C 
BRANCH  29  32
ATOM     32  C   UNL     1       7.518  -0.204   1.766  1.00  0.00     0.171 C 
BRANCH  32  33
ATOM     33  N   UNL     1       8.174  -1.022   2.775  1.00  0.00    -0.342 N 
ATOM     34  C   UNL     1       8.871  -0.481   3.828  1.00  0.00     0.246 CG0
ATOM     35  O   UNL     1       9.016   0.729   3.985  1.00  0.00    -0.273 OA
ATOM     36  H   UNL     1       8.169  -2.034   2.713  1.00  0.00     0.164 HD
ATOM     37  G   UNL     1       9.438  -1.514   4.815  1.00  0.00     0.000 G0
ENDBRANCH  32  33
BRANCH  32  38
ATOM     38  C   UNL     1       8.007  -0.526   0.329  1.00  0.00     0.017 C 
ATOM     39  C   UNL     1       9.520  -0.295   0.224  1.00  0.00     0.010 C 
BRANCH  38  40
ATOM     40  C   UNL     1       7.615  -1.947  -0.136  1.00  0.00     0.002 C 
ATOM     41  C   UNL     1       7.325  -2.041  -1.629  1.00  0.00     0.004 C 
ENDBRANCH  38  40
ENDBRANCH  32  38
ENDBRANCH  29  32
ENDBRANCH  23  26
ENDBRANCH   1  22
TORSDOF 4
ENDMDL
MODEL 4
REMARK VINA RESULT:    -4.797      5.671      8.062
REMARK INTER + INTRA:          -9.868
REMARK INTER:                  -8.229
REMARK INTRA:                  -1.638
REMARK UNBOUND:                -1.705
REMARK SMILES CC[C@H](C)[C@@H]1NC(=O)[C@H]2CSC(=N2)[C@@H]([C@@H](C)CC)NC(=O)c2csc(n2)CNC(=O)[C@H]2N=C1O[C@@H]2C
REMARK SMILES IDX 27 1 25 2 22 3 26 4 23 5 24 6 20 7 19 8 21 9 14 11 12 12
REMARK SMILES IDX 11 13 10 14 13 15 9 16 15 18 16 19 17 20 18 21 28 22 29 23
REMARK SMILES IDX 30 24 31 26 32 27 35 28 33 29 34 30 36 31 5 32 6 33 7 34
REMARK SMILES IDX 8 35 3 38 4 39 2 40 1 41
REMARK H PARENT 19 10 28 25 6 36
REMARK Flexibility Score:   91.900
ROOT
ATOM      1  C   UNL     1       3.772  -4.151   1.728  1.00  0.00     0.183 C 
ENDROOT
BRANCH   1   2
ATOM      2  C   UNL     1       4.753  -4.951   0.920  1.00  0.00     0.113 A 
ATOM      3  C   UNL     1       6.702  -5.797   0.249  1.00  0.00     0.139 A 
ATOM      4  N   UNL     1       6.022  -5.101   1.250  1.00  0.00    -0.234 NA
ATOM      5  C   UNL     1       5.905  -6.212  -0.801  1.00  0.00     0.101 A 
ATOM      6  S   UNL     1       4.285  -5.705  -0.549  1.00  0.00    -0.125 S 
BRANCH   3   7
ATOM      7  C   UNL     1       8.149  -5.998   0.348  1.00  0.00     0.271 C 
ATOM      8  N   UNL     1       8.668  -5.393   1.467  1.00  0.00    -0.341 N 
ATOM      9  O   UNL     1       8.811  -6.602  -0.486  1.00  0.00    -0.267 OA
ATOM     10  H   UNL     1       7.988  -4.946   2.081  1.00  0.00     0.164 HD
BRANCH   8  11
ATOM     11  C   UNL     1      10.090  -5.259   1.738  1.00  0.00     0.140 C 
BRANCH  11  12
ATOM     12  C   UNL     1      10.392  -3.771   1.936  1.00  0.00     0.091 C 
ATOM     13  S   UNL     1       9.871  -2.945   3.386  1.00  0.00    -0.106 SA
ATOM     14  C   UNL     1      10.895  -1.521   2.958  1.00  0.00     0.113 C 
ATOM     15  N   UNL     1      10.971  -3.060   1.020  1.00  0.00    -0.267 NA
ATOM     16  C   UNL     1      11.037  -1.627   1.447  1.00  0.00     0.205 CG0
ATOM     17  G   UNL     1       9.957  -0.793   0.739  1.00  0.00     0.000 G0
ENDBRANCH  11  12
BRANCH  11  18
ATOM     18  C   UNL     1      10.615  -6.221   2.834  1.00  0.00     0.015 C 
ATOM     19  C   UNL     1       9.450  -6.775   3.664  1.00  0.00     0.010 C 
BRANCH  18  20
ATOM     20  C   UNL     1      11.526  -7.353   2.316  1.00  0.00     0.002 C 
ATOM     21  C   UNL     1      12.420  -6.916   1.161  1.00  0.00     0.004 C 
ENDBRANCH  18  20
ENDBRANCH  11  18
ENDBRANCH   8  11
ENDBRANCH   3   7
ENDBRANCH   1   2
BRANCH   1  22
ATOM     22  N   UNL     1       4.356  -2.846   1.949  1.00  0.00    -0.348 N 
ATOM     23  C   UNL     1       4.228  -2.120   3.101  1.00  0.00     0.249 C 
ATOM     24  O   UNL     1       3.669  -2.545   4.106  1.00  0.00    -0.272 OA
ATOM     25  H   UNL     1       4.825  -2.388   1.169  1.00  0.00     0.163 HD
BRANCH  23  26
ATOM     26  C   UNL     1       4.911  -0.746   3.018  1.00  0.00     0.238 C 
ATOM     27  N   UNL     1       6.325  -0.926   2.587  1.00  0.00    -0.236 NA
ATOM     28  C   UNL     1       4.275   0.142   1.963  1.00  0.00     0.206 C 
ATOM     29  C   UNL     1       6.339  -0.420   1.390  1.00  0.00     0.208 C 
ATOM     30  O   UNL     1       5.201   0.110   0.878  1.00  0.00    -0.474 OA
ATOM     31  C   UNL     1       4.121   1.584   2.428  1.00  0.00     0.056 C 
BRANCH  29  32
ATOM     32  C   UNL     1       7.525  -0.398   0.430  1.00  0.00     0.171 C 
BRANCH  32  33
ATOM     33  N   UNL     1       8.659  -1.117   0.990  1.00  0.00    -0.342 N 
ATOM     34  C   UNL     1       9.962  -0.768   0.724  1.00  0.00     0.246 CG0
ATOM     35  O   UNL     1      10.268   0.157  -0.024  1.00  0.00    -0.273 OA
ATOM     36  H   UNL     1       8.525  -1.935   1.575  1.00  0.00     0.164 HD
ATOM     37  G   UNL     1      11.011  -1.616   1.460  1.00  0.00     0.000 G0
ENDBRANCH  32  33
BRANCH  32  38
ATOM     38  C   UNL     1       7.107  -0.940  -0.962  1.00  0.00     0.017 C 
ATOM     39  C   UNL     1       7.712  -0.068  -2.070  1.00  0.00     0.010 C 
BRANCH  38  40
ATOM     40  C   UNL     1       7.456  -2.433  -1.158  1.00  0.00     0.002 C 
ATOM     41  C   UNL     1       8.307  -2.703  -2.392  1.00  0.00     0.004 C 
ENDBRANCH  38  40
ENDBRANCH  32  38
ENDBRANCH  29  32
ENDBRANCH  23  26
ENDBRANCH   1  22
TORSDOF 4
ENDMDL
MODEL 5
REMARK VINA RESULT:    -4.745      5.055      7.307
REMARK INTER + INTRA:          -9.779
REMARK INTER:                  -8.118
REMARK INTRA:                  -1.661
REMARK UNBOUND:                -1.705
REMARK SMILES CC[C@H](C)[C@@H]1NC(=O)[C@H]2CSC(=N2)[C@@H]([C@@H](C)CC)NC(=O)c2csc(n2)CNC(=O)[C@H]2N=C1O[C@@H]2C
REMARK SMILES IDX 27 1 25 2 22 3 26 4 23 5 24 6 20 7 19 8 21 9 14 11 12 12
REMARK SMILES IDX 11 13 10 14 13 15 9 16 15 18 16 19 17 20 18 21 28 22 29 23
REMARK SMILES IDX 30 24 31 26 32 27 35 28 33 29 34 30 36 31 5 32 6 33 7 34
REMARK SMILES IDX 8 35 3 38 4 39 2 40 1 41
REMARK H PARENT 19 10 28 25 6 36
REMARK Flexibility Score:   91.900
ROOT
ATOM      1  C   UNL     1       3.798  -4.279   0.632  1.00  0.00     0.183 C 
ENDROOT
BRANCH   1   2
ATOM      2  C   UNL     1       4.992  -4.768  -0.136  1.00  0.00     0.113 A 
ATOM      3  C   UNL     1       6.984  -5.686  -0.532  1.00  0.00     0.139 A 
ATOM      4  N   UNL     1       5.964  -5.484   0.399  1.00  0.00    -0.234 NA
ATOM      5  C   UNL     1       6.729  -5.160  -1.783  1.00  0.00     0.101 A 
ATOM      6  S   UNL     1       5.202  -4.377  -1.795  1.00  0.00    -0.125 S 
BRANCH   3   7
ATOM      7  C   UNL     1       8.215  -6.372  -0.133  1.00  0.00     0.271 C 
ATOM      8  N   UNL     1       8.733  -5.849   1.025  1.00  0.00    -0.341 N 
ATOM      9  O   UNL     1       8.729  -7.277  -0.778  1.00  0.00    -0.267 OA
ATOM     10  H   UNL     1       8.180  -5.112   1.463  1.00  0.00     0.164 HD
BRANCH   8  11
ATOM     11  C   UNL     1      10.038  -6.193   1.566  1.00  0.00     0.140 C 
BRANCH  11  12
ATOM     12  C   UNL     1      10.728  -4.895   1.993  1.00  0.00     0.091 C 
ATOM     13  S   UNL     1      11.998  -4.917   3.193  1.00  0.00    -0.106 SA
ATOM     14  C   UNL     1      12.420  -3.207   2.798  1.00  0.00     0.113 C 
ATOM     15  N   UNL     1      10.353  -3.738   1.544  1.00  0.00    -0.267 NA
ATOM     16  C   UNL     1      11.132  -2.649   2.214  1.00  0.00     0.205 CG0
ATOM     17  G   UNL     1      10.291  -1.966   3.304  1.00  0.00     0.000 G0
ENDBRANCH  11  12
BRANCH  11  18
ATOM     18  C   UNL     1      10.004  -7.333   2.616  1.00  0.00     0.015 C 
ATOM     19  C   UNL     1       8.916  -7.063   3.664  1.00  0.00     0.010 C 
BRANCH  18  20
ATOM     20  C   UNL     1       9.877  -8.751   2.025  1.00  0.00     0.002 C 
ATOM     21  C   UNL     1       9.938  -9.846   3.084  1.00  0.00     0.004 C 
ENDBRANCH  18  20
ENDBRANCH  11  18
ENDBRANCH   8  11
ENDBRANCH   3   7
ENDBRANCH   1   2
BRANCH   1  22
ATOM     22  N   UNL     1       4.154  -3.009   1.224  1.00  0.00    -0.348 N 
ATOM     23  C   UNL     1       4.537  -2.837   2.526  1.00  0.00     0.249 C 
ATOM     24  O   UNL     1       4.700  -3.767   3.308  1.00  0.00    -0.272 OA
ATOM     25  H   UNL     1       4.033  -2.164   0.667  1.00  0.00     0.163 HD
BRANCH  23  26
ATOM     26  C   UNL     1       4.798  -1.365   2.880  1.00  0.00     0.238 C 
ATOM     27  N   UNL     1       5.935  -1.284   3.838  1.00  0.00    -0.236 NA
ATOM     28  C   UNL     1       5.230  -0.557   1.668  1.00  0.00     0.206 C 
ATOM     29  C   UNL     1       6.880  -0.737   3.134  1.00  0.00     0.208 C 
ATOM     30  O   UNL     1       6.635  -0.388   1.847  1.00  0.00    -0.474 OA
ATOM     31  C   UNL     1       4.577   0.818   1.620  1.00  0.00     0.056 C 
BRANCH  29  32
ATOM     32  C   UNL     1       8.312  -0.475   3.591  1.00  0.00     0.171 C 
BRANCH  32  33
ATOM     33  N   UNL     1       9.262  -1.198   2.760  1.00  0.00    -0.342 N 
ATOM     34  C   UNL     1      10.287  -1.947   3.287  1.00  0.00     0.246 CG0
ATOM     35  O   UNL     1      10.495  -2.044   4.494  1.00  0.00    -0.273 OA
ATOM     36  H   UNL     1       9.222  -1.142   1.748  1.00  0.00     0.164 HD
ATOM     37  G   UNL     1      11.143  -2.680   2.241  1.00  0.00     0.000 G0
ENDBRANCH  32  33
BRANCH  32  38
ATOM     38  C   UNL     1       8.599   1.049   3.633  1.00  0.00     0.017 C 
ATOM     39  C   UNL     1       8.047   1.653   4.931  1.00  0.00     0.010 C 
BRANCH  38  40
ATOM     40  C   UNL     1      10.095   1.387   3.439  1.00  0.00     0.002 C 
ATOM     41  C   UNL     1      10.471   2.784   3.916  1.00  0.00     0.004 C 
ENDBRANCH  38  40
ENDBRANCH  32  38
ENDBRANCH  29  32
ENDBRANCH  23  26
ENDBRANCH   1  22
TORSDOF 4
ENDMDL
MODEL 6
REMARK VINA RESULT:    -4.727      4.702      7.713
REMARK INTER + INTRA:          -9.748
REMARK INTER:                  -7.981
REMARK INTRA:                  -1.768
REMARK UNBOUND:                -1.705
REMARK SMILES CC[C@H](C)[C@@H]1NC(=O)[C@H]2CSC(=N2)[C@@H]([C@@H](C)CC)NC(=O)c2csc(n2)CNC(=O)[C@H]2N=C1O[C@@H]2C
REMARK SMILES IDX 27 1 25 2 22 3 26 4 23 5 24 6 20 7 19 8 21 9 14 11 12 12
REMARK SMILES IDX 11 13 10 14 13 15 9 16 15 18 16 19 17 20 18 21 28 22 29 23
REMARK SMILES IDX 30 24 31 26 32 27 35 28 33 29 34 30 36 31 5 32 6 33 7 34
REMARK SMILES IDX 8 35 3 38 4 39 2 40 1 41
REMARK H PARENT 19 10 28 25 6 36
REMARK Flexibility Score:   91.900
ROOT
ATOM      1  C   UNL     1       3.449  -2.135   0.789  1.00  0.00     0.183 C 
ENDROOT
BRANCH   1   2
ATOM      2  C   UNL     1       3.968  -2.391   2.175  1.00  0.00     0.113 A 
ATOM      3  C   UNL     1       5.426  -2.669   3.837  1.00  0.00     0.139 A 
ATOM      4  N   UNL     1       5.235  -2.250   2.519  1.00  0.00    -0.234 NA
ATOM      5  C   UNL     1       4.273  -3.067   4.484  1.00  0.00     0.101 A 
ATOM      6  S   UNL     1       2.928  -2.941   3.425  1.00  0.00    -0.125 S 
BRANCH   3   7
ATOM      7  C   UNL     1       6.775  -2.698   4.408  1.00  0.00     0.271 C 
ATOM      8  N   UNL     1       7.532  -1.638   3.972  1.00  0.00    -0.341 N 
ATOM      9  O   UNL     1       7.179  -3.581   5.154  1.00  0.00    -0.267 OA
ATOM     10  H   UNL     1       7.050  -0.970   3.371  1.00  0.00     0.164 HD
BRANCH   8  11
ATOM     11  C   UNL     1       8.958  -1.498   4.216  1.00  0.00     0.140 C 
BRANCH  11  12
ATOM     12  C   UNL     1       9.651  -1.326   2.861  1.00  0.00     0.091 C 
ATOM     13  S   UNL     1       8.999  -0.234   1.662  1.00  0.00    -0.106 SA
ATOM     14  C   UNL     1      10.512  -0.379   0.688  1.00  0.00     0.113 C 
ATOM     15  N   UNL     1      10.689  -2.027   2.527  1.00  0.00    -0.267 NA
ATOM     16  C   UNL     1      11.082  -1.723   1.115  1.00  0.00     0.205 CG0
ATOM     17  G   UNL     1      10.617  -2.838   0.165  1.00  0.00     0.000 G0
ENDBRANCH  11  12
BRANCH  11  18
ATOM     18  C   UNL     1       9.311  -0.456   5.308  1.00  0.00     0.015 C 
ATOM     19  C   UNL     1      10.827  -0.422   5.545  1.00  0.00     0.010 C 
BRANCH  18  20
ATOM     20  C   UNL     1       8.749   0.958   5.056  1.00  0.00     0.002 C 
ATOM     21  C   UNL     1       7.850   1.451   6.184  1.00  0.00     0.004 C 
ENDBRANCH  18  20
ENDBRANCH  11  18
ENDBRANCH   8  11
ENDBRANCH   3   7
ENDBRANCH   1   2
BRANCH   1  22
ATOM     22  N   UNL     1       4.386  -2.726  -0.140  1.00  0.00    -0.348 N 
ATOM     23  C   UNL     1       5.150  -2.022  -1.030  1.00  0.00     0.249 C 
ATOM     24  O   UNL     1       5.179  -0.797  -1.070  1.00  0.00    -0.272 OA
ATOM     25  H   UNL     1       4.427  -3.743  -0.206  1.00  0.00     0.163 HD
BRANCH  23  26
ATOM     26  C   UNL     1       6.009  -2.929  -1.925  1.00  0.00     0.238 C 
ATOM     27  N   UNL     1       7.423  -2.878  -1.461  1.00  0.00    -0.236 NA
ATOM     28  C   UNL     1       5.598  -4.387  -1.818  1.00  0.00     0.206 C 
ATOM     29  C   UNL     1       7.618  -4.066  -0.970  1.00  0.00     0.208 C 
ATOM     30  O   UNL     1       6.613  -4.975  -1.006  1.00  0.00    -0.474 OA
ATOM     31  C   UNL     1       5.586  -5.091  -3.168  1.00  0.00     0.056 C 
BRANCH  29  32
ATOM     32  C   UNL     1       8.885  -4.562  -0.279  1.00  0.00     0.171 C 
BRANCH  32  33
ATOM     33  N   UNL     1       9.487  -3.508   0.523  1.00  0.00    -0.342 N 
ATOM     34  C   UNL     1      10.629  -2.846   0.140  1.00  0.00     0.246 CG0
ATOM     35  O   UNL     1      11.242  -3.108  -0.891  1.00  0.00    -0.273 OA
ATOM     36  H   UNL     1       9.098  -3.249   1.423  1.00  0.00     0.164 HD
ATOM     37  G   UNL     1      11.067  -1.727   1.099  1.00  0.00     0.000 G0
ENDBRANCH  32  33
BRANCH  32  38
ATOM     38  C   UNL     1       8.588  -5.842   0.546  1.00  0.00     0.017 C 
ATOM     39  C   UNL     1       9.568  -6.957   0.160  1.00  0.00     0.010 C 
BRANCH  38  40
ATOM     40  C   UNL     1       8.586  -5.588   2.071  1.00  0.00     0.002 C 
ATOM     41  C   UNL     1       9.847  -6.075   2.772  1.00  0.00     0.004 C 
ENDBRANCH  38  40
ENDBRANCH  32  38
ENDBRANCH  29  32
ENDBRANCH  23  26
ENDBRANCH   1  22
TORSDOF 4
ENDMDL
MODEL 7
REMARK VINA RESULT:    -4.674      2.697      5.811
REMARK INTER + INTRA:          -9.658
REMARK INTER:                  -8.011
REMARK INTRA:                  -1.647
REMARK UNBOUND:                -1.705
REMARK SMILES CC[C@H](C)[C@@H]1NC(=O)[C@H]2CSC(=N2)[C@@H]([C@@H](C)CC)NC(=O)c2csc(n2)CNC(=O)[C@H]2N=C1O[C@@H]2C
REMARK SMILES IDX 27 1 25 2 22 3 26 4 23 5 24 6 20 7 19 8 21 9 14 11 12 12
REMARK SMILES IDX 11 13 10 14 13 15 9 16 15 18 16 19 17 20 18 21 28 22 29 23
REMARK SMILES IDX 30 24 31 26 32 27 35 28 33 29 34 30 36 31 5 32 6 33 7 34
REMARK SMILES IDX 8 35 3 38 4 39 2 40 1 41
REMARK H PARENT 19 10 28 25 6 36
REMARK Flexibility Score:   91.900
ROOT
ATOM      1  C   UNL     1       3.873  -4.480   7.349  1.00  0.00     0.183 C 
ENDROOT
BRANCH   1   2
ATOM      2  C   UNL     1       4.887  -3.727   8.161  1.00  0.00     0.113 A 
ATOM      3  C   UNL     1       6.860  -2.904   8.789  1.00  0.00     0.139 A 
ATOM      4  N   UNL     1       6.135  -3.534   7.776  1.00  0.00    -0.234 NA
ATOM      5  C   UNL     1       6.118  -2.579   9.907  1.00  0.00     0.101 A 
ATOM      6  S   UNL     1       4.491  -3.090   9.706  1.00  0.00    -0.125 S 
BRANCH   3   7
ATOM      7  C   UNL     1       8.298  -2.675   8.628  1.00  0.00     0.271 C 
ATOM      8  N   UNL     1       8.597  -1.335   8.602  1.00  0.00    -0.341 N 
ATOM      9  O   UNL     1       9.120  -3.574   8.499  1.00  0.00    -0.267 OA
ATOM     10  H   UNL     1       7.809  -0.704   8.746  1.00  0.00     0.164 HD
BRANCH   8  11
ATOM     11  C   UNL     1       9.906  -0.796   8.269  1.00  0.00     0.140 C 
BRANCH  11  12
ATOM     12  C   UNL     1       9.796  -0.102   6.909  1.00  0.00     0.091 C 
ATOM     13  S   UNL     1      10.004   1.629   6.776  1.00  0.00    -0.106 SA
ATOM     14  C   UNL     1      10.088   1.494   4.978  1.00  0.00     0.113 C 
ATOM     15  N   UNL     1       9.477  -0.748   5.832  1.00  0.00    -0.267 NA
ATOM     16  C   UNL     1       9.341   0.202   4.683  1.00  0.00     0.205 CG0
ATOM     17  G   UNL     1       7.861   0.487   4.379  1.00  0.00     0.000 G0
ENDBRANCH  11  12
BRANCH  11  18
ATOM     18  C   UNL     1      10.558   0.024   9.411  1.00  0.00     0.015 C 
ATOM     19  C   UNL     1       9.537   0.303  10.521  1.00  0.00     0.010 C 
BRANCH  18  20
ATOM     20  C   UNL     1      11.857  -0.582   9.980  1.00  0.00     0.002 C 
ATOM     21  C   UNL     1      11.629  -1.903  10.707  1.00  0.00     0.004 C 
ENDBRANCH  18  20
ENDBRANCH  11  18
ENDBRANCH   8  11
ENDBRANCH   3   7
ENDBRANCH   1   2
BRANCH   1  22
ATOM     22  N   UNL     1       4.086  -4.133   5.962  1.00  0.00    -0.348 N 
ATOM     23  C   UNL     1       3.398  -3.162   5.287  1.00  0.00     0.249 C 
ATOM     24  O   UNL     1       2.580  -2.422   5.822  1.00  0.00    -0.272 OA
ATOM     25  H   UNL     1       4.731  -4.702   5.414  1.00  0.00     0.163 HD
BRANCH  23  26
ATOM     26  C   UNL     1       3.806  -3.061   3.809  1.00  0.00     0.238 C 
ATOM     27  N   UNL     1       3.940  -1.626   3.434  1.00  0.00    -0.236 NA
ATOM     28  C   UNL     1       5.170  -3.678   3.552  1.00  0.00     0.206 C 
ATOM     29  C   UNL     1       5.219  -1.485   3.252  1.00  0.00     0.208 C 
ATOM     30  O   UNL     1       6.037  -2.555   3.409  1.00  0.00    -0.474 OA
ATOM     31  C   UNL     1       5.211  -4.491   2.265  1.00  0.00     0.056 C 
BRANCH  29  32
ATOM     32  C   UNL     1       5.947  -0.185   2.919  1.00  0.00     0.171 C 
BRANCH  32  33
ATOM     33  N   UNL     1       7.345  -0.257   3.315  1.00  0.00    -0.342 N 
ATOM     34  C   UNL     1       7.856   0.472   4.362  1.00  0.00     0.246 CG0
ATOM     35  O   UNL     1       7.182   1.255   5.026  1.00  0.00    -0.273 OA
ATOM     36  H   UNL     1       8.007  -0.827   2.800  1.00  0.00     0.164 HD
ATOM     37  G   UNL     1       9.342   0.209   4.656  1.00  0.00     0.000 G0
ENDBRANCH  32  33
BRANCH  32  38
ATOM     38  C   UNL     1       5.771   0.165   1.418  1.00  0.00     0.017 C 
ATOM     39  C   UNL     1       5.947  -1.094   0.559  1.00  0.00     0.010 C 
BRANCH  38  40
ATOM     40  C   UNL     1       4.432   0.876   1.118  1.00  0.00     0.002 C 
ATOM     41  C   UNL     1       3.900   1.694   2.288  1.00  0.00     0.004 C 
ENDBRANCH  38  40
ENDBRANCH  32  38
ENDBRANCH  29  32
ENDBRANCH  23  26
ENDBRANCH   1  22
TORSDOF 4
ENDMDL
MODEL 8
REMARK VINA RESULT:    -4.453      3.663      7.413
REMARK INTER + INTRA:          -9.281
REMARK INTER:                  -7.505
REMARK INTRA:                  -1.777
REMARK UNBOUND:                -1.705
REMARK SMILES CC[C@H](C)[C@@H]1NC(=O)[C@H]2CSC(=N2)[C@@H]([C@@H](C)CC)NC(=O)c2csc(n2)CNC(=O)[C@H]2N=C1O[C@@H]2C
REMARK SMILES IDX 27 1 25 2 22 3 26 4 23 5 24 6 20 7 19 8 21 9 14 11 12 12
REMARK SMILES IDX 11 13 10 14 13 15 9 16 15 18 16 19 17 20 18 21 28 22 29 23
REMARK SMILES IDX 30 24 31 26 32 27 35 28 33 29 34 30 36 31 5 32 6 33 7 34
REMARK SMILES IDX 8 35 3 38 4 39 2 40 1 41
REMARK H PARENT 19 10 28 25 6 36
REMARK Flexibility Score:   91.900
ROOT
ATOM      1  C   UNL     1      11.973   0.033   2.140  1.00  0.00     0.183 C 
ENDROOT
BRANCH   1   2
ATOM      2  C   UNL     1      11.254  -0.974   1.289  1.00  0.00     0.113 A 
ATOM      3  C   UNL     1       9.566  -2.077   0.340  1.00  0.00     0.139 A 
ATOM      4  N   UNL     1       9.952  -0.952   1.071  1.00  0.00    -0.234 NA
ATOM      5  C   UNL     1      10.608  -2.903  -0.031  1.00  0.00     0.101 A 
ATOM      6  S   UNL     1      12.095  -2.282   0.561  1.00  0.00    -0.125 S 
BRANCH   3   7
ATOM      7  C   UNL     1       8.148  -2.320   0.063  1.00  0.00     0.271 C 
ATOM      8  N   UNL     1       7.343  -1.774   1.032  1.00  0.00    -0.341 N 
ATOM      9  O   UNL     1       7.743  -2.962  -0.898  1.00  0.00    -0.267 OA
ATOM     10  H   UNL     1       7.824  -1.247   1.760  1.00  0.00     0.164 HD
BRANCH   8  11
ATOM     11  C   UNL     1       5.911  -2.007   1.131  1.00  0.00     0.140 C 
BRANCH  11  12
ATOM     12  C   UNL     1       5.669  -2.942   2.320  1.00  0.00     0.091 C 
ATOM     13  S   UNL     1       4.050  -3.209   2.923  1.00  0.00    -0.106 SA
ATOM     14  C   UNL     1       4.641  -4.583   3.936  1.00  0.00     0.113 C 
ATOM     15  N   UNL     1       6.645  -3.503   2.962  1.00  0.00    -0.267 NA
ATOM     16  C   UNL     1       6.115  -4.269   4.135  1.00  0.00     0.205 CG0
ATOM     17  G   UNL     1       6.334  -3.490   5.442  1.00  0.00     0.000 G0
ENDBRANCH  11  12
BRANCH  11  18
ATOM     18  C   UNL     1       5.057  -0.714   1.086  1.00  0.00     0.015 C 
ATOM     19  C   UNL     1       5.699   0.381   1.947  1.00  0.00     0.010 C 
BRANCH  18  20
ATOM     20  C   UNL     1       4.739  -0.202  -0.333  1.00  0.00     0.002 C 
ATOM     21  C   UNL     1       3.655   0.870  -0.350  1.00  0.00     0.004 C 
ENDBRANCH  18  20
ENDBRANCH  11  18
ENDBRANCH   8  11
ENDBRANCH   3   7
ENDBRANCH   1   2
BRANCH   1  22
ATOM     22  N   UNL     1      11.100   0.370   3.242  1.00  0.00    -0.348 N 
ATOM     23  C   UNL     1      11.287  -0.032   4.536  1.00  0.00     0.249 C 
ATOM     24  O   UNL     1      12.274  -0.656   4.910  1.00  0.00    -0.272 OA
ATOM     25  H   UNL     1      10.235   0.871   3.039  1.00  0.00     0.163 HD
BRANCH  23  26
ATOM     26  C   UNL     1      10.164   0.436   5.473  1.00  0.00     0.238 C 
ATOM     27  N   UNL     1       8.985  -0.460   5.312  1.00  0.00    -0.236 NA
ATOM     28  C   UNL     1      10.560   0.326   6.936  1.00  0.00     0.206 C 
ATOM     29  C   UNL     1       8.943  -1.104   6.440  1.00  0.00     0.208 C 
ATOM     30  O   UNL     1       9.862  -0.829   7.399  1.00  0.00    -0.474 OA
ATOM     31  C   UNL     1      10.110   1.528   7.755  1.00  0.00     0.056 C 
BRANCH  29  32
ATOM     32  C   UNL     1       7.969  -2.218   6.810  1.00  0.00     0.171 C 
BRANCH  32  33
ATOM     33  N   UNL     1       7.600  -2.996   5.638  1.00  0.00    -0.342 N 
ATOM     34  C   UNL     1       6.338  -3.512   5.458  1.00  0.00     0.246 CG0
ATOM     35  O   UNL     1       5.436  -3.379   6.281  1.00  0.00    -0.273 OA
ATOM     36  H   UNL     1       8.281  -3.218   4.920  1.00  0.00     0.164 HD
ATOM     37  G   UNL     1       6.137  -4.252   4.126  1.00  0.00     0.000 G0
ENDBRANCH  32  33
BRANCH  32  38
ATOM     38  C   UNL     1       8.556  -3.097   7.946  1.00  0.00     0.017 C 
ATOM     39  C   UNL     1       7.442  -3.524   8.911  1.00  0.00     0.010 C 
BRANCH  38  40
ATOM     40  C   UNL     1       9.349  -4.315   7.418  1.00  0.00     0.002 C 
ATOM     41  C   UNL     1       9.478  -5.444   8.431  1.00  0.00     0.004 C 
ENDBRANCH  38  40
ENDBRANCH  32  38
ENDBRANCH  29  32
ENDBRANCH  23  26
ENDBRANCH   1  22
TORSDOF 4
ENDMDL
MODEL 9
REMARK VINA RESULT:    -4.430      4.519      7.770
REMARK INTER + INTRA:          -9.243
REMARK INTER:                  -8.201
REMARK INTRA:                  -1.042
REMARK UNBOUND:                -1.705
REMARK SMILES CC[C@H](C)[C@@H]1NC(=O)[C@H]2CSC(=N2)[C@@H]([C@@H](C)CC)NC(=O)c2csc(n2)CNC(=O)[C@H]2N=C1O[C@@H]2C
REMARK SMILES IDX 27 1 25 2 22 3 26 4 23 5 24 6 20 7 19 8 21 9 14 11 12 12
REMARK SMILES IDX 11 13 10 14 13 15 9 16 15 18 16 19 17 20 18 21 28 22 29 23
REMARK SMILES IDX 30 24 31 26 32 27 35 28 33 29 34 30 36 31 5 32 6 33 7 34
REMARK SMILES IDX 8 35 3 38 4 39 2 40 1 41
REMARK H PARENT 19 10 28 25 6 36
REMARK Flexibility Score:   91.900
ROOT
ATOM      1  C   UNL     1       3.886  -1.194   2.508  1.00  0.00     0.183 C 
ENDROOT
BRANCH   1   2
ATOM      2  C   UNL     1       4.776  -1.246   1.300  1.00  0.00     0.113 A 
ATOM      3  C   UNL     1       6.354  -1.970  -0.097  1.00  0.00     0.139 A 
ATOM      4  N   UNL     1       5.571  -2.263   1.021  1.00  0.00    -0.234 NA
ATOM      5  C   UNL     1       6.087  -0.746  -0.678  1.00  0.00     0.101 A 
ATOM      6  S   UNL     1       4.855   0.067   0.198  1.00  0.00    -0.125 S 
BRANCH   3   7
ATOM      7  C   UNL     1       7.385  -2.913  -0.537  1.00  0.00     0.271 C 
ATOM      8  N   UNL     1       7.220  -4.148   0.039  1.00  0.00    -0.341 N 
ATOM      9  O   UNL     1       8.298  -2.616  -1.298  1.00  0.00    -0.267 OA
ATOM     10  H   UNL     1       6.399  -4.251   0.634  1.00  0.00     0.164 HD
BRANCH   8  11
ATOM     11  C   UNL     1       8.187  -5.230  -0.057  1.00  0.00     0.140 C 
BRANCH  11  12
ATOM     12  C   UNL     1       9.238  -5.019   1.036  1.00  0.00     0.091 C 
ATOM     13  S   UNL     1      10.255  -6.342   1.557  1.00  0.00    -0.106 SA
ATOM     14  C   UNL     1      11.309  -5.192   2.465  1.00  0.00     0.113 C 
ATOM     15  N   UNL     1       9.363  -3.890   1.661  1.00  0.00    -0.267 NA
ATOM     16  C   UNL     1      10.390  -4.012   2.742  1.00  0.00     0.205 CG0
ATOM     17  G   UNL     1       9.722  -4.154   4.120  1.00  0.00     0.000 G0
ENDBRANCH  11  12
BRANCH  11  18
ATOM     18  C   UNL     1       7.548  -6.641  -0.136  1.00  0.00     0.015 C 
ATOM     19  C   UNL     1       6.222  -6.585  -0.907  1.00  0.00     0.010 C 
BRANCH  18  20
ATOM     20  C   UNL     1       8.477  -7.739  -0.691  1.00  0.00     0.002 C 
ATOM     21  C   UNL     1       8.334  -9.067   0.044  1.00  0.00     0.004 C 
ENDBRANCH  18  20
ENDBRANCH  11  18
ENDBRANCH   8  11
ENDBRANCH   3   7
ENDBRANCH   1   2
BRANCH   1  22
ATOM     22  N   UNL     1       4.344  -2.211   3.428  1.00  0.00    -0.348 N 
ATOM     23  C   UNL     1       3.888  -3.500   3.456  1.00  0.00     0.249 C 
ATOM     24  O   UNL     1       3.094  -3.950   2.637  1.00  0.00    -0.272 OA
ATOM     25  H   UNL     1       4.990  -1.938   4.168  1.00  0.00     0.163 HD
BRANCH  23  26
ATOM     26  C   UNL     1       4.521  -4.332   4.581  1.00  0.00     0.238 C 
ATOM     27  N   UNL     1       5.996  -4.385   4.381  1.00  0.00    -0.236 NA
ATOM     28  C   UNL     1       4.318  -3.693   5.944  1.00  0.00     0.206 C 
ATOM     29  C   UNL     1       6.456  -3.671   5.365  1.00  0.00     0.208 C 
ATOM     30  O   UNL     1       5.590  -3.124   6.252  1.00  0.00    -0.474 OA
ATOM     31  C   UNL     1       3.968  -4.712   7.021  1.00  0.00     0.056 C 
BRANCH  29  32
ATOM     32  C   UNL     1       7.919  -3.318   5.620  1.00  0.00     0.171 C 
BRANCH  32  33
ATOM     33  N   UNL     1       8.675  -3.309   4.378  1.00  0.00    -0.342 N 
ATOM     34  C   UNL     1       9.742  -4.147   4.154  1.00  0.00     0.246 CG0
ATOM     35  O   UNL     1      10.153  -4.946   4.990  1.00  0.00    -0.273 OA
ATOM     36  H   UNL     1       8.461  -2.649   3.638  1.00  0.00     0.164 HD
ATOM     37  G   UNL     1      10.368  -4.020   2.755  1.00  0.00     0.000 G0
ENDBRANCH  32  33
BRANCH  32  38
ATOM     38  C   UNL     1       8.026  -1.977   6.392  1.00  0.00     0.017 C 
ATOM     39  C   UNL     1       8.691  -2.206   7.756  1.00  0.00     0.010 C 
BRANCH  38  40
ATOM     40  C   UNL     1       8.749  -0.874   5.585  1.00  0.00     0.002 C 
ATOM     41  C   UNL     1       7.961   0.426   5.489  1.00  0.00     0.004 C 
ENDBRANCH  38  40
ENDBRANCH  32  38
ENDBRANCH  29  32
ENDBRANCH  23  26
ENDBRANCH   1  22
TORSDOF 4
ENDMDL
MODEL 10
REMARK VINA RESULT:    -4.315      2.227      2.614
REMARK INTER + INTRA:          -9.048
REMARK INTER:                  -8.027
REMARK INTRA:                  -1.021
REMARK UNBOUND:                -1.705
REMARK SMILES CC[C@H](C)[C@@H]1NC(=O)[C@H]2CSC(=N2)[C@@H]([C@@H](C)CC)NC(=O)c2csc(n2)CNC(=O)[C@H]2N=C1O[C@@H]2C
REMARK SMILES IDX 27 1 25 2 22 3 26 4 23 5 24 6 20 7 19 8 21 9 14 11 12 12
REMARK SMILES IDX 11 13 10 14 13 15 9 16 15 18 16 19 17 20 18 21 28 22 29 23
REMARK SMILES IDX 30 24 31 26 32 27 35 28 33 29 34 30 36 31 5 32 6 33 7 34
REMARK SMILES IDX 8 35 3 38 4 39 2 40 1 41
REMARK H PARENT 19 10 28 25 6 36
REMARK Flexibility Score:   91.900
ROOT
ATOM      1  C   UNL     1       4.312  -0.133   2.274  1.00  0.00     0.183 C 
ENDROOT
BRANCH   1   2
ATOM      2  C   UNL     1       4.011  -1.556   2.648  1.00  0.00     0.113 A 
ATOM      3  C   UNL     1       4.013  -3.447   3.828  1.00  0.00     0.139 A 
ATOM      4  N   UNL     1       4.311  -2.083   3.821  1.00  0.00    -0.234 NA
ATOM      5  C   UNL     1       3.434  -3.912   2.664  1.00  0.00     0.101 A 
ATOM      6  S   UNL     1       3.279  -2.633   1.529  1.00  0.00    -0.125 S 
BRANCH   3   7
ATOM      7  C   UNL     1       4.354  -4.265   4.994  1.00  0.00     0.271 C 
ATOM      8  N   UNL     1       4.119  -3.595   6.169  1.00  0.00    -0.341 N 
ATOM      9  O   UNL     1       4.822  -5.395   4.919  1.00  0.00    -0.267 OA
ATOM     10  H   UNL     1       3.705  -2.669   6.073  1.00  0.00     0.164 HD
BRANCH   8  11
ATOM     11  C   UNL     1       4.531  -4.073   7.479  1.00  0.00     0.140 C 
BRANCH  11  12
ATOM     12  C   UNL     1       5.947  -3.554   7.744  1.00  0.00     0.091 C 
ATOM     13  S   UNL     1       6.342  -2.789   9.266  1.00  0.00    -0.106 SA
ATOM     14  C   UNL     1       8.100  -2.865   8.862  1.00  0.00     0.113 C 
ATOM     15  N   UNL     1       6.874  -3.594   6.839  1.00  0.00    -0.267 NA
ATOM     16  C   UNL     1       8.114  -2.923   7.343  1.00  0.00     0.205 CG0
ATOM     17  G   UNL     1       8.255  -1.513   6.746  1.00  0.00     0.000 G0
ENDBRANCH  11  12
BRANCH  11  18
ATOM     18  C   UNL     1       3.486  -3.826   8.597  1.00  0.00     0.015 C 
ATOM     19  C   UNL     1       2.246  -3.126   8.025  1.00  0.00     0.010 C 
BRANCH  18  20
ATOM     20  C   UNL     1       3.101  -5.081   9.407  1.00  0.00     0.002 C 
ATOM     21  C   UNL     1       3.924  -5.242  10.681  1.00  0.00     0.004 C 
ENDBRANCH  18  20
ENDBRANCH  11  18
ENDBRANCH   8  11
ENDBRANCH   3   7
ENDBRANCH   1   2
BRANCH   1  22
ATOM     22  N   UNL     1       5.748  -0.009   2.165  1.00  0.00    -0.348 N 
ATOM     23  C   UNL     1       6.492  -0.459   1.108  1.00  0.00     0.249 C 
ATOM     24  O   UNL     1       5.998  -0.945   0.097  1.00  0.00    -0.272 OA
ATOM     25  H   UNL     1       6.264   0.362   2.962  1.00  0.00     0.163 HD
BRANCH  23  26
ATOM     26  C   UNL     1       7.999  -0.235   1.302  1.00  0.00     0.238 C 
ATOM     27  N   UNL     1       8.227   0.482   2.588  1.00  0.00    -0.236 NA
ATOM     28  C   UNL     1       8.758  -1.545   1.428  1.00  0.00     0.206 C 
ATOM     29  C   UNL     1       8.798  -0.417   3.333  1.00  0.00     0.208 C 
ATOM     30  O   UNL     1       9.044  -1.648   2.822  1.00  0.00    -0.474 OA
ATOM     31  C   UNL     1      10.073  -1.534   0.661  1.00  0.00     0.056 C 
BRANCH  29  32
ATOM     32  C   UNL     1       9.197  -0.257   4.797  1.00  0.00     0.171 C 
BRANCH  32  33
ATOM     33  N   UNL     1       8.951  -1.484   5.539  1.00  0.00    -0.342 N 
ATOM     34  C   UNL     1       8.284  -1.503   6.740  1.00  0.00     0.246 CG0
ATOM     35  O   UNL     1       7.868  -0.488   7.292  1.00  0.00    -0.273 OA
ATOM     36  H   UNL     1       9.302  -2.376   5.207  1.00  0.00     0.164 HD
ATOM     37  G   UNL     1       8.077  -2.907   7.332  1.00  0.00     0.000 G0
ENDBRANCH  32  33
BRANCH  32  38
ATOM     38  C   UNL     1      10.668   0.222   4.911  1.00  0.00     0.017 C 
ATOM     39  C   UNL     1      11.544  -0.522   3.895  1.00  0.00     0.010 C 
BRANCH  38  40
ATOM     40  C   UNL     1      10.815   1.755   4.774  1.00  0.00     0.002 C 
ATOM     41  C   UNL     1      11.312   2.200   3.405  1.00  0.00     0.004 C 
ENDBRANCH  38  40
ENDBRANCH  32  38
ENDBRANCH  29  32
ENDBRANCH  23  26
ENDBRANCH   1  22
TORSDOF 4
ENDMDL
