MODEL 1
REMARK VINA RESULT:    -6.013      0.000      0.000
REMARK INTER + INTRA:         -24.435
REMARK INTER:                 -17.263
REMARK INTRA:                  -7.173
REMARK UNBOUND:                -7.173
REMARK SMILES CCCCCC(=O)N[C@H](CC(=O)O)C(=O)N[C@H]1C(=O)N[C@H](CCCN=C(N)N)C(=O)N[C@@H]2CC[C@H](O)N(C2=O)[C@@H](CC(C)C)C(=O)N(C)[C@@H](Cc2ccccc2)C(=O)N[C@H](C(C)C)C(=O)O[C@@H]1C
REMARK SMILES IDX 30 1 31 2 29 3 32 5 35 6 37 7 34 8 38 9 33 10 39 11 36 12
REMARK SMILES IDX 40 14 41 15 42 16 43 17 44 18 45 19 46 20 47 21 48 22 49 23
REMARK SMILES IDX 50 24 51 25 52 26 56 27 53 28 55 29 54 30 57 31 58 32 59 33
REMARK SMILES IDX 60 35 61 36 62 37 63 38 64 39 65 40 66 41 67 42 68 43 21 45
REMARK SMILES IDX 20 46 18 47 19 48 17 50 16 52 14 53 15 54 9 56 8 57 6 58
REMARK SMILES IDX 7 59 5 61 4 62 3 63 2 64 1 65 10 66 11 67 12 68 13 69 22 71
REMARK SMILES IDX 23 72 24 73 25 74 26 75 27 76 28 77
REMARK H PARENT 31 4 36 13 59 34 20 49 16 55 8 60 13 70 27 78 27 79 28 80
REMARK H PARENT 28 81
REMARK Flexibility Score:  259.900
ROOT
ATOM      1  O   UNL     1      -3.307  -6.529  -2.498  1.00  0.00    -0.273 OA
ATOM      2  N   UNL     1      -2.137  -5.411  -4.114  1.00  0.00    -0.343 N 
ATOM      3  C   UNL     1      -3.246  -6.080  -3.643  1.00  0.00     0.243 C 
ATOM      4  H   UNL     1      -2.128  -5.043  -5.057  1.00  0.00     0.164 HD
ENDROOT
BRANCH   2   5
ATOM      5  C   UNL     1      -0.930  -5.311  -3.301  1.00  0.00     0.171 C 
ATOM      6  C   UNL     1       1.253  -3.404  -3.253  1.00  0.00     0.214 C 
ATOM      7  N   UNL     1       1.354  -4.577  -4.089  1.00  0.00    -0.303 N 
ATOM      8  C   UNL     1       0.412  -3.623  -2.006  1.00  0.00     0.057 C 
ATOM      9  C   UNL     1       0.327  -5.502  -4.198  1.00  0.00     0.247 C 
ATOM     10  C   UNL     1      -0.977  -4.079  -2.399  1.00  0.00     0.040 C 
ATOM     11  O   UNL     1       0.386  -6.458  -4.982  1.00  0.00    -0.272 OA
BRANCH   6  12
ATOM     12  O   UNL     1       0.713  -2.363  -4.035  1.00  0.00    -0.373 OA
ATOM     13  H   UNL     1       1.234  -2.328  -4.865  1.00  0.00     0.213 HD
ENDBRANCH   6  12
BRANCH   7  14
ATOM     14  C   UNL     1       2.549  -4.686  -4.952  1.00  0.00     0.177 C 
BRANCH  14  15
ATOM     15  C   UNL     1       2.847  -3.448  -5.820  1.00  0.00     0.038 C 
BRANCH  15  16
ATOM     16  C   UNL     1       3.357  -3.638  -7.266  1.00  0.00    -0.015 C 
ATOM     17  C   UNL     1       2.655  -4.793  -7.986  1.00  0.00     0.007 C 
ATOM     18  C   UNL     1       4.864  -3.926  -7.251  1.00  0.00     0.007 C 
ENDBRANCH  15  16
ENDBRANCH  14  15
BRANCH  14  19
ATOM     19  C   UNL     1       3.629  -5.597  -4.272  1.00  0.00     0.245 C 
ATOM     20  O   UNL     1       4.478  -5.027  -3.567  1.00  0.00    -0.272 OA
BRANCH  19  21
ATOM     21  N   UNL     1       3.747  -6.956  -4.504  1.00  0.00    -0.332 N 
ATOM     22  C   UNL     1       3.729  -7.990  -3.484  1.00  0.00     0.147 C 
BRANCH  21  23
ATOM     23  C   UNL     1       3.920  -7.409  -5.912  1.00  0.00     0.178 C 
BRANCH  23  24
ATOM     24  C   UNL     1       5.385  -7.630  -6.344  1.00  0.00     0.070 C 
BRANCH  24  25
ATOM     25  C   UNL     1       5.627  -8.012  -7.785  1.00  0.00    -0.045 A 
ATOM     26  C   UNL     1       6.030  -9.310  -8.125  1.00  0.00     0.004 A 
ATOM     27  C   UNL     1       5.455  -7.066  -8.807  1.00  0.00     0.004 A 
ATOM     28  C   UNL     1       6.268  -9.651  -9.458  1.00  0.00     0.000 A 
ATOM     29  C   UNL     1       5.693  -7.409 -10.139  1.00  0.00     0.000 A 
ATOM     30  C   UNL     1       6.102  -8.701 -10.463  1.00  0.00     0.000 A 
ENDBRANCH  24  25
ENDBRANCH  23  24
BRANCH  23  31
ATOM     31  C   UNL     1       2.947  -8.547  -6.304  1.00  0.00     0.243 C 
ATOM     32  O   UNL     1       3.071  -9.713  -5.938  1.00  0.00    -0.273 OA
ATOM     33  N   UNL     1       2.019  -8.175  -7.261  1.00  0.00    -0.341 N 
ATOM     34  H   UNL     1       1.967  -7.189  -7.530  1.00  0.00     0.164 HD
BRANCH  33  35
ATOM     35  C   UNL     1       1.075  -9.118  -7.867  1.00  0.00     0.194 C 
BRANCH  35  36
ATOM     36  C   UNL     1       0.920  -8.960  -9.406  1.00  0.00     0.017 C 
ATOM     37  C   UNL     1       0.664 -10.317 -10.085  1.00  0.00     0.010 C 
ATOM     38  C   UNL     1       2.151  -8.337 -10.077  1.00  0.00     0.010 C 
ENDBRANCH  35  36
BRANCH  35  39
ATOM     39  C   UNL     1      -0.300  -9.136  -7.144  1.00  0.00     0.329 C 
ATOM     40  O   UNL     1      -0.514  -9.724  -6.091  1.00  0.00    -0.250 OA
BRANCH  39  41
ATOM     41  O   UNL     1      -1.227  -8.348  -7.770  1.00  0.00    -0.458 OA
BRANCH  41  42
ATOM     42  C   UNL     1      -2.593  -8.827  -7.751  1.00  0.00     0.205 CG0
ATOM     43  C   UNL     1      -2.695  -9.952  -8.778  1.00  0.00     0.056 C 
ATOM     44  G   UNL     1      -3.531  -7.647  -8.074  1.00  0.00     0.000 G0
ENDBRANCH  41  42
ENDBRANCH  39  41
ENDBRANCH  35  39
ENDBRANCH  33  35
ENDBRANCH  23  31
ENDBRANCH  21  23
ENDBRANCH  19  21
ENDBRANCH  14  19
ENDBRANCH   7  14
ENDBRANCH   2   5
BRANCH   3  45
ATOM     45  C   UNL     1      -4.407  -6.208  -4.637  1.00  0.00     0.171 C 
BRANCH  45  46
ATOM     46  N   UNL     1      -3.794  -6.521  -5.922  1.00  0.00    -0.342 N 
ATOM     47  C   UNL     1      -4.394  -7.340  -6.844  1.00  0.00     0.247 C 
ATOM     48  O   UNL     1      -5.521  -7.811  -6.687  1.00  0.00    -0.273 OA
ATOM     49  H   UNL     1      -2.884  -6.106  -6.116  1.00  0.00     0.164 HD
BRANCH  47  50
ATOM     50  C   UNL     1      -3.544  -7.655  -8.084  1.00  0.00     0.212 CG0
ATOM     51  G   UNL     1      -2.581  -8.800  -7.712  1.00  0.00     0.000 G0
BRANCH  50  52
ATOM     52  N   UNL     1      -4.499  -8.019  -9.128  1.00  0.00    -0.339 N 
ATOM     53  C   UNL     1      -5.115  -7.101  -9.943  1.00  0.00     0.243 C 
ATOM     54  O   UNL     1      -4.949  -5.891  -9.820  1.00  0.00    -0.273 OA
ATOM     55  H   UNL     1      -4.762  -9.000  -9.206  1.00  0.00     0.164 HD
BRANCH  53  56
ATOM     56  C   UNL     1      -6.147  -7.714 -10.911  1.00  0.00     0.182 C 
BRANCH  56  57
ATOM     57  N   UNL     1      -7.508  -7.582 -10.382  1.00  0.00    -0.344 N 
ATOM     58  C   UNL     1      -8.401  -6.659 -10.870  1.00  0.00     0.220 C 
ATOM     59  O   UNL     1      -8.101  -5.836 -11.728  1.00  0.00    -0.275 OA
ATOM     60  H   UNL     1      -7.827  -8.308  -9.746  1.00  0.00     0.164 HD
BRANCH  58  61
ATOM     61  C   UNL     1      -9.767  -6.740 -10.216  1.00  0.00     0.100 C 
BRANCH  61  62
ATOM     62  C   UNL     1     -10.863  -7.271 -11.140  1.00  0.00     0.010 C 
BRANCH  62  63
ATOM     63  C   UNL     1     -10.644  -8.716 -11.608  1.00  0.00     0.000 C 
BRANCH  63  64
ATOM     64  C   UNL     1     -11.832  -9.643 -11.360  1.00  0.00    -0.003 C 
ATOM     65  C   UNL     1     -11.437 -10.836 -10.502  1.00  0.00     0.004 C 
ENDBRANCH  63  64
ENDBRANCH  62  63
ENDBRANCH  61  62
ENDBRANCH  58  61
ENDBRANCH  56  57
BRANCH  56  66
ATOM     66  C   UNL     1      -5.800  -9.161 -11.256  1.00  0.00     0.157 C 
BRANCH  66  67
ATOM     67  C   UNL     1      -6.746 -10.120 -10.592  1.00  0.00     0.305 C 
ATOM     68  O   UNL     1      -7.696 -10.688 -11.109  1.00  0.00    -0.252 OA
BRANCH  67  69
ATOM     69  O   UNL     1      -6.415 -10.360  -9.309  1.00  0.00    -0.481 OA
ATOM     70  H   UNL     1      -7.153  -9.982  -8.785  1.00  0.00     0.296 HD
ENDBRANCH  67  69
ENDBRANCH  66  67
ENDBRANCH  56  66
ENDBRANCH  53  56
ENDBRANCH  50  52
ENDBRANCH  47  50
ENDBRANCH  45  46
BRANCH  45  71
ATOM     71  C   UNL     1      -5.207  -4.902  -4.696  1.00  0.00     0.037 C 
BRANCH  71  72
ATOM     72  C   UNL     1      -6.535  -5.006  -3.942  1.00  0.00     0.026 C 
BRANCH  72  73
ATOM     73  C   UNL     1      -7.709  -5.199  -4.900  1.00  0.00     0.146 C 
BRANCH  73  74
ATOM     74  N   UNL     1      -7.725  -4.066  -5.821  1.00  0.00    -0.254 NA
ATOM     75  C   UNL     1      -7.518  -4.302  -7.064  1.00  0.00     0.185 C 
ATOM     76  N   UNL     1      -7.527  -3.281  -7.936  1.00  0.00    -0.370 N 
ATOM     77  N   UNL     1      -7.278  -5.477  -7.673  1.00  0.00    -0.370 N 
ATOM     78  H   UNL     1      -7.694  -2.359  -7.559  1.00  0.00     0.159 HD
ATOM     79  H   UNL     1      -7.232  -3.367  -8.892  1.00  0.00     0.159 HD
ATOM     80  H   UNL     1      -7.246  -6.333  -7.141  1.00  0.00     0.159 HD
ATOM     81  H   UNL     1      -7.245  -5.554  -8.676  1.00  0.00     0.159 HD
ENDBRANCH  73  74
ENDBRANCH  72  73
ENDBRANCH  71  72
ENDBRANCH  45  71
ENDBRANCH   3  45
TORSDOF 20
ENDMDL
MODEL 2
REMARK VINA RESULT:    -6.010      1.880      3.367
REMARK INTER + INTRA:         -24.427
REMARK INTER:                 -17.998
REMARK INTRA:                  -6.429
REMARK UNBOUND:                -7.173
REMARK SMILES CCCCCC(=O)N[C@H](CC(=O)O)C(=O)N[C@H]1C(=O)N[C@H](CCCN=C(N)N)C(=O)N[C@@H]2CC[C@H](O)N(C2=O)[C@@H](CC(C)C)C(=O)N(C)[C@@H](Cc2ccccc2)C(=O)N[C@H](C(C)C)C(=O)O[C@@H]1C
REMARK SMILES IDX 30 1 31 2 29 3 32 5 35 6 37 7 34 8 38 9 33 10 39 11 36 12
REMARK SMILES IDX 40 14 41 15 42 16 43 17 44 18 45 19 46 20 47 21 48 22 49 23
REMARK SMILES IDX 50 24 51 25 52 26 56 27 53 28 55 29 54 30 57 31 58 32 59 33
REMARK SMILES IDX 60 35 61 36 62 37 63 38 64 39 65 40 66 41 67 42 68 43 21 45
REMARK SMILES IDX 20 46 18 47 19 48 17 50 16 52 14 53 15 54 9 56 8 57 6 58
REMARK SMILES IDX 7 59 5 61 4 62 3 63 2 64 1 65 10 66 11 67 12 68 13 69 22 71
REMARK SMILES IDX 23 72 24 73 25 74 26 75 27 76 28 77
REMARK H PARENT 31 4 36 13 59 34 20 49 16 55 8 60 13 70 27 78 27 79 28 80
REMARK H PARENT 28 81
REMARK Flexibility Score:  259.900
ROOT
ATOM      1  O   UNL     1      -2.325  -7.626  -1.701  1.00  0.00    -0.273 OA
ATOM      2  N   UNL     1      -1.970  -5.941  -3.206  1.00  0.00    -0.343 N 
ATOM      3  C   UNL     1      -2.584  -7.101  -2.784  1.00  0.00     0.243 C 
ATOM      4  H   UNL     1      -2.219  -5.529  -4.096  1.00  0.00     0.164 HD
ENDROOT
BRANCH   2   5
ATOM      5  C   UNL     1      -0.888  -5.348  -2.427  1.00  0.00     0.171 C 
ATOM      6  C   UNL     1       1.094  -3.324  -3.043  1.00  0.00     0.214 C 
ATOM      7  N   UNL     1       1.402  -4.715  -3.280  1.00  0.00    -0.303 N 
ATOM      8  C   UNL     1       0.125  -3.110  -1.891  1.00  0.00     0.057 C 
ATOM      9  C   UNL     1       0.483  -5.728  -3.056  1.00  0.00     0.247 C 
ATOM     10  C   UNL     1      -1.157  -3.870  -2.152  1.00  0.00     0.040 C 
ATOM     11  O   UNL     1       0.724  -6.908  -3.343  1.00  0.00    -0.272 OA
BRANCH   6  12
ATOM     12  O   UNL     1       0.566  -2.791  -4.235  1.00  0.00    -0.373 OA
ATOM     13  H   UNL     1       0.624  -3.495  -4.915  1.00  0.00     0.213 HD
ENDBRANCH   6  12
BRANCH   7  14
ATOM     14  C   UNL     1       2.702  -5.015  -3.918  1.00  0.00     0.177 C 
BRANCH  14  15
ATOM     15  C   UNL     1       3.682  -5.835  -3.056  1.00  0.00     0.038 C 
BRANCH  15  16
ATOM     16  C   UNL     1       5.194  -5.526  -3.121  1.00  0.00    -0.015 C 
ATOM     17  C   UNL     1       5.990  -6.645  -3.798  1.00  0.00     0.007 C 
ATOM     18  C   UNL     1       5.745  -5.335  -1.702  1.00  0.00     0.007 C 
ENDBRANCH  15  16
ENDBRANCH  14  15
BRANCH  14  19
ATOM     19  C   UNL     1       2.527  -5.149  -5.470  1.00  0.00     0.245 C 
ATOM     20  O   UNL     1       1.364  -5.122  -5.906  1.00  0.00    -0.272 OA
BRANCH  19  21
ATOM     21  N   UNL     1       3.569  -5.403  -6.344  1.00  0.00    -0.332 N 
ATOM     22  C   UNL     1       4.673  -4.502  -6.624  1.00  0.00     0.147 C 
BRANCH  21  23
ATOM     23  C   UNL     1       3.565  -6.701  -7.072  1.00  0.00     0.178 C 
BRANCH  23  24
ATOM     24  C   UNL     1       4.904  -7.068  -7.745  1.00  0.00     0.070 C 
BRANCH  24  25
ATOM     25  C   UNL     1       4.835  -7.883  -9.016  1.00  0.00    -0.045 A 
ATOM     26  C   UNL     1       5.637  -9.019  -9.184  1.00  0.00     0.004 A 
ATOM     27  C   UNL     1       3.966  -7.507 -10.051  1.00  0.00     0.004 A 
ATOM     28  C   UNL     1       5.579  -9.757 -10.369  1.00  0.00     0.000 A 
ATOM     29  C   UNL     1       3.909  -8.246 -11.234  1.00  0.00     0.000 A 
ATOM     30  C   UNL     1       4.718  -9.369 -11.393  1.00  0.00     0.000 A 
ENDBRANCH  24  25
ENDBRANCH  23  24
BRANCH  23  31
ATOM     31  C   UNL     1       2.907  -7.845  -6.264  1.00  0.00     0.243 C 
ATOM     32  O   UNL     1       3.399  -8.344  -5.255  1.00  0.00    -0.273 OA
ATOM     33  N   UNL     1       1.796  -8.391  -6.884  1.00  0.00    -0.341 N 
ATOM     34  H   UNL     1       1.436  -7.935  -7.726  1.00  0.00     0.164 HD
BRANCH  33  35
ATOM     35  C   UNL     1       1.084  -9.561  -6.360  1.00  0.00     0.194 C 
BRANCH  35  36
ATOM     36  C   UNL     1       1.689 -10.923  -6.802  1.00  0.00     0.017 C 
ATOM     37  C   UNL     1       2.655 -11.476  -5.740  1.00  0.00     0.010 C 
ATOM     38  C   UNL     1       2.460 -10.841  -8.125  1.00  0.00     0.010 C 
ENDBRANCH  35  36
BRANCH  35  39
ATOM     39  C   UNL     1      -0.447  -9.494  -6.621  1.00  0.00     0.329 C 
ATOM     40  O   UNL     1      -1.181 -10.475  -6.652  1.00  0.00    -0.250 OA
BRANCH  39  41
ATOM     41  O   UNL     1      -0.901  -8.209  -6.726  1.00  0.00    -0.458 OA
BRANCH  41  42
ATOM     42  C   UNL     1      -1.678  -7.898  -7.908  1.00  0.00     0.205 CG0
ATOM     43  C   UNL     1      -0.810  -7.018  -8.804  1.00  0.00     0.056 C 
ATOM     44  G   UNL     1      -2.978  -7.194  -7.470  1.00  0.00     0.000 G0
ENDBRANCH  41  42
ENDBRANCH  39  41
ENDBRANCH  35  39
ENDBRANCH  33  35
ENDBRANCH  23  31
ENDBRANCH  21  23
ENDBRANCH  19  21
ENDBRANCH  14  19
ENDBRANCH   7  14
ENDBRANCH   2   5
BRANCH   3  45
ATOM     45  C   UNL     1      -3.629  -7.679  -3.747  1.00  0.00     0.171 C 
BRANCH  45  46
ATOM     46  N   UNL     1      -3.287  -7.152  -5.062  1.00  0.00    -0.342 N 
ATOM     47  C   UNL     1      -3.547  -7.839  -6.221  1.00  0.00     0.247 C 
ATOM     48  O   UNL     1      -4.151  -8.912  -6.241  1.00  0.00    -0.273 OA
ATOM     49  H   UNL     1      -2.835  -6.240  -5.094  1.00  0.00     0.164 HD
BRANCH  47  50
ATOM     50  C   UNL     1      -3.004  -7.185  -7.500  1.00  0.00     0.212 CG0
ATOM     51  G   UNL     1      -1.693  -7.906  -7.873  1.00  0.00     0.000 G0
BRANCH  50  52
ATOM     52  N   UNL     1      -4.057  -7.349  -8.498  1.00  0.00    -0.339 N 
ATOM     53  C   UNL     1      -5.111  -6.478  -8.635  1.00  0.00     0.243 C 
ATOM     54  O   UNL     1      -5.278  -5.518  -7.887  1.00  0.00    -0.273 OA
ATOM     55  H   UNL     1      -4.035  -8.187  -9.075  1.00  0.00     0.164 HD
BRANCH  53  56
ATOM     56  C   UNL     1      -6.143  -6.904  -9.699  1.00  0.00     0.182 C 
BRANCH  56  57
ATOM     57  N   UNL     1      -5.600  -7.952 -10.569  1.00  0.00    -0.344 N 
ATOM     58  C   UNL     1      -6.330  -9.055 -10.937  1.00  0.00     0.220 C 
ATOM     59  O   UNL     1      -7.457  -9.278 -10.508  1.00  0.00    -0.275 OA
ATOM     60  H   UNL     1      -4.713  -7.757 -11.026  1.00  0.00     0.164 HD
BRANCH  58  61
ATOM     61  C   UNL     1      -5.590  -9.977 -11.888  1.00  0.00     0.100 C 
BRANCH  61  62
ATOM     62  C   UNL     1      -4.106  -9.644 -12.039  1.00  0.00     0.010 C 
BRANCH  62  63
ATOM     63  C   UNL     1      -3.188 -10.872 -12.086  1.00  0.00     0.000 C 
BRANCH  63  64
ATOM     64  C   UNL     1      -1.705 -10.542 -12.242  1.00  0.00    -0.003 C 
ATOM     65  C   UNL     1      -0.829 -11.595 -11.580  1.00  0.00     0.004 C 
ENDBRANCH  63  64
ENDBRANCH  62  63
ENDBRANCH  61  62
ENDBRANCH  58  61
ENDBRANCH  56  57
BRANCH  56  66
ATOM     66  C   UNL     1      -6.656  -5.704 -10.492  1.00  0.00     0.157 C 
BRANCH  66  67
ATOM     67  C   UNL     1      -8.025  -5.292 -10.031  1.00  0.00     0.305 C 
ATOM     68  O   UNL     1      -8.881  -4.725 -10.692  1.00  0.00    -0.252 OA
BRANCH  67  69
ATOM     69  O   UNL     1      -8.269  -5.663  -8.760  1.00  0.00    -0.481 OA
ATOM     70  H   UNL     1      -9.229  -5.864  -8.738  1.00  0.00     0.296 HD
ENDBRANCH  67  69
ENDBRANCH  66  67
ENDBRANCH  56  66
ENDBRANCH  53  56
ENDBRANCH  50  52
ENDBRANCH  47  50
ENDBRANCH  45  46
BRANCH  45  71
ATOM     71  C   UNL     1      -5.040  -7.260  -3.320  1.00  0.00     0.037 C 
BRANCH  71  72
ATOM     72  C   UNL     1      -5.170  -5.742  -3.173  1.00  0.00     0.026 C 
BRANCH  72  73
ATOM     73  C   UNL     1      -6.568  -5.260  -3.555  1.00  0.00     0.146 C 
BRANCH  73  74
ATOM     74  N   UNL     1      -6.439  -4.403  -4.730  1.00  0.00    -0.254 NA
ATOM     75  C   UNL     1      -7.388  -4.422  -5.591  1.00  0.00     0.185 C 
ATOM     76  N   UNL     1      -7.299  -3.643  -6.682  1.00  0.00    -0.370 N 
ATOM     77  N   UNL     1      -8.526  -5.137  -5.579  1.00  0.00    -0.370 N 
ATOM     78  H   UNL     1      -6.468  -3.076  -6.773  1.00  0.00     0.159 HD
ATOM     79  H   UNL     1      -7.927  -3.712  -7.464  1.00  0.00     0.159 HD
ATOM     80  H   UNL     1      -8.730  -5.765  -4.816  1.00  0.00     0.159 HD
ATOM     81  H   UNL     1      -9.254  -4.982  -6.257  1.00  0.00     0.159 HD
ENDBRANCH  73  74
ENDBRANCH  72  73
ENDBRANCH  71  72
ENDBRANCH  45  71
ENDBRANCH   3  45
TORSDOF 20
ENDMDL
MODEL 3
REMARK VINA RESULT:    -5.688      3.029      9.357
REMARK INTER + INTRA:         -23.500
REMARK INTER:                 -18.353
REMARK INTRA:                  -5.147
REMARK UNBOUND:                -7.173
REMARK SMILES CCCCCC(=O)N[C@H](CC(=O)O)C(=O)N[C@H]1C(=O)N[C@H](CCCN=C(N)N)C(=O)N[C@@H]2CC[C@H](O)N(C2=O)[C@@H](CC(C)C)C(=O)N(C)[C@@H](Cc2ccccc2)C(=O)N[C@H](C(C)C)C(=O)O[C@@H]1C
REMARK SMILES IDX 30 1 31 2 29 3 32 5 35 6 37 7 34 8 38 9 33 10 39 11 36 12
REMARK SMILES IDX 40 14 41 15 42 16 43 17 44 18 45 19 46 20 47 21 48 22 49 23
REMARK SMILES IDX 50 24 51 25 52 26 56 27 53 28 55 29 54 30 57 31 58 32 59 33
REMARK SMILES IDX 60 35 61 36 62 37 63 38 64 39 65 40 66 41 67 42 68 43 21 45
REMARK SMILES IDX 20 46 18 47 19 48 17 50 16 52 14 53 15 54 9 56 8 57 6 58
REMARK SMILES IDX 7 59 5 61 4 62 3 63 2 64 1 65 10 66 11 67 12 68 13 69 22 71
REMARK SMILES IDX 23 72 24 73 25 74 26 75 27 76 28 77
REMARK H PARENT 31 4 36 13 59 34 20 49 16 55 8 60 13 70 27 78 27 79 28 80
REMARK H PARENT 28 81
REMARK Flexibility Score:  259.900
ROOT
ATOM      1  O   UNL     1      -2.448  -8.630  -4.142  1.00  0.00    -0.273 OA
ATOM      2  N   UNL     1      -3.850  -7.026  -3.310  1.00  0.00    -0.343 N 
ATOM      3  C   UNL     1      -2.679  -7.752  -3.310  1.00  0.00     0.243 C 
ATOM      4  H   UNL     1      -4.000  -6.302  -2.619  1.00  0.00     0.164 HD
ENDROOT
BRANCH   2   5
ATOM      5  C   UNL     1      -4.927  -7.354  -4.238  1.00  0.00     0.171 C 
ATOM      6  C   UNL     1      -5.033  -9.004  -6.620  1.00  0.00     0.214 C 
ATOM      7  N   UNL     1      -4.727  -7.597  -6.743  1.00  0.00    -0.303 N 
ATOM      8  C   UNL     1      -5.933  -9.323  -5.437  1.00  0.00     0.057 C 
ATOM      9  C   UNL     1      -4.611  -6.764  -5.642  1.00  0.00     0.247 C 
ATOM     10  C   UNL     1      -5.288  -8.836  -4.157  1.00  0.00     0.040 C 
ATOM     11  O   UNL     1      -4.264  -5.580  -5.750  1.00  0.00    -0.272 OA
BRANCH   6  12
ATOM     12  O   UNL     1      -3.814  -9.701  -6.513  1.00  0.00    -0.373 OA
ATOM     13  H   UNL     1      -3.096  -9.033  -6.541  1.00  0.00     0.213 HD
ENDBRANCH   6  12
BRANCH   7  14
ATOM     14  C   UNL     1      -4.394  -7.100  -8.094  1.00  0.00     0.177 C 
BRANCH  14  15
ATOM     15  C   UNL     1      -5.268  -5.935  -8.599  1.00  0.00     0.038 C 
BRANCH  15  16
ATOM     16  C   UNL     1      -6.149  -6.133  -9.852  1.00  0.00    -0.015 C 
ATOM     17  C   UNL     1      -7.379  -5.219  -9.851  1.00  0.00     0.007 C 
ATOM     18  C   UNL     1      -6.632  -7.587  -9.922  1.00  0.00     0.007 C 
ENDBRANCH  15  16
ENDBRANCH  14  15
BRANCH  14  19
ATOM     19  C   UNL     1      -2.860  -7.270  -8.373  1.00  0.00     0.245 C 
ATOM     20  O   UNL     1      -2.124  -7.408  -7.382  1.00  0.00    -0.272 OA
BRANCH  19  21
ATOM     21  N   UNL     1      -2.288  -7.164  -9.628  1.00  0.00    -0.332 N 
ATOM     22  C   UNL     1      -2.489  -6.064 -10.556  1.00  0.00     0.147 C 
BRANCH  21  23
ATOM     23  C   UNL     1      -1.399  -8.268 -10.084  1.00  0.00     0.178 C 
BRANCH  23  24
ATOM     24  C   UNL     1      -1.522  -8.621 -11.580  1.00  0.00     0.070 C 
BRANCH  24  25
ATOM     25  C   UNL     1      -2.445  -9.760 -11.944  1.00  0.00    -0.045 A 
ATOM     26  C   UNL     1      -1.965 -10.880 -12.636  1.00  0.00     0.004 A 
ATOM     27  C   UNL     1      -3.803  -9.709 -11.597  1.00  0.00     0.004 A 
ATOM     28  C   UNL     1      -2.828 -11.921 -12.984  1.00  0.00     0.000 A 
ATOM     29  C   UNL     1      -4.665 -10.751 -11.945  1.00  0.00     0.000 A 
ATOM     30  C   UNL     1      -4.176 -11.855 -12.641  1.00  0.00     0.000 A 
ENDBRANCH  24  25
ENDBRANCH  23  24
BRANCH  23  31
ATOM     31  C   UNL     1       0.052  -8.127  -9.565  1.00  0.00     0.243 C 
ATOM     32  O   UNL     1       0.878  -7.350 -10.038  1.00  0.00    -0.273 OA
ATOM     33  N   UNL     1       0.402  -9.089  -8.633  1.00  0.00    -0.341 N 
ATOM     34  H   UNL     1      -0.328  -9.711  -8.280  1.00  0.00     0.164 HD
BRANCH  33  35
ATOM     35  C   UNL     1       1.759  -9.222  -8.093  1.00  0.00     0.194 C 
BRANCH  35  36
ATOM     36  C   UNL     1       2.607 -10.332  -8.775  1.00  0.00     0.017 C 
ATOM     37  C   UNL     1       3.659  -9.729  -9.723  1.00  0.00     0.010 C 
ATOM     38  C   UNL     1       1.766 -11.320  -9.593  1.00  0.00     0.010 C 
ENDBRANCH  35  36
BRANCH  35  39
ATOM     39  C   UNL     1       1.776  -9.347  -6.544  1.00  0.00     0.329 C 
ATOM     40  O   UNL     1       1.506 -10.376  -5.936  1.00  0.00    -0.250 OA
BRANCH  39  41
ATOM     41  O   UNL     1       2.212  -8.203  -5.935  1.00  0.00    -0.458 OA
BRANCH  41  42
ATOM     42  C   UNL     1       1.202  -7.207  -5.644  1.00  0.00     0.205 CG0
ATOM     43  C   UNL     1       1.245  -6.175  -6.769  1.00  0.00     0.056 C 
ATOM     44  G   UNL     1       1.504  -6.590  -4.264  1.00  0.00     0.000 G0
ENDBRANCH  41  42
ENDBRANCH  39  41
ENDBRANCH  35  39
ENDBRANCH  33  35
ENDBRANCH  23  31
ENDBRANCH  21  23
ENDBRANCH  19  21
ENDBRANCH  14  19
ENDBRANCH   7  14
ENDBRANCH   2   5
BRANCH   3  45
ATOM     45  C   UNL     1      -1.674  -7.377  -2.213  1.00  0.00     0.171 C 
BRANCH  45  46
ATOM     46  N   UNL     1      -0.365  -7.402  -2.853  1.00  0.00    -0.342 N 
ATOM     47  C   UNL     1       0.142  -6.323  -3.533  1.00  0.00     0.247 C 
ATOM     48  O   UNL     1      -0.436  -5.238  -3.591  1.00  0.00    -0.273 OA
ATOM     49  H   UNL     1       0.173  -8.264  -2.781  1.00  0.00     0.164 HD
BRANCH  47  50
ATOM     50  C   UNL     1       1.478  -6.575  -4.247  1.00  0.00     0.212 CG0
ATOM     51  G   UNL     1       1.163  -7.191  -5.624  1.00  0.00     0.000 G0
BRANCH  50  52
ATOM     52  N   UNL     1       2.125  -5.268  -4.334  1.00  0.00    -0.339 N 
ATOM     53  C   UNL     1       3.261  -4.940  -3.634  1.00  0.00     0.243 C 
ATOM     54  O   UNL     1       3.792  -5.707  -2.837  1.00  0.00    -0.273 OA
ATOM     55  H   UNL     1       1.669  -4.551  -4.893  1.00  0.00     0.164 HD
BRANCH  53  56
ATOM     56  C   UNL     1       3.710  -3.476  -3.819  1.00  0.00     0.182 C 
BRANCH  56  57
ATOM     57  N   UNL     1       2.558  -2.568  -3.824  1.00  0.00    -0.344 N 
ATOM     58  C   UNL     1       2.499  -1.451  -3.028  1.00  0.00     0.220 C 
ATOM     59  O   UNL     1       3.367  -1.174  -2.207  1.00  0.00    -0.275 OA
ATOM     60  H   UNL     1       1.868  -2.704  -4.558  1.00  0.00     0.164 HD
BRANCH  58  61
ATOM     61  C   UNL     1       1.242  -0.627  -3.240  1.00  0.00     0.100 C 
BRANCH  61  62
ATOM     62  C   UNL     1      -0.020  -1.468  -3.436  1.00  0.00     0.010 C 
BRANCH  62  63
ATOM     63  C   UNL     1      -0.735  -1.839  -2.131  1.00  0.00     0.000 C 
BRANCH  63  64
ATOM     64  C   UNL     1      -2.091  -1.160  -1.945  1.00  0.00    -0.003 C 
ATOM     65  C   UNL     1      -2.364  -0.858  -0.478  1.00  0.00     0.004 C 
ENDBRANCH  63  64
ENDBRANCH  62  63
ENDBRANCH  61  62
ENDBRANCH  58  61
ENDBRANCH  56  57
BRANCH  56  66
ATOM     66  C   UNL     1       4.580  -3.310  -5.064  1.00  0.00     0.157 C 
BRANCH  66  67
ATOM     67  C   UNL     1       4.884  -1.864  -5.327  1.00  0.00     0.305 C 
ATOM     68  O   UNL     1       4.562  -1.213  -6.309  1.00  0.00    -0.252 OA
BRANCH  67  69
ATOM     69  O   UNL     1       5.543  -1.286  -4.304  1.00  0.00    -0.481 OA
ATOM     70  H   UNL     1       4.910  -1.308  -3.555  1.00  0.00     0.296 HD
ENDBRANCH  67  69
ENDBRANCH  66  67
ENDBRANCH  56  66
ENDBRANCH  53  56
ENDBRANCH  50  52
ENDBRANCH  47  50
ENDBRANCH  45  46
BRANCH  45  71
ATOM     71  C   UNL     1      -1.754  -8.375  -1.052  1.00  0.00     0.037 C 
BRANCH  71  72
ATOM     72  C   UNL     1      -2.649  -7.868   0.082  1.00  0.00     0.026 C 
BRANCH  72  73
ATOM     73  C   UNL     1      -2.746  -6.344   0.080  1.00  0.00     0.146 C 
BRANCH  73  74
ATOM     74  N   UNL     1      -2.673  -5.890   1.466  1.00  0.00    -0.254 NA
ATOM     75  C   UNL     1      -1.885  -4.915   1.736  1.00  0.00     0.185 C 
ATOM     76  N   UNL     1      -1.796  -4.474   3.001  1.00  0.00    -0.370 N 
ATOM     77  N   UNL     1      -1.085  -4.221   0.908  1.00  0.00    -0.370 N 
ATOM     78  H   UNL     1      -2.362  -4.948   3.691  1.00  0.00     0.159 HD
ATOM     79  H   UNL     1      -1.101  -3.819   3.312  1.00  0.00     0.159 HD
ATOM     80  H   UNL     1      -1.050  -4.440  -0.076  1.00  0.00     0.159 HD
ATOM     81  H   UNL     1      -0.595  -3.397   1.215  1.00  0.00     0.159 HD
ENDBRANCH  73  74
ENDBRANCH  72  73
ENDBRANCH  71  72
ENDBRANCH  45  71
ENDBRANCH   3  45
TORSDOF 20
ENDMDL
MODEL 4
REMARK VINA RESULT:    -5.683      1.511      2.256
REMARK INTER + INTRA:         -23.487
REMARK INTER:                 -17.524
REMARK INTRA:                  -5.963
REMARK UNBOUND:                -7.173
REMARK SMILES CCCCCC(=O)N[C@H](CC(=O)O)C(=O)N[C@H]1C(=O)N[C@H](CCCN=C(N)N)C(=O)N[C@@H]2CC[C@H](O)N(C2=O)[C@@H](CC(C)C)C(=O)N(C)[C@@H](Cc2ccccc2)C(=O)N[C@H](C(C)C)C(=O)O[C@@H]1C
REMARK SMILES IDX 30 1 31 2 29 3 32 5 35 6 37 7 34 8 38 9 33 10 39 11 36 12
REMARK SMILES IDX 40 14 41 15 42 16 43 17 44 18 45 19 46 20 47 21 48 22 49 23
REMARK SMILES IDX 50 24 51 25 52 26 56 27 53 28 55 29 54 30 57 31 58 32 59 33
REMARK SMILES IDX 60 35 61 36 62 37 63 38 64 39 65 40 66 41 67 42 68 43 21 45
REMARK SMILES IDX 20 46 18 47 19 48 17 50 16 52 14 53 15 54 9 56 8 57 6 58
REMARK SMILES IDX 7 59 5 61 4 62 3 63 2 64 1 65 10 66 11 67 12 68 13 69 22 71
REMARK SMILES IDX 23 72 24 73 25 74 26 75 27 76 28 77
REMARK H PARENT 31 4 36 13 59 34 20 49 16 55 8 60 13 70 27 78 27 79 28 80
REMARK H PARENT 28 81
REMARK Flexibility Score:  259.900
ROOT
ATOM      1  O   UNL     1      -3.033  -7.034  -2.863  1.00  0.00    -0.273 OA
ATOM      2  N   UNL     1      -2.514  -5.051  -3.876  1.00  0.00    -0.343 N 
ATOM      3  C   UNL     1      -3.255  -6.205  -3.746  1.00  0.00     0.243 C 
ATOM      4  H   UNL     1      -2.735  -4.384  -4.606  1.00  0.00     0.164 HD
ENDROOT
BRANCH   2   5
ATOM      5  C   UNL     1      -1.345  -4.820  -3.035  1.00  0.00     0.171 C 
ATOM      6  C   UNL     1       0.883  -2.976  -3.231  1.00  0.00     0.214 C 
ATOM      7  N   UNL     1       0.992  -4.287  -3.826  1.00  0.00    -0.303 N 
ATOM      8  C   UNL     1      -0.023  -2.942  -2.010  1.00  0.00     0.057 C 
ATOM      9  C   UNL     1      -0.052  -5.198  -3.813  1.00  0.00     0.247 C 
ATOM     10  C   UNL     1      -1.403  -3.439  -2.383  1.00  0.00     0.040 C 
ATOM     11  O   UNL     1       0.019  -6.286  -4.399  1.00  0.00    -0.272 OA
BRANCH   6  12
ATOM     12  O   UNL     1       0.409  -2.092  -4.221  1.00  0.00    -0.373 OA
ATOM     13  H   UNL     1       0.834  -1.223  -4.057  1.00  0.00     0.213 HD
ENDBRANCH   6  12
BRANCH   7  14
ATOM     14  C   UNL     1       2.225  -4.577  -4.588  1.00  0.00     0.177 C 
BRANCH  14  15
ATOM     15  C   UNL     1       2.580  -3.546  -5.677  1.00  0.00     0.038 C 
BRANCH  15  16
ATOM     16  C   UNL     1       3.839  -2.667  -5.511  1.00  0.00    -0.015 C 
ATOM     17  C   UNL     1       3.513  -1.171  -5.521  1.00  0.00     0.007 C 
ATOM     18  C   UNL     1       4.825  -2.951  -6.651  1.00  0.00     0.007 C 
ENDBRANCH  15  16
ENDBRANCH  14  15
BRANCH  14  19
ATOM     19  C   UNL     1       3.258  -5.335  -3.685  1.00  0.00     0.245 C 
ATOM     20  O   UNL     1       3.743  -4.697  -2.735  1.00  0.00    -0.272 OA
BRANCH  19  21
ATOM     21  N   UNL     1       3.729  -6.608  -3.953  1.00  0.00    -0.332 N 
ATOM     22  C   UNL     1       4.256  -7.536  -2.968  1.00  0.00     0.147 C 
BRANCH  21  23
ATOM     23  C   UNL     1       3.709  -7.073  -5.367  1.00  0.00     0.178 C 
BRANCH  23  24
ATOM     24  C   UNL     1       5.075  -7.025  -6.081  1.00  0.00     0.070 C 
BRANCH  24  25
ATOM     25  C   UNL     1       5.074  -7.207  -7.581  1.00  0.00    -0.045 A 
ATOM     26  C   UNL     1       4.735  -6.148  -8.433  1.00  0.00     0.004 A 
ATOM     27  C   UNL     1       5.411  -8.448  -8.144  1.00  0.00     0.004 A 
ATOM     28  C   UNL     1       4.720  -6.329  -9.817  1.00  0.00     0.000 A 
ATOM     29  C   UNL     1       5.396  -8.627  -9.528  1.00  0.00     0.000 A 
ATOM     30  C   UNL     1       5.048  -7.568 -10.363  1.00  0.00     0.000 A 
ENDBRANCH  24  25
ENDBRANCH  23  24
BRANCH  23  31
ATOM     31  C   UNL     1       2.920  -8.391  -5.558  1.00  0.00     0.243 C 
ATOM     32  O   UNL     1       3.402  -9.509  -5.398  1.00  0.00    -0.273 OA
ATOM     33  N   UNL     1       1.663  -8.208  -6.109  1.00  0.00    -0.341 N 
ATOM     34  H   UNL     1       1.319  -7.252  -6.224  1.00  0.00     0.164 HD
BRANCH  33  35
ATOM     35  C   UNL     1       0.787  -9.320  -6.487  1.00  0.00     0.194 C 
BRANCH  35  36
ATOM     36  C   UNL     1       1.042  -9.871  -7.918  1.00  0.00     0.017 C 
ATOM     37  C   UNL     1       1.937 -11.123  -7.885  1.00  0.00     0.010 C 
ATOM     38  C   UNL     1       1.714  -8.852  -8.847  1.00  0.00     0.010 C 
ENDBRANCH  35  36
BRANCH  35  39
ATOM     39  C   UNL     1      -0.716  -9.006  -6.246  1.00  0.00     0.329 C 
ATOM     40  O   UNL     1      -1.235  -8.949  -5.137  1.00  0.00    -0.250 OA
BRANCH  39  41
ATOM     41  O   UNL     1      -1.379  -8.713  -7.405  1.00  0.00    -0.458 OA
BRANCH  41  42
ATOM     42  C   UNL     1      -2.724  -9.234  -7.523  1.00  0.00     0.205 CG0
ATOM     43  C   UNL     1      -2.658 -10.464  -8.426  1.00  0.00     0.056 C 
ATOM     44  G   UNL     1      -3.630  -8.127  -8.100  1.00  0.00     0.000 G0
ENDBRANCH  41  42
ENDBRANCH  39  41
ENDBRANCH  35  39
ENDBRANCH  33  35
ENDBRANCH  23  31
ENDBRANCH  21  23
ENDBRANCH  19  21
ENDBRANCH  14  19
ENDBRANCH   7  14
ENDBRANCH   2   5
BRANCH   3  45
ATOM     45  C   UNL     1      -4.391  -6.376  -4.764  1.00  0.00     0.171 C 
BRANCH  45  46
ATOM     46  N   UNL     1      -3.760  -6.882  -5.976  1.00  0.00    -0.342 N 
ATOM     47  C   UNL     1      -4.465  -7.540  -6.953  1.00  0.00     0.247 C 
ATOM     48  O   UNL     1      -5.687  -7.685  -6.912  1.00  0.00    -0.273 OA
ATOM     49  H   UNL     1      -2.758  -6.733  -6.077  1.00  0.00     0.164 HD
BRANCH  47  50
ATOM     50  C   UNL     1      -3.614  -8.110  -8.096  1.00  0.00     0.212 CG0
ATOM     51  G   UNL     1      -2.701  -9.201  -7.500  1.00  0.00     0.000 G0
BRANCH  50  52
ATOM     52  N   UNL     1      -4.569  -8.627  -9.073  1.00  0.00    -0.339 N 
ATOM     53  C   UNL     1      -4.627  -8.194 -10.375  1.00  0.00     0.243 C 
ATOM     54  O   UNL     1      -3.910  -7.295 -10.807  1.00  0.00    -0.273 OA
ATOM     55  H   UNL     1      -5.264  -9.295  -8.746  1.00  0.00     0.164 HD
BRANCH  53  56
ATOM     56  C   UNL     1      -5.773  -8.822 -11.195  1.00  0.00     0.182 C 
BRANCH  56  57
ATOM     57  N   UNL     1      -7.075  -8.308 -10.757  1.00  0.00    -0.344 N 
ATOM     58  C   UNL     1      -8.069  -7.973 -11.644  1.00  0.00     0.220 C 
ATOM     59  O   UNL     1      -7.914  -8.010 -12.860  1.00  0.00    -0.275 OA
ATOM     60  H   UNL     1      -7.279  -8.358  -9.763  1.00  0.00     0.164 HD
BRANCH  58  61
ATOM     61  C   UNL     1      -9.350  -7.520 -10.968  1.00  0.00     0.100 C 
BRANCH  61  62
ATOM     62  C   UNL     1      -9.463  -6.003 -10.815  1.00  0.00     0.010 C 
BRANCH  62  63
ATOM     63  C   UNL     1      -8.134  -5.255 -10.978  1.00  0.00     0.000 C 
BRANCH  63  64
ATOM     64  C   UNL     1      -7.435  -4.925  -9.661  1.00  0.00    -0.003 C 
ATOM     65  C   UNL     1      -7.922  -3.600  -9.091  1.00  0.00     0.004 C 
ENDBRANCH  63  64
ENDBRANCH  62  63
ENDBRANCH  61  62
ENDBRANCH  58  61
ENDBRANCH  56  57
BRANCH  56  66
ATOM     66  C   UNL     1      -5.714 -10.348 -11.161  1.00  0.00     0.157 C 
BRANCH  66  67
ATOM     67  C   UNL     1      -6.787 -10.914 -10.276  1.00  0.00     0.305 C 
ATOM     68  O   UNL     1      -7.867 -11.363 -10.629  1.00  0.00    -0.252 OA
BRANCH  67  69
ATOM     69  O   UNL     1      -6.422 -10.935  -8.980  1.00  0.00    -0.481 OA
ATOM     70  H   UNL     1      -5.556 -10.476  -8.956  1.00  0.00     0.296 HD
ENDBRANCH  67  69
ENDBRANCH  66  67
ENDBRANCH  56  66
ENDBRANCH  53  56
ENDBRANCH  50  52
ENDBRANCH  47  50
ENDBRANCH  45  46
BRANCH  45  71
ATOM     71  C   UNL     1      -5.093  -5.036  -5.010  1.00  0.00     0.037 C 
BRANCH  71  72
ATOM     72  C   UNL     1      -6.558  -5.064  -4.567  1.00  0.00     0.026 C 
BRANCH  72  73
ATOM     73  C   UNL     1      -6.702  -5.581  -3.137  1.00  0.00     0.146 C 
BRANCH  73  74
ATOM     74  N   UNL     1      -7.807  -6.535  -3.115  1.00  0.00    -0.254 NA
ATOM     75  C   UNL     1      -8.995  -6.072  -2.989  1.00  0.00     0.185 C 
ATOM     76  N   UNL     1     -10.032  -6.925  -2.967  1.00  0.00    -0.370 N 
ATOM     77  N   UNL     1      -9.396  -4.795  -2.869  1.00  0.00    -0.370 N 
ATOM     78  H   UNL     1      -9.817  -7.909  -3.045  1.00  0.00     0.159 HD
ATOM     79  H   UNL     1     -10.969  -6.652  -2.728  1.00  0.00     0.159 HD
ATOM     80  H   UNL     1      -8.724  -4.043  -2.874  1.00  0.00     0.159 HD
ATOM     81  H   UNL     1     -10.371  -4.543  -2.893  1.00  0.00     0.159 HD
ENDBRANCH  73  74
ENDBRANCH  72  73
ENDBRANCH  71  72
ENDBRANCH  45  71
ENDBRANCH   3  45
TORSDOF 20
ENDMDL
MODEL 5
REMARK VINA RESULT:    -5.674      3.460     10.283
REMARK INTER + INTRA:         -23.461
REMARK INTER:                 -17.805
REMARK INTRA:                  -5.656
REMARK UNBOUND:                -7.173
REMARK SMILES CCCCCC(=O)N[C@H](CC(=O)O)C(=O)N[C@H]1C(=O)N[C@H](CCCN=C(N)N)C(=O)N[C@@H]2CC[C@H](O)N(C2=O)[C@@H](CC(C)C)C(=O)N(C)[C@@H](Cc2ccccc2)C(=O)N[C@H](C(C)C)C(=O)O[C@@H]1C
REMARK SMILES IDX 30 1 31 2 29 3 32 5 35 6 37 7 34 8 38 9 33 10 39 11 36 12
REMARK SMILES IDX 40 14 41 15 42 16 43 17 44 18 45 19 46 20 47 21 48 22 49 23
REMARK SMILES IDX 50 24 51 25 52 26 56 27 53 28 55 29 54 30 57 31 58 32 59 33
REMARK SMILES IDX 60 35 61 36 62 37 63 38 64 39 65 40 66 41 67 42 68 43 21 45
REMARK SMILES IDX 20 46 18 47 19 48 17 50 16 52 14 53 15 54 9 56 8 57 6 58
REMARK SMILES IDX 7 59 5 61 4 62 3 63 2 64 1 65 10 66 11 67 12 68 13 69 22 71
REMARK SMILES IDX 23 72 24 73 25 74 26 75 27 76 28 77
REMARK H PARENT 31 4 36 13 59 34 20 49 16 55 8 60 13 70 27 78 27 79 28 80
REMARK H PARENT 28 81
REMARK Flexibility Score:  259.900
ROOT
ATOM      1  O   UNL     1      -2.938  -8.111  -3.157  1.00  0.00    -0.273 OA
ATOM      2  N   UNL     1      -3.455  -8.274  -0.935  1.00  0.00    -0.343 N 
ATOM      3  C   UNL     1      -2.785  -7.715  -2.002  1.00  0.00     0.243 C 
ATOM      4  H   UNL     1      -3.315  -7.912  -0.000  1.00  0.00     0.164 HD
ENDROOT
BRANCH   2   5
ATOM      5  C   UNL     1      -4.294  -9.453  -1.122  1.00  0.00     0.171 C 
ATOM      6  C   UNL     1      -4.878 -11.103  -3.433  1.00  0.00     0.214 C 
ATOM      7  N   UNL     1      -5.726  -9.972  -3.135  1.00  0.00    -0.303 N 
ATOM      8  C   UNL     1      -4.249 -11.726  -2.197  1.00  0.00     0.057 C 
ATOM      9  C   UNL     1      -5.475  -9.114  -2.077  1.00  0.00     0.247 C 
ATOM     10  C   UNL     1      -3.448 -10.682  -1.448  1.00  0.00     0.040 C 
ATOM     11  O   UNL     1      -6.155  -8.099  -1.880  1.00  0.00    -0.272 OA
BRANCH   6  12
ATOM     12  O   UNL     1      -3.880 -10.668  -4.328  1.00  0.00    -0.373 OA
ATOM     13  H   UNL     1      -3.211 -11.383  -4.381  1.00  0.00     0.213 HD
ENDBRANCH   6  12
BRANCH   7  14
ATOM     14  C   UNL     1      -6.806  -9.672  -4.099  1.00  0.00     0.177 C 
BRANCH  14  15
ATOM     15  C   UNL     1      -8.204  -9.481  -3.480  1.00  0.00     0.038 C 
BRANCH  15  16
ATOM     16  C   UNL     1      -9.181 -10.676  -3.424  1.00  0.00    -0.015 C 
ATOM     17  C   UNL     1      -9.108 -11.549  -4.680  1.00  0.00     0.007 C 
ATOM     18  C   UNL     1     -10.620 -10.163  -3.279  1.00  0.00     0.007 C 
ENDBRANCH  15  16
ENDBRANCH  14  15
BRANCH  14  19
ATOM     19  C   UNL     1      -6.237  -8.869  -5.319  1.00  0.00     0.245 C 
ATOM     20  O   UNL     1      -5.856  -9.533  -6.297  1.00  0.00    -0.272 OA
BRANCH  19  21
ATOM     21  N   UNL     1      -6.038  -7.499  -5.316  1.00  0.00    -0.332 N 
ATOM     22  C   UNL     1      -6.513  -6.581  -4.296  1.00  0.00     0.147 C 
BRANCH  21  23
ATOM     23  C   UNL     1      -5.286  -6.903  -6.454  1.00  0.00     0.178 C 
BRANCH  23  24
ATOM     24  C   UNL     1      -5.852  -5.565  -6.972  1.00  0.00     0.070 C 
BRANCH  24  25
ATOM     25  C   UNL     1      -6.446  -5.561  -8.362  1.00  0.00    -0.045 A 
ATOM     26  C   UNL     1      -5.915  -6.373  -9.372  1.00  0.00     0.004 A 
ATOM     27  C   UNL     1      -7.539  -4.735  -8.661  1.00  0.00     0.004 A 
ATOM     28  C   UNL     1      -6.458  -6.351 -10.658  1.00  0.00     0.000 A 
ATOM     29  C   UNL     1      -8.083  -4.714  -9.947  1.00  0.00     0.000 A 
ATOM     30  C   UNL     1      -7.540  -5.521 -10.945  1.00  0.00     0.000 A 
ENDBRANCH  24  25
ENDBRANCH  23  24
BRANCH  23  31
ATOM     31  C   UNL     1      -3.753  -6.923  -6.241  1.00  0.00     0.243 C 
ATOM     32  O   UNL     1      -3.139  -6.082  -5.589  1.00  0.00    -0.273 OA
ATOM     33  N   UNL     1      -3.101  -7.874  -7.008  1.00  0.00    -0.341 N 
ATOM     34  H   UNL     1      -3.666  -8.544  -7.535  1.00  0.00     0.164 HD
BRANCH  33  35
ATOM     35  C   UNL     1      -1.641  -7.995  -7.058  1.00  0.00     0.194 C 
BRANCH  35  36
ATOM     36  C   UNL     1      -1.076  -8.287  -8.476  1.00  0.00     0.017 C 
ATOM     37  C   UNL     1      -0.661  -6.990  -9.191  1.00  0.00     0.010 C 
ATOM     38  C   UNL     1      -2.074  -9.014  -9.386  1.00  0.00     0.010 C 
ENDBRANCH  35  36
BRANCH  35  39
ATOM     39  C   UNL     1      -1.087  -8.987  -5.997  1.00  0.00     0.329 C 
ATOM     40  O   UNL     1      -1.148 -10.207  -6.100  1.00  0.00    -0.250 OA
BRANCH  39  41
ATOM     41  O   UNL     1      -0.443  -8.348  -4.973  1.00  0.00    -0.458 OA
BRANCH  41  42
ATOM     42  C   UNL     1       0.692  -7.529  -5.342  1.00  0.00     0.205 CG0
ATOM     43  C   UNL     1       1.821  -8.475  -5.748  1.00  0.00     0.056 C 
ATOM     44  G   UNL     1       1.070  -6.643  -4.139  1.00  0.00     0.000 G0
ENDBRANCH  41  42
ENDBRANCH  39  41
ENDBRANCH  35  39
ENDBRANCH  33  35
ENDBRANCH  23  31
ENDBRANCH  21  23
ENDBRANCH  19  21
ENDBRANCH  14  19
ENDBRANCH   7  14
ENDBRANCH   2   5
BRANCH   3  45
ATOM     45  C   UNL     1      -1.851  -6.549  -1.652  1.00  0.00     0.171 C 
BRANCH  45  46
ATOM     46  N   UNL     1      -0.600  -6.824  -2.346  1.00  0.00    -0.342 N 
ATOM     47  C   UNL     1      -0.193  -6.106  -3.442  1.00  0.00     0.247 C 
ATOM     48  O   UNL     1      -0.815  -5.134  -3.873  1.00  0.00    -0.273 OA
ATOM     49  H   UNL     1      -0.026  -7.585  -1.987  1.00  0.00     0.164 HD
BRANCH  47  50
ATOM     50  C   UNL     1       1.088  -6.618  -4.116  1.00  0.00     0.212 CG0
ATOM     51  G   UNL     1       0.667  -7.502  -5.307  1.00  0.00     0.000 G0
BRANCH  50  52
ATOM     52  N   UNL     1       1.823  -5.422  -4.517  1.00  0.00    -0.339 N 
ATOM     53  C   UNL     1       3.078  -5.114  -4.051  1.00  0.00     0.243 C 
ATOM     54  O   UNL     1       3.660  -5.800  -3.215  1.00  0.00    -0.273 OA
ATOM     55  H   UNL     1       1.348  -4.756  -5.123  1.00  0.00     0.164 HD
BRANCH  53  56
ATOM     56  C   UNL     1       3.617  -3.757  -4.547  1.00  0.00     0.182 C 
BRANCH  56  57
ATOM     57  N   UNL     1       2.700  -2.667  -4.198  1.00  0.00    -0.344 N 
ATOM     58  C   UNL     1       3.005  -1.725  -3.247  1.00  0.00     0.220 C 
ATOM     59  O   UNL     1       4.029  -1.769  -2.573  1.00  0.00    -0.275 OA
ATOM     60  H   UNL     1       1.891  -2.535  -4.800  1.00  0.00     0.164 HD
BRANCH  58  61
ATOM     61  C   UNL     1       1.936  -0.658  -3.092  1.00  0.00     0.100 C 
BRANCH  61  62
ATOM     62  C   UNL     1       0.509  -1.202  -3.157  1.00  0.00     0.010 C 
BRANCH  62  63
ATOM     63  C   UNL     1       0.028  -1.857  -1.855  1.00  0.00     0.000 C 
BRANCH  63  64
ATOM     64  C   UNL     1      -1.008  -1.039  -1.087  1.00  0.00    -0.003 C 
ATOM     65  C   UNL     1      -2.418  -1.318  -1.588  1.00  0.00     0.004 C 
ENDBRANCH  63  64
ENDBRANCH  62  63
ENDBRANCH  61  62
ENDBRANCH  58  61
ENDBRANCH  56  57
BRANCH  56  66
ATOM     66  C   UNL     1       3.929  -3.792  -6.042  1.00  0.00     0.157 C 
BRANCH  66  67
ATOM     67  C   UNL     1       4.262  -2.422  -6.560  1.00  0.00     0.305 C 
ATOM     68  O   UNL     1       5.377  -1.968  -6.767  1.00  0.00    -0.252 OA
BRANCH  67  69
ATOM     69  O   UNL     1       3.161  -1.700  -6.843  1.00  0.00    -0.481 OA
ATOM     70  H   UNL     1       2.882  -2.008  -7.731  1.00  0.00     0.296 HD
ENDBRANCH  67  69
ENDBRANCH  66  67
ENDBRANCH  56  66
ENDBRANCH  53  56
ENDBRANCH  50  52
ENDBRANCH  47  50
ENDBRANCH  45  46
BRANCH  45  71
ATOM     71  C   UNL     1      -1.648  -6.463  -0.135  1.00  0.00     0.037 C 
BRANCH  71  72
ATOM     72  C   UNL     1      -2.053  -5.097   0.424  1.00  0.00     0.026 C 
BRANCH  72  73
ATOM     73  C   UNL     1      -3.079  -5.232   1.547  1.00  0.00     0.146 C 
BRANCH  73  74
ATOM     74  N   UNL     1      -3.243  -6.654   1.834  1.00  0.00    -0.254 NA
ATOM     75  C   UNL     1      -4.380  -7.050   2.273  1.00  0.00     0.185 C 
ATOM     76  N   UNL     1      -4.562  -8.352   2.545  1.00  0.00    -0.370 N 
ATOM     77  N   UNL     1      -5.488  -6.329   2.520  1.00  0.00    -0.370 N 
ATOM     78  H   UNL     1      -3.773  -8.965   2.394  1.00  0.00     0.159 HD
ATOM     79  H   UNL     1      -5.369  -8.711   3.024  1.00  0.00     0.159 HD
ATOM     80  H   UNL     1      -5.500  -5.333   2.357  1.00  0.00     0.159 HD
ATOM     81  H   UNL     1      -6.363  -6.768   2.755  1.00  0.00     0.159 HD
ENDBRANCH  73  74
ENDBRANCH  72  73
ENDBRANCH  71  72
ENDBRANCH  45  71
ENDBRANCH   3  45
TORSDOF 20
ENDMDL
MODEL 6
REMARK VINA RESULT:    -5.663      3.493      8.147
REMARK INTER + INTRA:         -23.428
REMARK INTER:                 -18.645
REMARK INTRA:                  -4.783
REMARK UNBOUND:                -7.173
REMARK SMILES CCCCCC(=O)N[C@H](CC(=O)O)C(=O)N[C@H]1C(=O)N[C@H](CCCN=C(N)N)C(=O)N[C@@H]2CC[C@H](O)N(C2=O)[C@@H](CC(C)C)C(=O)N(C)[C@@H](Cc2ccccc2)C(=O)N[C@H](C(C)C)C(=O)O[C@@H]1C
REMARK SMILES IDX 30 1 31 2 29 3 32 5 35 6 37 7 34 8 38 9 33 10 39 11 36 12
REMARK SMILES IDX 40 14 41 15 42 16 43 17 44 18 45 19 46 20 47 21 48 22 49 23
REMARK SMILES IDX 50 24 51 25 52 26 56 27 53 28 55 29 54 30 57 31 58 32 59 33
REMARK SMILES IDX 60 35 61 36 62 37 63 38 64 39 65 40 66 41 67 42 68 43 21 45
REMARK SMILES IDX 20 46 18 47 19 48 17 50 16 52 14 53 15 54 9 56 8 57 6 58
REMARK SMILES IDX 7 59 5 61 4 62 3 63 2 64 1 65 10 66 11 67 12 68 13 69 22 71
REMARK SMILES IDX 23 72 24 73 25 74 26 75 27 76 28 77
REMARK H PARENT 31 4 36 13 59 34 20 49 16 55 8 60 13 70 27 78 27 79 28 80
REMARK H PARENT 28 81
REMARK Flexibility Score:  259.900
ROOT
ATOM      1  O   UNL     1      -1.833  -8.795  -7.784  1.00  0.00    -0.273 OA
ATOM      2  N   UNL     1      -1.496  -6.539  -7.939  1.00  0.00    -0.343 N 
ATOM      3  C   UNL     1      -2.056  -7.659  -7.365  1.00  0.00     0.243 C 
ATOM      4  H   UNL     1      -1.690  -5.621  -7.559  1.00  0.00     0.164 HD
ENDROOT
BRANCH   2   5
ATOM      5  C   UNL     1      -0.700  -6.648  -9.157  1.00  0.00     0.171 C 
ATOM      6  C   UNL     1       0.326  -8.921 -10.636  1.00  0.00     0.214 C 
ATOM      7  N   UNL     1       1.138  -8.319  -9.604  1.00  0.00    -0.303 N 
ATOM      8  C   UNL     1      -0.610  -7.934 -11.316  1.00  0.00     0.057 C 
ATOM      9  C   UNL     1       0.689  -7.265  -8.826  1.00  0.00     0.247 C 
ATOM     10  C   UNL     1      -1.509  -7.286 -10.285  1.00  0.00     0.040 C 
ATOM     11  O   UNL     1       1.356  -6.812  -7.886  1.00  0.00    -0.272 OA
BRANCH   6  12
ATOM     12  O   UNL     1      -0.407  -9.971 -10.049  1.00  0.00    -0.373 OA
ATOM     13  H   UNL     1      -1.336  -9.665  -9.973  1.00  0.00     0.213 HD
ENDBRANCH   6  12
BRANCH   7  14
ATOM     14  C   UNL     1       2.430  -8.972  -9.302  1.00  0.00     0.177 C 
BRANCH  14  15
ATOM     15  C   UNL     1       2.448 -10.503  -9.474  1.00  0.00     0.038 C 
BRANCH  15  16
ATOM     16  C   UNL     1       3.117 -11.121 -10.722  1.00  0.00    -0.015 C 
ATOM     17  C   UNL     1       4.645 -11.020 -10.675  1.00  0.00     0.007 C 
ATOM     18  C   UNL     1       2.627 -10.400 -11.984  1.00  0.00     0.007 C 
ENDBRANCH  15  16
ENDBRANCH  14  15
BRANCH  14  19
ATOM     19  C   UNL     1       3.618  -8.007  -9.640  1.00  0.00     0.245 C 
ATOM     20  O   UNL     1       3.561  -7.409 -10.727  1.00  0.00    -0.272 OA
BRANCH  19  21
ATOM     21  N   UNL     1       4.754  -7.879  -8.859  1.00  0.00    -0.332 N 
ATOM     22  C   UNL     1       5.836  -8.844  -8.781  1.00  0.00     0.147 C 
BRANCH  21  23
ATOM     23  C   UNL     1       4.884  -6.659  -8.016  1.00  0.00     0.178 C 
BRANCH  23  24
ATOM     24  C   UNL     1       4.178  -5.408  -8.577  1.00  0.00     0.070 C 
BRANCH  24  25
ATOM     25  C   UNL     1       4.295  -4.133  -7.774  1.00  0.00    -0.045 A 
ATOM     26  C   UNL     1       3.161  -3.533  -7.212  1.00  0.00     0.004 A 
ATOM     27  C   UNL     1       5.547  -3.528  -7.585  1.00  0.00     0.004 A 
ATOM     28  C   UNL     1       3.275  -2.345  -6.486  1.00  0.00     0.000 A 
ATOM     29  C   UNL     1       5.659  -2.343  -6.857  1.00  0.00     0.000 A 
ATOM     30  C   UNL     1       4.523  -1.750  -6.311  1.00  0.00     0.000 A 
ENDBRANCH  24  25
ENDBRANCH  23  24
BRANCH  23  31
ATOM     31  C   UNL     1       4.630  -6.932  -6.515  1.00  0.00     0.243 C 
ATOM     32  O   UNL     1       5.405  -6.613  -5.617  1.00  0.00    -0.273 OA
ATOM     33  N   UNL     1       3.530  -7.739  -6.278  1.00  0.00    -0.341 N 
ATOM     34  H   UNL     1       2.924  -7.977  -7.067  1.00  0.00     0.164 HD
BRANCH  33  35
ATOM     35  C   UNL     1       3.168  -8.225  -4.944  1.00  0.00     0.194 C 
BRANCH  35  36
ATOM     36  C   UNL     1       3.734  -9.633  -4.606  1.00  0.00     0.017 C 
ATOM     37  C   UNL     1       5.042  -9.532  -3.802  1.00  0.00     0.010 C 
ATOM     38  C   UNL     1       4.024 -10.483  -5.849  1.00  0.00     0.010 C 
ENDBRANCH  35  36
BRANCH  35  39
ATOM     39  C   UNL     1       1.641  -8.132  -4.668  1.00  0.00     0.329 C 
ATOM     40  O   UNL     1       0.785  -8.676  -5.355  1.00  0.00    -0.250 OA
BRANCH  39  41
ATOM     41  O   UNL     1       1.362  -7.446  -3.518  1.00  0.00    -0.458 OA
BRANCH  41  42
ATOM     42  C   UNL     1       0.541  -6.262  -3.662  1.00  0.00     0.205 CG0
ATOM     43  C   UNL     1       1.265  -5.119  -2.954  1.00  0.00     0.056 C 
ATOM     44  G   UNL     1      -0.846  -6.549  -3.053  1.00  0.00     0.000 G0
ENDBRANCH  41  42
ENDBRANCH  39  41
ENDBRANCH  35  39
ENDBRANCH  33  35
ENDBRANCH  23  31
ENDBRANCH  21  23
ENDBRANCH  19  21
ENDBRANCH  14  19
ENDBRANCH   7  14
ENDBRANCH   2   5
BRANCH   3  45
ATOM     45  C   UNL     1      -2.960  -7.394  -6.153  1.00  0.00     0.171 C 
BRANCH  45  46
ATOM     46  N   UNL     1      -2.083  -7.444  -4.990  1.00  0.00    -0.342 N 
ATOM     47  C   UNL     1      -1.931  -6.379  -4.137  1.00  0.00     0.247 C 
ATOM     48  O   UNL     1      -2.575  -5.336  -4.249  1.00  0.00    -0.273 OA
ATOM     49  H   UNL     1      -1.573  -8.310  -4.828  1.00  0.00     0.164 HD
BRANCH  47  50
ATOM     50  C   UNL     1      -0.873  -6.571  -3.041  1.00  0.00     0.212 CG0
ATOM     51  G   UNL     1       0.502  -6.247  -3.657  1.00  0.00     0.000 G0
BRANCH  50  52
ATOM     52  N   UNL     1      -1.254  -5.657  -1.968  1.00  0.00    -0.339 N 
ATOM     53  C   UNL     1      -1.839  -6.071  -0.795  1.00  0.00     0.243 C 
ATOM     54  O   UNL     1      -2.137  -7.243  -0.581  1.00  0.00    -0.273 OA
ATOM     55  H   UNL     1      -1.135  -4.660  -2.131  1.00  0.00     0.164 HD
BRANCH  53  56
ATOM     56  C   UNL     1      -2.231  -4.918   0.151  1.00  0.00     0.182 C 
BRANCH  56  57
ATOM     57  N   UNL     1      -1.392  -3.738  -0.080  1.00  0.00    -0.344 N 
ATOM     58  C   UNL     1      -1.701  -2.789  -1.024  1.00  0.00     0.220 C 
ATOM     59  O   UNL     1      -2.655  -2.897  -1.786  1.00  0.00    -0.275 OA
ATOM     60  H   UNL     1      -0.653  -3.560   0.594  1.00  0.00     0.164 HD
BRANCH  58  61
ATOM     61  C   UNL     1      -0.725  -1.627  -1.049  1.00  0.00     0.100 C 
BRANCH  61  62
ATOM     62  C   UNL     1      -0.639  -0.924  -2.404  1.00  0.00     0.010 C 
BRANCH  62  63
ATOM     63  C   UNL     1       0.055  -1.748  -3.496  1.00  0.00     0.000 C 
BRANCH  63  64
ATOM     64  C   UNL     1       1.581  -1.728  -3.420  1.00  0.00    -0.003 C 
ATOM     65  C   UNL     1       2.116  -0.304  -3.374  1.00  0.00     0.004 C 
ENDBRANCH  63  64
ENDBRANCH  62  63
ENDBRANCH  61  62
ENDBRANCH  58  61
ENDBRANCH  56  57
BRANCH  56  66
ATOM     66  C   UNL     1      -2.212  -5.362   1.613  1.00  0.00     0.157 C 
BRANCH  66  67
ATOM     67  C   UNL     1      -3.402  -6.219   1.937  1.00  0.00     0.305 C 
ATOM     68  O   UNL     1      -4.578  -5.932   1.772  1.00  0.00    -0.252 OA
BRANCH  67  69
ATOM     69  O   UNL     1      -3.048  -7.428   2.411  1.00  0.00    -0.481 OA
ATOM     70  H   UNL     1      -2.192  -7.279   2.865  1.00  0.00     0.296 HD
ENDBRANCH  67  69
ENDBRANCH  66  67
ENDBRANCH  56  66
ENDBRANCH  53  56
ENDBRANCH  50  52
ENDBRANCH  47  50
ENDBRANCH  45  46
BRANCH  45  71
ATOM     71  C   UNL     1      -4.067  -8.450  -6.072  1.00  0.00     0.037 C 
BRANCH  71  72
ATOM     72  C   UNL     1      -5.455  -7.849  -6.310  1.00  0.00     0.026 C 
BRANCH  72  73
ATOM     73  C   UNL     1      -5.835  -6.862  -5.208  1.00  0.00     0.146 C 
BRANCH  73  74
ATOM     74  N   UNL     1      -6.094  -5.570  -5.834  1.00  0.00    -0.254 NA
ATOM     75  C   UNL     1      -5.797  -4.513  -5.173  1.00  0.00     0.185 C 
ATOM     76  N   UNL     1      -6.023  -3.309  -5.723  1.00  0.00    -0.370 N 
ATOM     77  N   UNL     1      -5.264  -4.408  -3.943  1.00  0.00    -0.370 N 
ATOM     78  H   UNL     1      -6.431  -3.298  -6.647  1.00  0.00     0.159 HD
ATOM     79  H   UNL     1      -5.953  -2.446  -5.214  1.00  0.00     0.159 HD
ATOM     80  H   UNL     1      -5.037  -5.233  -3.409  1.00  0.00     0.159 HD
ATOM     81  H   UNL     1      -4.966  -3.521  -3.571  1.00  0.00     0.159 HD
ENDBRANCH  73  74
ENDBRANCH  72  73
ENDBRANCH  71  72
ENDBRANCH  45  71
ENDBRANCH   3  45
TORSDOF 20
ENDMDL
MODEL 7
REMARK VINA RESULT:    -5.513      3.484      5.836
REMARK INTER + INTRA:         -23.000
REMARK INTER:                 -15.588
REMARK INTRA:                  -7.412
REMARK UNBOUND:                -7.173
REMARK SMILES CCCCCC(=O)N[C@H](CC(=O)O)C(=O)N[C@H]1C(=O)N[C@H](CCCN=C(N)N)C(=O)N[C@@H]2CC[C@H](O)N(C2=O)[C@@H](CC(C)C)C(=O)N(C)[C@@H](Cc2ccccc2)C(=O)N[C@H](C(C)C)C(=O)O[C@@H]1C
REMARK SMILES IDX 30 1 31 2 29 3 32 5 35 6 37 7 34 8 38 9 33 10 39 11 36 12
REMARK SMILES IDX 40 14 41 15 42 16 43 17 44 18 45 19 46 20 47 21 48 22 49 23
REMARK SMILES IDX 50 24 51 25 52 26 56 27 53 28 55 29 54 30 57 31 58 32 59 33
REMARK SMILES IDX 60 35 61 36 62 37 63 38 64 39 65 40 66 41 67 42 68 43 21 45
REMARK SMILES IDX 20 46 18 47 19 48 17 50 16 52 14 53 15 54 9 56 8 57 6 58
REMARK SMILES IDX 7 59 5 61 4 62 3 63 2 64 1 65 10 66 11 67 12 68 13 69 22 71
REMARK SMILES IDX 23 72 24 73 25 74 26 75 27 76 28 77
REMARK H PARENT 31 4 36 13 59 34 20 49 16 55 8 60 13 70 27 78 27 79 28 80
REMARK H PARENT 28 81
REMARK Flexibility Score:  259.900
ROOT
ATOM      1  O   UNL     1       0.816  -4.752  -1.351  1.00  0.00    -0.273 OA
ATOM      2  N   UNL     1       1.346  -4.631  -3.573  1.00  0.00    -0.343 N 
ATOM      3  C   UNL     1       0.558  -4.337  -2.481  1.00  0.00     0.243 C 
ATOM      4  H   UNL     1       1.111  -4.260  -4.485  1.00  0.00     0.164 HD
ENDROOT
BRANCH   2   5
ATOM      5  C   UNL     1       2.468  -5.556  -3.450  1.00  0.00     0.171 C 
ATOM      6  C   UNL     1       5.023  -5.736  -4.809  1.00  0.00     0.214 C 
ATOM      7  N   UNL     1       3.885  -6.454  -5.336  1.00  0.00    -0.303 N 
ATOM      8  C   UNL     1       4.978  -5.564  -3.299  1.00  0.00     0.057 C 
ATOM      9  C   UNL     1       2.626  -6.371  -4.766  1.00  0.00     0.247 C 
ATOM     10  C   UNL     1       3.706  -4.847  -2.902  1.00  0.00     0.040 C 
ATOM     11  O   UNL     1       1.638  -6.919  -5.273  1.00  0.00    -0.272 OA
BRANCH   6  12
ATOM     12  O   UNL     1       5.072  -4.480  -5.447  1.00  0.00    -0.373 OA
ATOM     13  H   UNL     1       5.147  -3.803  -4.741  1.00  0.00     0.213 HD
ENDBRANCH   6  12
BRANCH   7  14
ATOM     14  C   UNL     1       4.081  -7.176  -6.611  1.00  0.00     0.177 C 
BRANCH  14  15
ATOM     15  C   UNL     1       4.908  -6.424  -7.672  1.00  0.00     0.038 C 
BRANCH  15  16
ATOM     16  C   UNL     1       4.207  -5.414  -8.607  1.00  0.00    -0.015 C 
ATOM     17  C   UNL     1       2.864  -5.935  -9.129  1.00  0.00     0.007 C 
ATOM     18  C   UNL     1       5.106  -5.113  -9.813  1.00  0.00     0.007 C 
ENDBRANCH  15  16
ENDBRANCH  14  15
BRANCH  14  19
ATOM     19  C   UNL     1       4.122  -8.723  -6.358  1.00  0.00     0.245 C 
ATOM     20  O   UNL     1       5.193  -9.192  -5.938  1.00  0.00    -0.272 OA
BRANCH  19  21
ATOM     21  N   UNL     1       3.089  -9.584  -6.680  1.00  0.00    -0.332 N 
ATOM     22  C   UNL     1       2.564 -10.629  -5.818  1.00  0.00     0.147 C 
BRANCH  21  23
ATOM     23  C   UNL     1       2.460  -9.447  -8.023  1.00  0.00     0.178 C 
BRANCH  23  24
ATOM     24  C   UNL     1       3.176 -10.218  -9.152  1.00  0.00     0.070 C 
BRANCH  24  25
ATOM     25  C   UNL     1       4.000  -9.405 -10.124  1.00  0.00    -0.045 A 
ATOM     26  C   UNL     1       5.374  -9.222  -9.921  1.00  0.00     0.004 A 
ATOM     27  C   UNL     1       3.395  -8.818 -11.245  1.00  0.00     0.004 A 
ATOM     28  C   UNL     1       6.125  -8.455 -10.815  1.00  0.00     0.000 A 
ATOM     29  C   UNL     1       4.147  -8.053 -12.138  1.00  0.00     0.000 A 
ATOM     30  C   UNL     1       5.511  -7.870 -11.921  1.00  0.00     0.000 A 
ENDBRANCH  24  25
ENDBRANCH  23  24
BRANCH  23  31
ATOM     31  C   UNL     1       0.923  -9.618  -7.990  1.00  0.00     0.243 C 
ATOM     32  O   UNL     1       0.332 -10.601  -8.430  1.00  0.00    -0.273 OA
ATOM     33  N   UNL     1       0.248  -8.479  -7.588  1.00  0.00    -0.341 N 
ATOM     34  H   UNL     1       0.796  -7.689  -7.237  1.00  0.00     0.164 HD
BRANCH  33  35
ATOM     35  C   UNL     1      -1.214  -8.371  -7.594  1.00  0.00     0.194 C 
BRANCH  35  36
ATOM     36  C   UNL     1      -1.750  -7.046  -8.205  1.00  0.00     0.017 C 
ATOM     37  C   UNL     1      -3.047  -7.282  -8.999  1.00  0.00     0.010 C 
ATOM     38  C   UNL     1      -0.751  -6.368  -9.150  1.00  0.00     0.010 C 
ENDBRANCH  35  36
BRANCH  35  39
ATOM     39  C   UNL     1      -1.841  -8.664  -6.202  1.00  0.00     0.329 C 
ATOM     40  O   UNL     1      -1.588  -9.658  -5.531  1.00  0.00    -0.250 OA
BRANCH  39  41
ATOM     41  O   UNL     1      -2.642  -7.645  -5.768  1.00  0.00    -0.458 OA
BRANCH  41  42
ATOM     42  C   UNL     1      -2.419  -7.186  -4.414  1.00  0.00     0.205 CG0
ATOM     43  C   UNL     1      -2.846  -8.313  -3.476  1.00  0.00     0.056 C 
ATOM     44  G   UNL     1      -3.231  -5.895  -4.192  1.00  0.00     0.000 G0
ENDBRANCH  41  42
ENDBRANCH  39  41
ENDBRANCH  35  39
ENDBRANCH  33  35
ENDBRANCH  23  31
ENDBRANCH  21  23
ENDBRANCH  19  21
ENDBRANCH  14  19
ENDBRANCH   7  14
ENDBRANCH   2   5
BRANCH   3  45
ATOM     45  C   UNL     1      -0.653  -3.439  -2.769  1.00  0.00     0.171 C 
BRANCH  45  46
ATOM     46  N   UNL     1      -1.532  -4.224  -3.625  1.00  0.00    -0.342 N 
ATOM     47  C   UNL     1      -2.521  -5.032  -3.122  1.00  0.00     0.247 C 
ATOM     48  O   UNL     1      -2.785  -5.096  -1.921  1.00  0.00    -0.273 OA
ATOM     49  H   UNL     1      -1.384  -4.157  -4.630  1.00  0.00     0.164 HD
BRANCH  47  50
ATOM     50  C   UNL     1      -3.262  -5.878  -4.167  1.00  0.00     0.212 CG0
ATOM     51  G   UNL     1      -2.432  -7.153  -4.411  1.00  0.00     0.000 G0
BRANCH  50  52
ATOM     52  N   UNL     1      -4.576  -6.147  -3.589  1.00  0.00    -0.339 N 
ATOM     53  C   UNL     1      -5.736  -5.568  -4.045  1.00  0.00     0.243 C 
ATOM     54  O   UNL     1      -5.749  -4.734  -4.946  1.00  0.00    -0.273 OA
ATOM     55  H   UNL     1      -4.617  -6.745  -2.766  1.00  0.00     0.164 HD
BRANCH  53  56
ATOM     56  C   UNL     1      -6.987  -5.937  -3.222  1.00  0.00     0.182 C 
BRANCH  56  57
ATOM     57  N   UNL     1      -7.492  -7.261  -3.598  1.00  0.00    -0.344 N 
ATOM     58  C   UNL     1      -7.678  -8.266  -2.680  1.00  0.00     0.220 C 
ATOM     59  O   UNL     1      -7.367  -8.152  -1.500  1.00  0.00    -0.275 OA
ATOM     60  H   UNL     1      -7.856  -7.364  -4.542  1.00  0.00     0.164 HD
BRANCH  58  61
ATOM     61  C   UNL     1      -8.264  -9.530  -3.282  1.00  0.00     0.100 C 
BRANCH  61  62
ATOM     62  C   UNL     1      -7.220 -10.595  -3.617  1.00  0.00     0.010 C 
BRANCH  62  63
ATOM     63  C   UNL     1      -6.762 -10.585  -5.081  1.00  0.00     0.000 C 
BRANCH  63  64
ATOM     64  C   UNL     1      -5.354 -11.138  -5.301  1.00  0.00    -0.003 C 
ATOM     65  C   UNL     1      -5.289 -12.627  -4.994  1.00  0.00     0.004 C 
ENDBRANCH  63  64
ENDBRANCH  62  63
ENDBRANCH  61  62
ENDBRANCH  58  61
ENDBRANCH  56  57
BRANCH  56  66
ATOM     66  C   UNL     1      -8.064  -4.858  -3.326  1.00  0.00     0.157 C 
BRANCH  66  67
ATOM     67  C   UNL     1      -9.190  -5.297  -4.217  1.00  0.00     0.305 C 
ATOM     68  O   UNL     1     -10.263  -5.763  -3.866  1.00  0.00    -0.252 OA
BRANCH  67  69
ATOM     69  O   UNL     1      -8.927  -5.078  -5.520  1.00  0.00    -0.481 OA
ATOM     70  H   UNL     1      -8.953  -4.103  -5.619  1.00  0.00     0.296 HD
ENDBRANCH  67  69
ENDBRANCH  66  67
ENDBRANCH  56  66
ENDBRANCH  53  56
ENDBRANCH  50  52
ENDBRANCH  47  50
ENDBRANCH  45  46
BRANCH  45  71
ATOM     71  C   UNL     1      -0.206  -2.143  -3.454  1.00  0.00     0.037 C 
BRANCH  71  72
ATOM     72  C   UNL     1       0.812  -1.368  -2.613  1.00  0.00     0.026 C 
BRANCH  72  73
ATOM     73  C   UNL     1       2.082  -1.068  -3.407  1.00  0.00     0.146 C 
BRANCH  73  74
ATOM     74  N   UNL     1       1.967  -1.732  -4.702  1.00  0.00    -0.254 NA
ATOM     75  C   UNL     1       3.048  -1.987  -5.342  1.00  0.00     0.185 C 
ATOM     76  N   UNL     1       2.975  -2.598  -6.535  1.00  0.00    -0.370 N 
ATOM     77  N   UNL     1       4.320  -1.728  -4.990  1.00  0.00    -0.370 N 
ATOM     78  H   UNL     1       2.052  -2.823  -6.878  1.00  0.00     0.159 HD
ATOM     79  H   UNL     1       3.759  -2.699  -7.155  1.00  0.00     0.159 HD
ATOM     80  H   UNL     1       4.528  -1.274  -4.114  1.00  0.00     0.159 HD
ATOM     81  H   UNL     1       5.097  -2.080  -5.524  1.00  0.00     0.159 HD
ENDBRANCH  73  74
ENDBRANCH  72  73
ENDBRANCH  71  72
ENDBRANCH  45  71
ENDBRANCH   3  45
TORSDOF 20
ENDMDL
MODEL 8
REMARK VINA RESULT:    -5.511      3.432      6.563
REMARK INTER + INTRA:         -22.994
REMARK INTER:                 -17.460
REMARK INTRA:                  -5.534
REMARK UNBOUND:                -7.173
REMARK SMILES CCCCCC(=O)N[C@H](CC(=O)O)C(=O)N[C@H]1C(=O)N[C@H](CCCN=C(N)N)C(=O)N[C@@H]2CC[C@H](O)N(C2=O)[C@@H](CC(C)C)C(=O)N(C)[C@@H](Cc2ccccc2)C(=O)N[C@H](C(C)C)C(=O)O[C@@H]1C
REMARK SMILES IDX 30 1 31 2 29 3 32 5 35 6 37 7 34 8 38 9 33 10 39 11 36 12
REMARK SMILES IDX 40 14 41 15 42 16 43 17 44 18 45 19 46 20 47 21 48 22 49 23
REMARK SMILES IDX 50 24 51 25 52 26 56 27 53 28 55 29 54 30 57 31 58 32 59 33
REMARK SMILES IDX 60 35 61 36 62 37 63 38 64 39 65 40 66 41 67 42 68 43 21 45
REMARK SMILES IDX 20 46 18 47 19 48 17 50 16 52 14 53 15 54 9 56 8 57 6 58
REMARK SMILES IDX 7 59 5 61 4 62 3 63 2 64 1 65 10 66 11 67 12 68 13 69 22 71
REMARK SMILES IDX 23 72 24 73 25 74 26 75 27 76 28 77
REMARK H PARENT 31 4 36 13 59 34 20 49 16 55 8 60 13 70 27 78 27 79 28 80
REMARK H PARENT 28 81
REMARK Flexibility Score:  259.900
ROOT
ATOM      1  O   UNL     1       0.911  -4.674  -1.302  1.00  0.00    -0.273 OA
ATOM      2  N   UNL     1       1.344  -4.582  -3.546  1.00  0.00    -0.343 N 
ATOM      3  C   UNL     1       0.609  -4.265  -2.423  1.00  0.00     0.243 C 
ATOM      4  H   UNL     1       1.074  -4.215  -4.450  1.00  0.00     0.164 HD
ENDROOT
BRANCH   2   5
ATOM      5  C   UNL     1       2.454  -5.524  -3.464  1.00  0.00     0.171 C 
ATOM      6  C   UNL     1       4.639  -6.145  -5.266  1.00  0.00     0.214 C 
ATOM      7  N   UNL     1       3.406  -6.890  -5.362  1.00  0.00    -0.303 N 
ATOM      8  C   UNL     1       4.935  -5.649  -3.859  1.00  0.00     0.057 C 
ATOM      9  C   UNL     1       2.306  -6.611  -4.567  1.00  0.00     0.247 C 
ATOM     10  C   UNL     1       3.791  -4.789  -3.368  1.00  0.00     0.040 C 
ATOM     11  O   UNL     1       1.225  -7.196  -4.714  1.00  0.00    -0.272 OA
BRANCH   6  12
ATOM     12  O   UNL     1       4.558  -5.062  -6.163  1.00  0.00    -0.373 OA
ATOM     13  H   UNL     1       3.972  -5.341  -6.899  1.00  0.00     0.213 HD
ENDBRANCH   6  12
BRANCH   7  14
ATOM     14  C   UNL     1       3.304  -7.881  -6.454  1.00  0.00     0.177 C 
BRANCH  14  15
ATOM     15  C   UNL     1       4.167  -7.580  -7.695  1.00  0.00     0.038 C 
BRANCH  15  16
ATOM     16  C   UNL     1       5.114  -8.670  -8.246  1.00  0.00    -0.015 C 
ATOM     17  C   UNL     1       6.364  -8.850  -7.379  1.00  0.00     0.007 C 
ATOM     18  C   UNL     1       5.562  -8.298  -9.665  1.00  0.00     0.007 C 
ENDBRANCH  15  16
ENDBRANCH  14  15
BRANCH  14  19
ATOM     19  C   UNL     1       3.022  -9.308  -5.870  1.00  0.00     0.245 C 
ATOM     20  O   UNL     1       3.794  -9.712  -4.984  1.00  0.00    -0.272 OA
BRANCH  19  21
ATOM     21  N   UNL     1       2.050 -10.163  -6.358  1.00  0.00    -0.332 N 
ATOM     22  C   UNL     1       1.990 -11.594  -6.119  1.00  0.00     0.147 C 
BRANCH  21  23
ATOM     23  C   UNL     1       0.977  -9.582  -7.211  1.00  0.00     0.178 C 
BRANCH  23  24
ATOM     24  C   UNL     1       1.278  -9.592  -8.724  1.00  0.00     0.070 C 
BRANCH  24  25
ATOM     25  C   UNL     1       0.224  -9.014  -9.639  1.00  0.00    -0.045 A 
ATOM     26  C   UNL     1      -0.632  -9.851 -10.366  1.00  0.00     0.004 A 
ATOM     27  C   UNL     1       0.092  -7.624  -9.776  1.00  0.00     0.004 A 
ATOM     28  C   UNL     1      -1.592  -9.309 -11.223  1.00  0.00     0.000 A 
ATOM     29  C   UNL     1      -0.870  -7.084 -10.632  1.00  0.00     0.000 A 
ATOM     30  C   UNL     1      -1.709  -7.927 -11.357  1.00  0.00     0.000 A 
ENDBRANCH  24  25
ENDBRANCH  23  24
BRANCH  23  31
ATOM     31  C   UNL     1      -0.436 -10.080  -6.825  1.00  0.00     0.243 C 
ATOM     32  O   UNL     1      -0.749 -11.265  -6.745  1.00  0.00    -0.273 OA
ATOM     33  N   UNL     1      -1.379  -9.068  -6.756  1.00  0.00    -0.341 N 
ATOM     34  H   UNL     1      -1.059  -8.100  -6.836  1.00  0.00     0.164 HD
BRANCH  33  35
ATOM     35  C   UNL     1      -2.804  -9.319  -6.523  1.00  0.00     0.194 C 
BRANCH  35  36
ATOM     36  C   UNL     1      -3.753  -8.383  -7.324  1.00  0.00     0.017 C 
ATOM     37  C   UNL     1      -4.399  -9.122  -8.509  1.00  0.00     0.010 C 
ATOM     38  C   UNL     1      -3.045  -7.144  -7.887  1.00  0.00     0.010 C 
ENDBRANCH  35  36
BRANCH  35  39
ATOM     39  C   UNL     1      -3.166  -9.357  -5.012  1.00  0.00     0.329 C 
ATOM     40  O   UNL     1      -3.014 -10.338  -4.295  1.00  0.00    -0.250 OA
BRANCH  39  41
ATOM     41  O   UNL     1      -3.593  -8.143  -4.549  1.00  0.00    -0.458 OA
BRANCH  41  42
ATOM     42  C   UNL     1      -2.561  -7.209  -4.153  1.00  0.00     0.205 CG0
ATOM     43  C   UNL     1      -1.921  -7.754  -2.877  1.00  0.00     0.056 C 
ATOM     44  G   UNL     1      -3.205  -5.824  -3.944  1.00  0.00     0.000 G0
ENDBRANCH  41  42
ENDBRANCH  39  41
ENDBRANCH  35  39
ENDBRANCH  33  35
ENDBRANCH  23  31
ENDBRANCH  21  23
ENDBRANCH  19  21
ENDBRANCH  14  19
ENDBRANCH   7  14
ENDBRANCH   2   5
BRANCH   3  45
ATOM     45  C   UNL     1      -0.599  -3.350  -2.665  1.00  0.00     0.171 C 
BRANCH  45  46
ATOM     46  N   UNL     1      -1.521  -4.123  -3.486  1.00  0.00    -0.342 N 
ATOM     47  C   UNL     1      -2.440  -4.988  -2.946  1.00  0.00     0.247 C 
ATOM     48  O   UNL     1      -2.601  -5.118  -1.732  1.00  0.00    -0.273 OA
ATOM     49  H   UNL     1      -1.459  -4.003  -4.495  1.00  0.00     0.164 HD
BRANCH  47  50
ATOM     50  C   UNL     1      -3.239  -5.808  -3.968  1.00  0.00     0.212 CG0
ATOM     51  G   UNL     1      -2.531  -7.167  -4.133  1.00  0.00     0.000 G0
BRANCH  50  52
ATOM     52  N   UNL     1      -4.584  -5.922  -3.409  1.00  0.00    -0.339 N 
ATOM     53  C   UNL     1      -5.678  -5.280  -3.936  1.00  0.00     0.243 C 
ATOM     54  O   UNL     1      -5.599  -4.514  -4.891  1.00  0.00    -0.273 OA
ATOM     55  H   UNL     1      -4.695  -6.456  -2.549  1.00  0.00     0.164 HD
BRANCH  53  56
ATOM     56  C   UNL     1      -6.974  -5.482  -3.125  1.00  0.00     0.182 C 
BRANCH  56  57
ATOM     57  N   UNL     1      -7.221  -6.906  -2.873  1.00  0.00    -0.344 N 
ATOM     58  C   UNL     1      -6.836  -7.525  -1.709  1.00  0.00     0.220 C 
ATOM     59  O   UNL     1      -6.195  -6.952  -0.834  1.00  0.00    -0.275 OA
ATOM     60  H   UNL     1      -7.835  -7.389  -3.524  1.00  0.00     0.164 HD
BRANCH  58  61
ATOM     61  C   UNL     1      -7.245  -8.984  -1.640  1.00  0.00     0.100 C 
BRANCH  61  62
ATOM     62  C   UNL     1      -6.806  -9.806  -2.852  1.00  0.00     0.010 C 
BRANCH  62  63
ATOM     63  C   UNL     1      -7.327 -11.249  -2.855  1.00  0.00     0.000 C 
BRANCH  63  64
ATOM     64  C   UNL     1      -8.849 -11.365  -2.919  1.00  0.00    -0.003 C 
ATOM     65  C   UNL     1      -9.393 -10.811  -4.228  1.00  0.00     0.004 C 
ENDBRANCH  63  64
ENDBRANCH  62  63
ENDBRANCH  61  62
ENDBRANCH  58  61
ENDBRANCH  56  57
BRANCH  56  66
ATOM     66  C   UNL     1      -8.166  -4.800  -3.795  1.00  0.00     0.157 C 
BRANCH  66  67
ATOM     67  C   UNL     1      -9.448  -5.122  -3.083  1.00  0.00     0.305 C 
ATOM     68  O   UNL     1     -10.142  -6.116  -3.237  1.00  0.00    -0.252 OA
BRANCH  67  69
ATOM     69  O   UNL     1      -9.771  -4.193  -2.164  1.00  0.00    -0.481 OA
ATOM     70  H   UNL     1      -9.782  -3.346  -2.658  1.00  0.00     0.296 HD
ENDBRANCH  67  69
ENDBRANCH  66  67
ENDBRANCH  56  66
ENDBRANCH  53  56
ENDBRANCH  50  52
ENDBRANCH  47  50
ENDBRANCH  45  46
BRANCH  45  71
ATOM     71  C   UNL     1      -0.159  -2.061  -3.369  1.00  0.00     0.037 C 
BRANCH  71  72
ATOM     72  C   UNL     1       1.109  -1.470  -2.749  1.00  0.00     0.026 C 
BRANCH  72  73
ATOM     73  C   UNL     1       2.072  -0.962  -3.820  1.00  0.00     0.146 C 
BRANCH  73  74
ATOM     74  N   UNL     1       2.158  -1.980  -4.863  1.00  0.00    -0.254 NA
ATOM     75  C   UNL     1       2.898  -1.734  -5.880  1.00  0.00     0.185 C 
ATOM     76  N   UNL     1       2.998  -2.652  -6.856  1.00  0.00    -0.370 N 
ATOM     77  N   UNL     1       3.634  -0.641  -6.145  1.00  0.00    -0.370 N 
ATOM     78  H   UNL     1       2.468  -3.504  -6.738  1.00  0.00     0.159 HD
ATOM     79  H   UNL     1       3.437  -2.473  -7.741  1.00  0.00     0.159 HD
ATOM     80  H   UNL     1       3.658   0.132  -5.497  1.00  0.00     0.159 HD
ATOM     81  H   UNL     1       4.269  -0.608  -6.926  1.00  0.00     0.159 HD
ENDBRANCH  73  74
ENDBRANCH  72  73
ENDBRANCH  71  72
ENDBRANCH  45  71
ENDBRANCH   3  45
TORSDOF 20
ENDMDL
MODEL 9
REMARK VINA RESULT:    -5.434      2.514     10.406
REMARK INTER + INTRA:         -22.772
REMARK INTER:                 -18.309
REMARK INTRA:                  -4.463
REMARK UNBOUND:                -7.173
REMARK SMILES CCCCCC(=O)N[C@H](CC(=O)O)C(=O)N[C@H]1C(=O)N[C@H](CCCN=C(N)N)C(=O)N[C@@H]2CC[C@H](O)N(C2=O)[C@@H](CC(C)C)C(=O)N(C)[C@@H](Cc2ccccc2)C(=O)N[C@H](C(C)C)C(=O)O[C@@H]1C
REMARK SMILES IDX 30 1 31 2 29 3 32 5 35 6 37 7 34 8 38 9 33 10 39 11 36 12
REMARK SMILES IDX 40 14 41 15 42 16 43 17 44 18 45 19 46 20 47 21 48 22 49 23
REMARK SMILES IDX 50 24 51 25 52 26 56 27 53 28 55 29 54 30 57 31 58 32 59 33
REMARK SMILES IDX 60 35 61 36 62 37 63 38 64 39 65 40 66 41 67 42 68 43 21 45
REMARK SMILES IDX 20 46 18 47 19 48 17 50 16 52 14 53 15 54 9 56 8 57 6 58
REMARK SMILES IDX 7 59 5 61 4 62 3 63 2 64 1 65 10 66 11 67 12 68 13 69 22 71
REMARK SMILES IDX 23 72 24 73 25 74 26 75 27 76 28 77
REMARK H PARENT 31 4 36 13 59 34 20 49 16 55 8 60 13 70 27 78 27 79 28 80
REMARK H PARENT 28 81
REMARK Flexibility Score:  259.900
ROOT
ATOM      1  O   UNL     1      -2.414  -7.821  -6.403  1.00  0.00    -0.273 OA
ATOM      2  N   UNL     1      -1.980  -7.344  -4.209  1.00  0.00    -0.343 N 
ATOM      3  C   UNL     1      -1.613  -7.490  -5.529  1.00  0.00     0.243 C 
ATOM      4  H   UNL     1      -1.297  -7.056  -3.520  1.00  0.00     0.164 HD
ENDROOT
BRANCH   2   5
ATOM      5  C   UNL     1      -3.326  -7.696  -3.770  1.00  0.00     0.171 C 
ATOM      6  C   UNL     1      -5.718  -8.484  -5.206  1.00  0.00     0.214 C 
ATOM      7  N   UNL     1      -5.488  -7.087  -4.921  1.00  0.00    -0.303 N 
ATOM      8  C   UNL     1      -5.116  -9.417  -4.167  1.00  0.00     0.057 C 
ATOM      9  C   UNL     1      -4.343  -6.637  -4.284  1.00  0.00     0.247 C 
ATOM     10  C   UNL     1      -3.628  -9.167  -4.054  1.00  0.00     0.040 C 
ATOM     11  O   UNL     1      -4.113  -5.432  -4.121  1.00  0.00    -0.272 OA
BRANCH   6  12
ATOM     12  O   UNL     1      -5.183  -8.757  -6.481  1.00  0.00    -0.373 OA
ATOM     13  H   UNL     1      -5.731  -8.270  -7.132  1.00  0.00     0.213 HD
ENDBRANCH   6  12
BRANCH   7  14
ATOM     14  C   UNL     1      -6.464  -6.122  -5.471  1.00  0.00     0.177 C 
BRANCH  14  15
ATOM     15  C   UNL     1      -7.162  -5.228  -4.427  1.00  0.00     0.038 C 
BRANCH  15  16
ATOM     16  C   UNL     1      -8.621  -5.532  -4.020  1.00  0.00    -0.015 C 
ATOM     17  C   UNL     1      -9.235  -4.414  -3.171  1.00  0.00     0.007 C 
ATOM     18  C   UNL     1      -8.674  -6.833  -3.210  1.00  0.00     0.007 C 
ENDBRANCH  15  16
ENDBRANCH  14  15
BRANCH  14  19
ATOM     19  C   UNL     1      -6.030  -5.669  -6.908  1.00  0.00     0.245 C 
ATOM     20  O   UNL     1      -4.813  -5.687  -7.156  1.00  0.00    -0.272 OA
BRANCH  19  21
ATOM     21  N   UNL     1      -6.903  -5.155  -7.850  1.00  0.00    -0.332 N 
ATOM     22  C   UNL     1      -7.559  -3.862  -7.774  1.00  0.00     0.147 C 
BRANCH  21  23
ATOM     23  C   UNL     1      -7.213  -5.992  -9.042  1.00  0.00     0.178 C 
BRANCH  23  24
ATOM     24  C   UNL     1      -8.534  -5.639  -9.754  1.00  0.00     0.070 C 
BRANCH  24  25
ATOM     25  C   UNL     1      -9.313  -6.780 -10.367  1.00  0.00    -0.045 A 
ATOM     26  C   UNL     1      -8.651  -7.867 -10.952  1.00  0.00     0.004 A 
ATOM     27  C   UNL     1     -10.716  -6.763 -10.361  1.00  0.00     0.004 A 
ATOM     28  C   UNL     1      -9.378  -8.909 -11.532  1.00  0.00     0.000 A 
ATOM     29  C   UNL     1     -11.441  -7.806 -10.939  1.00  0.00     0.000 A 
ATOM     30  C   UNL     1     -10.771  -8.877 -11.527  1.00  0.00     0.000 A 
ENDBRANCH  24  25
ENDBRANCH  23  24
BRANCH  23  31
ATOM     31  C   UNL     1      -5.997  -6.179  -9.980  1.00  0.00     0.243 C 
ATOM     32  O   UNL     1      -5.890  -5.644 -11.081  1.00  0.00    -0.273 OA
ATOM     33  N   UNL     1      -5.113  -7.156  -9.553  1.00  0.00    -0.341 N 
ATOM     34  H   UNL     1      -5.258  -7.571  -8.629  1.00  0.00     0.164 HD
BRANCH  33  35
ATOM     35  C   UNL     1      -3.955  -7.585 -10.342  1.00  0.00     0.194 C 
BRANCH  35  36
ATOM     36  C   UNL     1      -3.861  -9.124 -10.547  1.00  0.00     0.017 C 
ATOM     37  C   UNL     1      -4.733  -9.584 -11.728  1.00  0.00     0.010 C 
ATOM     38  C   UNL     1      -4.298  -9.925  -9.314  1.00  0.00     0.010 C 
ENDBRANCH  35  36
BRANCH  35  39
ATOM     39  C   UNL     1      -2.619  -6.988  -9.816  1.00  0.00     0.329 C 
ATOM     40  O   UNL     1      -2.486  -5.828  -9.444  1.00  0.00    -0.250 OA
BRANCH  39  41
ATOM     41  O   UNL     1      -1.627  -7.925  -9.734  1.00  0.00    -0.458 OA
BRANCH  41  42
ATOM     42  C   UNL     1      -0.380  -7.599 -10.393  1.00  0.00     0.205 CG0
ATOM     43  C   UNL     1      -0.358  -8.352 -11.721  1.00  0.00     0.056 C 
ATOM     44  G   UNL     1       0.785  -8.002  -9.468  1.00  0.00     0.000 G0
ENDBRANCH  41  42
ENDBRANCH  39  41
ENDBRANCH  35  39
ENDBRANCH  33  35
ENDBRANCH  23  31
ENDBRANCH  21  23
ENDBRANCH  19  21
ENDBRANCH  14  19
ENDBRANCH   7  14
ENDBRANCH   2   5
BRANCH   3  45
ATOM     45  C   UNL     1      -0.140  -7.190  -5.838  1.00  0.00     0.171 C 
BRANCH  45  46
ATOM     46  N   UNL     1       0.138  -7.847  -7.108  1.00  0.00    -0.342 N 
ATOM     47  C   UNL     1       0.704  -7.188  -8.170  1.00  0.00     0.247 C 
ATOM     48  O   UNL     1       1.083  -6.018  -8.105  1.00  0.00    -0.273 OA
ATOM     49  H   UNL     1      -0.109  -8.832  -7.186  1.00  0.00     0.164 HD
BRANCH  47  50
ATOM     50  C   UNL     1       0.806  -8.008  -9.464  1.00  0.00     0.212 CG0
ATOM     51  G   UNL     1      -0.370  -7.597 -10.372  1.00  0.00     0.000 G0
BRANCH  50  52
ATOM     52  N   UNL     1       2.113  -7.681 -10.030  1.00  0.00    -0.339 N 
ATOM     53  C   UNL     1       3.151  -8.578 -10.101  1.00  0.00     0.243 C 
ATOM     54  O   UNL     1       3.076  -9.715  -9.643  1.00  0.00    -0.273 OA
ATOM     55  H   UNL     1       2.273  -6.721 -10.325  1.00  0.00     0.164 HD
BRANCH  53  56
ATOM     56  C   UNL     1       4.459  -7.981 -10.658  1.00  0.00     0.182 C 
BRANCH  56  57
ATOM     57  N   UNL     1       4.545  -6.545 -10.373  1.00  0.00    -0.344 N 
ATOM     58  C   UNL     1       4.914  -6.060  -9.143  1.00  0.00     0.220 C 
ATOM     59  O   UNL     1       5.125  -6.787  -8.178  1.00  0.00    -0.275 OA
ATOM     60  H   UNL     1       4.478  -5.914 -11.167  1.00  0.00     0.164 HD
BRANCH  58  61
ATOM     61  C   UNL     1       4.993  -4.545  -9.093  1.00  0.00     0.100 C 
BRANCH  61  62
ATOM     62  C   UNL     1       5.141  -3.982  -7.679  1.00  0.00     0.010 C 
BRANCH  62  63
ATOM     63  C   UNL     1       3.822  -3.519  -7.047  1.00  0.00     0.000 C 
BRANCH  63  64
ATOM     64  C   UNL     1       3.868  -2.109  -6.462  1.00  0.00    -0.003 C 
ATOM     65  C   UNL     1       5.286  -1.556  -6.456  1.00  0.00     0.004 C 
ENDBRANCH  63  64
ENDBRANCH  62  63
ENDBRANCH  61  62
ENDBRANCH  58  61
ENDBRANCH  56  57
BRANCH  56  66
ATOM     66  C   UNL     1       4.625  -8.285 -12.146  1.00  0.00     0.157 C 
BRANCH  66  67
ATOM     67  C   UNL     1       5.358  -7.179 -12.849  1.00  0.00     0.305 C 
ATOM     68  O   UNL     1       4.876  -6.337 -13.592  1.00  0.00    -0.252 OA
BRANCH  67  69
ATOM     69  O   UNL     1       6.667  -7.154 -12.537  1.00  0.00    -0.481 OA
ATOM     70  H   UNL     1       6.753  -6.441 -11.870  1.00  0.00     0.296 HD
ENDBRANCH  67  69
ENDBRANCH  66  67
ENDBRANCH  56  66
ENDBRANCH  53  56
ENDBRANCH  50  52
ENDBRANCH  47  50
ENDBRANCH  45  46
BRANCH  45  71
ATOM     71  C   UNL     1       0.760  -7.722  -4.717  1.00  0.00     0.037 C 
BRANCH  71  72
ATOM     72  C   UNL     1       0.648  -6.882  -3.442  1.00  0.00     0.026 C 
BRANCH  72  73
ATOM     73  C   UNL     1       1.033  -5.426  -3.694  1.00  0.00     0.146 C 
BRANCH  73  74
ATOM     74  N   UNL     1      -0.066  -4.586  -3.229  1.00  0.00    -0.254 NA
ATOM     75  C   UNL     1      -0.027  -3.337  -3.514  1.00  0.00     0.185 C 
ATOM     76  N   UNL     1      -1.025  -2.538  -3.101  1.00  0.00    -0.370 N 
ATOM     77  N   UNL     1       0.906  -2.655  -4.202  1.00  0.00    -0.370 N 
ATOM     78  H   UNL     1      -1.766  -2.971  -2.568  1.00  0.00     0.159 HD
ATOM     79  H   UNL     1      -0.992  -1.536  -3.160  1.00  0.00     0.159 HD
ATOM     80  H   UNL     1       1.714  -3.128  -4.578  1.00  0.00     0.159 HD
ATOM     81  H   UNL     1       0.771  -1.693  -4.464  1.00  0.00     0.159 HD
ENDBRANCH  73  74
ENDBRANCH  72  73
ENDBRANCH  71  72
ENDBRANCH  45  71
ENDBRANCH   3  45
TORSDOF 20
ENDMDL
MODEL 10
REMARK VINA RESULT:    -5.400      3.968      7.867
REMARK INTER + INTRA:         -22.674
REMARK INTER:                 -16.311
REMARK INTRA:                  -6.363
REMARK UNBOUND:                -7.173
REMARK SMILES CCCCCC(=O)N[C@H](CC(=O)O)C(=O)N[C@H]1C(=O)N[C@H](CCCN=C(N)N)C(=O)N[C@@H]2CC[C@H](O)N(C2=O)[C@@H](CC(C)C)C(=O)N(C)[C@@H](Cc2ccccc2)C(=O)N[C@H](C(C)C)C(=O)O[C@@H]1C
REMARK SMILES IDX 30 1 31 2 29 3 32 5 35 6 37 7 34 8 38 9 33 10 39 11 36 12
REMARK SMILES IDX 40 14 41 15 42 16 43 17 44 18 45 19 46 20 47 21 48 22 49 23
REMARK SMILES IDX 50 24 51 25 52 26 56 27 53 28 55 29 54 30 57 31 58 32 59 33
REMARK SMILES IDX 60 35 61 36 62 37 63 38 64 39 65 40 66 41 67 42 68 43 21 45
REMARK SMILES IDX 20 46 18 47 19 48 17 50 16 52 14 53 15 54 9 56 8 57 6 58
REMARK SMILES IDX 7 59 5 61 4 62 3 63 2 64 1 65 10 66 11 67 12 68 13 69 22 71
REMARK SMILES IDX 23 72 24 73 25 74 26 75 27 76 28 77
REMARK H PARENT 31 4 36 13 59 34 20 49 16 55 8 60 13 70 27 78 27 79 28 80
REMARK H PARENT 28 81
REMARK Flexibility Score:  259.900
ROOT
ATOM      1  O   UNL     1      -1.434  -8.813  -6.732  1.00  0.00    -0.273 OA
ATOM      2  N   UNL     1      -1.663  -6.695  -7.562  1.00  0.00    -0.343 N 
ATOM      3  C   UNL     1      -1.963  -7.703  -6.672  1.00  0.00     0.243 C 
ATOM      4  H   UNL     1      -2.107  -5.789  -7.473  1.00  0.00     0.164 HD
ENDROOT
BRANCH   2   5
ATOM      5  C   UNL     1      -0.783  -6.945  -8.698  1.00  0.00     0.171 C 
ATOM      6  C   UNL     1       0.673  -9.294  -9.575  1.00  0.00     0.214 C 
ATOM      7  N   UNL     1       1.315  -8.350  -8.690  1.00  0.00    -0.303 N 
ATOM      8  C   UNL     1      -0.357  -8.655 -10.492  1.00  0.00     0.057 C 
ATOM      9  C   UNL     1       0.660  -7.234  -8.193  1.00  0.00     0.247 C 
ATOM     10  C   UNL     1      -1.409  -7.946  -9.667  1.00  0.00     0.040 C 
ATOM     11  O   UNL     1       1.188  -6.477  -7.368  1.00  0.00    -0.272 OA
BRANCH   6  12
ATOM     12  O   UNL     1       0.073 -10.290  -8.779  1.00  0.00    -0.373 OA
ATOM     13  H   UNL     1       0.759 -10.614  -8.158  1.00  0.00     0.213 HD
ENDBRANCH   6  12
BRANCH   7  14
ATOM     14  C   UNL     1       2.669  -8.696  -8.208  1.00  0.00     0.177 C 
BRANCH  14  15
ATOM     15  C   UNL     1       2.939 -10.203  -8.036  1.00  0.00     0.038 C 
BRANCH  15  16
ATOM     16  C   UNL     1       3.158 -10.780  -6.620  1.00  0.00    -0.015 C 
ATOM     17  C   UNL     1       4.562 -11.365  -6.438  1.00  0.00     0.007 C 
ATOM     18  C   UNL     1       2.136 -11.891  -6.349  1.00  0.00     0.007 C 
ENDBRANCH  15  16
ENDBRANCH  14  15
BRANCH  14  19
ATOM     19  C   UNL     1       3.712  -7.640  -8.713  1.00  0.00     0.245 C 
ATOM     20  O   UNL     1       3.485  -7.111  -9.814  1.00  0.00    -0.272 OA
BRANCH  19  21
ATOM     21  N   UNL     1       4.900  -7.357  -8.062  1.00  0.00    -0.332 N 
ATOM     22  C   UNL     1       6.036  -8.255  -7.956  1.00  0.00     0.147 C 
BRANCH  21  23
ATOM     23  C   UNL     1       5.033  -6.030  -7.402  1.00  0.00     0.178 C 
BRANCH  23  24
ATOM     24  C   UNL     1       4.304  -4.875  -8.120  1.00  0.00     0.070 C 
BRANCH  24  25
ATOM     25  C   UNL     1       4.345  -3.518  -7.458  1.00  0.00    -0.045 A 
ATOM     26  C   UNL     1       5.566  -2.878  -7.209  1.00  0.00     0.004 A 
ATOM     27  C   UNL     1       3.155  -2.879  -7.078  1.00  0.00     0.004 A 
ATOM     28  C   UNL     1       5.597  -1.631  -6.581  1.00  0.00     0.000 A 
ATOM     29  C   UNL     1       3.188  -1.632  -6.452  1.00  0.00     0.000 A 
ATOM     30  C   UNL     1       4.409  -1.010  -6.201  1.00  0.00     0.000 A 
ENDBRANCH  24  25
ENDBRANCH  23  24
BRANCH  23  31
ATOM     31  C   UNL     1       4.809  -6.091  -5.872  1.00  0.00     0.243 C 
ATOM     32  O   UNL     1       5.705  -6.279  -5.054  1.00  0.00    -0.273 OA
ATOM     33  N   UNL     1       3.473  -6.100  -5.509  1.00  0.00    -0.341 N 
ATOM     34  H   UNL     1       2.771  -5.944  -6.237  1.00  0.00     0.164 HD
BRANCH  33  35
ATOM     35  C   UNL     1       3.022  -6.272  -4.125  1.00  0.00     0.194 C 
BRANCH  35  36
ATOM     36  C   UNL     1       2.500  -7.699  -3.800  1.00  0.00     0.017 C 
ATOM     37  C   UNL     1       3.641  -8.731  -3.826  1.00  0.00     0.010 C 
ATOM     38  C   UNL     1       1.421  -8.185  -4.775  1.00  0.00     0.010 C 
ENDBRANCH  35  36
BRANCH  35  39
ATOM     39  C   UNL     1       2.017  -5.171  -3.683  1.00  0.00     0.329 C 
ATOM     40  O   UNL     1       1.808  -4.141  -4.311  1.00  0.00    -0.250 OA
BRANCH  39  41
ATOM     41  O   UNL     1       1.326  -5.522  -2.556  1.00  0.00    -0.458 OA
BRANCH  41  42
ATOM     42  C   UNL     1      -0.032  -5.029  -2.458  1.00  0.00     0.205 CG0
ATOM     43  C   UNL     1      -0.137  -4.246  -1.151  1.00  0.00     0.056 C 
ATOM     44  G   UNL     1      -0.996  -6.231  -2.504  1.00  0.00     0.000 G0
ENDBRANCH  41  42
ENDBRANCH  39  41
ENDBRANCH  35  39
ENDBRANCH  33  35
ENDBRANCH  23  31
ENDBRANCH  21  23
ENDBRANCH  19  21
ENDBRANCH  14  19
ENDBRANCH   7  14
ENDBRANCH   2   5
BRANCH   3  45
ATOM     45  C   UNL     1      -2.986  -7.339  -5.587  1.00  0.00     0.171 C 
BRANCH  45  46
ATOM     46  N   UNL     1      -2.236  -7.288  -4.339  1.00  0.00    -0.342 N 
ATOM     47  C   UNL     1      -1.877  -6.105  -3.744  1.00  0.00     0.247 C 
ATOM     48  O   UNL     1      -2.222  -5.006  -4.179  1.00  0.00    -0.273 OA
ATOM     49  H   UNL     1      -1.978  -8.177  -3.915  1.00  0.00     0.164 HD
BRANCH  47  50
ATOM     50  C   UNL     1      -0.983  -6.247  -2.503  1.00  0.00     0.212 CG0
ATOM     51  G   UNL     1      -0.051  -5.021  -2.456  1.00  0.00     0.000 G0
BRANCH  50  52
ATOM     52  N   UNL     1      -1.900  -6.319  -1.369  1.00  0.00    -0.339 N 
ATOM     53  C   UNL     1      -2.319  -7.501  -0.809  1.00  0.00     0.243 C 
ATOM     54  O   UNL     1      -1.993  -8.597  -1.256  1.00  0.00    -0.273 OA
ATOM     55  H   UNL     1      -2.294  -5.446  -1.023  1.00  0.00     0.164 HD
BRANCH  53  56
ATOM     56  C   UNL     1      -3.354  -7.328   0.322  1.00  0.00     0.182 C 
BRANCH  56  57
ATOM     57  N   UNL     1      -4.710  -7.615  -0.157  1.00  0.00    -0.344 N 
ATOM     58  C   UNL     1      -5.354  -8.795   0.121  1.00  0.00     0.220 C 
ATOM     59  O   UNL     1      -4.818  -9.718   0.724  1.00  0.00    -0.275 OA
ATOM     60  H   UNL     1      -5.225  -6.842  -0.571  1.00  0.00     0.164 HD
BRANCH  58  61
ATOM     61  C   UNL     1      -6.769  -8.851  -0.425  1.00  0.00     0.100 C 
BRANCH  61  62
ATOM     62  C   UNL     1      -7.686  -7.758   0.126  1.00  0.00     0.010 C 
BRANCH  62  63
ATOM     63  C   UNL     1      -7.889  -7.816   1.645  1.00  0.00     0.000 C 
BRANCH  63  64
ATOM     64  C   UNL     1      -8.368  -9.172   2.162  1.00  0.00    -0.003 C 
ATOM     65  C   UNL     1      -9.047  -9.040   3.518  1.00  0.00     0.004 C 
ENDBRANCH  63  64
ENDBRANCH  62  63
ENDBRANCH  61  62
ENDBRANCH  58  61
ENDBRANCH  56  57
BRANCH  56  66
ATOM     66  C   UNL     1      -3.250  -5.948   0.969  1.00  0.00     0.157 C 
BRANCH  66  67
ATOM     67  C   UNL     1      -2.689  -6.041   2.359  1.00  0.00     0.305 C 
ATOM     68  O   UNL     1      -2.392  -5.110   3.092  1.00  0.00    -0.252 OA
BRANCH  67  69
ATOM     69  O   UNL     1      -2.578  -7.314   2.783  1.00  0.00    -0.481 OA
ATOM     70  H   UNL     1      -1.641  -7.551   2.618  1.00  0.00     0.296 HD
ENDBRANCH  67  69
ENDBRANCH  66  67
ENDBRANCH  56  66
ENDBRANCH  53  56
ENDBRANCH  50  52
ENDBRANCH  47  50
ENDBRANCH  45  46
BRANCH  45  71
ATOM     71  C   UNL     1      -4.103  -8.387  -5.534  1.00  0.00     0.037 C 
BRANCH  71  72
ATOM     72  C   UNL     1      -4.601  -8.626  -4.106  1.00  0.00     0.026 C 
BRANCH  72  73
ATOM     73  C   UNL     1      -5.816  -7.759  -3.784  1.00  0.00     0.146 C 
BRANCH  73  74
ATOM     74  N   UNL     1      -5.359  -6.626  -2.985  1.00  0.00    -0.254 NA
ATOM     75  C   UNL     1      -5.425  -5.458  -3.509  1.00  0.00     0.185 C 
ATOM     76  N   UNL     1      -5.013  -4.396  -2.798  1.00  0.00    -0.370 N 
ATOM     77  N   UNL     1      -5.868  -5.102  -4.727  1.00  0.00    -0.370 N 
ATOM     78  H   UNL     1      -4.657  -4.577  -1.870  1.00  0.00     0.159 HD
ATOM     79  H   UNL     1      -4.900  -3.478  -3.190  1.00  0.00     0.159 HD
ATOM     80  H   UNL     1      -6.214  -5.798  -5.371  1.00  0.00     0.159 HD
ATOM     81  H   UNL     1      -5.981  -4.136  -4.987  1.00  0.00     0.159 HD
ENDBRANCH  73  74
ENDBRANCH  72  73
ENDBRANCH  71  72
ENDBRANCH  45  71
ENDBRANCH   3  45
TORSDOF 20
ENDMDL
MODEL 11
REMARK VINA RESULT:    -5.390      3.760      6.674
REMARK INTER + INTRA:         -22.646
REMARK INTER:                 -15.242
REMARK INTRA:                  -7.404
REMARK UNBOUND:                -7.173
REMARK SMILES CCCCCC(=O)N[C@H](CC(=O)O)C(=O)N[C@H]1C(=O)N[C@H](CCCN=C(N)N)C(=O)N[C@@H]2CC[C@H](O)N(C2=O)[C@@H](CC(C)C)C(=O)N(C)[C@@H](Cc2ccccc2)C(=O)N[C@H](C(C)C)C(=O)O[C@@H]1C
REMARK SMILES IDX 30 1 31 2 29 3 32 5 35 6 37 7 34 8 38 9 33 10 39 11 36 12
REMARK SMILES IDX 40 14 41 15 42 16 43 17 44 18 45 19 46 20 47 21 48 22 49 23
REMARK SMILES IDX 50 24 51 25 52 26 56 27 53 28 55 29 54 30 57 31 58 32 59 33
REMARK SMILES IDX 60 35 61 36 62 37 63 38 64 39 65 40 66 41 67 42 68 43 21 45
REMARK SMILES IDX 20 46 18 47 19 48 17 50 16 52 14 53 15 54 9 56 8 57 6 58
REMARK SMILES IDX 7 59 5 61 4 62 3 63 2 64 1 65 10 66 11 67 12 68 13 69 22 71
REMARK SMILES IDX 23 72 24 73 25 74 26 75 27 76 28 77
REMARK H PARENT 31 4 36 13 59 34 20 49 16 55 8 60 13 70 27 78 27 79 28 80
REMARK H PARENT 28 81
REMARK Flexibility Score:  259.900
ROOT
ATOM      1  O   UNL     1       0.809  -4.882  -1.405  1.00  0.00    -0.273 OA
ATOM      2  N   UNL     1       1.396  -4.707  -3.608  1.00  0.00    -0.343 N 
ATOM      3  C   UNL     1       0.563  -4.465  -2.537  1.00  0.00     0.243 C 
ATOM      4  H   UNL     1       1.170  -4.335  -4.523  1.00  0.00     0.164 HD
ENDROOT
BRANCH   2   5
ATOM      5  C   UNL     1       2.556  -5.579  -3.464  1.00  0.00     0.171 C 
ATOM      6  C   UNL     1       5.051  -5.788  -4.927  1.00  0.00     0.214 C 
ATOM      7  N   UNL     1       3.919  -6.586  -5.336  1.00  0.00    -0.303 N 
ATOM      8  C   UNL     1       5.069  -5.490  -3.436  1.00  0.00     0.057 C 
ATOM      9  C   UNL     1       2.684  -6.498  -4.714  1.00  0.00     0.247 C 
ATOM     10  C   UNL     1       3.790  -4.785  -3.039  1.00  0.00     0.040 C 
ATOM     11  O   UNL     1       1.696  -7.120  -5.124  1.00  0.00    -0.272 OA
BRANCH   6  12
ATOM     12  O   UNL     1       5.024  -4.591  -5.669  1.00  0.00    -0.373 OA
ATOM     13  H   UNL     1       5.003  -4.841  -6.617  1.00  0.00     0.213 HD
ENDBRANCH   6  12
BRANCH   7  14
ATOM     14  C   UNL     1       4.082  -7.408  -6.554  1.00  0.00     0.177 C 
BRANCH  14  15
ATOM     15  C   UNL     1       4.892  -6.748  -7.687  1.00  0.00     0.038 C 
BRANCH  15  16
ATOM     16  C   UNL     1       4.151  -6.142  -8.899  1.00  0.00    -0.015 C 
ATOM     17  C   UNL     1       4.756  -4.808  -9.347  1.00  0.00     0.007 C 
ATOM     18  C   UNL     1       2.678  -5.905  -8.541  1.00  0.00     0.007 C 
ENDBRANCH  15  16
ENDBRANCH  14  15
BRANCH  14  19
ATOM     19  C   UNL     1       4.118  -8.931  -6.182  1.00  0.00     0.245 C 
ATOM     20  O   UNL     1       4.874  -9.262  -5.253  1.00  0.00    -0.272 OA
BRANCH  19  21
ATOM     21  N   UNL     1       3.453  -9.914  -6.892  1.00  0.00    -0.332 N 
ATOM     22  C   UNL     1       3.692 -11.342  -6.782  1.00  0.00     0.147 C 
BRANCH  21  23
ATOM     23  C   UNL     1       2.408  -9.485  -7.863  1.00  0.00     0.178 C 
BRANCH  23  24
ATOM     24  C   UNL     1       2.522 -10.130  -9.260  1.00  0.00     0.070 C 
BRANCH  24  25
ATOM     25  C   UNL     1       3.533  -9.536 -10.212  1.00  0.00    -0.045 A 
ATOM     26  C   UNL     1       4.899  -9.809 -10.070  1.00  0.00     0.004 A 
ATOM     27  C   UNL     1       3.114  -8.694 -11.254  1.00  0.00     0.004 A 
ATOM     28  C   UNL     1       5.829  -9.242 -10.945  1.00  0.00     0.000 A 
ATOM     29  C   UNL     1       4.045  -8.130 -12.128  1.00  0.00     0.000 A 
ATOM     30  C   UNL     1       5.402  -8.402 -11.970  1.00  0.00     0.000 A 
ENDBRANCH  24  25
ENDBRANCH  23  24
BRANCH  23  31
ATOM     31  C   UNL     1       0.984  -9.486  -7.258  1.00  0.00     0.243 C 
ATOM     32  O   UNL     1       0.565 -10.349  -6.490  1.00  0.00    -0.273 OA
ATOM     33  N   UNL     1       0.150  -8.526  -7.805  1.00  0.00    -0.341 N 
ATOM     34  H   UNL     1       0.556  -7.838  -8.444  1.00  0.00     0.164 HD
BRANCH  33  35
ATOM     35  C   UNL     1      -1.272  -8.419  -7.470  1.00  0.00     0.194 C 
BRANCH  35  36
ATOM     36  C   UNL     1      -2.198  -8.191  -8.698  1.00  0.00     0.017 C 
ATOM     37  C   UNL     1      -2.300  -9.458  -9.565  1.00  0.00     0.010 C 
ATOM     38  C   UNL     1      -1.726  -7.049  -9.606  1.00  0.00     0.010 C 
ENDBRANCH  35  36
BRANCH  35  39
ATOM     39  C   UNL     1      -1.545  -7.389  -6.338  1.00  0.00     0.329 C 
ATOM     40  O   UNL     1      -0.932  -6.336  -6.207  1.00  0.00    -0.250 OA
BRANCH  39  41
ATOM     41  O   UNL     1      -2.606  -7.748  -5.553  1.00  0.00    -0.458 OA
BRANCH  41  42
ATOM     42  C   UNL     1      -2.532  -7.360  -4.160  1.00  0.00     0.205 CG0
ATOM     43  C   UNL     1      -3.038  -8.540  -3.333  1.00  0.00     0.056 C 
ATOM     44  G   UNL     1      -3.383  -6.090  -3.958  1.00  0.00     0.000 G0
ENDBRANCH  41  42
ENDBRANCH  39  41
ENDBRANCH  35  39
ENDBRANCH  33  35
ENDBRANCH  23  31
ENDBRANCH  21  23
ENDBRANCH  19  21
ENDBRANCH  14  19
ENDBRANCH   7  14
ENDBRANCH   2   5
BRANCH   3  45
ATOM     45  C   UNL     1      -0.680  -3.621  -2.849  1.00  0.00     0.171 C 
BRANCH  45  46
ATOM     46  N   UNL     1      -1.567  -4.493  -3.607  1.00  0.00    -0.342 N 
ATOM     47  C   UNL     1      -2.660  -5.102  -3.042  1.00  0.00     0.247 C 
ATOM     48  O   UNL     1      -3.010  -4.900  -1.879  1.00  0.00    -0.273 OA
ATOM     49  H   UNL     1      -1.346  -4.642  -4.590  1.00  0.00     0.164 HD
BRANCH  47  50
ATOM     50  C   UNL     1      -3.405  -6.081  -3.960  1.00  0.00     0.212 CG0
ATOM     51  G   UNL     1      -2.510  -7.323  -4.143  1.00  0.00     0.000 G0
BRANCH  50  52
ATOM     52  N   UNL     1      -4.664  -6.372  -3.280  1.00  0.00    -0.339 N 
ATOM     53  C   UNL     1      -5.887  -5.956  -3.744  1.00  0.00     0.243 C 
ATOM     54  O   UNL     1      -6.012  -5.257  -4.746  1.00  0.00    -0.273 OA
ATOM     55  H   UNL     1      -4.617  -6.854  -2.384  1.00  0.00     0.164 HD
BRANCH  53  56
ATOM     56  C   UNL     1      -7.065  -6.307  -2.812  1.00  0.00     0.182 C 
BRANCH  56  57
ATOM     57  N   UNL     1      -6.820  -7.570  -2.107  1.00  0.00    -0.344 N 
ATOM     58  C   UNL     1      -6.126  -7.629  -0.923  1.00  0.00     0.220 C 
ATOM     59  O   UNL     1      -5.602  -6.645  -0.412  1.00  0.00    -0.275 OA
ATOM     60  H   UNL     1      -7.321  -8.388  -2.442  1.00  0.00     0.164 HD
BRANCH  58  61
ATOM     61  C   UNL     1      -6.045  -9.029  -0.344  1.00  0.00     0.100 C 
BRANCH  61  62
ATOM     62  C   UNL     1      -5.105  -9.145   0.857  1.00  0.00     0.010 C 
BRANCH  62  63
ATOM     63  C   UNL     1      -5.821  -9.192   2.212  1.00  0.00     0.000 C 
BRANCH  63  64
ATOM     64  C   UNL     1      -5.851  -7.856   2.952  1.00  0.00    -0.003 C 
ATOM     65  C   UNL     1      -4.522  -7.123   2.830  1.00  0.00     0.004 C 
ENDBRANCH  63  64
ENDBRANCH  62  63
ENDBRANCH  61  62
ENDBRANCH  58  61
ENDBRANCH  56  57
BRANCH  56  66
ATOM     66  C   UNL     1      -8.393  -6.317  -3.567  1.00  0.00     0.157 C 
BRANCH  66  67
ATOM     67  C   UNL     1      -9.244  -7.484  -3.157  1.00  0.00     0.305 C 
ATOM     68  O   UNL     1     -10.136  -7.483  -2.323  1.00  0.00    -0.252 OA
BRANCH  67  69
ATOM     69  O   UNL     1      -8.961  -8.596  -3.862  1.00  0.00    -0.481 OA
ATOM     70  H   UNL     1      -8.678  -8.269  -4.742  1.00  0.00     0.296 HD
ENDBRANCH  67  69
ENDBRANCH  66  67
ENDBRANCH  56  66
ENDBRANCH  53  56
ENDBRANCH  50  52
ENDBRANCH  47  50
ENDBRANCH  45  46
BRANCH  45  71
ATOM     71  C   UNL     1      -0.291  -2.374  -3.651  1.00  0.00     0.037 C 
BRANCH  71  72
ATOM     72  C   UNL     1       0.611  -1.432  -2.850  1.00  0.00     0.026 C 
BRANCH  72  73
ATOM     73  C   UNL     1       1.882  -1.083  -3.621  1.00  0.00     0.146 C 
BRANCH  73  74
ATOM     74  N   UNL     1       1.860  -1.824  -4.879  1.00  0.00    -0.254 NA
ATOM     75  C   UNL     1       2.977  -2.031  -5.472  1.00  0.00     0.185 C 
ATOM     76  N   UNL     1       2.989  -2.710  -6.630  1.00  0.00    -0.370 N 
ATOM     77  N   UNL     1       4.214  -1.656  -5.100  1.00  0.00    -0.370 N 
ATOM     78  H   UNL     1       2.097  -3.023  -6.986  1.00  0.00     0.159 HD
ATOM     79  H   UNL     1       3.798  -2.785  -7.220  1.00  0.00     0.159 HD
ATOM     80  H   UNL     1       4.359  -1.140  -4.245  1.00  0.00     0.159 HD
ATOM     81  H   UNL     1       5.032  -1.977  -5.590  1.00  0.00     0.159 HD
ENDBRANCH  73  74
ENDBRANCH  72  73
ENDBRANCH  71  72
ENDBRANCH  45  71
ENDBRANCH   3  45
TORSDOF 20
ENDMDL
MODEL 12
REMARK VINA RESULT:    -5.321      2.855      9.597
REMARK INTER + INTRA:         -22.448
REMARK INTER:                 -17.773
REMARK INTRA:                  -4.675
REMARK UNBOUND:                -7.173
REMARK SMILES CCCCCC(=O)N[C@H](CC(=O)O)C(=O)N[C@H]1C(=O)N[C@H](CCCN=C(N)N)C(=O)N[C@@H]2CC[C@H](O)N(C2=O)[C@@H](CC(C)C)C(=O)N(C)[C@@H](Cc2ccccc2)C(=O)N[C@H](C(C)C)C(=O)O[C@@H]1C
REMARK SMILES IDX 30 1 31 2 29 3 32 5 35 6 37 7 34 8 38 9 33 10 39 11 36 12
REMARK SMILES IDX 40 14 41 15 42 16 43 17 44 18 45 19 46 20 47 21 48 22 49 23
REMARK SMILES IDX 50 24 51 25 52 26 56 27 53 28 55 29 54 30 57 31 58 32 59 33
REMARK SMILES IDX 60 35 61 36 62 37 63 38 64 39 65 40 66 41 67 42 68 43 21 45
REMARK SMILES IDX 20 46 18 47 19 48 17 50 16 52 14 53 15 54 9 56 8 57 6 58
REMARK SMILES IDX 7 59 5 61 4 62 3 63 2 64 1 65 10 66 11 67 12 68 13 69 22 71
REMARK SMILES IDX 23 72 24 73 25 74 26 75 27 76 28 77
REMARK H PARENT 31 4 36 13 59 34 20 49 16 55 8 60 13 70 27 78 27 79 28 80
REMARK H PARENT 28 81
REMARK Flexibility Score:  259.900
ROOT
ATOM      1  O   UNL     1      -2.626  -8.188  -4.144  1.00  0.00    -0.273 OA
ATOM      2  N   UNL     1      -3.694  -6.326  -3.354  1.00  0.00    -0.343 N 
ATOM      3  C   UNL     1      -2.621  -7.187  -3.426  1.00  0.00     0.243 C 
ATOM      4  H   UNL     1      -3.649  -5.505  -2.764  1.00  0.00     0.164 HD
ENDROOT
BRANCH   2   5
ATOM      5  C   UNL     1      -4.941  -6.634  -4.047  1.00  0.00     0.171 C 
ATOM      6  C   UNL     1      -5.636  -8.603  -6.057  1.00  0.00     0.214 C 
ATOM      7  N   UNL     1      -5.188  -7.294  -6.471  1.00  0.00    -0.303 N 
ATOM      8  C   UNL     1      -6.361  -8.597  -4.720  1.00  0.00     0.057 C 
ATOM      9  C   UNL     1      -4.792  -6.324  -5.564  1.00  0.00     0.247 C 
ATOM     10  C   UNL     1      -5.460  -8.016  -3.652  1.00  0.00     0.040 C 
ATOM     11  O   UNL     1      -4.328  -5.235  -5.928  1.00  0.00    -0.272 OA
BRANCH   6  12
ATOM     12  O   UNL     1      -4.509  -9.446  -6.003  1.00  0.00    -0.373 OA
ATOM     13  H   UNL     1      -4.779 -10.311  -6.379  1.00  0.00     0.213 HD
ENDBRANCH   6  12
BRANCH   7  14
ATOM     14  C   UNL     1      -5.025  -7.068  -7.922  1.00  0.00     0.177 C 
BRANCH  14  15
ATOM     15  C   UNL     1      -5.891  -5.939  -8.513  1.00  0.00     0.038 C 
BRANCH  15  16
ATOM     16  C   UNL     1      -6.560  -6.134  -9.891  1.00  0.00    -0.015 C 
ATOM     17  C   UNL     1      -7.639  -5.083 -10.172  1.00  0.00     0.007 C 
ATOM     18  C   UNL     1      -7.212  -7.521  -9.959  1.00  0.00     0.007 C 
ENDBRANCH  15  16
ENDBRANCH  14  15
BRANCH  14  19
ATOM     19  C   UNL     1      -3.561  -7.414  -8.365  1.00  0.00     0.245 C 
ATOM     20  O   UNL     1      -2.756  -7.697  -7.462  1.00  0.00    -0.272 OA
BRANCH  19  21
ATOM     21  N   UNL     1      -3.105  -7.311  -9.667  1.00  0.00    -0.332 N 
ATOM     22  C   UNL     1      -3.443  -6.249 -10.597  1.00  0.00     0.147 C 
BRANCH  21  23
ATOM     23  C   UNL     1      -2.199  -8.379 -10.173  1.00  0.00     0.178 C 
BRANCH  23  24
ATOM     24  C   UNL     1      -2.767  -9.207 -11.343  1.00  0.00     0.070 C 
BRANCH  24  25
ATOM     25  C   UNL     1      -4.117  -9.855 -11.136  1.00  0.00    -0.045 A 
ATOM     26  C   UNL     1      -4.378 -10.619  -9.992  1.00  0.00     0.004 A 
ATOM     27  C   UNL     1      -5.129  -9.702 -12.096  1.00  0.00     0.004 A 
ATOM     28  C   UNL     1      -5.622 -11.228  -9.816  1.00  0.00     0.000 A 
ATOM     29  C   UNL     1      -6.373 -10.311 -11.918  1.00  0.00     0.000 A 
ATOM     30  C   UNL     1      -6.617 -11.076 -10.780  1.00  0.00     0.000 A 
ENDBRANCH  24  25
ENDBRANCH  23  24
BRANCH  23  31
ATOM     31  C   UNL     1      -0.742  -7.894 -10.365  1.00  0.00     0.243 C 
ATOM     32  O   UNL     1      -0.090  -8.068 -11.392  1.00  0.00    -0.273 OA
ATOM     33  N   UNL     1      -0.164  -7.404  -9.206  1.00  0.00    -0.341 N 
ATOM     34  H   UNL     1      -0.757  -7.288  -8.380  1.00  0.00     0.164 HD
BRANCH  33  35
ATOM     35  C   UNL     1       1.242  -7.000  -9.124  1.00  0.00     0.194 C 
BRANCH  35  36
ATOM     36  C   UNL     1       2.226  -7.977  -9.826  1.00  0.00     0.017 C 
ATOM     37  C   UNL     1       2.535  -9.194  -8.938  1.00  0.00     0.010 C 
ATOM     38  C   UNL     1       3.565  -7.325 -10.194  1.00  0.00     0.010 C 
ENDBRANCH  35  36
BRANCH  35  39
ATOM     39  C   UNL     1       1.686  -6.674  -7.670  1.00  0.00     0.329 C 
ATOM     40  O   UNL     1       2.659  -5.985  -7.388  1.00  0.00    -0.250 OA
BRANCH  39  41
ATOM     41  O   UNL     1       0.818  -7.171  -6.738  1.00  0.00    -0.458 OA
BRANCH  41  42
ATOM     42  C   UNL     1       1.260  -8.341  -6.008  1.00  0.00     0.205 CG0
ATOM     43  C   UNL     1       0.120  -9.355  -6.041  1.00  0.00     0.056 C 
ATOM     44  G   UNL     1       1.629  -7.915  -4.573  1.00  0.00     0.000 G0
ENDBRANCH  41  42
ENDBRANCH  39  41
ENDBRANCH  35  39
ENDBRANCH  33  35
ENDBRANCH  23  31
ENDBRANCH  21  23
ENDBRANCH  19  21
ENDBRANCH  14  19
ENDBRANCH   7  14
ENDBRANCH   2   5
BRANCH   3  45
ATOM     45  C   UNL     1      -1.411  -6.802  -2.564  1.00  0.00     0.171 C 
BRANCH  45  46
ATOM     46  N   UNL     1      -0.283  -7.541  -3.116  1.00  0.00    -0.342 N 
ATOM     47  C   UNL     1       0.628  -6.968  -3.967  1.00  0.00     0.247 C 
ATOM     48  O   UNL     1       0.603  -5.774  -4.267  1.00  0.00    -0.273 OA
ATOM     49  H   UNL     1      -0.192  -8.520  -2.848  1.00  0.00     0.164 HD
BRANCH  47  50
ATOM     50  C   UNL     1       1.674  -7.931  -4.545  1.00  0.00     0.212 CG0
ATOM     51  G   UNL     1       1.221  -8.314  -5.968  1.00  0.00     0.000 G0
BRANCH  50  52
ATOM     52  N   UNL     1       2.937  -7.198  -4.519  1.00  0.00    -0.339 N 
ATOM     53  C   UNL     1       3.903  -7.390  -3.561  1.00  0.00     0.243 C 
ATOM     54  O   UNL     1       3.755  -8.161  -2.617  1.00  0.00    -0.273 OA
ATOM     55  H   UNL     1       3.071  -6.464  -5.211  1.00  0.00     0.164 HD
BRANCH  53  56
ATOM     56  C   UNL     1       5.111  -6.440  -3.689  1.00  0.00     0.182 C 
BRANCH  56  57
ATOM     57  N   UNL     1       4.685  -5.101  -4.108  1.00  0.00    -0.344 N 
ATOM     58  C   UNL     1       4.967  -3.975  -3.373  1.00  0.00     0.220 C 
ATOM     59  O   UNL     1       5.528  -4.018  -2.283  1.00  0.00    -0.275 OA
ATOM     60  H   UNL     1       4.310  -5.010  -5.049  1.00  0.00     0.164 HD
BRANCH  58  61
ATOM     61  C   UNL     1       4.482  -2.694  -4.025  1.00  0.00     0.100 C 
BRANCH  61  62
ATOM     62  C   UNL     1       3.629  -1.819  -3.106  1.00  0.00     0.010 C 
BRANCH  62  63
ATOM     63  C   UNL     1       2.424  -1.170  -3.798  1.00  0.00     0.000 C 
BRANCH  63  64
ATOM     64  C   UNL     1       1.173  -1.082  -2.925  1.00  0.00    -0.003 C 
ATOM     65  C   UNL     1       0.046  -1.940  -3.483  1.00  0.00     0.004 C 
ENDBRANCH  63  64
ENDBRANCH  62  63
ENDBRANCH  61  62
ENDBRANCH  58  61
ENDBRANCH  56  57
BRANCH  56  66
ATOM     66  C   UNL     1       6.183  -7.018  -4.610  1.00  0.00     0.157 C 
BRANCH  66  67
ATOM     67  C   UNL     1       5.575  -7.883  -5.677  1.00  0.00     0.305 C 
ATOM     68  O   UNL     1       5.396  -9.091  -5.627  1.00  0.00    -0.252 OA
BRANCH  67  69
ATOM     69  O   UNL     1       5.171  -7.170  -6.745  1.00  0.00    -0.481 OA
ATOM     70  H   UNL     1       4.427  -6.624  -6.414  1.00  0.00     0.296 HD
ENDBRANCH  67  69
ENDBRANCH  66  67
ENDBRANCH  56  66
ENDBRANCH  53  56
ENDBRANCH  50  52
ENDBRANCH  47  50
ENDBRANCH  45  46
BRANCH  45  71
ATOM     71  C   UNL     1      -1.662  -7.166  -1.097  1.00  0.00     0.037 C 
BRANCH  71  72
ATOM     72  C   UNL     1      -1.866  -5.926  -0.223  1.00  0.00     0.026 C 
BRANCH  72  73
ATOM     73  C   UNL     1      -0.990  -4.764  -0.686  1.00  0.00     0.146 C 
BRANCH  73  74
ATOM     74  N   UNL     1      -1.499  -3.545  -0.065  1.00  0.00    -0.254 NA
ATOM     75  C   UNL     1      -2.416  -2.895  -0.682  1.00  0.00     0.185 C 
ATOM     76  N   UNL     1      -2.905  -1.771  -0.135  1.00  0.00    -0.370 N 
ATOM     77  N   UNL     1      -3.001  -3.174  -1.860  1.00  0.00    -0.370 N 
ATOM     78  H   UNL     1      -2.512  -1.485   0.750  1.00  0.00     0.159 HD
ATOM     79  H   UNL     1      -3.513  -1.137  -0.623  1.00  0.00     0.159 HD
ATOM     80  H   UNL     1      -2.736  -3.993  -2.385  1.00  0.00     0.159 HD
ATOM     81  H   UNL     1      -3.795  -2.650  -2.192  1.00  0.00     0.159 HD
ENDBRANCH  73  74
ENDBRANCH  72  73
ENDBRANCH  71  72
ENDBRANCH  45  71
ENDBRANCH   3  45
TORSDOF 20
ENDMDL
MODEL 13
REMARK VINA RESULT:    -5.318      2.721     10.444
REMARK INTER + INTRA:         -22.440
REMARK INTER:                 -16.065
REMARK INTRA:                  -6.375
REMARK UNBOUND:                -7.173
REMARK SMILES CCCCCC(=O)N[C@H](CC(=O)O)C(=O)N[C@H]1C(=O)N[C@H](CCCN=C(N)N)C(=O)N[C@@H]2CC[C@H](O)N(C2=O)[C@@H](CC(C)C)C(=O)N(C)[C@@H](Cc2ccccc2)C(=O)N[C@H](C(C)C)C(=O)O[C@@H]1C
REMARK SMILES IDX 30 1 31 2 29 3 32 5 35 6 37 7 34 8 38 9 33 10 39 11 36 12
REMARK SMILES IDX 40 14 41 15 42 16 43 17 44 18 45 19 46 20 47 21 48 22 49 23
REMARK SMILES IDX 50 24 51 25 52 26 56 27 53 28 55 29 54 30 57 31 58 32 59 33
REMARK SMILES IDX 60 35 61 36 62 37 63 38 64 39 65 40 66 41 67 42 68 43 21 45
REMARK SMILES IDX 20 46 18 47 19 48 17 50 16 52 14 53 15 54 9 56 8 57 6 58
REMARK SMILES IDX 7 59 5 61 4 62 3 63 2 64 1 65 10 66 11 67 12 68 13 69 22 71
REMARK SMILES IDX 23 72 24 73 25 74 26 75 27 76 28 77
REMARK H PARENT 31 4 36 13 59 34 20 49 16 55 8 60 13 70 27 78 27 79 28 80
REMARK H PARENT 28 81
REMARK Flexibility Score:  259.900
ROOT
ATOM      1  O   UNL     1      -1.816  -7.841  -6.955  1.00  0.00    -0.273 OA
ATOM      2  N   UNL     1      -1.343  -7.592  -4.732  1.00  0.00    -0.343 N 
ATOM      3  C   UNL     1      -0.991  -7.641  -6.063  1.00  0.00     0.243 C 
ATOM      4  H   UNL     1      -0.640  -7.410  -4.026  1.00  0.00     0.164 HD
ENDROOT
BRANCH   2   5
ATOM      5  C   UNL     1      -2.706  -7.898  -4.312  1.00  0.00     0.171 C 
ATOM      6  C   UNL     1      -5.135  -8.466  -5.790  1.00  0.00     0.214 C 
ATOM      7  N   UNL     1      -4.831  -7.103  -5.419  1.00  0.00    -0.303 N 
ATOM      8  C   UNL     1      -4.586  -9.492  -4.812  1.00  0.00     0.057 C 
ATOM      9  C   UNL     1      -3.664  -6.756  -4.758  1.00  0.00     0.247 C 
ATOM     10  C   UNL     1      -3.086  -9.330  -4.687  1.00  0.00     0.040 C 
ATOM     11  O   UNL     1      -3.370  -5.577  -4.521  1.00  0.00    -0.272 OA
BRANCH   6  12
ATOM     12  O   UNL     1      -4.614  -8.687  -7.080  1.00  0.00    -0.373 OA
ATOM     13  H   UNL     1      -3.998  -9.447  -7.015  1.00  0.00     0.213 HD
ENDBRANCH   6  12
BRANCH   7  14
ATOM     14  C   UNL     1      -5.753  -6.055  -5.906  1.00  0.00     0.177 C 
BRANCH  14  15
ATOM     15  C   UNL     1      -6.114  -4.969  -4.874  1.00  0.00     0.038 C 
BRANCH  15  16
ATOM     16  C   UNL     1      -7.377  -5.138  -4.001  1.00  0.00    -0.015 C 
ATOM     17  C   UNL     1      -7.545  -6.572  -3.489  1.00  0.00     0.007 C 
ATOM     18  C   UNL     1      -8.623  -4.769  -4.815  1.00  0.00     0.007 C 
ENDBRANCH  15  16
ENDBRANCH  14  15
BRANCH  14  19
ATOM     19  C   UNL     1      -5.541  -5.813  -7.440  1.00  0.00     0.245 C 
ATOM     20  O   UNL     1      -4.372  -5.636  -7.822  1.00  0.00    -0.272 OA
BRANCH  19  21
ATOM     21  N   UNL     1      -6.575  -5.678  -8.349  1.00  0.00    -0.332 N 
ATOM     22  C   UNL     1      -7.509  -4.568  -8.404  1.00  0.00     0.147 C 
BRANCH  21  23
ATOM     23  C   UNL     1      -6.763  -6.761  -9.355  1.00  0.00     0.178 C 
BRANCH  23  24
ATOM     24  C   UNL     1      -8.136  -6.757 -10.058  1.00  0.00     0.070 C 
BRANCH  24  25
ATOM     25  C   UNL     1      -8.460  -7.940 -10.940  1.00  0.00    -0.045 A 
ATOM     26  C   UNL     1      -9.283  -7.792 -12.064  1.00  0.00     0.004 A 
ATOM     27  C   UNL     1      -7.943  -9.209 -10.641  1.00  0.00     0.004 A 
ATOM     28  C   UNL     1      -9.592  -8.894 -12.865  1.00  0.00     0.000 A 
ATOM     29  C   UNL     1      -8.252 -10.309 -11.442  1.00  0.00     0.000 A 
ATOM     30  C   UNL     1      -9.079 -10.151 -12.552  1.00  0.00     0.000 A 
ENDBRANCH  24  25
ENDBRANCH  23  24
BRANCH  23  31
ATOM     31  C   UNL     1      -5.548  -6.926 -10.299  1.00  0.00     0.243 C 
ATOM     32  O   UNL     1      -5.386  -6.278 -11.330  1.00  0.00    -0.273 OA
ATOM     33  N   UNL     1      -4.742  -8.005  -9.978  1.00  0.00    -0.341 N 
ATOM     34  H   UNL     1      -4.930  -8.510  -9.109  1.00  0.00     0.164 HD
BRANCH  33  35
ATOM     35  C   UNL     1      -3.603  -8.423 -10.801  1.00  0.00     0.194 C 
BRANCH  35  36
ATOM     36  C   UNL     1      -3.380  -9.961 -10.841  1.00  0.00     0.017 C 
ATOM     37  C   UNL     1      -3.282 -10.476 -12.287  1.00  0.00     0.010 C 
ATOM     38  C   UNL     1      -4.496 -10.752 -10.147  1.00  0.00     0.010 C 
ENDBRANCH  35  36
BRANCH  35  39
ATOM     39  C   UNL     1      -2.298  -7.656 -10.450  1.00  0.00     0.329 C 
ATOM     40  O   UNL     1      -2.232  -6.440 -10.317  1.00  0.00    -0.250 OA
BRANCH  39  41
ATOM     41  O   UNL     1      -1.245  -8.498 -10.221  1.00  0.00    -0.458 OA
BRANCH  41  42
ATOM     42  C   UNL     1      -0.019  -8.198 -10.929  1.00  0.00     0.205 CG0
ATOM     43  C   UNL     1       0.024  -9.095 -12.164  1.00  0.00     0.056 C 
ATOM     44  G   UNL     1       1.170  -8.447  -9.979  1.00  0.00     0.000 G0
ENDBRANCH  41  42
ENDBRANCH  39  41
ENDBRANCH  35  39
ENDBRANCH  33  35
ENDBRANCH  23  31
ENDBRANCH  21  23
ENDBRANCH  19  21
ENDBRANCH  14  19
ENDBRANCH   7  14
ENDBRANCH   2   5
BRANCH   3  45
ATOM     45  C   UNL     1       0.497  -7.406  -6.359  1.00  0.00     0.171 C 
BRANCH  45  46
ATOM     46  N   UNL     1       0.773  -8.133  -7.591  1.00  0.00    -0.342 N 
ATOM     47  C   UNL     1       1.047  -7.497  -8.775  1.00  0.00     0.247 C 
ATOM     48  O   UNL     1       1.152  -6.274  -8.868  1.00  0.00    -0.273 OA
ATOM     49  H   UNL     1       0.752  -9.150  -7.546  1.00  0.00     0.164 HD
BRANCH  47  50
ATOM     50  C   UNL     1       1.189  -8.422  -9.992  1.00  0.00     0.212 CG0
ATOM     51  G   UNL     1      -0.021  -8.171 -10.914  1.00  0.00     0.000 G0
BRANCH  50  52
ATOM     52  N   UNL     1       2.465  -8.066 -10.606  1.00  0.00    -0.339 N 
ATOM     53  C   UNL     1       3.405  -8.993 -10.988  1.00  0.00     0.243 C 
ATOM     54  O   UNL     1       3.265 -10.197 -10.792  1.00  0.00    -0.273 OA
ATOM     55  H   UNL     1       2.688  -7.077 -10.693  1.00  0.00     0.164 HD
BRANCH  53  56
ATOM     56  C   UNL     1       4.709  -8.376 -11.532  1.00  0.00     0.182 C 
BRANCH  56  57
ATOM     57  N   UNL     1       4.819  -6.962 -11.160  1.00  0.00    -0.344 N 
ATOM     58  C   UNL     1       5.758  -6.506 -10.268  1.00  0.00     0.220 C 
ATOM     59  O   UNL     1       6.521  -7.256  -9.667  1.00  0.00    -0.275 OA
ATOM     60  H   UNL     1       4.277  -6.298 -11.708  1.00  0.00     0.164 HD
BRANCH  58  61
ATOM     61  C   UNL     1       5.727  -5.001 -10.077  1.00  0.00     0.100 C 
BRANCH  61  62
ATOM     62  C   UNL     1       4.676  -4.529  -9.073  1.00  0.00     0.010 C 
BRANCH  62  63
ATOM     63  C   UNL     1       5.260  -3.916  -7.794  1.00  0.00     0.000 C 
BRANCH  63  64
ATOM     64  C   UNL     1       4.462  -4.227  -6.528  1.00  0.00    -0.003 C 
ATOM     65  C   UNL     1       2.985  -3.910  -6.712  1.00  0.00     0.004 C 
ENDBRANCH  63  64
ENDBRANCH  62  63
ENDBRANCH  61  62
ENDBRANCH  58  61
ENDBRANCH  56  57
BRANCH  56  66
ATOM     66  C   UNL     1       4.842  -8.587 -13.040  1.00  0.00     0.157 C 
BRANCH  66  67
ATOM     67  C   UNL     1       4.485  -7.340 -13.797  1.00  0.00     0.305 C 
ATOM     68  O   UNL     1       5.181  -6.347 -13.941  1.00  0.00    -0.252 OA
BRANCH  67  69
ATOM     69  O   UNL     1       3.277  -7.427 -14.385  1.00  0.00    -0.481 OA
ATOM     70  H   UNL     1       2.685  -6.887 -13.820  1.00  0.00     0.296 HD
ENDBRANCH  67  69
ENDBRANCH  66  67
ENDBRANCH  56  66
ENDBRANCH  53  56
ENDBRANCH  50  52
ENDBRANCH  47  50
ENDBRANCH  45  46
BRANCH  45  71
ATOM     71  C   UNL     1       1.358  -7.914  -5.197  1.00  0.00     0.037 C 
BRANCH  71  72
ATOM     72  C   UNL     1       2.441  -6.907  -4.801  1.00  0.00     0.026 C 
BRANCH  72  73
ATOM     73  C   UNL     1       3.840  -7.503  -4.946  1.00  0.00     0.146 C 
BRANCH  73  74
ATOM     74  N   UNL     1       4.068  -7.770  -6.363  1.00  0.00    -0.254 NA
ATOM     75  C   UNL     1       4.499  -8.932  -6.691  1.00  0.00     0.185 C 
ATOM     76  N   UNL     1       4.717  -9.208  -7.987  1.00  0.00    -0.370 N 
ATOM     77  N   UNL     1       4.785  -9.982  -5.902  1.00  0.00    -0.370 N 
ATOM     78  H   UNL     1       4.533  -8.468  -8.650  1.00  0.00     0.159 HD
ATOM     79  H   UNL     1       5.187 -10.037  -8.305  1.00  0.00     0.159 HD
ATOM     80  H   UNL     1       4.665  -9.920  -4.902  1.00  0.00     0.159 HD
ATOM     81  H   UNL     1       5.008 -10.886  -6.285  1.00  0.00     0.159 HD
ENDBRANCH  73  74
ENDBRANCH  72  73
ENDBRANCH  71  72
ENDBRANCH  45  71
ENDBRANCH   3  45
TORSDOF 20
ENDMDL
MODEL 14
REMARK VINA RESULT:    -5.255      1.746      2.758
REMARK INTER + INTRA:         -22.258
REMARK INTER:                 -17.288
REMARK INTRA:                  -4.970
REMARK UNBOUND:                -7.173
REMARK SMILES CCCCCC(=O)N[C@H](CC(=O)O)C(=O)N[C@H]1C(=O)N[C@H](CCCN=C(N)N)C(=O)N[C@@H]2CC[C@H](O)N(C2=O)[C@@H](CC(C)C)C(=O)N(C)[C@@H](Cc2ccccc2)C(=O)N[C@H](C(C)C)C(=O)O[C@@H]1C
REMARK SMILES IDX 30 1 31 2 29 3 32 5 35 6 37 7 34 8 38 9 33 10 39 11 36 12
REMARK SMILES IDX 40 14 41 15 42 16 43 17 44 18 45 19 46 20 47 21 48 22 49 23
REMARK SMILES IDX 50 24 51 25 52 26 56 27 53 28 55 29 54 30 57 31 58 32 59 33
REMARK SMILES IDX 60 35 61 36 62 37 63 38 64 39 65 40 66 41 67 42 68 43 21 45
REMARK SMILES IDX 20 46 18 47 19 48 17 50 16 52 14 53 15 54 9 56 8 57 6 58
REMARK SMILES IDX 7 59 5 61 4 62 3 63 2 64 1 65 10 66 11 67 12 68 13 69 22 71
REMARK SMILES IDX 23 72 24 73 25 74 26 75 27 76 28 77
REMARK H PARENT 31 4 36 13 59 34 20 49 16 55 8 60 13 70 27 78 27 79 28 80
REMARK H PARENT 28 81
REMARK Flexibility Score:  259.900
ROOT
ATOM      1  O   UNL     1      -2.042  -8.459  -1.565  1.00  0.00    -0.273 OA
ATOM      2  N   UNL     1      -2.246  -6.505  -2.736  1.00  0.00    -0.343 N 
ATOM      3  C   UNL     1      -2.603  -7.803  -2.443  1.00  0.00     0.243 C 
ATOM      4  H   UNL     1      -2.740  -5.991  -3.455  1.00  0.00     0.164 HD
ENDROOT
BRANCH   2   5
ATOM      5  C   UNL     1      -1.093  -5.888  -2.088  1.00  0.00     0.171 C 
ATOM      6  C   UNL     1       0.441  -3.498  -2.670  1.00  0.00     0.214 C 
ATOM      7  N   UNL     1       0.850  -4.760  -3.239  1.00  0.00    -0.303 N 
ATOM      8  C   UNL     1      -0.258  -3.642  -1.327  1.00  0.00     0.057 C 
ATOM      9  C   UNL     1       0.134  -5.930  -3.044  1.00  0.00     0.247 C 
ATOM     10  C   UNL     1      -1.467  -4.541  -1.472  1.00  0.00     0.040 C 
ATOM     11  O   UNL     1       0.442  -6.990  -3.605  1.00  0.00    -0.272 OA
BRANCH   6  12
ATOM     12  O   UNL     1      -0.405  -2.860  -3.599  1.00  0.00    -0.373 OA
ATOM     13  H   UNL     1      -0.465  -1.918  -3.333  1.00  0.00     0.213 HD
ENDBRANCH   6  12
BRANCH   7  14
ATOM     14  C   UNL     1       1.996  -4.735  -4.173  1.00  0.00     0.177 C 
BRANCH  14  15
ATOM     15  C   UNL     1       2.246  -3.382  -4.868  1.00  0.00     0.038 C 
BRANCH  15  16
ATOM     16  C   UNL     1       3.600  -2.665  -4.672  1.00  0.00    -0.015 C 
ATOM     17  C   UNL     1       3.770  -2.113  -3.254  1.00  0.00     0.007 C 
ATOM     18  C   UNL     1       3.715  -1.496  -5.659  1.00  0.00     0.007 C 
ENDBRANCH  15  16
ENDBRANCH  14  15
BRANCH  14  19
ATOM     19  C   UNL     1       3.110  -5.728  -3.694  1.00  0.00     0.245 C 
ATOM     20  O   UNL     1       3.652  -5.477  -2.604  1.00  0.00    -0.272 OA
BRANCH  19  21
ATOM     21  N   UNL     1       3.587  -6.779  -4.457  1.00  0.00    -0.332 N 
ATOM     22  C   UNL     1       4.159  -8.007  -3.936  1.00  0.00     0.147 C 
BRANCH  21  23
ATOM     23  C   UNL     1       3.524  -6.647  -5.939  1.00  0.00     0.178 C 
BRANCH  23  24
ATOM     24  C   UNL     1       4.790  -7.117  -6.683  1.00  0.00     0.070 C 
BRANCH  24  25
ATOM     25  C   UNL     1       5.053  -6.514  -8.044  1.00  0.00    -0.045 A 
ATOM     26  C   UNL     1       4.965  -5.131  -8.244  1.00  0.00     0.004 A 
ATOM     27  C   UNL     1       5.385  -7.337  -9.130  1.00  0.00     0.004 A 
ATOM     28  C   UNL     1       5.193  -4.583  -9.508  1.00  0.00     0.000 A 
ATOM     29  C   UNL     1       5.613  -6.788 -10.393  1.00  0.00     0.000 A 
ATOM     30  C   UNL     1       5.514  -5.411 -10.582  1.00  0.00     0.000 A 
ENDBRANCH  24  25
ENDBRANCH  23  24
BRANCH  23  31
ATOM     31  C   UNL     1       2.190  -7.159  -6.534  1.00  0.00     0.243 C 
ATOM     32  O   UNL     1       1.226  -6.438  -6.779  1.00  0.00    -0.273 OA
ATOM     33  N   UNL     1       2.107  -8.539  -6.598  1.00  0.00    -0.341 N 
ATOM     34  H   UNL     1       2.942  -9.087  -6.376  1.00  0.00     0.164 HD
BRANCH  33  35
ATOM     35  C   UNL     1       0.894  -9.248  -7.016  1.00  0.00     0.194 C 
BRANCH  35  36
ATOM     36  C   UNL     1       1.030 -10.797  -7.010  1.00  0.00     0.017 C 
ATOM     37  C   UNL     1      -0.268 -11.470  -6.531  1.00  0.00     0.010 C 
ATOM     38  C   UNL     1       2.166 -11.301  -6.113  1.00  0.00     0.010 C 
ENDBRANCH  35  36
BRANCH  35  39
ATOM     39  C   UNL     1       0.328  -8.720  -8.363  1.00  0.00     0.329 C 
ATOM     40  O   UNL     1       0.830  -8.951  -9.457  1.00  0.00    -0.250 OA
BRANCH  39  41
ATOM     41  O   UNL     1      -0.847  -8.038  -8.202  1.00  0.00    -0.458 OA
BRANCH  41  42
ATOM     42  C   UNL     1      -2.008  -8.833  -7.860  1.00  0.00     0.205 CG0
ATOM     43  C   UNL     1      -2.653  -9.282  -9.170  1.00  0.00     0.056 C 
ATOM     44  G   UNL     1      -2.956  -7.973  -7.000  1.00  0.00     0.000 G0
ENDBRANCH  41  42
ENDBRANCH  39  41
ENDBRANCH  35  39
ENDBRANCH  33  35
ENDBRANCH  23  31
ENDBRANCH  21  23
ENDBRANCH  19  21
ENDBRANCH  14  19
ENDBRANCH   7  14
ENDBRANCH   2   5
BRANCH   3  45
ATOM     45  C   UNL     1      -3.764  -8.368  -3.273  1.00  0.00     0.171 C 
BRANCH  45  46
ATOM     46  N   UNL     1      -3.567  -7.859  -4.623  1.00  0.00    -0.342 N 
ATOM     47  C   UNL     1      -3.274  -8.678  -5.684  1.00  0.00     0.247 C 
ATOM     48  O   UNL     1      -3.228  -9.905  -5.588  1.00  0.00    -0.273 OA
ATOM     49  H   UNL     1      -3.652  -6.853  -4.758  1.00  0.00     0.164 HD
BRANCH  47  50
ATOM     50  C   UNL     1      -2.978  -7.952  -7.004  1.00  0.00     0.212 CG0
ATOM     51  G   UNL     1      -2.015  -8.839  -7.819  1.00  0.00     0.000 G0
BRANCH  50  52
ATOM     52  N   UNL     1      -4.276  -7.767  -7.647  1.00  0.00    -0.339 N 
ATOM     53  C   UNL     1      -4.631  -6.622  -8.318  1.00  0.00     0.243 C 
ATOM     54  O   UNL     1      -3.898  -5.639  -8.383  1.00  0.00    -0.273 OA
ATOM     55  H   UNL     1      -4.970  -8.504  -7.532  1.00  0.00     0.164 HD
BRANCH  53  56
ATOM     56  C   UNL     1      -6.083  -6.624  -8.838  1.00  0.00     0.182 C 
BRANCH  56  57
ATOM     57  N   UNL     1      -6.171  -7.272 -10.150  1.00  0.00    -0.344 N 
ATOM     58  C   UNL     1      -6.332  -8.629 -10.292  1.00  0.00     0.220 C 
ATOM     59  O   UNL     1      -6.339  -9.399  -9.338  1.00  0.00    -0.275 OA
ATOM     60  H   UNL     1      -6.270  -6.663 -10.959  1.00  0.00     0.164 HD
BRANCH  58  61
ATOM     61  C   UNL     1      -6.457  -9.072 -11.738  1.00  0.00     0.100 C 
BRANCH  61  62
ATOM     62  C   UNL     1      -7.852  -8.861 -12.328  1.00  0.00     0.010 C 
BRANCH  62  63
ATOM     63  C   UNL     1      -8.711 -10.131 -12.378  1.00  0.00     0.000 C 
BRANCH  63  64
ATOM     64  C   UNL     1      -9.887 -10.130 -11.404  1.00  0.00    -0.003 C 
ATOM     65  C   UNL     1     -11.170  -9.673 -12.083  1.00  0.00     0.004 C 
ENDBRANCH  63  64
ENDBRANCH  62  63
ENDBRANCH  61  62
ENDBRANCH  58  61
ENDBRANCH  56  57
BRANCH  56  66
ATOM     66  C   UNL     1      -6.675  -5.216  -8.849  1.00  0.00     0.157 C 
BRANCH  66  67
ATOM     67  C   UNL     1      -7.952  -5.170  -9.639  1.00  0.00     0.305 C 
ATOM     68  O   UNL     1      -8.305  -4.290 -10.409  1.00  0.00    -0.252 OA
BRANCH  67  69
ATOM     69  O   UNL     1      -8.706  -6.270  -9.457  1.00  0.00    -0.481 OA
ATOM     70  H   UNL     1      -9.424  -6.194 -10.120  1.00  0.00     0.296 HD
ENDBRANCH  67  69
ENDBRANCH  66  67
ENDBRANCH  56  66
ENDBRANCH  53  56
ENDBRANCH  50  52
ENDBRANCH  47  50
ENDBRANCH  45  46
BRANCH  45  71
ATOM     71  C   UNL     1      -5.107  -7.917  -2.688  1.00  0.00     0.037 C 
BRANCH  71  72
ATOM     72  C   UNL     1      -6.259  -8.109  -3.678  1.00  0.00     0.026 C 
BRANCH  72  73
ATOM     73  C   UNL     1      -7.040  -6.813  -3.886  1.00  0.00     0.146 C 
BRANCH  73  74
ATOM     74  N   UNL     1      -6.437  -6.103  -5.010  1.00  0.00    -0.254 NA
ATOM     75  C   UNL     1      -5.812  -5.011  -4.762  1.00  0.00     0.185 C 
ATOM     76  N   UNL     1      -5.245  -4.336  -5.775  1.00  0.00    -0.370 N 
ATOM     77  N   UNL     1      -5.621  -4.395  -3.583  1.00  0.00    -0.370 N 
ATOM     78  H   UNL     1      -5.349  -4.727  -6.701  1.00  0.00     0.159 HD
ATOM     79  H   UNL     1      -4.869  -3.409  -5.681  1.00  0.00     0.159 HD
ATOM     80  H   UNL     1      -5.989  -4.792  -2.731  1.00  0.00     0.159 HD
ATOM     81  H   UNL     1      -5.012  -3.598  -3.495  1.00  0.00     0.159 HD
ENDBRANCH  73  74
ENDBRANCH  72  73
ENDBRANCH  71  72
ENDBRANCH  45  71
ENDBRANCH   3  45
TORSDOF 20
ENDMDL
MODEL 15
REMARK VINA RESULT:    -5.239      6.439      9.022
REMARK INTER + INTRA:         -22.212
REMARK INTER:                 -17.791
REMARK INTRA:                  -4.421
REMARK UNBOUND:                -7.173
REMARK SMILES CCCCCC(=O)N[C@H](CC(=O)O)C(=O)N[C@H]1C(=O)N[C@H](CCCN=C(N)N)C(=O)N[C@@H]2CC[C@H](O)N(C2=O)[C@@H](CC(C)C)C(=O)N(C)[C@@H](Cc2ccccc2)C(=O)N[C@H](C(C)C)C(=O)O[C@@H]1C
REMARK SMILES IDX 30 1 31 2 29 3 32 5 35 6 37 7 34 8 38 9 33 10 39 11 36 12
REMARK SMILES IDX 40 14 41 15 42 16 43 17 44 18 45 19 46 20 47 21 48 22 49 23
REMARK SMILES IDX 50 24 51 25 52 26 56 27 53 28 55 29 54 30 57 31 58 32 59 33
REMARK SMILES IDX 60 35 61 36 62 37 63 38 64 39 65 40 66 41 67 42 68 43 21 45
REMARK SMILES IDX 20 46 18 47 19 48 17 50 16 52 14 53 15 54 9 56 8 57 6 58
REMARK SMILES IDX 7 59 5 61 4 62 3 63 2 64 1 65 10 66 11 67 12 68 13 69 22 71
REMARK SMILES IDX 23 72 24 73 25 74 26 75 27 76 28 77
REMARK H PARENT 31 4 36 13 59 34 20 49 16 55 8 60 13 70 27 78 27 79 28 80
REMARK H PARENT 28 81
REMARK Flexibility Score:  259.900
ROOT
ATOM      1  O   UNL     1      -4.490  -9.472   2.069  1.00  0.00    -0.273 OA
ATOM      2  N   UNL     1      -4.868  -7.245   1.715  1.00  0.00    -0.343 N 
ATOM      3  C   UNL     1      -5.282  -8.550   1.872  1.00  0.00     0.243 C 
ATOM      4  H   UNL     1      -5.549  -6.510   1.569  1.00  0.00     0.164 HD
ENDROOT
BRANCH   2   5
ATOM      5  C   UNL     1      -3.447  -6.918   1.657  1.00  0.00     0.171 C 
ATOM      6  C   UNL     1      -2.019  -4.424   1.277  1.00  0.00     0.214 C 
ATOM      7  N   UNL     1      -2.356  -5.231   0.128  1.00  0.00    -0.303 N 
ATOM      8  C   UNL     1      -1.798  -5.239   2.542  1.00  0.00     0.057 C 
ATOM      9  C   UNL     1      -3.081  -6.407   0.234  1.00  0.00     0.247 C 
ATOM     10  C   UNL     1      -3.034  -6.055   2.849  1.00  0.00     0.040 C 
ATOM     11  O   UNL     1      -3.440  -7.049  -0.762  1.00  0.00    -0.272 OA
BRANCH   6  12
ATOM     12  O   UNL     1      -3.059  -3.492   1.468  1.00  0.00    -0.373 OA
ATOM     13  H   UNL     1      -2.982  -2.825   0.752  1.00  0.00     0.213 HD
ENDBRANCH   6  12
BRANCH   7  14
ATOM     14  C   UNL     1      -2.022  -4.678  -1.201  1.00  0.00     0.177 C 
BRANCH  14  15
ATOM     15  C   UNL     1      -2.479  -3.226  -1.441  1.00  0.00     0.038 C 
BRANCH  15  16
ATOM     16  C   UNL     1      -1.464  -2.073  -1.286  1.00  0.00    -0.015 C 
ATOM     17  C   UNL     1      -2.042  -0.885  -0.512  1.00  0.00     0.007 C 
ATOM     18  C   UNL     1      -1.026  -1.577  -2.670  1.00  0.00     0.007 C 
ENDBRANCH  15  16
ENDBRANCH  14  15
BRANCH  14  19
ATOM     19  C   UNL     1      -0.690  -5.309  -1.733  1.00  0.00     0.245 C 
ATOM     20  O   UNL     1       0.368  -4.762  -1.380  1.00  0.00    -0.272 OA
BRANCH  19  21
ATOM     21  N   UNL     1      -0.639  -6.349  -2.645  1.00  0.00    -0.332 N 
ATOM     22  C   UNL     1      -0.529  -7.758  -2.312  1.00  0.00     0.147 C 
BRANCH  21  23
ATOM     23  C   UNL     1      -0.690  -6.007  -4.094  1.00  0.00     0.178 C 
BRANCH  23  24
ATOM     24  C   UNL     1       0.656  -6.141  -4.836  1.00  0.00     0.070 C 
BRANCH  24  25
ATOM     25  C   UNL     1       1.732  -5.136  -4.496  1.00  0.00    -0.045 A 
ATOM     26  C   UNL     1       1.409  -3.797  -4.242  1.00  0.00     0.004 A 
ATOM     27  C   UNL     1       3.077  -5.532  -4.435  1.00  0.00     0.004 A 
ATOM     28  C   UNL     1       2.412  -2.871  -3.945  1.00  0.00     0.000 A 
ATOM     29  C   UNL     1       4.077  -4.606  -4.138  1.00  0.00     0.000 A 
ATOM     30  C   UNL     1       3.744  -3.275  -3.896  1.00  0.00     0.000 A 
ENDBRANCH  24  25
ENDBRANCH  23  24
BRANCH  23  31
ATOM     31  C   UNL     1      -1.900  -6.638  -4.821  1.00  0.00     0.243 C 
ATOM     32  O   UNL     1      -1.928  -6.882  -6.025  1.00  0.00    -0.273 OA
ATOM     33  N   UNL     1      -3.031  -6.738  -4.029  1.00  0.00    -0.341 N 
ATOM     34  H   UNL     1      -2.948  -6.515  -3.034  1.00  0.00     0.164 HD
BRANCH  33  35
ATOM     35  C   UNL     1      -4.327  -7.195  -4.539  1.00  0.00     0.194 C 
BRANCH  35  36
ATOM     36  C   UNL     1      -5.507  -6.229  -4.233  1.00  0.00     0.017 C 
ATOM     37  C   UNL     1      -5.893  -5.407  -5.474  1.00  0.00     0.010 C 
ATOM     38  C   UNL     1      -5.199  -5.239  -3.103  1.00  0.00     0.010 C 
ENDBRANCH  35  36
BRANCH  35  39
ATOM     39  C   UNL     1      -4.651  -8.657  -4.125  1.00  0.00     0.329 C 
ATOM     40  O   UNL     1      -3.805  -9.530  -3.968  1.00  0.00    -0.250 OA
BRANCH  39  41
ATOM     41  O   UNL     1      -5.981  -8.842  -3.867  1.00  0.00    -0.458 OA
BRANCH  41  42
ATOM     42  C   UNL     1      -6.310  -9.442  -2.591  1.00  0.00     0.205 CG0
ATOM     43  C   UNL     1      -6.622 -10.914  -2.849  1.00  0.00     0.056 C 
ATOM     44  G   UNL     1      -7.507  -8.683  -1.985  1.00  0.00     0.000 G0
ENDBRANCH  41  42
ENDBRANCH  39  41
ENDBRANCH  35  39
ENDBRANCH  33  35
ENDBRANCH  23  31
ENDBRANCH  21  23
ENDBRANCH  19  21
ENDBRANCH  14  19
ENDBRANCH   7  14
ENDBRANCH   2   5
BRANCH   3  45
ATOM     45  C   UNL     1      -6.799  -8.771   1.806  1.00  0.00     0.171 C 
BRANCH  45  46
ATOM     46  N   UNL     1      -7.088  -9.102   0.417  1.00  0.00    -0.342 N 
ATOM     47  C   UNL     1      -7.048  -8.168  -0.587  1.00  0.00     0.247 C 
ATOM     48  O   UNL     1      -6.695  -7.002  -0.401  1.00  0.00    -0.273 OA
ATOM     49  H   UNL     1      -7.330 -10.070   0.210  1.00  0.00     0.164 HD
BRANCH  47  50
ATOM     50  C   UNL     1      -7.504  -8.672  -1.964  1.00  0.00     0.212 CG0
ATOM     51  G   UNL     1      -6.332  -9.458  -2.585  1.00  0.00     0.000 G0
BRANCH  50  52
ATOM     52  N   UNL     1      -8.680  -9.498  -1.706  1.00  0.00    -0.339 N 
ATOM     53  C   UNL     1      -9.964  -9.091  -1.979  1.00  0.00     0.243 C 
ATOM     54  O   UNL     1     -10.225  -7.973  -2.414  1.00  0.00    -0.273 OA
ATOM     55  H   UNL     1      -8.538 -10.393  -1.242  1.00  0.00     0.164 HD
BRANCH  53  56
ATOM     56  C   UNL     1     -11.048 -10.097  -1.542  1.00  0.00     0.182 C 
BRANCH  56  57
ATOM     57  N   UNL     1     -10.854 -10.506  -0.147  1.00  0.00    -0.344 N 
ATOM     58  C   UNL     1     -11.906 -10.737   0.705  1.00  0.00     0.220 C 
ATOM     59  O   UNL     1     -13.074 -10.547   0.383  1.00  0.00    -0.275 OA
ATOM     60  H   UNL     1      -9.912 -10.772   0.128  1.00  0.00     0.164 HD
BRANCH  58  61
ATOM     61  C   UNL     1     -11.473 -11.208   2.081  1.00  0.00     0.100 C 
BRANCH  61  62
ATOM     62  C   UNL     1     -12.146 -10.456   3.229  1.00  0.00     0.010 C 
BRANCH  62  63
ATOM     63  C   UNL     1     -11.266 -10.295   4.475  1.00  0.00     0.000 C 
BRANCH  63  64
ATOM     64  C   UNL     1     -11.972 -10.628   5.789  1.00  0.00    -0.003 C 
ATOM     65  C   UNL     1     -11.264  -9.992   6.976  1.00  0.00     0.004 C 
ENDBRANCH  63  64
ENDBRANCH  62  63
ENDBRANCH  61  62
ENDBRANCH  58  61
ENDBRANCH  56  57
BRANCH  56  66
ATOM     66  C   UNL     1     -11.116 -11.293  -2.490  1.00  0.00     0.157 C 
BRANCH  66  67
ATOM     67  C   UNL     1     -12.518 -11.520  -2.978  1.00  0.00     0.305 C 
ATOM     68  O   UNL     1     -13.340 -12.294  -2.511  1.00  0.00    -0.252 OA
BRANCH  67  69
ATOM     69  O   UNL     1     -12.838 -10.715  -4.009  1.00  0.00    -0.481 OA
ATOM     70  H   UNL     1     -11.983 -10.341  -4.309  1.00  0.00     0.296 HD
ENDBRANCH  67  69
ENDBRANCH  66  67
ENDBRANCH  56  66
ENDBRANCH  53  56
ENDBRANCH  50  52
ENDBRANCH  47  50
ENDBRANCH  45  46
BRANCH  45  71
ATOM     71  C   UNL     1      -7.542  -7.507   2.252  1.00  0.00     0.037 C 
BRANCH  71  72
ATOM     72  C   UNL     1      -7.283  -7.176   3.724  1.00  0.00     0.026 C 
BRANCH  72  73
ATOM     73  C   UNL     1      -8.231  -7.941   4.646  1.00  0.00     0.146 C 
BRANCH  73  74
ATOM     74  N   UNL     1      -7.498  -8.273   5.864  1.00  0.00    -0.254 NA
ATOM     75  C   UNL     1      -7.927  -7.790   6.971  1.00  0.00     0.185 C 
ATOM     76  N   UNL     1      -7.275  -8.079   8.109  1.00  0.00    -0.370 N 
ATOM     77  N   UNL     1      -8.987  -6.993   7.191  1.00  0.00    -0.370 N 
ATOM     78  H   UNL     1      -6.458  -8.669   8.031  1.00  0.00     0.159 HD
ATOM     79  H   UNL     1      -7.462  -7.625   8.985  1.00  0.00     0.159 HD
ATOM     80  H   UNL     1      -9.574  -6.696   6.427  1.00  0.00     0.159 HD
ATOM     81  H   UNL     1      -9.295  -6.769   8.123  1.00  0.00     0.159 HD
ENDBRANCH  73  74
ENDBRANCH  72  73
ENDBRANCH  71  72
ENDBRANCH  45  71
ENDBRANCH   3  45
TORSDOF 20
ENDMDL
MODEL 16
REMARK VINA RESULT:    -5.194      3.210      9.061
REMARK INTER + INTRA:         -22.082
REMARK INTER:                 -16.745
REMARK INTRA:                  -5.337
REMARK UNBOUND:                -7.173
REMARK SMILES CCCCCC(=O)N[C@H](CC(=O)O)C(=O)N[C@H]1C(=O)N[C@H](CCCN=C(N)N)C(=O)N[C@@H]2CC[C@H](O)N(C2=O)[C@@H](CC(C)C)C(=O)N(C)[C@@H](Cc2ccccc2)C(=O)N[C@H](C(C)C)C(=O)O[C@@H]1C
REMARK SMILES IDX 30 1 31 2 29 3 32 5 35 6 37 7 34 8 38 9 33 10 39 11 36 12
REMARK SMILES IDX 40 14 41 15 42 16 43 17 44 18 45 19 46 20 47 21 48 22 49 23
REMARK SMILES IDX 50 24 51 25 52 26 56 27 53 28 55 29 54 30 57 31 58 32 59 33
REMARK SMILES IDX 60 35 61 36 62 37 63 38 64 39 65 40 66 41 67 42 68 43 21 45
REMARK SMILES IDX 20 46 18 47 19 48 17 50 16 52 14 53 15 54 9 56 8 57 6 58
REMARK SMILES IDX 7 59 5 61 4 62 3 63 2 64 1 65 10 66 11 67 12 68 13 69 22 71
REMARK SMILES IDX 23 72 24 73 25 74 26 75 27 76 28 77
REMARK H PARENT 31 4 36 13 59 34 20 49 16 55 8 60 13 70 27 78 27 79 28 80
REMARK H PARENT 28 81
REMARK Flexibility Score:  259.900
ROOT
ATOM      1  O   UNL     1      -2.126  -8.878  -4.122  1.00  0.00    -0.273 OA
ATOM      2  N   UNL     1      -3.546  -7.094  -3.938  1.00  0.00    -0.343 N 
ATOM      3  C   UNL     1      -2.408  -7.796  -3.604  1.00  0.00     0.243 C 
ATOM      4  H   UNL     1      -3.738  -6.201  -3.503  1.00  0.00     0.164 HD
ENDROOT
BRANCH   2   5
ATOM      5  C   UNL     1      -4.534  -7.669  -4.845  1.00  0.00     0.171 C 
ATOM      6  C   UNL     1      -4.514 -10.026  -6.533  1.00  0.00     0.214 C 
ATOM      7  N   UNL     1      -4.070  -8.762  -7.073  1.00  0.00    -0.303 N 
ATOM      8  C   UNL     1      -5.569  -9.880  -5.448  1.00  0.00     0.057 C 
ATOM      9  C   UNL     1      -4.007  -7.609  -6.307  1.00  0.00     0.247 C 
ATOM     10  C   UNL     1      -5.035  -9.016  -4.326  1.00  0.00     0.040 C 
ATOM     11  O   UNL     1      -3.544  -6.551  -6.752  1.00  0.00    -0.272 OA
BRANCH   6  12
ATOM     12  O   UNL     1      -3.383 -10.701  -6.032  1.00  0.00    -0.373 OA
ATOM     13  H   UNL     1      -2.651 -10.049  -5.999  1.00  0.00     0.213 HD
ENDBRANCH   6  12
BRANCH   7  14
ATOM     14  C   UNL     1      -3.540  -8.771  -8.452  1.00  0.00     0.177 C 
BRANCH  14  15
ATOM     15  C   UNL     1      -4.493  -8.211  -9.526  1.00  0.00     0.038 C 
BRANCH  15  16
ATOM     16  C   UNL     1      -4.966  -9.127 -10.676  1.00  0.00    -0.015 C 
ATOM     17  C   UNL     1      -5.626 -10.412 -10.167  1.00  0.00     0.007 C 
ATOM     18  C   UNL     1      -3.771  -9.516 -11.555  1.00  0.00     0.007 C 
ENDBRANCH  15  16
ENDBRANCH  14  15
BRANCH  14  19
ATOM     19  C   UNL     1      -1.983  -8.588  -8.438  1.00  0.00     0.245 C 
ATOM     20  O   UNL     1      -1.371  -9.084  -7.477  1.00  0.00    -0.272 OA
BRANCH  19  21
ATOM     21  N   UNL     1      -1.288  -7.824  -9.358  1.00  0.00    -0.332 N 
ATOM     22  C   UNL     1      -1.522  -6.418  -9.635  1.00  0.00     0.147 C 
BRANCH  21  23
ATOM     23  C   UNL     1      -0.214  -8.490 -10.145  1.00  0.00     0.178 C 
BRANCH  23  24
ATOM     24  C   UNL     1      -0.331  -8.316 -11.673  1.00  0.00     0.070 C 
BRANCH  24  25
ATOM     25  C   UNL     1       0.255  -9.408 -12.538  1.00  0.00    -0.045 A 
ATOM     26  C   UNL     1      -0.538 -10.472 -12.986  1.00  0.00     0.004 A 
ATOM     27  C   UNL     1       1.610  -9.373 -12.900  1.00  0.00     0.004 A 
ATOM     28  C   UNL     1       0.015 -11.486 -13.770  1.00  0.00     0.000 A 
ATOM     29  C   UNL     1       2.161 -10.387 -13.685  1.00  0.00     0.000 A 
ATOM     30  C   UNL     1       1.363 -11.445 -14.117  1.00  0.00     0.000 A 
ENDBRANCH  24  25
ENDBRANCH  23  24
BRANCH  23  31
ATOM     31  C   UNL     1       1.200  -8.242  -9.568  1.00  0.00     0.243 C 
ATOM     32  O   UNL     1       2.010  -7.453 -10.048  1.00  0.00    -0.273 OA
ATOM     33  N   UNL     1       1.551  -9.129  -8.563  1.00  0.00    -0.341 N 
ATOM     34  H   UNL     1       0.835  -9.767  -8.208  1.00  0.00     0.164 HD
BRANCH  33  35
ATOM     35  C   UNL     1       2.883  -9.158  -7.953  1.00  0.00     0.194 C 
BRANCH  35  36
ATOM     36  C   UNL     1       3.713 -10.425  -8.301  1.00  0.00     0.017 C 
ATOM     37  C   UNL     1       5.032 -10.055  -9.001  1.00  0.00     0.010 C 
ATOM     38  C   UNL     1       2.967 -11.404  -9.217  1.00  0.00     0.010 C 
ENDBRANCH  35  36
BRANCH  35  39
ATOM     39  C   UNL     1       2.844  -8.892  -6.422  1.00  0.00     0.329 C 
ATOM     40  O   UNL     1       2.881  -9.774  -5.571  1.00  0.00    -0.250 OA
BRANCH  39  41
ATOM     41  O   UNL     1       2.853  -7.557  -6.125  1.00  0.00    -0.458 OA
BRANCH  41  42
ATOM     42  C   UNL     1       1.602  -6.996  -5.661  1.00  0.00     0.205 CG0
ATOM     43  C   UNL     1       1.130  -6.002  -6.720  1.00  0.00     0.056 C 
ATOM     44  G   UNL     1       1.841  -6.328  -4.292  1.00  0.00     0.000 G0
ENDBRANCH  41  42
ENDBRANCH  39  41
ENDBRANCH  35  39
ENDBRANCH  33  35
ENDBRANCH  23  31
ENDBRANCH  21  23
ENDBRANCH  19  21
ENDBRANCH  14  19
ENDBRANCH   7  14
ENDBRANCH   2   5
BRANCH   3  45
ATOM     45  C   UNL     1      -1.507  -7.127  -2.558  1.00  0.00     0.171 C 
BRANCH  45  46
ATOM     46  N   UNL     1      -0.160  -7.171  -3.113  1.00  0.00    -0.342 N 
ATOM     47  C   UNL     1       0.455  -6.064  -3.640  1.00  0.00     0.247 C 
ATOM     48  O   UNL     1      -0.053  -4.942  -3.618  1.00  0.00    -0.273 OA
ATOM     49  H   UNL     1       0.320  -8.069  -3.100  1.00  0.00     0.164 HD
BRANCH  47  50
ATOM     50  C   UNL     1       1.821  -6.327  -4.290  1.00  0.00     0.212 CG0
ATOM     51  G   UNL     1       1.567  -6.987  -5.660  1.00  0.00     0.000 G0
BRANCH  50  52
ATOM     52  N   UNL     1       2.464  -5.020  -4.390  1.00  0.00    -0.339 N 
ATOM     53  C   UNL     1       3.568  -4.662  -3.656  1.00  0.00     0.243 C 
ATOM     54  O   UNL     1       4.071  -5.401  -2.814  1.00  0.00    -0.273 OA
ATOM     55  H   UNL     1       2.027  -4.323  -4.990  1.00  0.00     0.164 HD
BRANCH  53  56
ATOM     56  C   UNL     1       4.016  -3.202  -3.867  1.00  0.00     0.182 C 
BRANCH  56  57
ATOM     57  N   UNL     1       3.125  -2.271  -3.166  1.00  0.00    -0.344 N 
ATOM     58  C   UNL     1       1.875  -1.952  -3.639  1.00  0.00     0.220 C 
ATOM     59  O   UNL     1       1.447  -2.364  -4.711  1.00  0.00    -0.275 OA
ATOM     60  H   UNL     1       3.399  -1.989  -2.229  1.00  0.00     0.164 HD
BRANCH  58  61
ATOM     61  C   UNL     1       1.107  -1.017  -2.723  1.00  0.00     0.100 C 
BRANCH  61  62
ATOM     62  C   UNL     1      -0.315  -1.487  -2.416  1.00  0.00     0.010 C 
BRANCH  62  63
ATOM     63  C   UNL     1      -0.687  -1.429  -0.929  1.00  0.00     0.000 C 
BRANCH  63  64
ATOM     64  C   UNL     1      -2.189  -1.500  -0.655  1.00  0.00    -0.003 C 
ATOM     65  C   UNL     1      -2.994  -1.360  -1.939  1.00  0.00     0.004 C 
ENDBRANCH  63  64
ENDBRANCH  62  63
ENDBRANCH  61  62
ENDBRANCH  58  61
ENDBRANCH  56  57
BRANCH  56  66
ATOM     66  C   UNL     1       4.149  -2.866  -5.351  1.00  0.00     0.157 C 
BRANCH  66  67
ATOM     67  C   UNL     1       5.052  -1.684  -5.563  1.00  0.00     0.305 C 
ATOM     68  O   UNL     1       5.357  -0.838  -4.736  1.00  0.00    -0.252 OA
BRANCH  67  69
ATOM     69  O   UNL     1       5.573  -1.655  -6.804  1.00  0.00    -0.481 OA
ATOM     70  H   UNL     1       5.338  -0.769  -7.153  1.00  0.00     0.296 HD
ENDBRANCH  67  69
ENDBRANCH  66  67
ENDBRANCH  56  66
ENDBRANCH  53  56
ENDBRANCH  50  52
ENDBRANCH  47  50
ENDBRANCH  45  46
BRANCH  45  71
ATOM     71  C   UNL     1      -1.593  -7.874  -1.223  1.00  0.00     0.037 C 
BRANCH  71  72
ATOM     72  C   UNL     1      -2.557  -7.197  -0.245  1.00  0.00     0.026 C 
BRANCH  72  73
ATOM     73  C   UNL     1      -2.328  -5.688  -0.188  1.00  0.00     0.146 C 
BRANCH  73  74
ATOM     74  N   UNL     1      -1.774  -5.369   1.124  1.00  0.00    -0.254 NA
ATOM     75  C   UNL     1      -2.512  -4.712   1.941  1.00  0.00     0.185 C 
ATOM     76  N   UNL     1      -2.030  -4.404   3.157  1.00  0.00    -0.370 N 
ATOM     77  N   UNL     1      -3.764  -4.254   1.769  1.00  0.00    -0.370 N 
ATOM     78  H   UNL     1      -1.089  -4.706   3.366  1.00  0.00     0.159 HD
ATOM     79  H   UNL     1      -2.489  -3.773   3.790  1.00  0.00     0.159 HD
ATOM     80  H   UNL     1      -4.255  -4.415   0.903  1.00  0.00     0.159 HD
ATOM     81  H   UNL     1      -4.287  -3.849   2.528  1.00  0.00     0.159 HD
ENDBRANCH  73  74
ENDBRANCH  72  73
ENDBRANCH  71  72
ENDBRANCH  45  71
ENDBRANCH   3  45
TORSDOF 20
ENDMDL
MODEL 17
REMARK VINA RESULT:    -5.160      3.582      6.723
REMARK INTER + INTRA:         -21.985
REMARK INTER:                 -15.946
REMARK INTRA:                  -6.039
REMARK UNBOUND:                -7.173
REMARK SMILES CCCCCC(=O)N[C@H](CC(=O)O)C(=O)N[C@H]1C(=O)N[C@H](CCCN=C(N)N)C(=O)N[C@@H]2CC[C@H](O)N(C2=O)[C@@H](CC(C)C)C(=O)N(C)[C@@H](Cc2ccccc2)C(=O)N[C@H](C(C)C)C(=O)O[C@@H]1C
REMARK SMILES IDX 30 1 31 2 29 3 32 5 35 6 37 7 34 8 38 9 33 10 39 11 36 12
REMARK SMILES IDX 40 14 41 15 42 16 43 17 44 18 45 19 46 20 47 21 48 22 49 23
REMARK SMILES IDX 50 24 51 25 52 26 56 27 53 28 55 29 54 30 57 31 58 32 59 33
REMARK SMILES IDX 60 35 61 36 62 37 63 38 64 39 65 40 66 41 67 42 68 43 21 45
REMARK SMILES IDX 20 46 18 47 19 48 17 50 16 52 14 53 15 54 9 56 8 57 6 58
REMARK SMILES IDX 7 59 5 61 4 62 3 63 2 64 1 65 10 66 11 67 12 68 13 69 22 71
REMARK SMILES IDX 23 72 24 73 25 74 26 75 27 76 28 77
REMARK H PARENT 31 4 36 13 59 34 20 49 16 55 8 60 13 70 27 78 27 79 28 80
REMARK H PARENT 28 81
REMARK Flexibility Score:  259.900
ROOT
ATOM      1  O   UNL     1       2.803  -4.404  -2.921  1.00  0.00    -0.273 OA
ATOM      2  N   UNL     1       2.015  -4.061  -5.040  1.00  0.00    -0.343 N 
ATOM      3  C   UNL     1       1.906  -4.011  -3.667  1.00  0.00     0.243 C 
ATOM      4  H   UNL     1       1.262  -3.715  -5.623  1.00  0.00     0.164 HD
ENDROOT
BRANCH   2   5
ATOM      5  C   UNL     1       3.166  -4.698  -5.671  1.00  0.00     0.171 C 
ATOM      6  C   UNL     1       3.853  -5.211  -8.441  1.00  0.00     0.214 C 
ATOM      7  N   UNL     1       3.123  -6.208  -7.693  1.00  0.00    -0.303 N 
ATOM      8  C   UNL     1       4.775  -4.366  -7.575  1.00  0.00     0.057 C 
ATOM      9  C   UNL     1       2.719  -6.007  -6.384  1.00  0.00     0.247 C 
ATOM     10  C   UNL     1       3.974  -3.688  -6.484  1.00  0.00     0.040 C 
ATOM     11  O   UNL     1       2.019  -6.830  -5.779  1.00  0.00    -0.272 OA
BRANCH   6  12
ATOM     12  O   UNL     1       2.914  -4.396  -9.102  1.00  0.00    -0.373 OA
ATOM     13  H   UNL     1       3.421  -3.725  -9.607  1.00  0.00     0.213 HD
ENDBRANCH   6  12
BRANCH   7  14
ATOM     14  C   UNL     1       2.687  -7.413  -8.431  1.00  0.00     0.177 C 
BRANCH  14  15
ATOM     15  C   UNL     1       2.863  -7.345  -9.961  1.00  0.00     0.038 C 
BRANCH  15  16
ATOM     16  C   UNL     1       3.865  -8.294 -10.655  1.00  0.00    -0.015 C 
ATOM     17  C   UNL     1       5.316  -7.996 -10.267  1.00  0.00     0.007 C 
ATOM     18  C   UNL     1       3.738  -8.159 -12.178  1.00  0.00     0.007 C 
ENDBRANCH  15  16
ENDBRANCH  14  15
BRANCH  14  19
ATOM     19  C   UNL     1       2.893  -8.694  -7.551  1.00  0.00     0.245 C 
ATOM     20  O   UNL     1       4.048  -8.922  -7.156  1.00  0.00    -0.272 OA
BRANCH  19  21
ATOM     21  N   UNL     1       1.898  -9.620  -7.294  1.00  0.00    -0.332 N 
ATOM     22  C   UNL     1       1.775 -10.410  -6.081  1.00  0.00     0.147 C 
BRANCH  21  23
ATOM     23  C   UNL     1       0.867  -9.844  -8.344  1.00  0.00     0.178 C 
BRANCH  23  24
ATOM     24  C   UNL     1       1.155 -11.028  -9.290  1.00  0.00     0.070 C 
BRANCH  24  25
ATOM     25  C   UNL     1       1.122 -10.747 -10.774  1.00  0.00    -0.045 A 
ATOM     26  C   UNL     1       0.310  -9.731 -11.294  1.00  0.00     0.004 A 
ATOM     27  C   UNL     1       1.905 -11.507 -11.656  1.00  0.00     0.004 A 
ATOM     28  C   UNL     1       0.273  -9.489 -12.669  1.00  0.00     0.000 A 
ATOM     29  C   UNL     1       1.868 -11.263 -13.029  1.00  0.00     0.000 A 
ATOM     30  C   UNL     1       1.049 -10.256 -13.535  1.00  0.00     0.000 A 
ENDBRANCH  24  25
ENDBRANCH  23  24
BRANCH  23  31
ATOM     31  C   UNL     1      -0.578  -9.787  -7.793  1.00  0.00     0.243 C 
ATOM     32  O   UNL     1      -1.142 -10.731  -7.245  1.00  0.00    -0.273 OA
ATOM     33  N   UNL     1      -1.256  -8.630  -8.138  1.00  0.00    -0.341 N 
ATOM     34  H   UNL     1      -0.734  -7.881  -8.600  1.00  0.00     0.164 HD
BRANCH  33  35
ATOM     35  C   UNL     1      -2.672  -8.411  -7.827  1.00  0.00     0.194 C 
BRANCH  35  36
ATOM     36  C   UNL     1      -3.489  -7.790  -8.995  1.00  0.00     0.017 C 
ATOM     37  C   UNL     1      -2.800  -8.030 -10.349  1.00  0.00     0.010 C 
ATOM     38  C   UNL     1      -3.701  -6.279  -8.848  1.00  0.00     0.010 C 
ENDBRANCH  35  36
BRANCH  35  39
ATOM     39  C   UNL     1      -2.878  -7.634  -6.497  1.00  0.00     0.329 C 
ATOM     40  O   UNL     1      -3.877  -7.730  -5.794  1.00  0.00    -0.250 OA
BRANCH  39  41
ATOM     41  O   UNL     1      -1.781  -6.894  -6.152  1.00  0.00    -0.458 OA
BRANCH  41  42
ATOM     42  C   UNL     1      -1.276  -7.084  -4.808  1.00  0.00     0.205 CG0
ATOM     43  C   UNL     1      -1.492  -8.552  -4.446  1.00  0.00     0.056 C 
ATOM     44  G   UNL     1      -2.026  -6.127  -3.861  1.00  0.00     0.000 G0
ENDBRANCH  41  42
ENDBRANCH  39  41
ENDBRANCH  35  39
ENDBRANCH  33  35
ENDBRANCH  23  31
ENDBRANCH  21  23
ENDBRANCH  19  21
ENDBRANCH  14  19
ENDBRANCH   7  14
ENDBRANCH   2   5
BRANCH   3  45
ATOM     45  C   UNL     1       0.597  -3.414  -3.133  1.00  0.00     0.171 C 
BRANCH  45  46
ATOM     46  N   UNL     1      -0.469  -4.223  -3.708  1.00  0.00    -0.342 N 
ATOM     47  C   UNL     1      -0.996  -5.313  -3.062  1.00  0.00     0.247 C 
ATOM     48  O   UNL     1      -0.661  -5.642  -1.924  1.00  0.00    -0.273 OA
ATOM     49  H   UNL     1      -0.816  -3.952  -4.626  1.00  0.00     0.164 HD
BRANCH  47  50
ATOM     50  C   UNL     1      -2.023  -6.116  -3.874  1.00  0.00     0.212 CG0
ATOM     51  G   UNL     1      -1.243  -7.079  -4.790  1.00  0.00     0.000 G0
BRANCH  50  52
ATOM     52  N   UNL     1      -2.850  -6.803  -2.885  1.00  0.00    -0.339 N 
ATOM     53  C   UNL     1      -3.953  -6.234  -2.296  1.00  0.00     0.243 C 
ATOM     54  O   UNL     1      -4.300  -5.078  -2.519  1.00  0.00    -0.273 OA
ATOM     55  H   UNL     1      -2.549  -7.725  -2.576  1.00  0.00     0.164 HD
BRANCH  53  56
ATOM     56  C   UNL     1      -4.615  -7.118  -1.220  1.00  0.00     0.182 C 
BRANCH  56  57
ATOM     57  N   UNL     1      -6.060  -7.230  -1.447  1.00  0.00    -0.344 N 
ATOM     58  C   UNL     1      -6.670  -8.428  -1.729  1.00  0.00     0.220 C 
ATOM     59  O   UNL     1      -6.044  -9.471  -1.882  1.00  0.00    -0.275 OA
ATOM     60  H   UNL     1      -6.625  -6.413  -1.230  1.00  0.00     0.164 HD
BRANCH  58  61
ATOM     61  C   UNL     1      -8.177  -8.318  -1.867  1.00  0.00     0.100 C 
BRANCH  61  62
ATOM     62  C   UNL     1      -8.857  -9.627  -2.270  1.00  0.00     0.010 C 
BRANCH  62  63
ATOM     63  C   UNL     1      -9.828  -9.493  -3.450  1.00  0.00     0.000 C 
BRANCH  63  64
ATOM     64  C   UNL     1     -10.058 -10.790  -4.222  1.00  0.00    -0.003 C 
ATOM     65  C   UNL     1      -8.741 -11.453  -4.599  1.00  0.00     0.004 C 
ENDBRANCH  63  64
ENDBRANCH  62  63
ENDBRANCH  61  62
ENDBRANCH  58  61
ENDBRANCH  56  57
BRANCH  56  66
ATOM     66  C   UNL     1      -4.289  -6.625   0.188  1.00  0.00     0.157 C 
BRANCH  66  67
ATOM     67  C   UNL     1      -2.901  -7.026   0.597  1.00  0.00     0.305 C 
ATOM     68  O   UNL     1      -2.523  -8.145   0.906  1.00  0.00    -0.252 OA
BRANCH  67  69
ATOM     69  O   UNL     1      -2.036  -5.996   0.547  1.00  0.00    -0.481 OA
ATOM     70  H   UNL     1      -1.163  -6.391   0.758  1.00  0.00     0.296 HD
ENDBRANCH  67  69
ENDBRANCH  66  67
ENDBRANCH  56  66
ENDBRANCH  53  56
ENDBRANCH  50  52
ENDBRANCH  47  50
ENDBRANCH  45  46
BRANCH  45  71
ATOM     71  C   UNL     1       0.475  -1.943  -3.545  1.00  0.00     0.037 C 
BRANCH  71  72
ATOM     72  C   UNL     1       0.635  -0.996  -2.353  1.00  0.00     0.026 C 
BRANCH  72  73
ATOM     73  C   UNL     1      -0.379  -1.304  -1.253  1.00  0.00     0.146 C 
BRANCH  73  74
ATOM     74  N   UNL     1      -1.712  -1.252  -1.846  1.00  0.00    -0.254 NA
ATOM     75  C   UNL     1      -2.543  -2.177  -1.533  1.00  0.00     0.185 C 
ATOM     76  N   UNL     1      -3.778  -2.155  -2.062  1.00  0.00    -0.370 N 
ATOM     77  N   UNL     1      -2.370  -3.227  -0.712  1.00  0.00    -0.370 N 
ATOM     78  H   UNL     1      -3.990  -1.400  -2.699  1.00  0.00     0.159 HD
ATOM     79  H   UNL     1      -4.429  -2.916  -1.979  1.00  0.00     0.159 HD
ATOM     80  H   UNL     1      -1.490  -3.369  -0.239  1.00  0.00     0.159 HD
ATOM     81  H   UNL     1      -3.135  -3.826  -0.451  1.00  0.00     0.159 HD
ENDBRANCH  73  74
ENDBRANCH  72  73
ENDBRANCH  71  72
ENDBRANCH  45  71
ENDBRANCH   3  45
TORSDOF 20
ENDMDL
MODEL 18
REMARK VINA RESULT:    -5.138      3.868      7.901
REMARK INTER + INTRA:         -21.923
REMARK INTER:                 -16.992
REMARK INTRA:                  -4.931
REMARK UNBOUND:                -7.173
REMARK SMILES CCCCCC(=O)N[C@H](CC(=O)O)C(=O)N[C@H]1C(=O)N[C@H](CCCN=C(N)N)C(=O)N[C@@H]2CC[C@H](O)N(C2=O)[C@@H](CC(C)C)C(=O)N(C)[C@@H](Cc2ccccc2)C(=O)N[C@H](C(C)C)C(=O)O[C@@H]1C
REMARK SMILES IDX 30 1 31 2 29 3 32 5 35 6 37 7 34 8 38 9 33 10 39 11 36 12
REMARK SMILES IDX 40 14 41 15 42 16 43 17 44 18 45 19 46 20 47 21 48 22 49 23
REMARK SMILES IDX 50 24 51 25 52 26 56 27 53 28 55 29 54 30 57 31 58 32 59 33
REMARK SMILES IDX 60 35 61 36 62 37 63 38 64 39 65 40 66 41 67 42 68 43 21 45
REMARK SMILES IDX 20 46 18 47 19 48 17 50 16 52 14 53 15 54 9 56 8 57 6 58
REMARK SMILES IDX 7 59 5 61 4 62 3 63 2 64 1 65 10 66 11 67 12 68 13 69 22 71
REMARK SMILES IDX 23 72 24 73 25 74 26 75 27 76 28 77
REMARK H PARENT 31 4 36 13 59 34 20 49 16 55 8 60 13 70 27 78 27 79 28 80
REMARK H PARENT 28 81
REMARK Flexibility Score:  259.900
ROOT
ATOM      1  O   UNL     1       3.545  -3.687  -3.191  1.00  0.00    -0.273 OA
ATOM      2  N   UNL     1       2.203  -3.983  -5.019  1.00  0.00    -0.343 N 
ATOM      3  C   UNL     1       2.448  -3.549  -3.734  1.00  0.00     0.243 C 
ATOM      4  H   UNL     1       1.293  -3.839  -5.439  1.00  0.00     0.164 HD
ENDROOT
BRANCH   2   5
ATOM      5  C   UNL     1       3.212  -4.740  -5.753  1.00  0.00     0.171 C 
ATOM      6  C   UNL     1       3.534  -5.374  -8.563  1.00  0.00     0.214 C 
ATOM      7  N   UNL     1       2.803  -6.282  -7.709  1.00  0.00    -0.303 N 
ATOM      8  C   UNL     1       4.620  -4.602  -7.831  1.00  0.00     0.057 C 
ATOM      9  C   UNL     1       2.569  -6.015  -6.370  1.00  0.00     0.247 C 
ATOM     10  C   UNL     1       4.013  -3.829  -6.681  1.00  0.00     0.040 C 
ATOM     11  O   UNL     1       1.869  -6.755  -5.666  1.00  0.00    -0.272 OA
BRANCH   6  12
ATOM     12  O   UNL     1       2.605  -4.488  -9.143  1.00  0.00    -0.373 OA
ATOM     13  H   UNL     1       1.730  -4.930  -9.116  1.00  0.00     0.213 HD
ENDBRANCH   6  12
BRANCH   7  14
ATOM     14  C   UNL     1       2.178  -7.455  -8.356  1.00  0.00     0.177 C 
BRANCH  14  15
ATOM     15  C   UNL     1       2.076  -7.380  -9.892  1.00  0.00     0.038 C 
BRANCH  15  16
ATOM     16  C   UNL     1       3.090  -8.155 -10.761  1.00  0.00    -0.015 C 
ATOM     17  C   UNL     1       2.842  -9.666 -10.741  1.00  0.00     0.007 C 
ATOM     18  C   UNL     1       4.514  -7.895 -10.253  1.00  0.00     0.007 C 
ENDBRANCH  15  16
ENDBRANCH  14  15
BRANCH  14  19
ATOM     19  C   UNL     1       2.474  -8.754  -7.529  1.00  0.00     0.245 C 
ATOM     20  O   UNL     1       3.668  -9.011  -7.301  1.00  0.00    -0.272 OA
BRANCH  19  21
ATOM     21  N   UNL     1       1.503  -9.663  -7.149  1.00  0.00    -0.332 N 
ATOM     22  C   UNL     1       1.659 -10.684  -6.128  1.00  0.00     0.147 C 
BRANCH  21  23
ATOM     23  C   UNL     1       0.188  -9.609  -7.845  1.00  0.00     0.178 C 
BRANCH  23  24
ATOM     24  C   UNL     1       0.099 -10.466  -9.125  1.00  0.00     0.070 C 
BRANCH  24  25
ATOM     25  C   UNL     1      -1.056 -10.190 -10.059  1.00  0.00    -0.045 A 
ATOM     26  C   UNL     1      -1.094  -9.018 -10.825  1.00  0.00     0.004 A 
ATOM     27  C   UNL     1      -2.113 -11.106 -10.168  1.00  0.00     0.004 A 
ATOM     28  C   UNL     1      -2.173  -8.761 -11.674  1.00  0.00     0.000 A 
ATOM     29  C   UNL     1      -3.190 -10.849 -11.018  1.00  0.00     0.000 A 
ATOM     30  C   UNL     1      -3.221  -9.675 -11.768  1.00  0.00     0.000 A 
ENDBRANCH  24  25
ENDBRANCH  23  24
BRANCH  23  31
ATOM     31  C   UNL     1      -1.012  -9.754  -6.879  1.00  0.00     0.243 C 
ATOM     32  O   UNL     1      -1.382 -10.822  -6.398  1.00  0.00    -0.273 OA
ATOM     33  N   UNL     1      -1.758  -8.594  -6.746  1.00  0.00    -0.341 N 
ATOM     34  H   UNL     1      -1.402  -7.737  -7.176  1.00  0.00     0.164 HD
BRANCH  33  35
ATOM     35  C   UNL     1      -3.004  -8.530  -5.978  1.00  0.00     0.194 C 
BRANCH  35  36
ATOM     36  C   UNL     1      -4.254  -8.162  -6.826  1.00  0.00     0.017 C 
ATOM     37  C   UNL     1      -5.499  -8.930  -6.349  1.00  0.00     0.010 C 
ATOM     38  C   UNL     1      -4.078  -8.455  -8.320  1.00  0.00     0.010 C 
ENDBRANCH  35  36
BRANCH  35  39
ATOM     39  C   UNL     1      -2.879  -7.639  -4.711  1.00  0.00     0.329 C 
ATOM     40  O   UNL     1      -3.384  -7.911  -3.628  1.00  0.00    -0.250 OA
BRANCH  39  41
ATOM     41  O   UNL     1      -2.068  -6.556  -4.914  1.00  0.00    -0.458 OA
BRANCH  41  42
ATOM     42  C   UNL     1      -0.983  -6.383  -3.972  1.00  0.00     0.205 CG0
ATOM     43  C   UNL     1      -0.519  -7.776  -3.552  1.00  0.00     0.056 C 
ATOM     44  G   UNL     1      -1.494  -5.548  -2.781  1.00  0.00     0.000 G0
ENDBRANCH  41  42
ENDBRANCH  39  41
ENDBRANCH  35  39
ENDBRANCH  33  35
ENDBRANCH  23  31
ENDBRANCH  21  23
ENDBRANCH  19  21
ENDBRANCH  14  19
ENDBRANCH   7  14
ENDBRANCH   2   5
BRANCH   3  45
ATOM     45  C   UNL     1       1.267  -2.862  -3.036  1.00  0.00     0.171 C 
BRANCH  45  46
ATOM     46  N   UNL     1       0.119  -3.732  -3.258  1.00  0.00    -0.342 N 
ATOM     47  C   UNL     1      -0.338  -4.605  -2.303  1.00  0.00     0.247 C 
ATOM     48  O   UNL     1       0.140  -4.667  -1.170  1.00  0.00    -0.273 OA
ATOM     49  H   UNL     1      -0.342  -3.672  -4.164  1.00  0.00     0.164 HD
BRANCH  47  50
ATOM     50  C   UNL     1      -1.477  -5.528  -2.759  1.00  0.00     0.212 CG0
ATOM     51  G   UNL     1      -0.964  -6.346  -3.961  1.00  0.00     0.000 G0
BRANCH  50  52
ATOM     52  N   UNL     1      -1.801  -6.351  -1.597  1.00  0.00    -0.339 N 
ATOM     53  C   UNL     1      -2.891  -6.127  -0.792  1.00  0.00     0.243 C 
ATOM     54  O   UNL     1      -3.653  -5.179  -0.958  1.00  0.00    -0.273 OA
ATOM     55  H   UNL     1      -1.145  -7.086  -1.341  1.00  0.00     0.164 HD
BRANCH  53  56
ATOM     56  C   UNL     1      -2.978  -7.072   0.424  1.00  0.00     0.182 C 
BRANCH  56  57
ATOM     57  N   UNL     1      -3.964  -8.133   0.197  1.00  0.00    -0.344 N 
ATOM     58  C   UNL     1      -3.653  -9.300  -0.457  1.00  0.00     0.220 C 
ATOM     59  O   UNL     1      -2.553  -9.506  -0.959  1.00  0.00    -0.275 OA
ATOM     60  H   UNL     1      -4.853  -8.047   0.683  1.00  0.00     0.164 HD
BRANCH  58  61
ATOM     61  C   UNL     1      -4.810 -10.278  -0.526  1.00  0.00     0.100 C 
BRANCH  61  62
ATOM     62  C   UNL     1      -5.838  -9.942  -1.607  1.00  0.00     0.010 C 
BRANCH  62  63
ATOM     63  C   UNL     1      -7.295 -10.145  -1.172  1.00  0.00     0.000 C 
BRANCH  63  64
ATOM     64  C   UNL     1      -7.471 -10.425   0.320  1.00  0.00    -0.003 C 
ATOM     65  C   UNL     1      -7.675  -9.138   1.106  1.00  0.00     0.004 C 
ENDBRANCH  63  64
ENDBRANCH  62  63
ENDBRANCH  61  62
ENDBRANCH  58  61
ENDBRANCH  56  57
BRANCH  56  66
ATOM     66  C   UNL     1      -3.248  -6.300   1.715  1.00  0.00     0.157 C 
BRANCH  66  67
ATOM     67  C   UNL     1      -4.665  -6.489   2.175  1.00  0.00     0.305 C 
ATOM     68  O   UNL     1      -5.680  -6.281   1.528  1.00  0.00    -0.252 OA
BRANCH  67  69
ATOM     69  O   UNL     1      -4.735  -6.987   3.425  1.00  0.00    -0.481 OA
ATOM     70  H   UNL     1      -4.605  -7.953   3.317  1.00  0.00     0.296 HD
ENDBRANCH  67  69
ENDBRANCH  66  67
ENDBRANCH  56  66
ENDBRANCH  53  56
ENDBRANCH  50  52
ENDBRANCH  47  50
ENDBRANCH  45  46
BRANCH  45  71
ATOM     71  C   UNL     1       1.039  -1.465  -3.622  1.00  0.00     0.037 C 
BRANCH  71  72
ATOM     72  C   UNL     1       0.491  -0.486  -2.581  1.00  0.00     0.026 C 
BRANCH  72  73
ATOM     73  C   UNL     1      -1.025  -0.613  -2.437  1.00  0.00     0.146 C 
BRANCH  73  74
ATOM     74  N   UNL     1      -1.300  -1.219  -1.138  1.00  0.00    -0.254 NA
ATOM     75  C   UNL     1      -2.332  -1.973  -1.036  1.00  0.00     0.185 C 
ATOM     76  N   UNL     1      -2.612  -2.546   0.146  1.00  0.00    -0.370 N 
ATOM     77  N   UNL     1      -3.234  -2.303  -1.977  1.00  0.00    -0.370 N 
ATOM     78  H   UNL     1      -1.985  -2.344   0.912  1.00  0.00     0.159 HD
ATOM     79  H   UNL     1      -3.473  -3.026   0.339  1.00  0.00     0.159 HD
ATOM     80  H   UNL     1      -3.149  -1.947  -2.917  1.00  0.00     0.159 HD
ATOM     81  H   UNL     1      -3.942  -2.998  -1.809  1.00  0.00     0.159 HD
ENDBRANCH  73  74
ENDBRANCH  72  73
ENDBRANCH  71  72
ENDBRANCH  45  71
ENDBRANCH   3  45
TORSDOF 20
ENDMDL
MODEL 19
REMARK VINA RESULT:    -5.122      6.533      8.896
REMARK INTER + INTRA:         -21.877
REMARK INTER:                 -16.959
REMARK INTRA:                  -4.918
REMARK UNBOUND:                -7.173
REMARK SMILES CCCCCC(=O)N[C@H](CC(=O)O)C(=O)N[C@H]1C(=O)N[C@H](CCCN=C(N)N)C(=O)N[C@@H]2CC[C@H](O)N(C2=O)[C@@H](CC(C)C)C(=O)N(C)[C@@H](Cc2ccccc2)C(=O)N[C@H](C(C)C)C(=O)O[C@@H]1C
REMARK SMILES IDX 30 1 31 2 29 3 32 5 35 6 37 7 34 8 38 9 33 10 39 11 36 12
REMARK SMILES IDX 40 14 41 15 42 16 43 17 44 18 45 19 46 20 47 21 48 22 49 23
REMARK SMILES IDX 50 24 51 25 52 26 56 27 53 28 55 29 54 30 57 31 58 32 59 33
REMARK SMILES IDX 60 35 61 36 62 37 63 38 64 39 65 40 66 41 67 42 68 43 21 45
REMARK SMILES IDX 20 46 18 47 19 48 17 50 16 52 14 53 15 54 9 56 8 57 6 58
REMARK SMILES IDX 7 59 5 61 4 62 3 63 2 64 1 65 10 66 11 67 12 68 13 69 22 71
REMARK SMILES IDX 23 72 24 73 25 74 26 75 27 76 28 77
REMARK H PARENT 31 4 36 13 59 34 20 49 16 55 8 60 13 70 27 78 27 79 28 80
REMARK H PARENT 28 81
REMARK Flexibility Score:  259.900
ROOT
ATOM      1  O   UNL     1      -4.213  -9.148   3.058  1.00  0.00    -0.273 OA
ATOM      2  N   UNL     1      -4.639  -7.250   1.855  1.00  0.00    -0.343 N 
ATOM      3  C   UNL     1      -5.018  -8.421   2.475  1.00  0.00     0.243 C 
ATOM      4  H   UNL     1      -5.331  -6.669   1.398  1.00  0.00     0.164 HD
ENDROOT
BRANCH   2   5
ATOM      5  C   UNL     1      -3.230  -6.881   1.763  1.00  0.00     0.171 C 
ATOM      6  C   UNL     1      -1.889  -4.356   1.283  1.00  0.00     0.214 C 
ATOM      7  N   UNL     1      -2.218  -5.209   0.165  1.00  0.00    -0.303 N 
ATOM      8  C   UNL     1      -1.621  -5.124   2.568  1.00  0.00     0.057 C 
ATOM      9  C   UNL     1      -2.903  -6.403   0.319  1.00  0.00     0.247 C 
ATOM     10  C   UNL     1      -2.826  -5.969   2.920  1.00  0.00     0.040 C 
ATOM     11  O   UNL     1      -3.258  -7.086  -0.651  1.00  0.00    -0.272 OA
BRANCH   6  12
ATOM     12  O   UNL     1      -2.954  -3.452   1.463  1.00  0.00    -0.373 OA
ATOM     13  H   UNL     1      -3.553  -3.557   0.693  1.00  0.00     0.213 HD
ENDBRANCH   6  12
BRANCH   7  14
ATOM     14  C   UNL     1      -1.923  -4.687  -1.186  1.00  0.00     0.177 C 
BRANCH  14  15
ATOM     15  C   UNL     1      -2.409  -3.249  -1.454  1.00  0.00     0.038 C 
BRANCH  15  16
ATOM     16  C   UNL     1      -1.387  -2.090  -1.462  1.00  0.00    -0.015 C 
ATOM     17  C   UNL     1      -1.997  -0.772  -0.976  1.00  0.00     0.007 C 
ATOM     18  C   UNL     1      -0.854  -1.878  -2.884  1.00  0.00     0.007 C 
ENDBRANCH  15  16
ENDBRANCH  14  15
BRANCH  14  19
ATOM     19  C   UNL     1      -0.594  -5.312  -1.732  1.00  0.00     0.245 C 
ATOM     20  O   UNL     1       0.468  -4.791  -1.351  1.00  0.00    -0.272 OA
BRANCH  19  21
ATOM     21  N   UNL     1      -0.547  -6.317  -2.682  1.00  0.00    -0.332 N 
ATOM     22  C   UNL     1      -0.285  -7.720  -2.413  1.00  0.00     0.147 C 
BRANCH  21  23
ATOM     23  C   UNL     1      -0.772  -5.941  -4.105  1.00  0.00     0.178 C 
BRANCH  23  24
ATOM     24  C   UNL     1       0.496  -5.949  -4.983  1.00  0.00     0.070 C 
BRANCH  24  25
ATOM     25  C   UNL     1       1.720  -5.257  -4.431  1.00  0.00    -0.045 A 
ATOM     26  C   UNL     1       2.702  -5.978  -3.739  1.00  0.00     0.004 A 
ATOM     27  C   UNL     1       1.889  -3.874  -4.601  1.00  0.00     0.004 A 
ATOM     28  C   UNL     1       3.822  -5.328  -3.216  1.00  0.00     0.000 A 
ATOM     29  C   UNL     1       3.009  -3.226  -4.079  1.00  0.00     0.000 A 
ATOM     30  C   UNL     1       3.974  -3.953  -3.385  1.00  0.00     0.000 A 
ENDBRANCH  24  25
ENDBRANCH  23  24
BRANCH  23  31
ATOM     31  C   UNL     1      -2.001  -6.644  -4.729  1.00  0.00     0.243 C 
ATOM     32  O   UNL     1      -2.143  -6.839  -5.933  1.00  0.00    -0.273 OA
ATOM     33  N   UNL     1      -3.024  -6.874  -3.825  1.00  0.00    -0.341 N 
ATOM     34  H   UNL     1      -2.849  -6.686  -2.835  1.00  0.00     0.164 HD
BRANCH  33  35
ATOM     35  C   UNL     1      -4.327  -7.420  -4.216  1.00  0.00     0.194 C 
BRANCH  35  36
ATOM     36  C   UNL     1      -5.519  -6.449  -3.981  1.00  0.00     0.017 C 
ATOM     37  C   UNL     1      -5.736  -5.527  -5.193  1.00  0.00     0.010 C 
ATOM     38  C   UNL     1      -5.334  -5.552  -2.750  1.00  0.00     0.010 C 
ENDBRANCH  35  36
BRANCH  35  39
ATOM     39  C   UNL     1      -4.594  -8.824  -3.605  1.00  0.00     0.329 C 
ATOM     40  O   UNL     1      -3.721  -9.658  -3.395  1.00  0.00    -0.250 OA
BRANCH  39  41
ATOM     41  O   UNL     1      -5.903  -8.995  -3.247  1.00  0.00    -0.458 OA
BRANCH  41  42
ATOM     42  C   UNL     1      -6.140  -9.556  -1.934  1.00  0.00     0.205 CG0
ATOM     43  C   UNL     1      -6.311 -11.064  -2.109  1.00  0.00     0.056 C 
ATOM     44  G   UNL     1      -7.390  -8.886  -1.331  1.00  0.00     0.000 G0
ENDBRANCH  41  42
ENDBRANCH  39  41
ENDBRANCH  35  39
ENDBRANCH  33  35
ENDBRANCH  23  31
ENDBRANCH  21  23
ENDBRANCH  19  21
ENDBRANCH  14  19
ENDBRANCH   7  14
ENDBRANCH   2   5
BRANCH   3  45
ATOM     45  C   UNL     1      -6.516  -8.745   2.406  1.00  0.00     0.171 C 
BRANCH  45  46
ATOM     46  N   UNL     1      -6.766  -9.161   1.032  1.00  0.00    -0.342 N 
ATOM     47  C   UNL     1      -7.034  -8.265   0.028  1.00  0.00     0.247 C 
ATOM     48  O   UNL     1      -7.009  -7.045   0.198  1.00  0.00    -0.273 OA
ATOM     49  H   UNL     1      -6.740 -10.160   0.836  1.00  0.00     0.164 HD
BRANCH  47  50
ATOM     50  C   UNL     1      -7.395  -8.893  -1.325  1.00  0.00     0.212 CG0
ATOM     51  G   UNL     1      -6.112  -9.520  -1.907  1.00  0.00     0.000 G0
BRANCH  50  52
ATOM     52  N   UNL     1      -8.436  -9.874  -1.034  1.00  0.00    -0.339 N 
ATOM     53  C   UNL     1      -9.749  -9.715  -1.404  1.00  0.00     0.243 C 
ATOM     54  O   UNL     1     -10.161  -8.704  -1.966  1.00  0.00    -0.273 OA
ATOM     55  H   UNL     1      -8.179 -10.684  -0.473  1.00  0.00     0.164 HD
BRANCH  53  56
ATOM     56  C   UNL     1     -10.681 -10.841  -0.911  1.00  0.00     0.182 C 
BRANCH  56  57
ATOM     57  N   UNL     1     -12.074 -10.387  -0.860  1.00  0.00    -0.344 N 
ATOM     58  C   UNL     1     -13.069 -10.978  -1.599  1.00  0.00     0.220 C 
ATOM     59  O   UNL     1     -12.852 -11.876  -2.405  1.00  0.00    -0.275 OA
ATOM     60  H   UNL     1     -12.313  -9.717  -0.133  1.00  0.00     0.164 HD
BRANCH  58  61
ATOM     61  C   UNL     1     -14.442 -10.384  -1.344  1.00  0.00     0.100 C 
BRANCH  61  62
ATOM     62  C   UNL     1     -14.420  -9.142  -0.453  1.00  0.00     0.010 C 
BRANCH  62  63
ATOM     63  C   UNL     1     -15.672  -8.970   0.416  1.00  0.00     0.000 C 
BRANCH  63  64
ATOM     64  C   UNL     1     -16.747  -8.077  -0.201  1.00  0.00    -0.003 C 
ATOM     65  C   UNL     1     -17.915  -7.872   0.753  1.00  0.00     0.004 C 
ENDBRANCH  63  64
ENDBRANCH  62  63
ENDBRANCH  61  62
ENDBRANCH  58  61
ENDBRANCH  56  57
BRANCH  56  66
ATOM     66  C   UNL     1     -10.211 -11.412   0.425  1.00  0.00     0.157 C 
BRANCH  66  67
ATOM     67  C   UNL     1     -10.714 -10.589   1.576  1.00  0.00     0.305 C 
ATOM     68  O   UNL     1     -11.761 -10.745   2.185  1.00  0.00    -0.252 OA
BRANCH  67  69
ATOM     69  O   UNL     1      -9.841  -9.631   1.940  1.00  0.00    -0.481 OA
ATOM     70  H   UNL     1      -9.461  -9.948   2.787  1.00  0.00     0.296 HD
ENDBRANCH  67  69
ENDBRANCH  66  67
ENDBRANCH  56  66
ENDBRANCH  53  56
ENDBRANCH  50  52
ENDBRANCH  47  50
ENDBRANCH  45  46
BRANCH  45  71
ATOM     71  C   UNL     1      -7.347  -7.514   2.784  1.00  0.00     0.037 C 
BRANCH  71  72
ATOM     72  C   UNL     1      -7.184  -7.141   4.260  1.00  0.00     0.026 C 
BRANCH  72  73
ATOM     73  C   UNL     1      -7.932  -8.112   5.170  1.00  0.00     0.146 C 
BRANCH  73  74
ATOM     74  N   UNL     1      -8.594  -7.330   6.210  1.00  0.00    -0.254 NA
ATOM     75  C   UNL     1      -8.635  -7.821   7.393  1.00  0.00     0.185 C 
ATOM     76  N   UNL     1      -9.235  -7.124   8.372  1.00  0.00    -0.370 N 
ATOM     77  N   UNL     1      -8.145  -8.990   7.841  1.00  0.00    -0.370 N 
ATOM     78  H   UNL     1      -9.639  -6.234   8.119  1.00  0.00     0.159 HD
ATOM     79  H   UNL     1      -9.433  -7.504   9.281  1.00  0.00     0.159 HD
ATOM     80  H   UNL     1      -7.663  -9.618   7.215  1.00  0.00     0.159 HD
ATOM     81  H   UNL     1      -8.136  -9.218   8.821  1.00  0.00     0.159 HD
ENDBRANCH  73  74
ENDBRANCH  72  73
ENDBRANCH  71  72
ENDBRANCH  45  71
ENDBRANCH   3  45
TORSDOF 20
ENDMDL
MODEL 20
REMARK VINA RESULT:    -5.081      3.848      8.438
REMARK INTER + INTRA:         -21.759
REMARK INTER:                 -16.375
REMARK INTRA:                  -5.384
REMARK UNBOUND:                -7.173
REMARK SMILES CCCCCC(=O)N[C@H](CC(=O)O)C(=O)N[C@H]1C(=O)N[C@H](CCCN=C(N)N)C(=O)N[C@@H]2CC[C@H](O)N(C2=O)[C@@H](CC(C)C)C(=O)N(C)[C@@H](Cc2ccccc2)C(=O)N[C@H](C(C)C)C(=O)O[C@@H]1C
REMARK SMILES IDX 30 1 31 2 29 3 32 5 35 6 37 7 34 8 38 9 33 10 39 11 36 12
REMARK SMILES IDX 40 14 41 15 42 16 43 17 44 18 45 19 46 20 47 21 48 22 49 23
REMARK SMILES IDX 50 24 51 25 52 26 56 27 53 28 55 29 54 30 57 31 58 32 59 33
REMARK SMILES IDX 60 35 61 36 62 37 63 38 64 39 65 40 66 41 67 42 68 43 21 45
REMARK SMILES IDX 20 46 18 47 19 48 17 50 16 52 14 53 15 54 9 56 8 57 6 58
REMARK SMILES IDX 7 59 5 61 4 62 3 63 2 64 1 65 10 66 11 67 12 68 13 69 22 71
REMARK SMILES IDX 23 72 24 73 25 74 26 75 27 76 28 77
REMARK H PARENT 31 4 36 13 59 34 20 49 16 55 8 60 13 70 27 78 27 79 28 80
REMARK H PARENT 28 81
REMARK Flexibility Score:  259.900
ROOT
ATOM      1  O   UNL     1      -2.123  -9.195  -8.384  1.00  0.00    -0.273 OA
ATOM      2  N   UNL     1      -1.389  -7.036  -8.203  1.00  0.00    -0.343 N 
ATOM      3  C   UNL     1      -2.152  -8.111  -7.800  1.00  0.00     0.243 C 
ATOM      4  H   UNL     1      -1.427  -6.165  -7.689  1.00  0.00     0.164 HD
ENDROOT
BRANCH   2   5
ATOM      5  C   UNL     1      -0.596  -7.105  -9.425  1.00  0.00     0.171 C 
ATOM      6  C   UNL     1       0.572  -9.320 -10.887  1.00  0.00     0.214 C 
ATOM      7  N   UNL     1       1.348  -8.654  -9.868  1.00  0.00    -0.303 N 
ATOM      8  C   UNL     1      -0.434  -8.407 -11.571  1.00  0.00     0.057 C 
ATOM      9  C   UNL     1       0.834  -7.623  -9.098  1.00  0.00     0.247 C 
ATOM     10  C   UNL     1      -1.367  -7.810 -10.540  1.00  0.00     0.040 C 
ATOM     11  O   UNL     1       1.476  -7.115  -8.168  1.00  0.00    -0.272 OA
BRANCH   6  12
ATOM     12  O   UNL     1      -0.085 -10.411 -10.283  1.00  0.00    -0.373 OA
ATOM     13  H   UNL     1      -1.029 -10.162 -10.191  1.00  0.00     0.213 HD
ENDBRANCH   6  12
BRANCH   7  14
ATOM     14  C   UNL     1       2.683  -9.214  -9.568  1.00  0.00     0.177 C 
BRANCH  14  15
ATOM     15  C   UNL     1       2.828 -10.729  -9.811  1.00  0.00     0.038 C 
BRANCH  15  16
ATOM     16  C   UNL     1       3.726 -11.233 -10.963  1.00  0.00    -0.015 C 
ATOM     17  C   UNL     1       2.943 -12.037 -12.004  1.00  0.00     0.007 C 
ATOM     18  C   UNL     1       4.838 -12.128 -10.400  1.00  0.00     0.007 C 
ENDBRANCH  15  16
ENDBRANCH  14  15
BRANCH  14  19
ATOM     19  C   UNL     1       3.795  -8.142  -9.837  1.00  0.00     0.245 C 
ATOM     20  O   UNL     1       3.694  -7.481 -10.884  1.00  0.00    -0.272 OA
BRANCH  19  21
ATOM     21  N   UNL     1       4.916  -7.978  -9.042  1.00  0.00    -0.332 N 
ATOM     22  C   UNL     1       6.052  -8.881  -8.991  1.00  0.00     0.147 C 
BRANCH  21  23
ATOM     23  C   UNL     1       4.969  -6.785  -8.152  1.00  0.00     0.178 C 
BRANCH  23  24
ATOM     24  C   UNL     1       4.245  -5.538  -8.699  1.00  0.00     0.070 C 
BRANCH  24  25
ATOM     25  C   UNL     1       4.324  -4.278  -7.870  1.00  0.00    -0.045 A 
ATOM     26  C   UNL     1       5.553  -3.645  -7.642  1.00  0.00     0.004 A 
ATOM     27  C   UNL     1       3.163  -3.724  -7.311  1.00  0.00     0.004 A 
ATOM     28  C   UNL     1       5.620  -2.489  -6.860  1.00  0.00     0.000 A 
ATOM     29  C   UNL     1       3.231  -2.569  -6.531  1.00  0.00     0.000 A 
ATOM     30  C   UNL     1       4.460  -1.954  -6.304  1.00  0.00     0.000 A 
ENDBRANCH  24  25
ENDBRANCH  23  24
BRANCH  23  31
ATOM     31  C   UNL     1       4.661  -7.122  -6.673  1.00  0.00     0.243 C 
ATOM     32  O   UNL     1       5.357  -6.761  -5.727  1.00  0.00    -0.273 OA
ATOM     33  N   UNL     1       3.626  -8.027  -6.516  1.00  0.00    -0.341 N 
ATOM     34  H   UNL     1       3.085  -8.295  -7.343  1.00  0.00     0.164 HD
BRANCH  33  35
ATOM     35  C   UNL     1       3.238  -8.580  -5.215  1.00  0.00     0.194 C 
BRANCH  35  36
ATOM     36  C   UNL     1       3.758 -10.022  -4.957  1.00  0.00     0.017 C 
ATOM     37  C   UNL     1       5.126 -10.005  -4.253  1.00  0.00     0.010 C 
ATOM     38  C   UNL     1       3.913 -10.847  -6.241  1.00  0.00     0.010 C 
ENDBRANCH  35  36
BRANCH  35  39
ATOM     39  C   UNL     1       1.712  -8.456  -4.944  1.00  0.00     0.329 C 
ATOM     40  O   UNL     1       0.855  -9.093  -5.545  1.00  0.00    -0.250 OA
BRANCH  39  41
ATOM     41  O   UNL     1       1.436  -7.620  -3.898  1.00  0.00    -0.458 OA
BRANCH  41  42
ATOM     42  C   UNL     1       0.460  -6.580  -4.148  1.00  0.00     0.205 CG0
ATOM     43  C   UNL     1       1.019  -5.284  -3.567  1.00  0.00     0.056 C 
ATOM     44  G   UNL     1      -0.875  -6.992  -3.496  1.00  0.00     0.000 G0
ENDBRANCH  41  42
ENDBRANCH  39  41
ENDBRANCH  35  39
ENDBRANCH  33  35
ENDBRANCH  23  31
ENDBRANCH  21  23
ENDBRANCH  19  21
ENDBRANCH  14  19
ENDBRANCH   7  14
ENDBRANCH   2   5
BRANCH   3  45
ATOM     45  C   UNL     1      -3.023  -7.870  -6.560  1.00  0.00     0.171 C 
BRANCH  45  46
ATOM     46  N   UNL     1      -2.109  -7.893  -5.426  1.00  0.00    -0.342 N 
ATOM     47  C   UNL     1      -2.002  -6.846  -4.545  1.00  0.00     0.247 C 
ATOM     48  O   UNL     1      -2.720  -5.847  -4.604  1.00  0.00    -0.273 OA
ATOM     49  H   UNL     1      -1.535  -8.726  -5.306  1.00  0.00     0.164 HD
BRANCH  47  50
ATOM     50  C   UNL     1      -0.900  -6.996  -3.487  1.00  0.00     0.212 CG0
ATOM     51  G   UNL     1       0.438  -6.609  -4.149  1.00  0.00     0.000 G0
BRANCH  50  52
ATOM     52  N   UNL     1      -1.283  -6.104  -2.396  1.00  0.00    -0.339 N 
ATOM     53  C   UNL     1      -1.864  -6.542  -1.231  1.00  0.00     0.243 C 
ATOM     54  O   UNL     1      -2.157  -7.719  -1.039  1.00  0.00    -0.273 OA
ATOM     55  H   UNL     1      -1.168  -5.103  -2.541  1.00  0.00     0.164 HD
BRANCH  53  56
ATOM     56  C   UNL     1      -2.259  -5.409  -0.262  1.00  0.00     0.182 C 
BRANCH  56  57
ATOM     57  N   UNL     1      -1.369  -4.254  -0.413  1.00  0.00    -0.344 N 
ATOM     58  C   UNL     1      -1.644  -3.220  -1.274  1.00  0.00     0.220 C 
ATOM     59  O   UNL     1      -2.611  -3.224  -2.029  1.00  0.00    -0.275 OA
ATOM     60  H   UNL     1      -0.615  -4.162   0.263  1.00  0.00     0.164 HD
BRANCH  58  61
ATOM     61  C   UNL     1      -0.616  -2.104  -1.223  1.00  0.00     0.100 C 
BRANCH  61  62
ATOM     62  C   UNL     1      -0.637  -1.191  -2.449  1.00  0.00     0.010 C 
BRANCH  62  63
ATOM     63  C   UNL     1       0.357  -1.592  -3.547  1.00  0.00     0.000 C 
BRANCH  63  64
ATOM     64  C   UNL     1       1.742  -0.963  -3.399  1.00  0.00    -0.003 C 
ATOM     65  C   UNL     1       2.799  -2.015  -3.093  1.00  0.00     0.004 C 
ENDBRANCH  63  64
ENDBRANCH  62  63
ENDBRANCH  61  62
ENDBRANCH  58  61
ENDBRANCH  56  57
BRANCH  56  66
ATOM     66  C   UNL     1      -2.323  -5.903   1.182  1.00  0.00     0.157 C 
BRANCH  66  67
ATOM     67  C   UNL     1      -2.814  -4.826   2.105  1.00  0.00     0.305 C 
ATOM     68  O   UNL     1      -3.037  -3.660   1.816  1.00  0.00    -0.252 OA
BRANCH  67  69
ATOM     69  O   UNL     1      -3.054  -5.286   3.347  1.00  0.00    -0.481 OA
ATOM     70  H   UNL     1      -3.668  -4.631   3.742  1.00  0.00     0.296 HD
ENDBRANCH  67  69
ENDBRANCH  66  67
ENDBRANCH  56  66
ENDBRANCH  53  56
ENDBRANCH  50  52
ENDBRANCH  47  50
ENDBRANCH  45  46
BRANCH  45  71
ATOM     71  C   UNL     1      -4.096  -8.958  -6.443  1.00  0.00     0.037 C 
BRANCH  71  72
ATOM     72  C   UNL     1      -5.417  -8.407  -5.898  1.00  0.00     0.026 C 
BRANCH  72  73
ATOM     73  C   UNL     1      -6.015  -9.331  -4.838  1.00  0.00     0.146 C 
BRANCH  73  74
ATOM     74  N   UNL     1      -4.920 -10.085  -4.234  1.00  0.00    -0.254 NA
ATOM     75  C   UNL     1      -5.128 -11.317  -3.949  1.00  0.00     0.185 C 
ATOM     76  N   UNL     1      -4.140 -12.037  -3.393  1.00  0.00    -0.370 N 
ATOM     77  N   UNL     1      -6.241 -12.050  -4.127  1.00  0.00    -0.370 N 
ATOM     78  H   UNL     1      -3.268 -11.559  -3.217  1.00  0.00     0.159 HD
ATOM     79  H   UNL     1      -4.273 -12.958  -3.012  1.00  0.00     0.159 HD
ATOM     80  H   UNL     1      -7.065 -11.640  -4.540  1.00  0.00     0.159 HD
ATOM     81  H   UNL     1      -6.250 -13.044  -3.970  1.00  0.00     0.159 HD
ENDBRANCH  73  74
ENDBRANCH  72  73
ENDBRANCH  71  72
ENDBRANCH  45  71
ENDBRANCH   3  45
TORSDOF 20
ENDMDL
MODEL 21
REMARK VINA RESULT:    -5.061      3.432      7.676
REMARK INTER + INTRA:         -21.701
REMARK INTER:                 -16.621
REMARK INTRA:                  -5.080
REMARK UNBOUND:                -7.173
REMARK SMILES CCCCCC(=O)N[C@H](CC(=O)O)C(=O)N[C@H]1C(=O)N[C@H](CCCN=C(N)N)C(=O)N[C@@H]2CC[C@H](O)N(C2=O)[C@@H](CC(C)C)C(=O)N(C)[C@@H](Cc2ccccc2)C(=O)N[C@H](C(C)C)C(=O)O[C@@H]1C
REMARK SMILES IDX 30 1 31 2 29 3 32 5 35 6 37 7 34 8 38 9 33 10 39 11 36 12
REMARK SMILES IDX 40 14 41 15 42 16 43 17 44 18 45 19 46 20 47 21 48 22 49 23
REMARK SMILES IDX 50 24 51 25 52 26 56 27 53 28 55 29 54 30 57 31 58 32 59 33
REMARK SMILES IDX 60 35 61 36 62 37 63 38 64 39 65 40 66 41 67 42 68 43 21 45
REMARK SMILES IDX 20 46 18 47 19 48 17 50 16 52 14 53 15 54 9 56 8 57 6 58
REMARK SMILES IDX 7 59 5 61 4 62 3 63 2 64 1 65 10 66 11 67 12 68 13 69 22 71
REMARK SMILES IDX 23 72 24 73 25 74 26 75 27 76 28 77
REMARK H PARENT 31 4 36 13 59 34 20 49 16 55 8 60 13 70 27 78 27 79 28 80
REMARK H PARENT 28 81
REMARK Flexibility Score:  259.900
ROOT
ATOM      1  O   UNL     1       3.147  -5.099  -3.108  1.00  0.00    -0.273 OA
ATOM      2  N   UNL     1       1.818  -4.791  -4.944  1.00  0.00    -0.343 N 
ATOM      3  C   UNL     1       2.115  -4.648  -3.606  1.00  0.00     0.243 C 
ATOM      4  H   UNL     1       0.967  -4.394  -5.321  1.00  0.00     0.164 HD
ENDROOT
BRANCH   2   5
ATOM      5  C   UNL     1       2.671  -5.596  -5.811  1.00  0.00     0.171 C 
ATOM      6  C   UNL     1       2.801  -5.916  -8.690  1.00  0.00     0.214 C 
ATOM      7  N   UNL     1       1.963  -6.800  -7.914  1.00  0.00    -0.303 N 
ATOM      8  C   UNL     1       4.018  -5.418  -7.927  1.00  0.00     0.057 C 
ATOM      9  C   UNL     1       1.816  -6.670  -6.542  1.00  0.00     0.247 C 
ATOM     10  C   UNL     1       3.578  -4.710  -6.665  1.00  0.00     0.040 C 
ATOM     11  O   UNL     1       1.030  -7.376  -5.897  1.00  0.00    -0.272 OA
BRANCH   6  12
ATOM     12  O   UNL     1       2.007  -4.832  -9.113  1.00  0.00    -0.373 OA
ATOM     13  H   UNL     1       2.616  -4.087  -9.303  1.00  0.00     0.213 HD
ENDBRANCH   6  12
BRANCH   7  14
ATOM     14  C   UNL     1       1.140  -7.774  -8.663  1.00  0.00     0.177 C 
BRANCH  14  15
ATOM     15  C   UNL     1       0.973  -7.472 -10.165  1.00  0.00     0.038 C 
BRANCH  15  16
ATOM     16  C   UNL     1      -0.046  -8.283 -10.995  1.00  0.00    -0.015 C 
ATOM     17  C   UNL     1       0.504  -8.683 -12.368  1.00  0.00     0.007 C 
ATOM     18  C   UNL     1      -1.318  -7.453 -11.211  1.00  0.00     0.007 C 
ENDBRANCH  15  16
ENDBRANCH  14  15
BRANCH  14  19
ATOM     19  C   UNL     1       1.282  -9.203  -8.035  1.00  0.00     0.245 C 
ATOM     20  O   UNL     1       2.404  -9.732  -8.097  1.00  0.00    -0.272 OA
BRANCH  19  21
ATOM     21  N   UNL     1       0.220  -9.932  -7.530  1.00  0.00    -0.332 N 
ATOM     22  C   UNL     1       0.194 -10.599  -6.240  1.00  0.00     0.147 C 
BRANCH  21  23
ATOM     23  C   UNL     1      -1.000 -10.060  -8.373  1.00  0.00     0.178 C 
BRANCH  23  24
ATOM     24  C   UNL     1      -1.080 -11.359  -9.201  1.00  0.00     0.070 C 
BRANCH  24  25
ATOM     25  C   UNL     1      -1.825 -11.295 -10.513  1.00  0.00    -0.045 A 
ATOM     26  C   UNL     1      -3.035 -10.596 -10.618  1.00  0.00     0.004 A 
ATOM     27  C   UNL     1      -1.315 -11.941 -11.649  1.00  0.00     0.004 A 
ATOM     28  C   UNL     1      -3.727 -10.556 -11.830  1.00  0.00     0.000 A 
ATOM     29  C   UNL     1      -2.007 -11.898 -12.861  1.00  0.00     0.000 A 
ATOM     30  C   UNL     1      -3.214 -11.208 -12.949  1.00  0.00     0.000 A 
ENDBRANCH  24  25
ENDBRANCH  23  24
BRANCH  23  31
ATOM     31  C   UNL     1      -2.298  -9.689  -7.617  1.00  0.00     0.243 C 
ATOM     32  O   UNL     1      -3.061 -10.511  -7.117  1.00  0.00    -0.273 OA
ATOM     33  N   UNL     1      -2.628  -8.347  -7.711  1.00  0.00    -0.341 N 
ATOM     34  H   UNL     1      -1.955  -7.711  -8.144  1.00  0.00     0.164 HD
BRANCH  33  35
ATOM     35  C   UNL     1      -3.874  -7.792  -7.174  1.00  0.00     0.194 C 
BRANCH  35  36
ATOM     36  C   UNL     1      -4.535  -6.719  -8.085  1.00  0.00     0.017 C 
ATOM     37  C   UNL     1      -5.752  -7.293  -8.831  1.00  0.00     0.010 C 
ATOM     38  C   UNL     1      -3.578  -6.148  -9.138  1.00  0.00     0.010 C 
ENDBRANCH  35  36
BRANCH  35  39
ATOM     39  C   UNL     1      -3.724  -7.296  -5.708  1.00  0.00     0.329 C 
ATOM     40  O   UNL     1      -4.436  -7.667  -4.783  1.00  0.00    -0.250 OA
BRANCH  39  41
ATOM     41  O   UNL     1      -2.651  -6.464  -5.548  1.00  0.00    -0.458 OA
BRANCH  41  42
ATOM     42  C   UNL     1      -1.769  -6.762  -4.440  1.00  0.00     0.205 CG0
ATOM     43  C   UNL     1      -1.880  -8.260  -4.161  1.00  0.00     0.056 C 
ATOM     44  G   UNL     1      -2.191  -5.904  -3.230  1.00  0.00     0.000 G0
ENDBRANCH  41  42
ENDBRANCH  39  41
ENDBRANCH  35  39
ENDBRANCH  33  35
ENDBRANCH  23  31
ENDBRANCH  21  23
ENDBRANCH  19  21
ENDBRANCH  14  19
ENDBRANCH   7  14
ENDBRANCH   2   5
BRANCH   3  45
ATOM     45  C   UNL     1       1.080  -3.869  -2.783  1.00  0.00     0.171 C 
BRANCH  45  46
ATOM     46  N   UNL     1      -0.220  -4.381  -3.198  1.00  0.00    -0.342 N 
ATOM     47  C   UNL     1      -0.848  -5.411  -2.544  1.00  0.00     0.247 C 
ATOM     48  O   UNL     1      -0.398  -5.926  -1.520  1.00  0.00    -0.273 OA
ATOM     49  H   UNL     1      -0.655  -3.945  -4.009  1.00  0.00     0.164 HD
BRANCH  47  50
ATOM     50  C   UNL     1      -2.149  -5.899  -3.198  1.00  0.00     0.212 CG0
ATOM     51  G   UNL     1      -1.765  -6.742  -4.430  1.00  0.00     0.000 G0
BRANCH  50  52
ATOM     52  N   UNL     1      -2.839  -6.667  -2.166  1.00  0.00    -0.339 N 
ATOM     53  C   UNL     1      -3.858  -6.157  -1.398  1.00  0.00     0.243 C 
ATOM     54  O   UNL     1      -4.233  -4.991  -1.486  1.00  0.00    -0.273 OA
ATOM     55  H   UNL     1      -2.500  -7.606  -1.969  1.00  0.00     0.164 HD
BRANCH  53  56
ATOM     56  C   UNL     1      -4.374  -7.126  -0.315  1.00  0.00     0.182 C 
BRANCH  56  57
ATOM     57  N   UNL     1      -5.636  -7.750  -0.726  1.00  0.00    -0.344 N 
ATOM     58  C   UNL     1      -5.679  -8.885  -1.498  1.00  0.00     0.220 C 
ATOM     59  O   UNL     1      -4.672  -9.413  -1.958  1.00  0.00    -0.275 OA
ATOM     60  H   UNL     1      -6.485  -7.406  -0.285  1.00  0.00     0.164 HD
BRANCH  58  61
ATOM     61  C   UNL     1      -7.088  -9.388  -1.751  1.00  0.00     0.100 C 
BRANCH  61  62
ATOM     62  C   UNL     1      -8.179  -8.450  -1.233  1.00  0.00     0.010 C 
BRANCH  62  63
ATOM     63  C   UNL     1      -8.263  -7.113  -1.979  1.00  0.00     0.000 C 
BRANCH  63  64
ATOM     64  C   UNL     1      -9.297  -7.085  -3.103  1.00  0.00    -0.003 C 
ATOM     65  C   UNL     1      -9.422  -5.695  -3.709  1.00  0.00     0.004 C 
ENDBRANCH  63  64
ENDBRANCH  62  63
ENDBRANCH  61  62
ENDBRANCH  58  61
ENDBRANCH  56  57
BRANCH  56  66
ATOM     66  C   UNL     1      -4.486  -6.438   1.044  1.00  0.00     0.157 C 
BRANCH  66  67
ATOM     67  C   UNL     1      -3.711  -7.180   2.095  1.00  0.00     0.305 C 
ATOM     68  O   UNL     1      -3.012  -8.168   1.928  1.00  0.00    -0.252 OA
BRANCH  67  69
ATOM     69  O   UNL     1      -3.814  -6.606   3.308  1.00  0.00    -0.481 OA
ATOM     70  H   UNL     1      -4.486  -7.140   3.782  1.00  0.00     0.296 HD
ENDBRANCH  67  69
ENDBRANCH  66  67
ENDBRANCH  56  66
ENDBRANCH  53  56
ENDBRANCH  50  52
ENDBRANCH  47  50
ENDBRANCH  45  46
BRANCH  45  71
ATOM     71  C   UNL     1       1.206  -2.365  -3.051  1.00  0.00     0.037 C 
BRANCH  71  72
ATOM     72  C   UNL     1      -0.125  -1.743  -3.479  1.00  0.00     0.026 C 
BRANCH  72  73
ATOM     73  C   UNL     1      -0.686  -0.822  -2.397  1.00  0.00     0.146 C 
BRANCH  73  74
ATOM     74  N   UNL     1      -0.977  -1.638  -1.222  1.00  0.00    -0.254 NA
ATOM     75  C   UNL     1      -2.148  -2.151  -1.125  1.00  0.00     0.185 C 
ATOM     76  N   UNL     1      -2.446  -2.908  -0.056  1.00  0.00    -0.370 N 
ATOM     77  N   UNL     1      -3.189  -2.049  -1.970  1.00  0.00    -0.370 N 
ATOM     78  H   UNL     1      -1.719  -3.031   0.634  1.00  0.00     0.159 HD
ATOM     79  H   UNL     1      -3.376  -3.220   0.159  1.00  0.00     0.159 HD
ATOM     80  H   UNL     1      -3.108  -1.512  -2.821  1.00  0.00     0.159 HD
ATOM     81  H   UNL     1      -4.026  -2.593  -1.845  1.00  0.00     0.159 HD
ENDBRANCH  73  74
ENDBRANCH  72  73
ENDBRANCH  71  72
ENDBRANCH  45  71
ENDBRANCH   3  45
TORSDOF 20
ENDMDL
MODEL 22
REMARK VINA RESULT:    -5.060      3.171      7.280
REMARK INTER + INTRA:         -21.698
REMARK INTER:                 -16.437
REMARK INTRA:                  -5.261
REMARK UNBOUND:                -7.173
REMARK SMILES CCCCCC(=O)N[C@H](CC(=O)O)C(=O)N[C@H]1C(=O)N[C@H](CCCN=C(N)N)C(=O)N[C@@H]2CC[C@H](O)N(C2=O)[C@@H](CC(C)C)C(=O)N(C)[C@@H](Cc2ccccc2)C(=O)N[C@H](C(C)C)C(=O)O[C@@H]1C
REMARK SMILES IDX 30 1 31 2 29 3 32 5 35 6 37 7 34 8 38 9 33 10 39 11 36 12
REMARK SMILES IDX 40 14 41 15 42 16 43 17 44 18 45 19 46 20 47 21 48 22 49 23
REMARK SMILES IDX 50 24 51 25 52 26 56 27 53 28 55 29 54 30 57 31 58 32 59 33
REMARK SMILES IDX 60 35 61 36 62 37 63 38 64 39 65 40 66 41 67 42 68 43 21 45
REMARK SMILES IDX 20 46 18 47 19 48 17 50 16 52 14 53 15 54 9 56 8 57 6 58
REMARK SMILES IDX 7 59 5 61 4 62 3 63 2 64 1 65 10 66 11 67 12 68 13 69 22 71
REMARK SMILES IDX 23 72 24 73 25 74 26 75 27 76 28 77
REMARK H PARENT 31 4 36 13 59 34 20 49 16 55 8 60 13 70 27 78 27 79 28 80
REMARK H PARENT 28 81
REMARK Flexibility Score:  259.900
ROOT
ATOM      1  O   UNL     1      -1.070  -9.472  -8.210  1.00  0.00    -0.273 OA
ATOM      2  N   UNL     1      -1.359  -7.223  -8.505  1.00  0.00    -0.343 N 
ATOM      3  C   UNL     1      -1.637  -8.426  -7.893  1.00  0.00     0.243 C 
ATOM      4  H   UNL     1      -1.835  -6.380  -8.207  1.00  0.00     0.164 HD
ENDROOT
BRANCH   2   5
ATOM      5  C   UNL     1      -0.456  -7.162  -9.649  1.00  0.00     0.171 C 
ATOM      6  C   UNL     1       1.112  -9.177 -11.022  1.00  0.00     0.214 C 
ATOM      7  N   UNL     1       1.701  -8.443  -9.927  1.00  0.00    -0.303 N 
ATOM      8  C   UNL     1       0.064  -8.382 -11.786  1.00  0.00     0.057 C 
ATOM      9  C   UNL     1       0.992  -7.504  -9.196  1.00  0.00     0.247 C 
ATOM     10  C   UNL     1      -1.027  -7.931 -10.839  1.00  0.00     0.040 C 
ATOM     11  O   UNL     1       1.477  -6.942  -8.205  1.00  0.00    -0.272 OA
BRANCH   6  12
ATOM     12  O   UNL     1       0.547 -10.356 -10.496  1.00  0.00    -0.373 OA
ATOM     13  H   UNL     1       0.353 -10.184  -9.550  1.00  0.00     0.213 HD
ENDBRANCH   6  12
BRANCH   7  14
ATOM     14  C   UNL     1       3.064  -8.838  -9.512  1.00  0.00     0.177 C 
BRANCH  14  15
ATOM     15  C   UNL     1       3.400 -10.331  -9.699  1.00  0.00     0.038 C 
BRANCH  15  16
ATOM     16  C   UNL     1       3.721 -11.199  -8.462  1.00  0.00    -0.015 C 
ATOM     17  C   UNL     1       5.002 -12.020  -8.641  1.00  0.00     0.007 C 
ATOM     18  C   UNL     1       2.563 -12.168  -8.195  1.00  0.00     0.007 C 
ENDBRANCH  15  16
ENDBRANCH  14  15
BRANCH  14  19
ATOM     19  C   UNL     1       4.063  -7.650  -9.726  1.00  0.00     0.245 C 
ATOM     20  O   UNL     1       3.875  -6.933 -10.724  1.00  0.00    -0.272 OA
BRANCH  19  21
ATOM     21  N   UNL     1       5.183  -7.433  -8.943  1.00  0.00    -0.332 N 
ATOM     22  C   UNL     1       6.426  -8.181  -9.025  1.00  0.00     0.147 C 
BRANCH  21  23
ATOM     23  C   UNL     1       5.119  -6.354  -7.920  1.00  0.00     0.178 C 
BRANCH  23  24
ATOM     24  C   UNL     1       4.136  -5.211  -8.248  1.00  0.00     0.070 C 
BRANCH  24  25
ATOM     25  C   UNL     1       4.224  -3.963  -7.400  1.00  0.00    -0.045 A 
ATOM     26  C   UNL     1       3.118  -3.515  -6.666  1.00  0.00     0.004 A 
ATOM     27  C   UNL     1       5.419  -3.231  -7.341  1.00  0.00     0.004 A 
ATOM     28  C   UNL     1       3.203  -2.351  -5.899  1.00  0.00     0.000 A 
ATOM     29  C   UNL     1       5.502  -2.069  -6.573  1.00  0.00     0.000 A 
ATOM     30  C   UNL     1       4.393  -1.628  -5.855  1.00  0.00     0.000 A 
ENDBRANCH  24  25
ENDBRANCH  23  24
BRANCH  23  31
ATOM     31  C   UNL     1       5.027  -6.897  -6.474  1.00  0.00     0.243 C 
ATOM     32  O   UNL     1       5.990  -7.310  -5.833  1.00  0.00    -0.273 OA
ATOM     33  N   UNL     1       3.727  -7.054  -6.024  1.00  0.00    -0.341 N 
ATOM     34  H   UNL     1       2.966  -6.697  -6.606  1.00  0.00     0.164 HD
BRANCH  33  35
ATOM     35  C   UNL     1       3.397  -7.663  -4.732  1.00  0.00     0.194 C 
BRANCH  35  36
ATOM     36  C   UNL     1       2.631  -9.011  -4.843  1.00  0.00     0.017 C 
ATOM     37  C   UNL     1       3.602 -10.197  -4.977  1.00  0.00     0.010 C 
ATOM     38  C   UNL     1       1.673  -9.065  -6.040  1.00  0.00     0.010 C 
ENDBRANCH  35  36
BRANCH  35  39
ATOM     39  C   UNL     1       2.690  -6.671  -3.767  1.00  0.00     0.329 C 
ATOM     40  O   UNL     1       3.150  -5.582  -3.444  1.00  0.00    -0.250 OA
BRANCH  39  41
ATOM     41  O   UNL     1       1.453  -7.111  -3.385  1.00  0.00    -0.458 OA
BRANCH  41  42
ATOM     42  C   UNL     1       0.321  -6.368  -3.899  1.00  0.00     0.205 CG0
ATOM     43  C   UNL     1       0.342  -4.993  -3.235  1.00  0.00     0.056 C 
ATOM     44  G   UNL     1      -0.967  -7.155  -3.586  1.00  0.00     0.000 G0
ENDBRANCH  41  42
ENDBRANCH  39  41
ENDBRANCH  35  39
ENDBRANCH  33  35
ENDBRANCH  23  31
ENDBRANCH  21  23
ENDBRANCH  19  21
ENDBRANCH  14  19
ENDBRANCH   7  14
ENDBRANCH   2   5
BRANCH   3  45
ATOM     45  C   UNL     1      -2.685  -8.368  -6.774  1.00  0.00     0.171 C 
BRANCH  45  46
ATOM     46  N   UNL     1      -1.930  -8.271  -5.531  1.00  0.00    -0.342 N 
ATOM     47  C   UNL     1      -1.929  -7.138  -4.758  1.00  0.00     0.247 C 
ATOM     48  O   UNL     1      -2.618  -6.151  -5.016  1.00  0.00    -0.273 OA
ATOM     49  H   UNL     1      -1.389  -9.087  -5.250  1.00  0.00     0.164 HD
BRANCH  47  50
ATOM     50  C   UNL     1      -0.978  -7.176  -3.552  1.00  0.00     0.212 CG0
ATOM     51  G   UNL     1       0.277  -6.361  -3.922  1.00  0.00     0.000 G0
BRANCH  50  52
ATOM     52  N   UNL     1      -1.734  -6.600  -2.443  1.00  0.00    -0.339 N 
ATOM     53  C   UNL     1      -1.819  -7.184  -1.202  1.00  0.00     0.243 C 
ATOM     54  O   UNL     1      -1.306  -8.270  -0.946  1.00  0.00    -0.273 OA
ATOM     55  H   UNL     1      -2.273  -5.756  -2.626  1.00  0.00     0.164 HD
BRANCH  53  56
ATOM     56  C   UNL     1      -2.743  -6.438  -0.219  1.00  0.00     0.182 C 
BRANCH  56  57
ATOM     57  N   UNL     1      -3.937  -5.929  -0.901  1.00  0.00    -0.344 N 
ATOM     58  C   UNL     1      -4.823  -6.755  -1.548  1.00  0.00     0.220 C 
ATOM     59  O   UNL     1      -4.642  -7.963  -1.663  1.00  0.00    -0.275 OA
ATOM     60  H   UNL     1      -4.176  -4.954  -0.744  1.00  0.00     0.164 HD
BRANCH  58  61
ATOM     61  C   UNL     1      -6.015  -6.019  -2.132  1.00  0.00     0.100 C 
BRANCH  61  62
ATOM     62  C   UNL     1      -6.002  -5.939  -3.658  1.00  0.00     0.010 C 
BRANCH  62  63
ATOM     63  C   UNL     1      -7.196  -5.185  -4.257  1.00  0.00     0.000 C 
BRANCH  63  64
ATOM     64  C   UNL     1      -7.102  -4.958  -5.765  1.00  0.00    -0.003 C 
ATOM     65  C   UNL     1      -6.936  -3.482  -6.096  1.00  0.00     0.004 C 
ENDBRANCH  63  64
ENDBRANCH  62  63
ENDBRANCH  61  62
ENDBRANCH  58  61
ENDBRANCH  56  57
BRANCH  56  66
ATOM     66  C   UNL     1      -1.992  -5.337   0.529  1.00  0.00     0.157 C 
BRANCH  66  67
ATOM     67  C   UNL     1      -2.264  -3.989  -0.074  1.00  0.00     0.305 C 
ATOM     68  O   UNL     1      -2.186  -3.684  -1.254  1.00  0.00    -0.252 OA
BRANCH  67  69
ATOM     69  O   UNL     1      -2.674  -3.092   0.843  1.00  0.00    -0.481 OA
ATOM     70  H   UNL     1      -2.608  -2.224   0.391  1.00  0.00     0.296 HD
ENDBRANCH  67  69
ENDBRANCH  66  67
ENDBRANCH  56  66
ENDBRANCH  53  56
ENDBRANCH  50  52
ENDBRANCH  47  50
ENDBRANCH  45  46
BRANCH  45  71
ATOM     71  C   UNL     1      -3.567  -9.621  -6.804  1.00  0.00     0.037 C 
BRANCH  71  72
ATOM     72  C   UNL     1      -5.053  -9.283  -6.658  1.00  0.00     0.026 C 
BRANCH  72  73
ATOM     73  C   UNL     1      -5.318  -7.802  -6.917  1.00  0.00     0.146 C 
BRANCH  73  74
ATOM     74  N   UNL     1      -5.832  -7.671  -8.277  1.00  0.00    -0.254 NA
ATOM     75  C   UNL     1      -5.546  -6.603  -8.926  1.00  0.00     0.185 C 
ATOM     76  N   UNL     1      -6.003  -6.454 -10.180  1.00  0.00    -0.370 N 
ATOM     77  N   UNL     1      -4.819  -5.543  -8.530  1.00  0.00    -0.370 N 
ATOM     78  H   UNL     1      -6.566  -7.204 -10.553  1.00  0.00     0.159 HD
ATOM     79  H   UNL     1      -5.943  -5.592 -10.692  1.00  0.00     0.159 HD
ATOM     80  H   UNL     1      -4.408  -5.518  -7.609  1.00  0.00     0.159 HD
ATOM     81  H   UNL     1      -4.564  -4.809  -9.169  1.00  0.00     0.159 HD
ENDBRANCH  73  74
ENDBRANCH  72  73
ENDBRANCH  71  72
ENDBRANCH  45  71
ENDBRANCH   3  45
TORSDOF 20
ENDMDL
MODEL 23
REMARK VINA RESULT:    -4.999      3.712      8.998
REMARK INTER + INTRA:         -21.524
REMARK INTER:                 -17.048
REMARK INTRA:                  -4.476
REMARK UNBOUND:                -7.173
REMARK SMILES CCCCCC(=O)N[C@H](CC(=O)O)C(=O)N[C@H]1C(=O)N[C@H](CCCN=C(N)N)C(=O)N[C@@H]2CC[C@H](O)N(C2=O)[C@@H](CC(C)C)C(=O)N(C)[C@@H](Cc2ccccc2)C(=O)N[C@H](C(C)C)C(=O)O[C@@H]1C
REMARK SMILES IDX 30 1 31 2 29 3 32 5 35 6 37 7 34 8 38 9 33 10 39 11 36 12
REMARK SMILES IDX 40 14 41 15 42 16 43 17 44 18 45 19 46 20 47 21 48 22 49 23
REMARK SMILES IDX 50 24 51 25 52 26 56 27 53 28 55 29 54 30 57 31 58 32 59 33
REMARK SMILES IDX 60 35 61 36 62 37 63 38 64 39 65 40 66 41 67 42 68 43 21 45
REMARK SMILES IDX 20 46 18 47 19 48 17 50 16 52 14 53 15 54 9 56 8 57 6 58
REMARK SMILES IDX 7 59 5 61 4 62 3 63 2 64 1 65 10 66 11 67 12 68 13 69 22 71
REMARK SMILES IDX 23 72 24 73 25 74 26 75 27 76 28 77
REMARK H PARENT 31 4 36 13 59 34 20 49 16 55 8 60 13 70 27 78 27 79 28 80
REMARK H PARENT 28 81
REMARK Flexibility Score:  259.900
ROOT
ATOM      1  O   UNL     1       2.913  -4.750  -2.867  1.00  0.00    -0.273 OA
ATOM      2  N   UNL     1       1.823  -4.639  -4.875  1.00  0.00    -0.343 N 
ATOM      3  C   UNL     1       1.999  -4.291  -3.553  1.00  0.00     0.243 C 
ATOM      4  H   UNL     1       1.069  -4.231  -5.412  1.00  0.00     0.164 HD
ENDROOT
BRANCH   2   5
ATOM      5  C   UNL     1       2.655  -5.670  -5.487  1.00  0.00     0.171 C 
ATOM      6  C   UNL     1       3.229  -6.346  -8.247  1.00  0.00     0.214 C 
ATOM      7  N   UNL     1       2.121  -6.984  -7.576  1.00  0.00    -0.303 N 
ATOM      8  C   UNL     1       4.363  -5.965  -7.309  1.00  0.00     0.057 C 
ATOM      9  C   UNL     1       1.761  -6.670  -6.275  1.00  0.00     0.247 C 
ATOM     10  C   UNL     1       3.843  -5.051  -6.221  1.00  0.00     0.040 C 
ATOM     11  O   UNL     1       0.758  -7.156  -5.736  1.00  0.00    -0.272 OA
BRANCH   6  12
ATOM     12  O   UNL     1       2.733  -5.205  -8.908  1.00  0.00    -0.373 OA
ATOM     13  H   UNL     1       1.987  -5.501  -9.472  1.00  0.00     0.213 HD
ENDBRANCH   6  12
BRANCH   7  14
ATOM     14  C   UNL     1       1.280  -7.892  -8.384  1.00  0.00     0.177 C 
BRANCH  14  15
ATOM     15  C   UNL     1       1.057  -7.454  -9.844  1.00  0.00     0.038 C 
BRANCH  15  16
ATOM     16  C   UNL     1       0.866  -8.526 -10.940  1.00  0.00    -0.015 C 
ATOM     17  C   UNL     1       2.135  -8.749 -11.767  1.00  0.00     0.007 C 
ATOM     18  C   UNL     1      -0.259  -8.101 -11.891  1.00  0.00     0.007 C 
ENDBRANCH  15  16
ENDBRANCH  14  15
BRANCH  14  19
ATOM     19  C   UNL     1       1.456  -9.372  -7.897  1.00  0.00     0.245 C 
ATOM     20  O   UNL     1       2.563  -9.898  -8.096  1.00  0.00    -0.272 OA
BRANCH  19  21
ATOM     21  N   UNL     1       0.430 -10.139  -7.374  1.00  0.00    -0.332 N 
ATOM     22  C   UNL     1       0.597 -11.360  -6.607  1.00  0.00     0.147 C 
BRANCH  21  23
ATOM     23  C   UNL     1      -0.969  -9.691  -7.620  1.00  0.00     0.178 C 
BRANCH  23  24
ATOM     24  C   UNL     1      -1.498  -9.978  -9.040  1.00  0.00     0.070 C 
BRANCH  24  25
ATOM     25  C   UNL     1      -2.865  -9.436  -9.388  1.00  0.00    -0.045 A 
ATOM     26  C   UNL     1      -3.031  -8.097  -9.765  1.00  0.00     0.004 A 
ATOM     27  C   UNL     1      -3.992 -10.269  -9.332  1.00  0.00     0.004 A 
ATOM     28  C   UNL     1      -4.300  -7.599 -10.069  1.00  0.00     0.000 A 
ATOM     29  C   UNL     1      -5.260  -9.771  -9.637  1.00  0.00     0.000 A 
ATOM     30  C   UNL     1      -5.413  -8.435 -10.002  1.00  0.00     0.000 A 
ENDBRANCH  24  25
ENDBRANCH  23  24
BRANCH  23  31
ATOM     31  C   UNL     1      -1.936 -10.073  -6.474  1.00  0.00     0.243 C 
ATOM     32  O   UNL     1      -2.331 -11.217  -6.262  1.00  0.00    -0.273 OA
ATOM     33  N   UNL     1      -2.470  -8.980  -5.813  1.00  0.00    -0.341 N 
ATOM     34  H   UNL     1      -2.104  -8.052  -6.037  1.00  0.00     0.164 HD
BRANCH  33  35
ATOM     35  C   UNL     1      -3.496  -9.099  -4.774  1.00  0.00     0.194 C 
BRANCH  35  36
ATOM     36  C   UNL     1      -4.915  -8.655  -5.228  1.00  0.00     0.017 C 
ATOM     37  C   UNL     1      -5.710  -9.835  -5.813  1.00  0.00     0.010 C 
ATOM     38  C   UNL     1      -4.890  -7.548  -6.290  1.00  0.00     0.010 C 
ENDBRANCH  35  36
BRANCH  35  39
ATOM     39  C   UNL     1      -3.076  -8.421  -3.439  1.00  0.00     0.329 C 
ATOM     40  O   UNL     1      -2.673  -9.033  -2.456  1.00  0.00    -0.250 OA
BRANCH  39  41
ATOM     41  O   UNL     1      -3.122  -7.057  -3.512  1.00  0.00    -0.458 OA
BRANCH  41  42
ATOM     42  C   UNL     1      -1.877  -6.359  -3.270  1.00  0.00     0.205 CG0
ATOM     43  C   UNL     1      -0.820  -7.414  -2.951  1.00  0.00     0.056 C 
ATOM     44  G   UNL     1      -2.087  -5.365  -2.110  1.00  0.00     0.000 G0
ENDBRANCH  41  42
ENDBRANCH  39  41
ENDBRANCH  35  39
ENDBRANCH  33  35
ENDBRANCH  23  31
ENDBRANCH  21  23
ENDBRANCH  19  21
ENDBRANCH  14  19
ENDBRANCH   7  14
ENDBRANCH   2   5
BRANCH   3  45
ATOM     45  C   UNL     1       0.989  -3.276  -3.001  1.00  0.00     0.171 C 
BRANCH  45  46
ATOM     46  N   UNL     1      -0.296  -3.963  -2.993  1.00  0.00    -0.342 N 
ATOM     47  C   UNL     1      -0.789  -4.588  -1.876  1.00  0.00     0.247 C 
ATOM     48  O   UNL     1      -0.221  -4.553  -0.784  1.00  0.00    -0.273 OA
ATOM     49  H   UNL     1      -0.827  -3.968  -3.862  1.00  0.00     0.164 HD
BRANCH  47  50
ATOM     50  C   UNL     1      -2.096  -5.365  -2.089  1.00  0.00     0.212 CG0
ATOM     51  G   UNL     1      -1.876  -6.337  -3.265  1.00  0.00     0.000 G0
BRANCH  50  52
ATOM     52  N   UNL     1      -2.358  -6.042  -0.822  1.00  0.00    -0.339 N 
ATOM     53  C   UNL     1      -3.622  -6.279  -0.339  1.00  0.00     0.243 C 
ATOM     54  O   UNL     1      -4.635  -5.889  -0.914  1.00  0.00    -0.273 OA
ATOM     55  H   UNL     1      -1.558  -6.291  -0.245  1.00  0.00     0.164 HD
BRANCH  53  56
ATOM     56  C   UNL     1      -3.648  -6.931   1.058  1.00  0.00     0.182 C 
BRANCH  56  57
ATOM     57  N   UNL     1      -4.696  -7.953   1.143  1.00  0.00    -0.344 N 
ATOM     58  C   UNL     1      -4.755  -8.863   2.171  1.00  0.00     0.220 C 
ATOM     59  O   UNL     1      -3.900  -8.931   3.047  1.00  0.00    -0.275 OA
ATOM     60  H   UNL     1      -5.477  -7.867   0.498  1.00  0.00     0.164 HD
BRANCH  58  61
ATOM     61  C   UNL     1      -5.955  -9.788   2.086  1.00  0.00     0.100 C 
BRANCH  61  62
ATOM     62  C   UNL     1      -7.043  -9.301   1.128  1.00  0.00     0.010 C 
BRANCH  62  63
ATOM     63  C   UNL     1      -7.366 -10.284  -0.005  1.00  0.00     0.000 C 
BRANCH  63  64
ATOM     64  C   UNL     1      -6.172 -11.112  -0.476  1.00  0.00    -0.003 C 
ATOM     65  C   UNL     1      -6.375 -11.621  -1.896  1.00  0.00     0.004 C 
ENDBRANCH  63  64
ENDBRANCH  62  63
ENDBRANCH  61  62
ENDBRANCH  58  61
ENDBRANCH  56  57
BRANCH  56  66
ATOM     66  C   UNL     1      -3.775  -5.883   2.163  1.00  0.00     0.157 C 
BRANCH  66  67
ATOM     67  C   UNL     1      -2.427  -5.483   2.690  1.00  0.00     0.305 C 
ATOM     68  O   UNL     1      -1.888  -5.888   3.708  1.00  0.00    -0.252 OA
BRANCH  67  69
ATOM     69  O   UNL     1      -1.793  -4.620   1.872  1.00  0.00    -0.481 OA
ATOM     70  H   UNL     1      -1.596  -5.140   1.065  1.00  0.00     0.296 HD
ENDBRANCH  67  69
ENDBRANCH  66  67
ENDBRANCH  56  66
ENDBRANCH  53  56
ENDBRANCH  50  52
ENDBRANCH  47  50
ENDBRANCH  45  46
BRANCH  45  71
ATOM     71  C   UNL     1       0.954  -2.023  -3.884  1.00  0.00     0.037 C 
BRANCH  71  72
ATOM     72  C   UNL     1       2.202  -1.156  -3.701  1.00  0.00     0.026 C 
BRANCH  72  73
ATOM     73  C   UNL     1       3.015  -1.064  -4.991  1.00  0.00     0.146 C 
BRANCH  73  74
ATOM     74  N   UNL     1       4.383  -0.701  -4.633  1.00  0.00    -0.254 NA
ATOM     75  C   UNL     1       5.315  -0.987  -5.464  1.00  0.00     0.185 C 
ATOM     76  N   UNL     1       6.584  -0.664  -5.163  1.00  0.00    -0.370 N 
ATOM     77  N   UNL     1       5.224  -1.593  -6.661  1.00  0.00    -0.370 N 
ATOM     78  H   UNL     1       6.742  -0.211  -4.275  1.00  0.00     0.159 HD
ATOM     79  H   UNL     1       7.376  -0.983  -5.692  1.00  0.00     0.159 HD
ATOM     80  H   UNL     1       4.329  -1.888  -7.020  1.00  0.00     0.159 HD
ATOM     81  H   UNL     1       6.015  -1.660  -7.280  1.00  0.00     0.159 HD
ENDBRANCH  73  74
ENDBRANCH  72  73
ENDBRANCH  71  72
ENDBRANCH  45  71
ENDBRANCH   3  45
TORSDOF 20
ENDMDL
MODEL 24
REMARK VINA RESULT:    -4.945      2.481      3.890
REMARK INTER + INTRA:         -21.367
REMARK INTER:                 -17.769
REMARK INTRA:                  -3.598
REMARK UNBOUND:                -7.173
REMARK SMILES CCCCCC(=O)N[C@H](CC(=O)O)C(=O)N[C@H]1C(=O)N[C@H](CCCN=C(N)N)C(=O)N[C@@H]2CC[C@H](O)N(C2=O)[C@@H](CC(C)C)C(=O)N(C)[C@@H](Cc2ccccc2)C(=O)N[C@H](C(C)C)C(=O)O[C@@H]1C
REMARK SMILES IDX 30 1 31 2 29 3 32 5 35 6 37 7 34 8 38 9 33 10 39 11 36 12
REMARK SMILES IDX 40 14 41 15 42 16 43 17 44 18 45 19 46 20 47 21 48 22 49 23
REMARK SMILES IDX 50 24 51 25 52 26 56 27 53 28 55 29 54 30 57 31 58 32 59 33
REMARK SMILES IDX 60 35 61 36 62 37 63 38 64 39 65 40 66 41 67 42 68 43 21 45
REMARK SMILES IDX 20 46 18 47 19 48 17 50 16 52 14 53 15 54 9 56 8 57 6 58
REMARK SMILES IDX 7 59 5 61 4 62 3 63 2 64 1 65 10 66 11 67 12 68 13 69 22 71
REMARK SMILES IDX 23 72 24 73 25 74 26 75 27 76 28 77
REMARK H PARENT 31 4 36 13 59 34 20 49 16 55 8 60 13 70 27 78 27 79 28 80
REMARK H PARENT 28 81
REMARK Flexibility Score:  259.900
ROOT
ATOM      1  O   UNL     1      -1.126  -6.119  -0.906  1.00  0.00    -0.273 OA
ATOM      2  N   UNL     1      -1.137  -4.731  -2.724  1.00  0.00    -0.343 N 
ATOM      3  C   UNL     1      -1.598  -5.810  -2.001  1.00  0.00     0.243 C 
ATOM      4  H   UNL     1      -1.559  -4.498  -3.614  1.00  0.00     0.164 HD
ENDROOT
BRANCH   2   5
ATOM      5  C   UNL     1       0.022  -3.972  -2.268  1.00  0.00     0.171 C 
ATOM      6  C   UNL     1       1.781  -2.086  -3.593  1.00  0.00     0.214 C 
ATOM      7  N   UNL     1       2.116  -3.491  -3.593  1.00  0.00    -0.303 N 
ATOM      8  C   UNL     1       0.995  -1.655  -2.365  1.00  0.00     0.057 C 
ATOM      9  C   UNL     1       1.295  -4.451  -3.023  1.00  0.00     0.247 C 
ATOM     10  C   UNL     1      -0.274  -2.473  -2.255  1.00  0.00     0.040 C 
ATOM     11  O   UNL     1       1.547  -5.660  -3.102  1.00  0.00    -0.272 OA
BRANCH   6  12
ATOM     12  O   UNL     1       1.047  -1.820  -4.766  1.00  0.00    -0.373 OA
ATOM     13  H   UNL     1       1.689  -1.520  -5.445  1.00  0.00     0.213 HD
ENDBRANCH   6  12
BRANCH   7  14
ATOM     14  C   UNL     1       3.313  -3.895  -4.361  1.00  0.00     0.177 C 
BRANCH  14  15
ATOM     15  C   UNL     1       3.477  -3.207  -5.730  1.00  0.00     0.038 C 
BRANCH  15  16
ATOM     16  C   UNL     1       4.785  -2.450  -6.050  1.00  0.00    -0.015 C 
ATOM     17  C   UNL     1       4.531  -1.004  -6.488  1.00  0.00     0.007 C 
ATOM     18  C   UNL     1       5.537  -3.168  -7.178  1.00  0.00     0.007 C 
ENDBRANCH  15  16
ENDBRANCH  14  15
BRANCH  14  19
ATOM     19  C   UNL     1       4.484  -4.266  -3.387  1.00  0.00     0.245 C 
ATOM     20  O   UNL     1       5.077  -3.322  -2.838  1.00  0.00    -0.272 OA
BRANCH  19  21
ATOM     21  N   UNL     1       4.953  -5.555  -3.201  1.00  0.00    -0.332 N 
ATOM     22  C   UNL     1       4.771  -6.353  -2.001  1.00  0.00     0.147 C 
BRANCH  21  23
ATOM     23  C   UNL     1       5.718  -6.184  -4.312  1.00  0.00     0.178 C 
BRANCH  23  24
ATOM     24  C   UNL     1       6.903  -7.064  -3.863  1.00  0.00     0.070 C 
BRANCH  24  25
ATOM     25  C   UNL     1       6.777  -8.554  -4.086  1.00  0.00    -0.045 A 
ATOM     26  C   UNL     1       6.344  -9.400  -3.057  1.00  0.00     0.004 A 
ATOM     27  C   UNL     1       7.099  -9.112  -5.332  1.00  0.00     0.004 A 
ATOM     28  C   UNL     1       6.247 -10.777  -3.267  1.00  0.00     0.000 A 
ATOM     29  C   UNL     1       7.001 -10.488  -5.541  1.00  0.00     0.000 A 
ATOM     30  C   UNL     1       6.577 -11.320  -4.506  1.00  0.00     0.000 A 
ENDBRANCH  24  25
ENDBRANCH  23  24
BRANCH  23  31
ATOM     31  C   UNL     1       4.807  -6.819  -5.390  1.00  0.00     0.243 C 
ATOM     32  O   UNL     1       5.006  -6.726  -6.599  1.00  0.00    -0.273 OA
ATOM     33  N   UNL     1       3.635  -7.350  -4.880  1.00  0.00    -0.341 N 
ATOM     34  H   UNL     1       3.524  -7.394  -3.864  1.00  0.00     0.164 HD
BRANCH  33  35
ATOM     35  C   UNL     1       2.570  -7.896  -5.727  1.00  0.00     0.194 C 
BRANCH  35  36
ATOM     36  C   UNL     1       3.000  -9.130  -6.570  1.00  0.00     0.017 C 
ATOM     37  C   UNL     1       2.055  -9.346  -7.765  1.00  0.00     0.010 C 
ATOM     38  C   UNL     1       3.025 -10.434  -5.763  1.00  0.00     0.010 C 
ENDBRANCH  35  36
BRANCH  35  39
ATOM     39  C   UNL     1       1.883  -6.808  -6.599  1.00  0.00     0.329 C 
ATOM     40  O   UNL     1       2.414  -6.262  -7.559  1.00  0.00    -0.250 OA
BRANCH  39  41
ATOM     41  O   UNL     1       0.585  -6.588  -6.228  1.00  0.00    -0.458 OA
BRANCH  41  42
ATOM     42  C   UNL     1      -0.396  -7.517  -6.748  1.00  0.00     0.205 CG0
ATOM     43  C   UNL     1      -0.225  -7.557  -8.265  1.00  0.00     0.056 C 
ATOM     44  G   UNL     1      -1.799  -7.038  -6.324  1.00  0.00     0.000 G0
ENDBRANCH  41  42
ENDBRANCH  39  41
ENDBRANCH  35  39
ENDBRANCH  33  35
ENDBRANCH  23  31
ENDBRANCH  21  23
ENDBRANCH  19  21
ENDBRANCH  14  19
ENDBRANCH   7  14
ENDBRANCH   2   5
BRANCH   3  45
ATOM     45  C   UNL     1      -2.753  -6.588  -2.645  1.00  0.00     0.171 C 
BRANCH  45  46
ATOM     46  N   UNL     1      -2.573  -6.441  -4.083  1.00  0.00    -0.342 N 
ATOM     47  C   UNL     1      -2.041  -7.436  -4.864  1.00  0.00     0.247 C 
ATOM     48  O   UNL     1      -1.746  -8.547  -4.421  1.00  0.00    -0.273 OA
ATOM     49  H   UNL     1      -2.857  -5.556  -4.500  1.00  0.00     0.164 HD
BRANCH  47  50
ATOM     50  C   UNL     1      -1.811  -7.057  -6.334  1.00  0.00     0.212 CG0
ATOM     51  G   UNL     1      -0.388  -7.510  -6.716  1.00  0.00     0.000 G0
BRANCH  50  52
ATOM     52  N   UNL     1      -2.857  -7.748  -7.082  1.00  0.00    -0.339 N 
ATOM     53  C   UNL     1      -3.950  -7.111  -7.617  1.00  0.00     0.243 C 
ATOM     54  O   UNL     1      -4.160  -5.911  -7.460  1.00  0.00    -0.273 OA
ATOM     55  H   UNL     1      -2.798  -8.762  -7.152  1.00  0.00     0.164 HD
BRANCH  53  56
ATOM     56  C   UNL     1      -4.963  -8.060  -8.289  1.00  0.00     0.182 C 
BRANCH  56  57
ATOM     57  N   UNL     1      -4.426  -9.421  -8.385  1.00  0.00    -0.344 N 
ATOM     58  C   UNL     1      -5.160 -10.468  -8.886  1.00  0.00     0.220 C 
ATOM     59  O   UNL     1      -6.335 -10.356  -9.220  1.00  0.00    -0.275 OA
ATOM     60  H   UNL     1      -3.430  -9.536  -8.216  1.00  0.00     0.164 HD
BRANCH  58  61
ATOM     61  C   UNL     1      -4.385 -11.772  -8.945  1.00  0.00     0.100 C 
BRANCH  61  62
ATOM     62  C   UNL     1      -3.383 -11.841 -10.099  1.00  0.00     0.010 C 
BRANCH  62  63
ATOM     63  C   UNL     1      -3.425 -10.630 -11.039  1.00  0.00     0.000 C 
BRANCH  63  64
ATOM     64  C   UNL     1      -2.049 -10.112 -11.455  1.00  0.00    -0.003 C 
ATOM     65  C   UNL     1      -1.546 -10.816 -12.707  1.00  0.00     0.004 C 
ENDBRANCH  63  64
ENDBRANCH  62  63
ENDBRANCH  61  62
ENDBRANCH  58  61
ENDBRANCH  56  57
BRANCH  56  66
ATOM     66  C   UNL     1      -5.419  -7.523  -9.645  1.00  0.00     0.157 C 
BRANCH  66  67
ATOM     67  C   UNL     1      -6.832  -7.021  -9.585  1.00  0.00     0.305 C 
ATOM     68  O   UNL     1      -7.218  -5.975  -9.085  1.00  0.00    -0.252 OA
BRANCH  67  69
ATOM     69  O   UNL     1      -7.695  -7.845 -10.209  1.00  0.00    -0.481 OA
ATOM     70  H   UNL     1      -7.129  -8.516 -10.646  1.00  0.00     0.296 HD
ENDBRANCH  67  69
ENDBRANCH  66  67
ENDBRANCH  56  66
ENDBRANCH  53  56
ENDBRANCH  50  52
ENDBRANCH  47  50
ENDBRANCH  45  46
BRANCH  45  71
ATOM     71  C   UNL     1      -4.101  -6.021  -2.183  1.00  0.00     0.037 C 
BRANCH  71  72
ATOM     72  C   UNL     1      -4.821  -5.264  -3.302  1.00  0.00     0.026 C 
BRANCH  72  73
ATOM     73  C   UNL     1      -6.194  -5.866  -3.591  1.00  0.00     0.146 C 
BRANCH  73  74
ATOM     74  N   UNL     1      -7.070  -4.786  -4.037  1.00  0.00    -0.254 NA
ATOM     75  C   UNL     1      -7.331  -4.705  -5.289  1.00  0.00     0.185 C 
ATOM     76  N   UNL     1      -8.135  -3.723  -5.729  1.00  0.00    -0.370 N 
ATOM     77  N   UNL     1      -6.905  -5.490  -6.294  1.00  0.00    -0.370 N 
ATOM     78  H   UNL     1      -8.494  -3.081  -5.037  1.00  0.00     0.159 HD
ATOM     79  H   UNL     1      -8.266  -3.509  -6.702  1.00  0.00     0.159 HD
ATOM     80  H   UNL     1      -6.296  -6.273  -6.111  1.00  0.00     0.159 HD
ATOM     81  H   UNL     1      -7.271  -5.398  -7.227  1.00  0.00     0.159 HD
ENDBRANCH  73  74
ENDBRANCH  72  73
ENDBRANCH  71  72
ENDBRANCH  45  71
ENDBRANCH   3  45
TORSDOF 20
ENDMDL
MODEL 25
REMARK VINA RESULT:    -4.825      3.813      7.458
REMARK INTER + INTRA:         -21.023
REMARK INTER:                 -15.184
REMARK INTRA:                  -5.839
REMARK UNBOUND:                -7.173
REMARK SMILES CCCCCC(=O)N[C@H](CC(=O)O)C(=O)N[C@H]1C(=O)N[C@H](CCCN=C(N)N)C(=O)N[C@@H]2CC[C@H](O)N(C2=O)[C@@H](CC(C)C)C(=O)N(C)[C@@H](Cc2ccccc2)C(=O)N[C@H](C(C)C)C(=O)O[C@@H]1C
REMARK SMILES IDX 30 1 31 2 29 3 32 5 35 6 37 7 34 8 38 9 33 10 39 11 36 12
REMARK SMILES IDX 40 14 41 15 42 16 43 17 44 18 45 19 46 20 47 21 48 22 49 23
REMARK SMILES IDX 50 24 51 25 52 26 56 27 53 28 55 29 54 30 57 31 58 32 59 33
REMARK SMILES IDX 60 35 61 36 62 37 63 38 64 39 65 40 66 41 67 42 68 43 21 45
REMARK SMILES IDX 20 46 18 47 19 48 17 50 16 52 14 53 15 54 9 56 8 57 6 58
REMARK SMILES IDX 7 59 5 61 4 62 3 63 2 64 1 65 10 66 11 67 12 68 13 69 22 71
REMARK SMILES IDX 23 72 24 73 25 74 26 75 27 76 28 77
REMARK H PARENT 31 4 36 13 59 34 20 49 16 55 8 60 13 70 27 78 27 79 28 80
REMARK H PARENT 28 81
REMARK Flexibility Score:  259.900
ROOT
ATOM      1  O   UNL     1      -1.643  -8.890  -7.781  1.00  0.00    -0.273 OA
ATOM      2  N   UNL     1      -1.789  -6.653  -8.235  1.00  0.00    -0.343 N 
ATOM      3  C   UNL     1      -2.166  -7.797  -7.563  1.00  0.00     0.243 C 
ATOM      4  H   UNL     1      -2.231  -5.768  -8.019  1.00  0.00     0.164 HD
ENDROOT
BRANCH   2   5
ATOM      5  C   UNL     1      -0.824  -6.718  -9.327  1.00  0.00     0.171 C 
ATOM      6  C   UNL     1       0.739  -8.890 -10.441  1.00  0.00     0.214 C 
ATOM      7  N   UNL     1       1.296  -8.087  -9.378  1.00  0.00    -0.303 N 
ATOM      8  C   UNL     1      -0.236  -8.127 -11.325  1.00  0.00     0.057 C 
ATOM      9  C   UNL     1       0.584  -7.067  -8.767  1.00  0.00     0.247 C 
ATOM     10  C   UNL     1      -1.359  -7.564 -10.481  1.00  0.00     0.040 C 
ATOM     11  O   UNL     1       1.036  -6.441  -7.799  1.00  0.00    -0.272 OA
BRANCH   6  12
ATOM     12  O   UNL     1       0.104 -10.002  -9.853  1.00  0.00    -0.373 OA
ATOM     13  H   UNL     1      -0.831  -9.751  -9.700  1.00  0.00     0.213 HD
ENDBRANCH   6  12
BRANCH   7  14
ATOM     14  C   UNL     1       2.619  -8.489  -8.856  1.00  0.00     0.177 C 
BRANCH  14  15
ATOM     15  C   UNL     1       2.814 -10.006  -8.662  1.00  0.00     0.038 C 
BRANCH  15  16
ATOM     16  C   UNL     1       3.875 -10.750  -9.502  1.00  0.00    -0.015 C 
ATOM     17  C   UNL     1       3.270 -11.882 -10.338  1.00  0.00     0.007 C 
ATOM     18  C   UNL     1       4.940 -11.353  -8.577  1.00  0.00     0.007 C 
ENDBRANCH  15  16
ENDBRANCH  14  15
BRANCH  14  19
ATOM     19  C   UNL     1       3.723  -7.488  -9.341  1.00  0.00     0.245 C 
ATOM     20  O   UNL     1       3.590  -7.020 -10.484  1.00  0.00    -0.272 OA
BRANCH  19  21
ATOM     21  N   UNL     1       4.868  -7.195  -8.622  1.00  0.00    -0.332 N 
ATOM     22  C   UNL     1       6.117  -7.932  -8.690  1.00  0.00     0.147 C 
BRANCH  21  23
ATOM     23  C   UNL     1       4.826  -6.035  -7.689  1.00  0.00     0.178 C 
BRANCH  23  24
ATOM     24  C   UNL     1       3.994  -4.836  -8.187  1.00  0.00     0.070 C 
BRANCH  24  25
ATOM     25  C   UNL     1       4.136  -3.537  -7.428  1.00  0.00    -0.045 A 
ATOM     26  C   UNL     1       3.012  -2.881  -6.910  1.00  0.00     0.004 A 
ATOM     27  C   UNL     1       5.403  -2.965  -7.235  1.00  0.00     0.004 A 
ATOM     28  C   UNL     1       3.150  -1.673  -6.224  1.00  0.00     0.000 A 
ATOM     29  C   UNL     1       5.540  -1.758  -6.548  1.00  0.00     0.000 A 
ATOM     30  C   UNL     1       4.413  -1.111  -6.046  1.00  0.00     0.000 A 
ENDBRANCH  24  25
ENDBRANCH  23  24
BRANCH  23  31
ATOM     31  C   UNL     1       4.559  -6.450  -6.222  1.00  0.00     0.243 C 
ATOM     32  O   UNL     1       5.418  -6.897  -5.467  1.00  0.00    -0.273 OA
ATOM     33  N   UNL     1       3.216  -6.448  -5.883  1.00  0.00    -0.341 N 
ATOM     34  H   UNL     1       2.546  -6.069  -6.557  1.00  0.00     0.164 HD
BRANCH  33  35
ATOM     35  C   UNL     1       2.719  -6.918  -4.587  1.00  0.00     0.194 C 
BRANCH  35  36
ATOM     36  C   UNL     1       2.175  -8.374  -4.606  1.00  0.00     0.017 C 
ATOM     37  C   UNL     1       3.276  -9.378  -4.988  1.00  0.00     0.010 C 
ATOM     38  C   UNL     1       1.013  -8.573  -5.586  1.00  0.00     0.010 C 
ENDBRANCH  35  36
BRANCH  35  39
ATOM     39  C   UNL     1       1.709  -5.929  -3.940  1.00  0.00     0.329 C 
ATOM     40  O   UNL     1       1.668  -4.730  -4.188  1.00  0.00    -0.250 OA
BRANCH  39  41
ATOM     41  O   UNL     1       0.811  -6.562  -3.127  1.00  0.00    -0.458 OA
BRANCH  41  42
ATOM     42  C   UNL     1      -0.480  -5.923  -2.977  1.00  0.00     0.205 CG0
ATOM     43  C   UNL     1      -0.494  -5.241  -1.611  1.00  0.00     0.056 C 
ATOM     44  G   UNL     1      -1.578  -6.997  -3.112  1.00  0.00     0.000 G0
ENDBRANCH  41  42
ENDBRANCH  39  41
ENDBRANCH  35  39
ENDBRANCH  33  35
ENDBRANCH  23  31
ENDBRANCH  21  23
ENDBRANCH  19  21
ENDBRANCH  14  19
ENDBRANCH   7  14
ENDBRANCH   2   5
BRANCH   3  45
ATOM     45  C   UNL     1      -3.268  -7.608  -6.512  1.00  0.00     0.171 C 
BRANCH  45  46
ATOM     46  N   UNL     1      -2.608  -7.745  -5.221  1.00  0.00    -0.342 N 
ATOM     47  C   UNL     1      -2.434  -6.686  -4.366  1.00  0.00     0.247 C 
ATOM     48  O   UNL     1      -2.885  -5.563  -4.594  1.00  0.00    -0.273 OA
ATOM     49  H   UNL     1      -2.268  -8.671  -4.967  1.00  0.00     0.164 HD
BRANCH  47  50
ATOM     50  C   UNL     1      -1.608  -6.993  -3.109  1.00  0.00     0.212 CG0
ATOM     51  G   UNL     1      -0.500  -5.925  -3.006  1.00  0.00     0.000 G0
BRANCH  50  52
ATOM     52  N   UNL     1      -2.556  -6.950  -2.000  1.00  0.00    -0.339 N 
ATOM     53  C   UNL     1      -2.813  -8.025  -1.184  1.00  0.00     0.243 C 
ATOM     54  O   UNL     1      -2.301  -9.127  -1.359  1.00  0.00    -0.273 OA
ATOM     55  H   UNL     1      -3.095  -6.096  -1.871  1.00  0.00     0.164 HD
BRANCH  53  56
ATOM     56  C   UNL     1      -3.915  -7.767  -0.136  1.00  0.00     0.182 C 
BRANCH  56  57
ATOM     57  N   UNL     1      -5.194  -7.456  -0.782  1.00  0.00    -0.344 N 
ATOM     58  C   UNL     1      -6.338  -8.176  -0.535  1.00  0.00     0.220 C 
ATOM     59  O   UNL     1      -6.354  -9.169   0.184  1.00  0.00    -0.275 OA
ATOM     60  H   UNL     1      -5.247  -6.585  -1.302  1.00  0.00     0.164 HD
BRANCH  58  61
ATOM     61  C   UNL     1      -7.555  -7.642  -1.267  1.00  0.00     0.100 C 
BRANCH  61  62
ATOM     62  C   UNL     1      -7.356  -7.510  -2.778  1.00  0.00     0.010 C 
BRANCH  62  63
ATOM     63  C   UNL     1      -8.265  -8.422  -3.612  1.00  0.00     0.000 C 
BRANCH  63  64
ATOM     64  C   UNL     1      -9.096  -9.402  -2.787  1.00  0.00    -0.003 C 
ATOM     65  C   UNL     1      -9.785 -10.429  -3.674  1.00  0.00     0.004 C 
ENDBRANCH  63  64
ENDBRANCH  62  63
ENDBRANCH  61  62
ENDBRANCH  58  61
ENDBRANCH  56  57
BRANCH  56  66
ATOM     66  C   UNL     1      -3.497  -6.690   0.863  1.00  0.00     0.157 C 
BRANCH  66  67
ATOM     67  C   UNL     1      -3.523  -7.213   2.270  1.00  0.00     0.305 C 
ATOM     68  O   UNL     1      -4.269  -6.860   3.170  1.00  0.00    -0.252 OA
BRANCH  67  69
ATOM     69  O   UNL     1      -2.632  -8.204   2.464  1.00  0.00    -0.481 OA
ATOM     70  H   UNL     1      -2.994  -8.723   3.213  1.00  0.00     0.296 HD
ENDBRANCH  67  69
ENDBRANCH  66  67
ENDBRANCH  56  66
ENDBRANCH  53  56
ENDBRANCH  50  52
ENDBRANCH  47  50
ENDBRANCH  45  46
BRANCH  45  71
ATOM     71  C   UNL     1      -4.369  -8.658  -6.699  1.00  0.00     0.037 C 
BRANCH  71  72
ATOM     72  C   UNL     1      -4.964  -9.111  -5.363  1.00  0.00     0.026 C 
BRANCH  72  73
ATOM     73  C   UNL     1      -5.118 -10.630  -5.305  1.00  0.00     0.146 C 
BRANCH  73  74
ATOM     74  N   UNL     1      -5.814 -10.961  -4.066  1.00  0.00    -0.254 NA
ATOM     75  C   UNL     1      -5.106 -11.177  -3.019  1.00  0.00     0.185 C 
ATOM     76  N   UNL     1      -5.718 -11.483  -1.864  1.00  0.00    -0.370 N 
ATOM     77  N   UNL     1      -3.769 -11.144  -2.883  1.00  0.00    -0.370 N 
ATOM     78  H   UNL     1      -6.726 -11.536  -1.881  1.00  0.00     0.159 HD
ATOM     79  H   UNL     1      -5.230 -11.804  -1.047  1.00  0.00     0.159 HD
ATOM     80  H   UNL     1      -3.177 -10.922  -3.670  1.00  0.00     0.159 HD
ATOM     81  H   UNL     1      -3.328 -11.217  -1.981  1.00  0.00     0.159 HD
ENDBRANCH  73  74
ENDBRANCH  72  73
ENDBRANCH  71  72
ENDBRANCH  45  71
ENDBRANCH   3  45
TORSDOF 20
ENDMDL
MODEL 26
REMARK VINA RESULT:    -4.784      2.271      3.858
REMARK INTER + INTRA:         -20.907
REMARK INTER:                 -15.491
REMARK INTRA:                  -5.416
REMARK UNBOUND:                -7.173
REMARK SMILES CCCCCC(=O)N[C@H](CC(=O)O)C(=O)N[C@H]1C(=O)N[C@H](CCCN=C(N)N)C(=O)N[C@@H]2CC[C@H](O)N(C2=O)[C@@H](CC(C)C)C(=O)N(C)[C@@H](Cc2ccccc2)C(=O)N[C@H](C(C)C)C(=O)O[C@@H]1C
REMARK SMILES IDX 30 1 31 2 29 3 32 5 35 6 37 7 34 8 38 9 33 10 39 11 36 12
REMARK SMILES IDX 40 14 41 15 42 16 43 17 44 18 45 19 46 20 47 21 48 22 49 23
REMARK SMILES IDX 50 24 51 25 52 26 56 27 53 28 55 29 54 30 57 31 58 32 59 33
REMARK SMILES IDX 60 35 61 36 62 37 63 38 64 39 65 40 66 41 67 42 68 43 21 45
REMARK SMILES IDX 20 46 18 47 19 48 17 50 16 52 14 53 15 54 9 56 8 57 6 58
REMARK SMILES IDX 7 59 5 61 4 62 3 63 2 64 1 65 10 66 11 67 12 68 13 69 22 71
REMARK SMILES IDX 23 72 24 73 25 74 26 75 27 76 28 77
REMARK H PARENT 31 4 36 13 59 34 20 49 16 55 8 60 13 70 27 78 27 79 28 80
REMARK H PARENT 28 81
REMARK Flexibility Score:  259.900
ROOT
ATOM      1  O   UNL     1      -2.082  -8.058  -1.645  1.00  0.00    -0.273 OA
ATOM      2  N   UNL     1      -1.993  -6.250  -3.044  1.00  0.00    -0.343 N 
ATOM      3  C   UNL     1      -2.465  -7.490  -2.668  1.00  0.00     0.243 C 
ATOM      4  H   UNL     1      -2.342  -5.807  -3.885  1.00  0.00     0.164 HD
ENDROOT
BRANCH   2   5
ATOM      5  C   UNL     1      -0.920  -5.606  -2.295  1.00  0.00     0.171 C 
ATOM      6  C   UNL     1       0.961  -3.507  -2.971  1.00  0.00     0.214 C 
ATOM      7  N   UNL     1       1.322  -4.886  -3.205  1.00  0.00    -0.303 N 
ATOM      8  C   UNL     1       0.011  -3.324  -1.798  1.00  0.00     0.057 C 
ATOM      9  C   UNL     1       0.452  -5.934  -2.952  1.00  0.00     0.247 C 
ATOM     10  C   UNL     1      -1.244  -4.138  -2.024  1.00  0.00     0.040 C 
ATOM     11  O   UNL     1       0.735  -7.105  -3.236  1.00  0.00    -0.272 OA
BRANCH   6  12
ATOM     12  O   UNL     1       0.385  -3.006  -4.155  1.00  0.00    -0.373 OA
ATOM     13  H   UNL     1      -0.132  -3.737  -4.555  1.00  0.00     0.213 HD
ENDBRANCH   6  12
BRANCH   7  14
ATOM     14  C   UNL     1       2.618  -5.136  -3.871  1.00  0.00     0.177 C 
BRANCH  14  15
ATOM     15  C   UNL     1       3.676  -5.842  -3.001  1.00  0.00     0.038 C 
BRANCH  15  16
ATOM     16  C   UNL     1       5.170  -5.496  -3.191  1.00  0.00    -0.015 C 
ATOM     17  C   UNL     1       5.947  -6.622  -3.880  1.00  0.00     0.007 C 
ATOM     18  C   UNL     1       5.818  -5.231  -1.826  1.00  0.00     0.007 C 
ENDBRANCH  15  16
ENDBRANCH  14  15
BRANCH  14  19
ATOM     19  C   UNL     1       2.404  -5.368  -5.406  1.00  0.00     0.245 C 
ATOM     20  O   UNL     1       1.231  -5.492  -5.795  1.00  0.00    -0.272 OA
BRANCH  19  21
ATOM     21  N   UNL     1       3.437  -5.550  -6.309  1.00  0.00    -0.332 N 
ATOM     22  C   UNL     1       4.425  -4.550  -6.672  1.00  0.00     0.147 C 
BRANCH  21  23
ATOM     23  C   UNL     1       3.548  -6.875  -6.981  1.00  0.00     0.178 C 
BRANCH  23  24
ATOM     24  C   UNL     1       4.949  -7.200  -7.538  1.00  0.00     0.070 C 
BRANCH  24  25
ATOM     25  C   UNL     1       5.012  -7.917  -8.866  1.00  0.00    -0.045 A 
ATOM     26  C   UNL     1       5.735  -9.109  -9.005  1.00  0.00     0.004 A 
ATOM     27  C   UNL     1       4.348  -7.393  -9.985  1.00  0.00     0.004 A 
ATOM     28  C   UNL     1       5.802  -9.756 -10.241  1.00  0.00     0.000 A 
ATOM     29  C   UNL     1       4.415  -8.042 -11.219  1.00  0.00     0.000 A 
ATOM     30  C   UNL     1       5.145  -9.221 -11.346  1.00  0.00     0.000 A 
ENDBRANCH  24  25
ENDBRANCH  23  24
BRANCH  23  31
ATOM     31  C   UNL     1       2.885  -8.017  -6.176  1.00  0.00     0.243 C 
ATOM     32  O   UNL     1       3.320  -8.449  -5.111  1.00  0.00    -0.273 OA
ATOM     33  N   UNL     1       1.853  -8.645  -6.853  1.00  0.00    -0.341 N 
ATOM     34  H   UNL     1       1.539  -8.242  -7.739  1.00  0.00     0.164 HD
BRANCH  33  35
ATOM     35  C   UNL     1       1.160  -9.827  -6.334  1.00  0.00     0.194 C 
BRANCH  35  36
ATOM     36  C   UNL     1       1.769 -11.178  -6.806  1.00  0.00     0.017 C 
ATOM     37  C   UNL     1       2.701 -11.775  -5.737  1.00  0.00     0.010 C 
ATOM     38  C   UNL     1       2.577 -11.056  -8.103  1.00  0.00     0.010 C 
ENDBRANCH  35  36
BRANCH  35  39
ATOM     39  C   UNL     1      -0.376  -9.770  -6.568  1.00  0.00     0.329 C 
ATOM     40  O   UNL     1      -1.121 -10.738  -6.471  1.00  0.00    -0.250 OA
BRANCH  39  41
ATOM     41  O   UNL     1      -0.818  -8.499  -6.808  1.00  0.00    -0.458 OA
BRANCH  41  42
ATOM     42  C   UNL     1      -1.762  -8.344  -7.895  1.00  0.00     0.205 CG0
ATOM     43  C   UNL     1      -1.047  -7.589  -9.013  1.00  0.00     0.056 C 
ATOM     44  G   UNL     1      -2.997  -7.586  -7.368  1.00  0.00     0.000 G0
ENDBRANCH  41  42
ENDBRANCH  39  41
ENDBRANCH  35  39
ENDBRANCH  33  35
ENDBRANCH  23  31
ENDBRANCH  21  23
ENDBRANCH  19  21
ENDBRANCH  14  19
ENDBRANCH   7  14
ENDBRANCH   2   5
BRANCH   3  45
ATOM     45  C   UNL     1      -3.516  -8.104  -3.603  1.00  0.00     0.171 C 
BRANCH  45  46
ATOM     46  N   UNL     1      -3.234  -7.559  -4.924  1.00  0.00    -0.342 N 
ATOM     47  C   UNL     1      -3.501  -8.251  -6.079  1.00  0.00     0.247 C 
ATOM     48  O   UNL     1      -4.063  -9.347  -6.086  1.00  0.00    -0.273 OA
ATOM     49  H   UNL     1      -2.820  -6.629  -4.966  1.00  0.00     0.164 HD
BRANCH  47  50
ATOM     50  C   UNL     1      -3.023  -7.572  -7.370  1.00  0.00     0.212 CG0
ATOM     51  G   UNL     1      -1.789  -8.346  -7.875  1.00  0.00     0.000 G0
BRANCH  50  52
ATOM     52  N   UNL     1      -4.158  -7.635  -8.286  1.00  0.00    -0.339 N 
ATOM     53  C   UNL     1      -4.860  -6.527  -8.696  1.00  0.00     0.243 C 
ATOM     54  O   UNL     1      -4.618  -5.398  -8.279  1.00  0.00    -0.273 OA
ATOM     55  H   UNL     1      -4.478  -8.555  -8.581  1.00  0.00     0.164 HD
BRANCH  53  56
ATOM     56  C   UNL     1      -6.071  -6.849  -9.596  1.00  0.00     0.182 C 
BRANCH  56  57
ATOM     57  N   UNL     1      -5.715  -7.829 -10.627  1.00  0.00    -0.344 N 
ATOM     58  C   UNL     1      -5.945  -9.175 -10.474  1.00  0.00     0.220 C 
ATOM     59  O   UNL     1      -6.395  -9.658  -9.441  1.00  0.00    -0.275 OA
ATOM     60  H   UNL     1      -5.436  -7.463 -11.533  1.00  0.00     0.164 HD
BRANCH  58  61
ATOM     61  C   UNL     1      -5.552  -9.994 -11.690  1.00  0.00     0.100 C 
BRANCH  61  62
ATOM     62  C   UNL     1      -4.051  -9.982 -11.981  1.00  0.00     0.010 C 
BRANCH  62  63
ATOM     63  C   UNL     1      -3.242 -10.980 -11.143  1.00  0.00     0.000 C 
BRANCH  63  64
ATOM     64  C   UNL     1      -4.007 -12.247 -10.766  1.00  0.00    -0.003 C 
ATOM     65  C   UNL     1      -3.989 -12.479  -9.262  1.00  0.00     0.004 C 
ENDBRANCH  63  64
ENDBRANCH  62  63
ENDBRANCH  61  62
ENDBRANCH  58  61
ENDBRANCH  56  57
BRANCH  56  66
ATOM     66  C   UNL     1      -6.679  -5.581 -10.191  1.00  0.00     0.157 C 
BRANCH  66  67
ATOM     67  C   UNL     1      -7.873  -5.899 -11.045  1.00  0.00     0.305 C 
ATOM     68  O   UNL     1      -8.023  -6.880 -11.757  1.00  0.00    -0.252 OA
BRANCH  67  69
ATOM     69  O   UNL     1      -8.852  -4.983 -10.918  1.00  0.00    -0.481 OA
ATOM     70  H   UNL     1      -8.976  -4.623 -11.822  1.00  0.00     0.296 HD
ENDBRANCH  67  69
ENDBRANCH  66  67
ENDBRANCH  56  66
ENDBRANCH  53  56
ENDBRANCH  50  52
ENDBRANCH  47  50
ENDBRANCH  45  46
BRANCH  45  71
ATOM     71  C   UNL     1      -4.928  -7.740  -3.130  1.00  0.00     0.037 C 
BRANCH  71  72
ATOM     72  C   UNL     1      -5.315  -8.481  -1.849  1.00  0.00     0.026 C 
BRANCH  72  73
ATOM     73  C   UNL     1      -6.194  -9.694  -2.147  1.00  0.00     0.146 C 
BRANCH  73  74
ATOM     74  N   UNL     1      -5.629 -10.382  -3.304  1.00  0.00    -0.254 NA
ATOM     75  C   UNL     1      -5.177 -11.569  -3.134  1.00  0.00     0.185 C 
ATOM     76  N   UNL     1      -4.652 -12.228  -4.180  1.00  0.00    -0.370 N 
ATOM     77  N   UNL     1      -5.141 -12.306  -2.010  1.00  0.00    -0.370 N 
ATOM     78  H   UNL     1      -4.633 -11.740  -5.064  1.00  0.00     0.159 HD
ATOM     79  H   UNL     1      -4.152 -13.095  -4.094  1.00  0.00     0.159 HD
ATOM     80  H   UNL     1      -5.506 -11.940  -1.144  1.00  0.00     0.159 HD
ATOM     81  H   UNL     1      -4.866 -13.275  -2.022  1.00  0.00     0.159 HD
ENDBRANCH  73  74
ENDBRANCH  72  73
ENDBRANCH  71  72
ENDBRANCH  45  71
ENDBRANCH   3  45
TORSDOF 20
ENDMDL
MODEL 27
REMARK VINA RESULT:    -4.769      3.422      7.680
REMARK INTER + INTRA:         -20.862
REMARK INTER:                 -15.625
REMARK INTRA:                  -5.237
REMARK UNBOUND:                -7.173
REMARK SMILES CCCCCC(=O)N[C@H](CC(=O)O)C(=O)N[C@H]1C(=O)N[C@H](CCCN=C(N)N)C(=O)N[C@@H]2CC[C@H](O)N(C2=O)[C@@H](CC(C)C)C(=O)N(C)[C@@H](Cc2ccccc2)C(=O)N[C@H](C(C)C)C(=O)O[C@@H]1C
REMARK SMILES IDX 30 1 31 2 29 3 32 5 35 6 37 7 34 8 38 9 33 10 39 11 36 12
REMARK SMILES IDX 40 14 41 15 42 16 43 17 44 18 45 19 46 20 47 21 48 22 49 23
REMARK SMILES IDX 50 24 51 25 52 26 56 27 53 28 55 29 54 30 57 31 58 32 59 33
REMARK SMILES IDX 60 35 61 36 62 37 63 38 64 39 65 40 66 41 67 42 68 43 21 45
REMARK SMILES IDX 20 46 18 47 19 48 17 50 16 52 14 53 15 54 9 56 8 57 6 58
REMARK SMILES IDX 7 59 5 61 4 62 3 63 2 64 1 65 10 66 11 67 12 68 13 69 22 71
REMARK SMILES IDX 23 72 24 73 25 74 26 75 27 76 28 77
REMARK H PARENT 31 4 36 13 59 34 20 49 16 55 8 60 13 70 27 78 27 79 28 80
REMARK H PARENT 28 81
REMARK Flexibility Score:  259.900
ROOT
ATOM      1  O   UNL     1       2.438  -6.746  -3.269  1.00  0.00    -0.273 OA
ATOM      2  N   UNL     1       2.162  -5.420  -5.112  1.00  0.00    -0.343 N 
ATOM      3  C   UNL     1       1.924  -5.760  -3.798  1.00  0.00     0.243 C 
ATOM      4  H   UNL     1       1.733  -4.593  -5.509  1.00  0.00     0.164 HD
ENDROOT
BRANCH   2   5
ATOM      5  C   UNL     1       2.951  -6.293  -5.974  1.00  0.00     0.171 C 
ATOM      6  C   UNL     1       3.121  -6.580  -8.854  1.00  0.00     0.214 C 
ATOM      7  N   UNL     1       2.178  -7.386  -8.114  1.00  0.00    -0.303 N 
ATOM      8  C   UNL     1       4.363  -6.220  -8.054  1.00  0.00     0.057 C 
ATOM      9  C   UNL     1       2.010  -7.264  -6.744  1.00  0.00     0.247 C 
ATOM     10  C   UNL     1       3.964  -5.491  -6.789  1.00  0.00     0.040 C 
ATOM     11  O   UNL     1       1.141  -7.896  -6.131  1.00  0.00    -0.272 OA
BRANCH   6  12
ATOM     12  O   UNL     1       2.452  -5.414  -9.276  1.00  0.00    -0.373 OA
ATOM     13  H   UNL     1       2.285  -5.511 -10.238  1.00  0.00     0.213 HD
ENDBRANCH   6  12
BRANCH   7  14
ATOM     14  C   UNL     1       1.281  -8.259  -8.900  1.00  0.00     0.177 C 
BRANCH  14  15
ATOM     15  C   UNL     1       1.097  -7.853 -10.375  1.00  0.00     0.038 C 
BRANCH  15  16
ATOM     16  C   UNL     1       0.968  -8.948 -11.457  1.00  0.00    -0.015 C 
ATOM     17  C   UNL     1       2.211  -9.039 -12.348  1.00  0.00     0.007 C 
ATOM     18  C   UNL     1      -0.244  -8.656 -12.350  1.00  0.00     0.007 C 
ENDBRANCH  15  16
ENDBRANCH  14  15
BRANCH  14  19
ATOM     19  C   UNL     1       1.350  -9.732  -8.367  1.00  0.00     0.245 C 
ATOM     20  O   UNL     1       2.481 -10.235  -8.260  1.00  0.00    -0.272 OA
BRANCH  19  21
ATOM     21  N   UNL     1       0.237 -10.517  -8.125  1.00  0.00    -0.332 N 
ATOM     22  C   UNL     1      -0.021 -11.258  -6.903  1.00  0.00     0.147 C 
BRANCH  21  23
ATOM     23  C   UNL     1      -0.783 -10.630  -9.203  1.00  0.00     0.178 C 
BRANCH  23  24
ATOM     24  C   UNL     1      -0.858 -12.014  -9.880  1.00  0.00     0.070 C 
BRANCH  24  25
ATOM     25  C   UNL     1      -1.116 -12.039 -11.369  1.00  0.00    -0.045 A 
ATOM     26  C   UNL     1      -2.379 -11.719 -11.883  1.00  0.00     0.004 A 
ATOM     27  C   UNL     1      -0.090 -12.390 -12.259  1.00  0.00     0.004 A 
ATOM     28  C   UNL     1      -2.615 -11.761 -13.259  1.00  0.00     0.000 A 
ATOM     29  C   UNL     1      -0.327 -12.431 -13.634  1.00  0.00     0.000 A 
ATOM     30  C   UNL     1      -1.590 -12.119 -14.133  1.00  0.00     0.000 A 
ENDBRANCH  24  25
ENDBRANCH  23  24
BRANCH  23  31
ATOM     31  C   UNL     1      -2.151 -10.024  -8.806  1.00  0.00     0.243 C 
ATOM     32  O   UNL     1      -3.183 -10.679  -8.687  1.00  0.00    -0.273 OA
ATOM     33  N   UNL     1      -2.155  -8.640  -8.775  1.00  0.00    -0.341 N 
ATOM     34  H   UNL     1      -1.264  -8.150  -8.887  1.00  0.00     0.164 HD
BRANCH  33  35
ATOM     35  C   UNL     1      -3.366  -7.850  -8.539  1.00  0.00     0.194 C 
BRANCH  35  36
ATOM     36  C   UNL     1      -3.347  -6.445  -9.204  1.00  0.00     0.017 C 
ATOM     37  C   UNL     1      -4.773  -5.906  -9.413  1.00  0.00     0.010 C 
ATOM     38  C   UNL     1      -2.647  -6.431 -10.569  1.00  0.00     0.010 C 
ENDBRANCH  35  36
BRANCH  35  39
ATOM     39  C   UNL     1      -3.747  -7.774  -7.034  1.00  0.00     0.329 C 
ATOM     40  O   UNL     1      -4.351  -8.656  -6.434  1.00  0.00    -0.250 OA
BRANCH  39  41
ATOM     41  O   UNL     1      -3.257  -6.650  -6.429  1.00  0.00    -0.458 OA
BRANCH  41  42
ATOM     42  C   UNL     1      -2.210  -6.853  -5.451  1.00  0.00     0.205 CG0
ATOM     43  C   UNL     1      -2.231  -8.330  -5.063  1.00  0.00     0.056 C 
ATOM     44  G   UNL     1      -2.472  -5.923  -4.250  1.00  0.00     0.000 G0
ENDBRANCH  41  42
ENDBRANCH  39  41
ENDBRANCH  35  39
ENDBRANCH  33  35
ENDBRANCH  23  31
ENDBRANCH  21  23
ENDBRANCH  19  21
ENDBRANCH  14  19
ENDBRANCH   7  14
ENDBRANCH   2   5
BRANCH   3  45
ATOM     45  C   UNL     1       0.990  -4.813  -3.033  1.00  0.00     0.171 C 
BRANCH  45  46
ATOM     46  N   UNL     1      -0.304  -4.916  -3.695  1.00  0.00    -0.342 N 
ATOM     47  C   UNL     1      -1.239  -5.857  -3.342  1.00  0.00     0.247 C 
ATOM     48  O   UNL     1      -1.083  -6.631  -2.396  1.00  0.00    -0.273 OA
ATOM     49  H   UNL     1      -0.497  -4.257  -4.447  1.00  0.00     0.164 HD
BRANCH  47  50
ATOM     50  C   UNL     1      -2.490  -5.897  -4.231  1.00  0.00     0.212 CG0
ATOM     51  G   UNL     1      -2.186  -6.826  -5.423  1.00  0.00     0.000 G0
BRANCH  50  52
ATOM     52  N   UNL     1      -3.562  -6.391  -3.372  1.00  0.00    -0.339 N 
ATOM     53  C   UNL     1      -4.547  -5.586  -2.853  1.00  0.00     0.243 C 
ATOM     54  O   UNL     1      -4.570  -4.371  -3.030  1.00  0.00    -0.273 OA
ATOM     55  H   UNL     1      -3.535  -7.372  -3.098  1.00  0.00     0.164 HD
BRANCH  53  56
ATOM     56  C   UNL     1      -5.520  -6.316  -1.905  1.00  0.00     0.182 C 
BRANCH  56  57
ATOM     57  N   UNL     1      -4.791  -7.151  -0.944  1.00  0.00    -0.344 N 
ATOM     58  C   UNL     1      -5.189  -7.287   0.363  1.00  0.00     0.220 C 
ATOM     59  O   UNL     1      -6.134  -6.665   0.837  1.00  0.00    -0.275 OA
ATOM     60  H   UNL     1      -4.068  -7.760  -1.319  1.00  0.00     0.164 HD
BRANCH  58  61
ATOM     61  C   UNL     1      -4.323  -8.245   1.159  1.00  0.00     0.100 C 
BRANCH  61  62
ATOM     62  C   UNL     1      -5.045  -8.894   2.340  1.00  0.00     0.010 C 
BRANCH  62  63
ATOM     63  C   UNL     1      -6.313  -9.666   1.953  1.00  0.00     0.000 C 
BRANCH  63  64
ATOM     64  C   UNL     1      -6.177 -11.185   2.056  1.00  0.00    -0.003 C 
ATOM     65  C   UNL     1      -5.364 -11.749   0.900  1.00  0.00     0.004 C 
ENDBRANCH  63  64
ENDBRANCH  62  63
ENDBRANCH  61  62
ENDBRANCH  58  61
ENDBRANCH  56  57
BRANCH  56  66
ATOM     66  C   UNL     1      -6.568  -7.111  -2.681  1.00  0.00     0.157 C 
BRANCH  66  67
ATOM     67  C   UNL     1      -7.712  -6.235  -3.104  1.00  0.00     0.305 C 
ATOM     68  O   UNL     1      -8.589  -5.778  -2.387  1.00  0.00    -0.252 OA
BRANCH  67  69
ATOM     69  O   UNL     1      -7.665  -5.931  -4.415  1.00  0.00    -0.481 OA
ATOM     70  H   UNL     1      -8.565  -5.605  -4.628  1.00  0.00     0.296 HD
ENDBRANCH  67  69
ENDBRANCH  66  67
ENDBRANCH  56  66
ENDBRANCH  53  56
ENDBRANCH  50  52
ENDBRANCH  47  50
ENDBRANCH  45  46
BRANCH  45  71
ATOM     71  C   UNL     1       1.532  -3.380  -3.074  1.00  0.00     0.037 C 
BRANCH  71  72
ATOM     72  C   UNL     1       0.508  -2.392  -3.637  1.00  0.00     0.026 C 
BRANCH  72  73
ATOM     73  C   UNL     1      -0.251  -1.675  -2.522  1.00  0.00     0.146 C 
BRANCH  73  74
ATOM     74  N   UNL     1      -0.794  -2.691  -1.626  1.00  0.00    -0.254 NA
ATOM     75  C   UNL     1      -2.063  -2.712  -1.444  1.00  0.00     0.185 C 
ATOM     76  N   UNL     1      -2.593  -3.636  -0.626  1.00  0.00    -0.370 N 
ATOM     77  N   UNL     1      -3.006  -1.913  -1.972  1.00  0.00    -0.370 N 
ATOM     78  H   UNL     1      -1.950  -4.275  -0.181  1.00  0.00     0.159 HD
ATOM     79  H   UNL     1      -3.551  -3.624  -0.324  1.00  0.00     0.159 HD
ATOM     80  H   UNL     1      -2.754  -1.173  -2.610  1.00  0.00     0.159 HD
ATOM     81  H   UNL     1      -3.987  -2.099  -1.846  1.00  0.00     0.159 HD
ENDBRANCH  73  74
ENDBRANCH  72  73
ENDBRANCH  71  72
ENDBRANCH  45  71
ENDBRANCH   3  45
TORSDOF 20
ENDMDL
MODEL 28
REMARK VINA RESULT:    -4.756      3.417      7.401
REMARK INTER + INTRA:         -20.825
REMARK INTER:                 -17.076
REMARK INTRA:                  -3.749
REMARK UNBOUND:                -7.173
REMARK SMILES CCCCCC(=O)N[C@H](CC(=O)O)C(=O)N[C@H]1C(=O)N[C@H](CCCN=C(N)N)C(=O)N[C@@H]2CC[C@H](O)N(C2=O)[C@@H](CC(C)C)C(=O)N(C)[C@@H](Cc2ccccc2)C(=O)N[C@H](C(C)C)C(=O)O[C@@H]1C
REMARK SMILES IDX 30 1 31 2 29 3 32 5 35 6 37 7 34 8 38 9 33 10 39 11 36 12
REMARK SMILES IDX 40 14 41 15 42 16 43 17 44 18 45 19 46 20 47 21 48 22 49 23
REMARK SMILES IDX 50 24 51 25 52 26 56 27 53 28 55 29 54 30 57 31 58 32 59 33
REMARK SMILES IDX 60 35 61 36 62 37 63 38 64 39 65 40 66 41 67 42 68 43 21 45
REMARK SMILES IDX 20 46 18 47 19 48 17 50 16 52 14 53 15 54 9 56 8 57 6 58
REMARK SMILES IDX 7 59 5 61 4 62 3 63 2 64 1 65 10 66 11 67 12 68 13 69 22 71
REMARK SMILES IDX 23 72 24 73 25 74 26 75 27 76 28 77
REMARK H PARENT 31 4 36 13 59 34 20 49 16 55 8 60 13 70 27 78 27 79 28 80
REMARK H PARENT 28 81
REMARK Flexibility Score:  259.900
ROOT
ATOM      1  O   UNL     1      -2.448  -8.599  -8.115  1.00  0.00    -0.273 OA
ATOM      2  N   UNL     1      -2.271  -6.422  -8.795  1.00  0.00    -0.343 N 
ATOM      3  C   UNL     1      -2.938  -7.473  -8.203  1.00  0.00     0.243 C 
ATOM      4  H   UNL     1      -2.700  -5.506  -8.837  1.00  0.00     0.164 HD
ENDROOT
BRANCH   2   5
ATOM      5  C   UNL     1      -0.987  -6.636  -9.455  1.00  0.00     0.171 C 
ATOM      6  C   UNL     1       0.694  -8.977  -9.770  1.00  0.00     0.214 C 
ATOM      7  N   UNL     1       0.895  -8.106  -8.636  1.00  0.00    -0.303 N 
ATOM      8  C   UNL     1       0.164  -8.253 -10.998  1.00  0.00     0.057 C 
ATOM      9  C   UNL     1       0.095  -7.000  -8.398  1.00  0.00     0.247 C 
ATOM     10  C   UNL     1      -1.138  -7.560 -10.662  1.00  0.00     0.040 C 
ATOM     11  O   UNL     1       0.218  -6.308  -7.378  1.00  0.00    -0.272 OA
BRANCH   6  12
ATOM     12  O   UNL     1      -0.196  -9.996  -9.377  1.00  0.00    -0.373 OA
ATOM     13  H   UNL     1      -0.357 -10.557 -10.166  1.00  0.00     0.213 HD
ENDBRANCH   6  12
BRANCH   7  14
ATOM     14  C   UNL     1       1.906  -8.522  -7.641  1.00  0.00     0.177 C 
BRANCH  14  15
ATOM     15  C   UNL     1       2.198 -10.035  -7.596  1.00  0.00     0.038 C 
BRANCH  15  16
ATOM     16  C   UNL     1       1.662 -10.878  -6.418  1.00  0.00    -0.015 C 
ATOM     17  C   UNL     1       2.769 -11.671  -5.716  1.00  0.00     0.007 C 
ATOM     18  C   UNL     1       0.609 -11.870  -6.926  1.00  0.00     0.007 C 
ENDBRANCH  15  16
ENDBRANCH  14  15
BRANCH  14  19
ATOM     19  C   UNL     1       2.969  -7.387  -7.438  1.00  0.00     0.245 C 
ATOM     20  O   UNL     1       3.350  -6.789  -8.458  1.00  0.00    -0.272 OA
BRANCH  19  21
ATOM     21  N   UNL     1       3.572  -7.103  -6.226  1.00  0.00    -0.332 N 
ATOM     22  C   UNL     1       4.477  -7.983  -5.508  1.00  0.00     0.147 C 
BRANCH  21  23
ATOM     23  C   UNL     1       3.266  -5.793  -5.587  1.00  0.00     0.178 C 
BRANCH  23  24
ATOM     24  C   UNL     1       2.923  -4.658  -6.574  1.00  0.00     0.070 C 
BRANCH  24  25
ATOM     25  C   UNL     1       3.550  -3.308  -6.314  1.00  0.00    -0.045 A 
ATOM     26  C   UNL     1       4.834  -3.009  -6.788  1.00  0.00     0.004 A 
ATOM     27  C   UNL     1       2.851  -2.332  -5.587  1.00  0.00     0.004 A 
ATOM     28  C   UNL     1       5.412  -1.765  -6.528  1.00  0.00     0.000 A 
ATOM     29  C   UNL     1       3.430  -1.088  -5.330  1.00  0.00     0.000 A 
ATOM     30  C   UNL     1       4.712  -0.807  -5.799  1.00  0.00     0.000 A 
ENDBRANCH  24  25
ENDBRANCH  23  24
BRANCH  23  31
ATOM     31  C   UNL     1       2.307  -5.919  -4.380  1.00  0.00     0.243 C 
ATOM     32  O   UNL     1       2.662  -6.251  -3.252  1.00  0.00    -0.273 OA
ATOM     33  N   UNL     1       0.970  -5.805  -4.722  1.00  0.00    -0.341 N 
ATOM     34  H   UNL     1       0.736  -5.532  -5.679  1.00  0.00     0.164 HD
BRANCH  33  35
ATOM     35  C   UNL     1      -0.120  -6.008  -3.763  1.00  0.00     0.194 C 
BRANCH  35  36
ATOM     36  C   UNL     1      -0.772  -7.417  -3.832  1.00  0.00     0.017 C 
ATOM     37  C   UNL     1      -0.897  -8.045  -2.433  1.00  0.00     0.010 C 
ATOM     38  C   UNL     1       0.010  -8.403  -4.710  1.00  0.00     0.010 C 
ENDBRANCH  35  36
BRANCH  35  39
ATOM     39  C   UNL     1      -1.181  -4.874  -3.816  1.00  0.00     0.329 C 
ATOM     40  O   UNL     1      -0.971  -3.720  -3.462  1.00  0.00    -0.250 OA
BRANCH  39  41
ATOM     41  O   UNL     1      -2.355  -5.286  -4.385  1.00  0.00    -0.458 OA
BRANCH  41  42
ATOM     42  C   UNL     1      -3.542  -5.163  -3.566  1.00  0.00     0.205 CG0
ATOM     43  C   UNL     1      -3.088  -5.151  -2.107  1.00  0.00     0.056 C 
ATOM     44  G   UNL     1      -4.481  -6.345  -3.881  1.00  0.00     0.000 G0
ENDBRANCH  41  42
ENDBRANCH  39  41
ENDBRANCH  35  39
ENDBRANCH  33  35
ENDBRANCH  23  31
ENDBRANCH  21  23
ENDBRANCH  19  21
ENDBRANCH  14  19
ENDBRANCH   7  14
ENDBRANCH   2   5
BRANCH   3  45
ATOM     45  C   UNL     1      -4.327  -7.136  -7.643  1.00  0.00     0.171 C 
BRANCH  45  46
ATOM     46  N   UNL     1      -4.180  -7.147  -6.193  1.00  0.00    -0.342 N 
ATOM     47  C   UNL     1      -4.865  -6.282  -5.377  1.00  0.00     0.247 C 
ATOM     48  O   UNL     1      -5.706  -5.488  -5.801  1.00  0.00    -0.273 OA
ATOM     49  H   UNL     1      -3.535  -7.827  -5.795  1.00  0.00     0.164 HD
BRANCH  47  50
ATOM     50  C   UNL     1      -4.489  -6.355  -3.891  1.00  0.00     0.212 CG0
ATOM     51  G   UNL     1      -3.542  -5.177  -3.590  1.00  0.00     0.000 G0
BRANCH  50  52
ATOM     52  N   UNL     1      -5.754  -6.278  -3.165  1.00  0.00    -0.339 N 
ATOM     53  C   UNL     1      -6.502  -7.381  -2.829  1.00  0.00     0.243 C 
ATOM     54  O   UNL     1      -6.187  -8.520  -3.162  1.00  0.00    -0.273 OA
ATOM     55  H   UNL     1      -6.125  -5.353  -2.957  1.00  0.00     0.164 HD
BRANCH  53  56
ATOM     56  C   UNL     1      -7.841  -7.046  -2.141  1.00  0.00     0.182 C 
BRANCH  56  57
ATOM     57  N   UNL     1      -8.212  -8.086  -1.177  1.00  0.00    -0.344 N 
ATOM     58  C   UNL     1      -7.868  -8.014   0.151  1.00  0.00     0.220 C 
ATOM     59  O   UNL     1      -7.167  -7.117   0.608  1.00  0.00    -0.275 OA
ATOM     60  H   UNL     1      -8.875  -8.789  -1.490  1.00  0.00     0.164 HD
BRANCH  58  61
ATOM     61  C   UNL     1      -8.407  -9.169   0.975  1.00  0.00     0.100 C 
BRANCH  61  62
ATOM     62  C   UNL     1      -7.839  -9.232   2.393  1.00  0.00     0.010 C 
BRANCH  62  63
ATOM     63  C   UNL     1      -8.651  -8.445   3.430  1.00  0.00     0.000 C 
BRANCH  63  64
ATOM     64  C   UNL     1      -7.815  -7.851   4.562  1.00  0.00    -0.003 C 
ATOM     65  C   UNL     1      -7.889  -8.709   5.816  1.00  0.00     0.004 C 
ENDBRANCH  63  64
ENDBRANCH  62  63
ENDBRANCH  61  62
ENDBRANCH  58  61
ENDBRANCH  56  57
BRANCH  56  66
ATOM     66  C   UNL     1      -8.946  -6.787  -3.164  1.00  0.00     0.157 C 
BRANCH  66  67
ATOM     67  C   UNL     1      -8.883  -5.382  -3.689  1.00  0.00     0.305 C 
ATOM     68  O   UNL     1      -9.153  -5.010  -4.821  1.00  0.00    -0.252 OA
BRANCH  67  69
ATOM     69  O   UNL     1      -8.528  -4.496  -2.739  1.00  0.00    -0.481 OA
ATOM     70  H   UNL     1      -7.660  -4.147  -3.034  1.00  0.00     0.296 HD
ENDBRANCH  67  69
ENDBRANCH  66  67
ENDBRANCH  56  66
ENDBRANCH  53  56
ENDBRANCH  50  52
ENDBRANCH  47  50
ENDBRANCH  45  46
BRANCH  45  71
ATOM     71  C   UNL     1      -5.357  -8.169  -8.114  1.00  0.00     0.037 C 
BRANCH  71  72
ATOM     72  C   UNL     1      -5.616  -8.078  -9.620  1.00  0.00     0.026 C 
BRANCH  72  73
ATOM     73  C   UNL     1      -6.905  -7.317  -9.922  1.00  0.00     0.146 C 
BRANCH  73  74
ATOM     74  N   UNL     1      -6.577  -5.898 -10.010  1.00  0.00    -0.254 NA
ATOM     75  C   UNL     1      -7.509  -5.051  -9.771  1.00  0.00     0.185 C 
ATOM     76  N   UNL     1      -7.238  -3.738  -9.843  1.00  0.00    -0.370 N 
ATOM     77  N   UNL     1      -8.793  -5.279  -9.440  1.00  0.00    -0.370 N 
ATOM     78  H   UNL     1      -6.294  -3.479 -10.094  1.00  0.00     0.159 HD
ATOM     79  H   UNL     1      -7.944  -3.024  -9.812  1.00  0.00     0.159 HD
ATOM     80  H   UNL     1      -9.139  -6.221  -9.346  1.00  0.00     0.159 HD
ATOM     81  H   UNL     1      -9.407  -4.531  -9.162  1.00  0.00     0.159 HD
ENDBRANCH  73  74
ENDBRANCH  72  73
ENDBRANCH  71  72
ENDBRANCH  45  71
ENDBRANCH   3  45
TORSDOF 20
ENDMDL
MODEL 29
REMARK VINA RESULT:    -4.721      2.681      6.221
REMARK INTER + INTRA:         -20.726
REMARK INTER:                 -15.050
REMARK INTRA:                  -5.675
REMARK UNBOUND:                -7.173
REMARK SMILES CCCCCC(=O)N[C@H](CC(=O)O)C(=O)N[C@H]1C(=O)N[C@H](CCCN=C(N)N)C(=O)N[C@@H]2CC[C@H](O)N(C2=O)[C@@H](CC(C)C)C(=O)N(C)[C@@H](Cc2ccccc2)C(=O)N[C@H](C(C)C)C(=O)O[C@@H]1C
REMARK SMILES IDX 30 1 31 2 29 3 32 5 35 6 37 7 34 8 38 9 33 10 39 11 36 12
REMARK SMILES IDX 40 14 41 15 42 16 43 17 44 18 45 19 46 20 47 21 48 22 49 23
REMARK SMILES IDX 50 24 51 25 52 26 56 27 53 28 55 29 54 30 57 31 58 32 59 33
REMARK SMILES IDX 60 35 61 36 62 37 63 38 64 39 65 40 66 41 67 42 68 43 21 45
REMARK SMILES IDX 20 46 18 47 19 48 17 50 16 52 14 53 15 54 9 56 8 57 6 58
REMARK SMILES IDX 7 59 5 61 4 62 3 63 2 64 1 65 10 66 11 67 12 68 13 69 22 71
REMARK SMILES IDX 23 72 24 73 25 74 26 75 27 76 28 77
REMARK H PARENT 31 4 36 13 59 34 20 49 16 55 8 60 13 70 27 78 27 79 28 80
REMARK H PARENT 28 81
REMARK Flexibility Score:  259.900
ROOT
ATOM      1  O   UNL     1      -0.393  -8.033  -6.374  1.00  0.00    -0.273 OA
ATOM      2  N   UNL     1      -0.150  -9.845  -7.748  1.00  0.00    -0.343 N 
ATOM      3  C   UNL     1      -0.902  -8.892  -7.094  1.00  0.00     0.243 C 
ATOM      4  H   UNL     1      -0.602 -10.528  -8.344  1.00  0.00     0.164 HD
ENDROOT
BRANCH   2   5
ATOM      5  C   UNL     1       1.286  -9.947  -7.515  1.00  0.00     0.171 C 
ATOM      6  C   UNL     1       3.078  -8.598  -5.678  1.00  0.00     0.214 C 
ATOM      7  N   UNL     1       2.860  -8.043  -6.994  1.00  0.00    -0.303 N 
ATOM      8  C   UNL     1       2.947 -10.112  -5.634  1.00  0.00     0.057 C 
ATOM      9  C   UNL     1       1.979  -8.608  -7.901  1.00  0.00     0.247 C 
ATOM     10  C   UNL     1       1.577 -10.522  -6.130  1.00  0.00     0.040 C 
ATOM     11  O   UNL     1       1.733  -8.080  -8.993  1.00  0.00    -0.272 OA
BRANCH   6  12
ATOM     12  O   UNL     1       2.154  -7.998  -4.800  1.00  0.00    -0.373 OA
ATOM     13  H   UNL     1       1.261  -8.304  -5.068  1.00  0.00     0.213 HD
ENDBRANCH   6  12
BRANCH   7  14
ATOM     14  C   UNL     1       3.509  -6.749  -7.291  1.00  0.00     0.177 C 
BRANCH  14  15
ATOM     15  C   UNL     1       4.296  -6.699  -8.615  1.00  0.00     0.038 C 
BRANCH  15  16
ATOM     16  C   UNL     1       5.511  -7.632  -8.814  1.00  0.00    -0.015 C 
ATOM     17  C   UNL     1       5.237  -8.738  -9.837  1.00  0.00     0.007 C 
ATOM     18  C   UNL     1       5.882  -8.293  -7.480  1.00  0.00     0.007 C 
ENDBRANCH  15  16
ENDBRANCH  14  15
BRANCH  14  19
ATOM     19  C   UNL     1       2.671  -5.569  -6.690  1.00  0.00     0.245 C 
ATOM     20  O   UNL     1       1.607  -5.288  -7.266  1.00  0.00    -0.272 OA
BRANCH  19  21
ATOM     21  N   UNL     1       3.101  -4.772  -5.644  1.00  0.00    -0.332 N 
ATOM     22  C   UNL     1       3.888  -3.558  -5.778  1.00  0.00     0.147 C 
BRANCH  21  23
ATOM     23  C   UNL     1       2.745  -5.188  -4.259  1.00  0.00     0.178 C 
BRANCH  23  24
ATOM     24  C   UNL     1       3.933  -5.255  -3.279  1.00  0.00     0.070 C 
BRANCH  24  25
ATOM     25  C   UNL     1       4.819  -6.477  -3.354  1.00  0.00    -0.045 A 
ATOM     26  C   UNL     1       4.486  -7.648  -2.661  1.00  0.00     0.004 A 
ATOM     27  C   UNL     1       5.995  -6.453  -4.119  1.00  0.00     0.004 A 
ATOM     28  C   UNL     1       5.319  -8.767  -2.721  1.00  0.00     0.000 A 
ATOM     29  C   UNL     1       6.826  -7.573  -4.179  1.00  0.00     0.000 A 
ATOM     30  C   UNL     1       6.488  -8.728  -3.478  1.00  0.00     0.000 A 
ENDBRANCH  24  25
ENDBRANCH  23  24
BRANCH  23  31
ATOM     31  C   UNL     1       1.491  -4.462  -3.715  1.00  0.00     0.243 C 
ATOM     32  O   UNL     1       1.460  -3.268  -3.425  1.00  0.00    -0.273 OA
ATOM     33  N   UNL     1       0.448  -5.317  -3.403  1.00  0.00    -0.341 N 
ATOM     34  H   UNL     1       0.535  -6.303  -3.663  1.00  0.00     0.164 HD
BRANCH  33  35
ATOM     35  C   UNL     1      -0.791  -4.866  -2.764  1.00  0.00     0.194 C 
BRANCH  35  36
ATOM     36  C   UNL     1      -0.814  -5.052  -1.221  1.00  0.00     0.017 C 
ATOM     37  C   UNL     1      -2.252  -5.019  -0.675  1.00  0.00     0.010 C 
ATOM     38  C   UNL     1      -0.014  -3.979  -0.472  1.00  0.00     0.010 C 
ENDBRANCH  35  36
BRANCH  35  39
ATOM     39  C   UNL     1      -2.061  -5.458  -3.439  1.00  0.00     0.329 C 
ATOM     40  O   UNL     1      -2.992  -4.782  -3.859  1.00  0.00    -0.250 OA
BRANCH  39  41
ATOM     41  O   UNL     1      -1.985  -6.815  -3.590  1.00  0.00    -0.458 OA
BRANCH  41  42
ATOM     42  C   UNL     1      -2.981  -7.595  -2.887  1.00  0.00     0.205 CG0
ATOM     43  C   UNL     1      -2.238  -8.652  -2.073  1.00  0.00     0.056 C 
ATOM     44  G   UNL     1      -3.941  -8.214  -3.922  1.00  0.00     0.000 G0
ENDBRANCH  41  42
ENDBRANCH  39  41
ENDBRANCH  35  39
ENDBRANCH  33  35
ENDBRANCH  23  31
ENDBRANCH  21  23
ENDBRANCH  19  21
ENDBRANCH  14  19
ENDBRANCH   7  14
ENDBRANCH   2   5
BRANCH   3  45
ATOM     45  C   UNL     1      -2.414  -8.963  -7.343  1.00  0.00     0.171 C 
BRANCH  45  46
ATOM     46  N   UNL     1      -3.034  -8.338  -6.183  1.00  0.00    -0.342 N 
ATOM     47  C   UNL     1      -3.188  -8.994  -4.987  1.00  0.00     0.247 C 
ATOM     48  O   UNL     1      -2.750 -10.127  -4.786  1.00  0.00    -0.273 OA
ATOM     49  H   UNL     1      -3.361  -7.379  -6.289  1.00  0.00     0.164 HD
BRANCH  47  50
ATOM     50  C   UNL     1      -3.974  -8.222  -3.919  1.00  0.00     0.212 CG0
ATOM     51  G   UNL     1      -2.955  -7.626  -2.928  1.00  0.00     0.000 G0
BRANCH  50  52
ATOM     52  N   UNL     1      -4.730  -7.207  -4.648  1.00  0.00    -0.339 N 
ATOM     53  C   UNL     1      -6.043  -7.366  -5.022  1.00  0.00     0.243 C 
ATOM     54  O   UNL     1      -6.669  -8.402  -4.816  1.00  0.00    -0.273 OA
ATOM     55  H   UNL     1      -4.233  -6.370  -4.946  1.00  0.00     0.164 HD
BRANCH  53  56
ATOM     56  C   UNL     1      -6.603  -6.197  -5.858  1.00  0.00     0.182 C 
BRANCH  56  57
ATOM     57  N   UNL     1      -5.729  -5.899  -6.998  1.00  0.00    -0.344 N 
ATOM     58  C   UNL     1      -5.702  -6.679  -8.128  1.00  0.00     0.220 C 
ATOM     59  O   UNL     1      -6.349  -7.716  -8.234  1.00  0.00    -0.275 OA
ATOM     60  H   UNL     1      -5.256  -5.000  -6.992  1.00  0.00     0.164 HD
BRANCH  58  61
ATOM     61  C   UNL     1      -4.769  -6.151  -9.201  1.00  0.00     0.100 C 
BRANCH  61  62
ATOM     62  C   UNL     1      -4.846  -6.921 -10.519  1.00  0.00     0.010 C 
BRANCH  62  63
ATOM     63  C   UNL     1      -3.586  -7.732 -10.847  1.00  0.00     0.000 C 
BRANCH  63  64
ATOM     64  C   UNL     1      -2.327  -7.250 -10.129  1.00  0.00    -0.003 C 
ATOM     65  C   UNL     1      -1.103  -7.347 -11.028  1.00  0.00     0.004 C 
ENDBRANCH  63  64
ENDBRANCH  62  63
ENDBRANCH  61  62
ENDBRANCH  58  61
ENDBRANCH  56  57
BRANCH  56  66
ATOM     66  C   UNL     1      -6.864  -4.965  -4.994  1.00  0.00     0.157 C 
BRANCH  66  67
ATOM     67  C   UNL     1      -7.047  -3.737  -5.839  1.00  0.00     0.305 C 
ATOM     68  O   UNL     1      -8.015  -3.461  -6.530  1.00  0.00    -0.252 OA
BRANCH  67  69
ATOM     69  O   UNL     1      -6.012  -2.882  -5.730  1.00  0.00    -0.481 OA
ATOM     70  H   UNL     1      -5.923  -2.718  -4.768  1.00  0.00     0.296 HD
ENDBRANCH  67  69
ENDBRANCH  66  67
ENDBRANCH  56  66
ENDBRANCH  53  56
ENDBRANCH  50  52
ENDBRANCH  47  50
ENDBRANCH  45  46
BRANCH  45  71
ATOM     71  C   UNL     1      -2.860 -10.421  -7.507  1.00  0.00     0.037 C 
BRANCH  71  72
ATOM     72  C   UNL     1      -4.300 -10.529  -8.015  1.00  0.00     0.026 C 
BRANCH  72  73
ATOM     73  C   UNL     1      -4.996 -11.773  -7.467  1.00  0.00     0.146 C 
BRANCH  73  74
ATOM     74  N   UNL     1      -5.886 -11.349  -6.390  1.00  0.00    -0.254 NA
ATOM     75  C   UNL     1      -5.623 -11.752  -5.202  1.00  0.00     0.185 C 
ATOM     76  N   UNL     1      -6.423 -11.378  -4.190  1.00  0.00    -0.370 N 
ATOM     77  N   UNL     1      -4.616 -12.535  -4.779  1.00  0.00    -0.370 N 
ATOM     78  H   UNL     1      -7.212 -10.793  -4.424  1.00  0.00     0.159 HD
ATOM     79  H   UNL     1      -6.366 -11.768  -3.266  1.00  0.00     0.159 HD
ATOM     80  H   UNL     1      -3.932 -12.889  -5.431  1.00  0.00     0.159 HD
ATOM     81  H   UNL     1      -4.444 -12.691  -3.799  1.00  0.00     0.159 HD
ENDBRANCH  73  74
ENDBRANCH  72  73
ENDBRANCH  71  72
ENDBRANCH  45  71
ENDBRANCH   3  45
TORSDOF 20
ENDMDL
MODEL 30
REMARK VINA RESULT:    -4.693      3.484      9.183
REMARK INTER + INTRA:         -20.645
REMARK INTER:                 -18.212
REMARK INTRA:                  -2.432
REMARK UNBOUND:                -7.173
REMARK SMILES CCCCCC(=O)N[C@H](CC(=O)O)C(=O)N[C@H]1C(=O)N[C@H](CCCN=C(N)N)C(=O)N[C@@H]2CC[C@H](O)N(C2=O)[C@@H](CC(C)C)C(=O)N(C)[C@@H](Cc2ccccc2)C(=O)N[C@H](C(C)C)C(=O)O[C@@H]1C
REMARK SMILES IDX 30 1 31 2 29 3 32 5 35 6 37 7 34 8 38 9 33 10 39 11 36 12
REMARK SMILES IDX 40 14 41 15 42 16 43 17 44 18 45 19 46 20 47 21 48 22 49 23
REMARK SMILES IDX 50 24 51 25 52 26 56 27 53 28 55 29 54 30 57 31 58 32 59 33
REMARK SMILES IDX 60 35 61 36 62 37 63 38 64 39 65 40 66 41 67 42 68 43 21 45
REMARK SMILES IDX 20 46 18 47 19 48 17 50 16 52 14 53 15 54 9 56 8 57 6 58
REMARK SMILES IDX 7 59 5 61 4 62 3 63 2 64 1 65 10 66 11 67 12 68 13 69 22 71
REMARK SMILES IDX 23 72 24 73 25 74 26 75 27 76 28 77
REMARK H PARENT 31 4 36 13 59 34 20 49 16 55 8 60 13 70 27 78 27 79 28 80
REMARK H PARENT 28 81
REMARK Flexibility Score:  259.900
ROOT
ATOM      1  O   UNL     1       2.130  -7.103  -3.591  1.00  0.00    -0.273 OA
ATOM      2  N   UNL     1       0.718  -6.225  -5.162  1.00  0.00    -0.343 N 
ATOM      3  C   UNL     1       1.287  -6.262  -3.908  1.00  0.00     0.243 C 
ATOM      4  H   UNL     1       0.039  -5.510  -5.392  1.00  0.00     0.164 HD
ENDROOT
BRANCH   2   5
ATOM      5  C   UNL     1       1.008  -7.268  -6.140  1.00  0.00     0.171 C 
ATOM      6  C   UNL     1       0.897  -7.330  -9.037  1.00  0.00     0.214 C 
ATOM      7  N   UNL     1      -0.264  -7.722  -8.272  1.00  0.00    -0.303 N 
ATOM      8  C   UNL     1       2.210  -7.611  -8.323  1.00  0.00     0.057 C 
ATOM      9  C   UNL     1      -0.296  -7.667  -6.888  1.00  0.00     0.247 C 
ATOM     10  C   UNL     1       2.228  -6.902  -6.986  1.00  0.00     0.040 C 
ATOM     11  O   UNL     1      -1.322  -7.921  -6.245  1.00  0.00    -0.272 OA
BRANCH   6  12
ATOM     12  O   UNL     1       0.778  -5.957  -9.327  1.00  0.00    -0.373 OA
ATOM     13  H   UNL     1       0.002  -5.624  -8.828  1.00  0.00     0.213 HD
ENDBRANCH   6  12
BRANCH   7  14
ATOM     14  C   UNL     1      -1.488  -8.050  -9.034  1.00  0.00     0.177 C 
BRANCH  14  15
ATOM     15  C   UNL     1      -1.603  -7.376 -10.414  1.00  0.00     0.038 C 
BRANCH  15  16
ATOM     16  C   UNL     1      -1.469  -8.232 -11.693  1.00  0.00    -0.015 C 
ATOM     17  C   UNL     1      -2.405  -9.444 -11.686  1.00  0.00     0.007 C 
ATOM     18  C   UNL     1      -0.027  -8.738 -11.829  1.00  0.00     0.007 C 
ENDBRANCH  15  16
ENDBRANCH  14  15
BRANCH  14  19
ATOM     19  C   UNL     1      -1.968  -9.503  -8.691  1.00  0.00     0.245 C 
ATOM     20  O   UNL     1      -1.184 -10.429  -8.960  1.00  0.00    -0.272 OA
BRANCH  19  21
ATOM     21  N   UNL     1      -3.233  -9.807  -8.222  1.00  0.00    -0.332 N 
ATOM     22  C   UNL     1      -3.592 -11.002  -7.480  1.00  0.00     0.147 C 
BRANCH  21  23
ATOM     23  C   UNL     1      -4.331  -8.841  -8.504  1.00  0.00     0.178 C 
BRANCH  23  24
ATOM     24  C   UNL     1      -5.109  -9.111  -9.808  1.00  0.00     0.070 C 
BRANCH  24  25
ATOM     25  C   UNL     1      -6.069  -8.040 -10.272  1.00  0.00    -0.045 A 
ATOM     26  C   UNL     1      -5.662  -6.702 -10.360  1.00  0.00     0.004 A 
ATOM     27  C   UNL     1      -7.387  -8.372 -10.617  1.00  0.00     0.004 A 
ATOM     28  C   UNL     1      -6.560  -5.716 -10.773  1.00  0.00     0.000 A 
ATOM     29  C   UNL     1      -8.283  -7.385 -11.031  1.00  0.00     0.000 A 
ATOM     30  C   UNL     1      -7.869  -6.057 -11.105  1.00  0.00     0.000 A 
ENDBRANCH  24  25
ENDBRANCH  23  24
BRANCH  23  31
ATOM     31  C   UNL     1      -5.214  -8.552  -7.267  1.00  0.00     0.243 C 
ATOM     32  O   UNL     1      -6.011  -9.354  -6.789  1.00  0.00    -0.273 OA
ATOM     33  N   UNL     1      -5.164  -7.233  -6.849  1.00  0.00    -0.341 N 
ATOM     34  H   UNL     1      -4.483  -6.609  -7.289  1.00  0.00     0.164 HD
BRANCH  33  35
ATOM     35  C   UNL     1      -6.006  -6.704  -5.772  1.00  0.00     0.194 C 
BRANCH  35  36
ATOM     36  C   UNL     1      -6.420  -5.217  -5.961  1.00  0.00     0.017 C 
ATOM     37  C   UNL     1      -7.375  -4.757  -4.847  1.00  0.00     0.010 C 
ATOM     38  C   UNL     1      -7.115  -4.949  -7.302  1.00  0.00     0.010 C 
ENDBRANCH  35  36
BRANCH  35  39
ATOM     39  C   UNL     1      -5.407  -6.965  -4.362  1.00  0.00     0.329 C 
ATOM     40  O   UNL     1      -5.841  -7.798  -3.575  1.00  0.00    -0.250 OA
BRANCH  39  41
ATOM     41  O   UNL     1      -4.284  -6.220  -4.129  1.00  0.00    -0.458 OA
BRANCH  41  42
ATOM     42  C   UNL     1      -3.104  -6.951  -3.715  1.00  0.00     0.205 CG0
ATOM     43  C   UNL     1      -3.431  -8.439  -3.823  1.00  0.00     0.056 C 
ATOM     44  G   UNL     1      -2.744  -6.529  -2.277  1.00  0.00     0.000 G0
ENDBRANCH  41  42
ENDBRANCH  39  41
ENDBRANCH  35  39
ENDBRANCH  33  35
ENDBRANCH  23  31
ENDBRANCH  21  23
ENDBRANCH  19  21
ENDBRANCH  14  19
ENDBRANCH   7  14
ENDBRANCH   2   5
BRANCH   3  45
ATOM     45  C   UNL     1       0.814  -5.170  -2.939  1.00  0.00     0.171 C 
BRANCH  45  46
ATOM     46  N   UNL     1      -0.628  -5.341  -2.827  1.00  0.00    -0.342 N 
ATOM     47  C   UNL     1      -1.194  -6.409  -2.178  1.00  0.00     0.247 C 
ATOM     48  O   UNL     1      -0.530  -7.259  -1.584  1.00  0.00    -0.273 OA
ATOM     49  H   UNL     1      -1.216  -4.629  -3.256  1.00  0.00     0.164 HD
BRANCH  47  50
ATOM     50  C   UNL     1      -2.725  -6.488  -2.269  1.00  0.00     0.212 CG0
ATOM     51  G   UNL     1      -3.085  -6.965  -3.690  1.00  0.00     0.000 G0
BRANCH  50  52
ATOM     52  N   UNL     1      -3.129  -7.426  -1.226  1.00  0.00    -0.339 N 
ATOM     53  C   UNL     1      -4.271  -7.277  -0.476  1.00  0.00     0.243 C 
ATOM     54  O   UNL     1      -5.016  -6.307  -0.590  1.00  0.00    -0.273 OA
ATOM     55  H   UNL     1      -2.495  -8.192  -1.007  1.00  0.00     0.164 HD
BRANCH  53  56
ATOM     56  C   UNL     1      -4.443  -8.345   0.623  1.00  0.00     0.182 C 
BRANCH  56  57
ATOM     57  N   UNL     1      -5.625  -9.175   0.369  1.00  0.00    -0.344 N 
ATOM     58  C   UNL     1      -5.649 -10.141  -0.608  1.00  0.00     0.220 C 
ATOM     59  O   UNL     1      -4.716 -10.325  -1.382  1.00  0.00    -0.275 OA
ATOM     60  H   UNL     1      -6.378  -9.125   1.050  1.00  0.00     0.164 HD
BRANCH  58  61
ATOM     61  C   UNL     1      -6.953 -10.917  -0.654  1.00  0.00     0.100 C 
BRANCH  61  62
ATOM     62  C   UNL     1      -8.198 -10.037  -0.548  1.00  0.00     0.010 C 
BRANCH  62  63
ATOM     63  C   UNL     1      -8.136  -8.994   0.575  1.00  0.00     0.000 C 
BRANCH  63  64
ATOM     64  C   UNL     1      -9.076  -9.277   1.745  1.00  0.00    -0.003 C 
ATOM     65  C   UNL     1      -8.302  -9.523   3.032  1.00  0.00     0.004 C 
ENDBRANCH  63  64
ENDBRANCH  62  63
ENDBRANCH  61  62
ENDBRANCH  58  61
ENDBRANCH  56  57
BRANCH  56  66
ATOM     66  C   UNL     1      -4.469  -7.716   2.016  1.00  0.00     0.157 C 
BRANCH  66  67
ATOM     67  C   UNL     1      -3.081  -7.408   2.499  1.00  0.00     0.305 C 
ATOM     68  O   UNL     1      -2.669  -6.333   2.907  1.00  0.00    -0.252 OA
BRANCH  67  69
ATOM     69  O   UNL     1      -2.285  -8.495   2.495  1.00  0.00    -0.481 OA
ATOM     70  H   UNL     1      -2.274  -8.800   3.426  1.00  0.00     0.296 HD
ENDBRANCH  67  69
ENDBRANCH  66  67
ENDBRANCH  56  66
ENDBRANCH  53  56
ENDBRANCH  50  52
ENDBRANCH  47  50
ENDBRANCH  45  46
BRANCH  45  71
ATOM     71  C   UNL     1       1.179  -3.782  -3.480  1.00  0.00     0.037 C 
BRANCH  71  72
ATOM     72  C   UNL     1      -0.009  -2.818  -3.439  1.00  0.00     0.026 C 
BRANCH  72  73
ATOM     73  C   UNL     1       0.082  -1.867  -2.247  1.00  0.00     0.146 C 
BRANCH  73  74
ATOM     74  N   UNL     1      -1.277  -1.577  -1.801  1.00  0.00    -0.254 NA
ATOM     75  C   UNL     1      -1.749  -2.269  -0.831  1.00  0.00     0.185 C 
ATOM     76  N   UNL     1      -2.997  -2.025  -0.397  1.00  0.00    -0.370 N 
ATOM     77  N   UNL     1      -1.163  -3.259  -0.135  1.00  0.00    -0.370 N 
ATOM     78  H   UNL     1      -3.513  -1.299  -0.873  1.00  0.00     0.159 HD
ATOM     79  H   UNL     1      -3.482  -2.617   0.254  1.00  0.00     0.159 HD
ATOM     80  H   UNL     1      -0.221  -3.549  -0.348  1.00  0.00     0.159 HD
ATOM     81  H   UNL     1      -1.592  -3.654   0.686  1.00  0.00     0.159 HD
ENDBRANCH  73  74
ENDBRANCH  72  73
ENDBRANCH  71  72
ENDBRANCH  45  71
ENDBRANCH   3  45
TORSDOF 20
ENDMDL
MODEL 31
REMARK VINA RESULT:    -4.688      2.433      3.793
REMARK INTER + INTRA:         -20.632
REMARK INTER:                 -16.211
REMARK INTRA:                  -4.421
REMARK UNBOUND:                -7.173
REMARK SMILES CCCCCC(=O)N[C@H](CC(=O)O)C(=O)N[C@H]1C(=O)N[C@H](CCCN=C(N)N)C(=O)N[C@@H]2CC[C@H](O)N(C2=O)[C@@H](CC(C)C)C(=O)N(C)[C@@H](Cc2ccccc2)C(=O)N[C@H](C(C)C)C(=O)O[C@@H]1C
REMARK SMILES IDX 30 1 31 2 29 3 32 5 35 6 37 7 34 8 38 9 33 10 39 11 36 12
REMARK SMILES IDX 40 14 41 15 42 16 43 17 44 18 45 19 46 20 47 21 48 22 49 23
REMARK SMILES IDX 50 24 51 25 52 26 56 27 53 28 55 29 54 30 57 31 58 32 59 33
REMARK SMILES IDX 60 35 61 36 62 37 63 38 64 39 65 40 66 41 67 42 68 43 21 45
REMARK SMILES IDX 20 46 18 47 19 48 17 50 16 52 14 53 15 54 9 56 8 57 6 58
REMARK SMILES IDX 7 59 5 61 4 62 3 63 2 64 1 65 10 66 11 67 12 68 13 69 22 71
REMARK SMILES IDX 23 72 24 73 25 74 26 75 27 76 28 77
REMARK H PARENT 31 4 36 13 59 34 20 49 16 55 8 60 13 70 27 78 27 79 28 80
REMARK H PARENT 28 81
REMARK Flexibility Score:  259.900
ROOT
ATOM      1  O   UNL     1      -2.003  -7.759  -1.214  1.00  0.00    -0.273 OA
ATOM      2  N   UNL     1      -1.925  -6.096  -2.781  1.00  0.00    -0.343 N 
ATOM      3  C   UNL     1      -2.411  -7.281  -2.273  1.00  0.00     0.243 C 
ATOM      4  H   UNL     1      -2.294  -5.725  -3.648  1.00  0.00     0.164 HD
ENDROOT
BRANCH   2   5
ATOM      5  C   UNL     1      -0.809  -5.413  -2.135  1.00  0.00     0.171 C 
ATOM      6  C   UNL     1       1.039  -3.374  -3.047  1.00  0.00     0.214 C 
ATOM      7  N   UNL     1       1.381  -4.767  -3.211  1.00  0.00    -0.303 N 
ATOM      8  C   UNL     1       0.155  -3.109  -1.839  1.00  0.00     0.057 C 
ATOM      9  C   UNL     1       0.523  -5.791  -2.844  1.00  0.00     0.247 C 
ATOM     10  C   UNL     1      -1.113  -3.928  -1.942  1.00  0.00     0.040 C 
ATOM     11  O   UNL     1       0.786  -6.980  -3.067  1.00  0.00    -0.272 OA
BRANCH   6  12
ATOM     12  O   UNL     1       0.400  -2.946  -4.228  1.00  0.00    -0.373 OA
ATOM     13  H   UNL     1       0.041  -2.050  -4.052  1.00  0.00     0.213 HD
ENDBRANCH   6  12
BRANCH   7  14
ATOM     14  C   UNL     1       2.638  -5.069  -3.929  1.00  0.00     0.177 C 
BRANCH  14  15
ATOM     15  C   UNL     1       3.712  -5.794  -3.095  1.00  0.00     0.038 C 
BRANCH  15  16
ATOM     16  C   UNL     1       5.204  -5.466  -3.326  1.00  0.00    -0.015 C 
ATOM     17  C   UNL     1       5.943  -6.591  -4.057  1.00  0.00     0.007 C 
ATOM     18  C   UNL     1       5.898  -5.233  -1.978  1.00  0.00     0.007 C 
ENDBRANCH  15  16
ENDBRANCH  14  15
BRANCH  14  19
ATOM     19  C   UNL     1       2.349  -5.318  -5.450  1.00  0.00     0.245 C 
ATOM     20  O   UNL     1       1.158  -5.456  -5.777  1.00  0.00    -0.272 OA
BRANCH  19  21
ATOM     21  N   UNL     1       3.335  -5.499  -6.402  1.00  0.00    -0.332 N 
ATOM     22  C   UNL     1       4.268  -4.482  -6.854  1.00  0.00     0.147 C 
BRANCH  21  23
ATOM     23  C   UNL     1       3.454  -6.842  -7.034  1.00  0.00     0.178 C 
BRANCH  23  24
ATOM     24  C   UNL     1       4.854  -7.173  -7.590  1.00  0.00     0.070 C 
BRANCH  24  25
ATOM     25  C   UNL     1       4.929  -7.671  -9.015  1.00  0.00    -0.045 A 
ATOM     26  C   UNL     1       3.793  -7.673  -9.835  1.00  0.00     0.004 A 
ATOM     27  C   UNL     1       6.143  -8.144  -9.536  1.00  0.00     0.004 A 
ATOM     28  C   UNL     1       3.867  -8.151 -11.145  1.00  0.00     0.000 A 
ATOM     29  C   UNL     1       6.215  -8.619 -10.847  1.00  0.00     0.000 A 
ATOM     30  C   UNL     1       5.076  -8.625 -11.649  1.00  0.00     0.000 A 
ENDBRANCH  24  25
ENDBRANCH  23  24
BRANCH  23  31
ATOM     31  C   UNL     1       2.806  -7.966  -6.190  1.00  0.00     0.243 C 
ATOM     32  O   UNL     1       3.277  -8.394  -5.140  1.00  0.00    -0.273 OA
ATOM     33  N   UNL     1       1.737  -8.583  -6.818  1.00  0.00    -0.341 N 
ATOM     34  H   UNL     1       1.393  -8.184  -7.695  1.00  0.00     0.164 HD
BRANCH  33  35
ATOM     35  C   UNL     1       1.047  -9.749  -6.259  1.00  0.00     0.194 C 
BRANCH  35  36
ATOM     36  C   UNL     1       1.684 -11.112  -6.650  1.00  0.00     0.017 C 
ATOM     37  C   UNL     1       2.861 -11.466  -5.725  1.00  0.00     0.010 C 
ATOM     38  C   UNL     1       2.207 -11.143  -8.091  1.00  0.00     0.010 C 
ENDBRANCH  35  36
BRANCH  35  39
ATOM     39  C   UNL     1      -0.483  -9.724  -6.529  1.00  0.00     0.329 C 
ATOM     40  O   UNL     1      -1.201 -10.717  -6.503  1.00  0.00    -0.250 OA
BRANCH  39  41
ATOM     41  O   UNL     1      -0.958  -8.455  -6.714  1.00  0.00    -0.458 OA
BRANCH  41  42
ATOM     42  C   UNL     1      -2.087  -8.317  -7.610  1.00  0.00     0.205 CG0
ATOM     43  C   UNL     1      -1.591  -7.594  -8.860  1.00  0.00     0.056 C 
ATOM     44  G   UNL     1      -3.200  -7.538  -6.881  1.00  0.00     0.000 G0
ENDBRANCH  41  42
ENDBRANCH  39  41
ENDBRANCH  35  39
ENDBRANCH  33  35
ENDBRANCH  23  31
ENDBRANCH  21  23
ENDBRANCH  19  21
ENDBRANCH  14  19
ENDBRANCH   7  14
ENDBRANCH   2   5
BRANCH   3  45
ATOM     45  C   UNL     1      -3.510  -7.953  -3.107  1.00  0.00     0.171 C 
BRANCH  45  46
ATOM     46  N   UNL     1      -3.352  -7.432  -4.458  1.00  0.00    -0.342 N 
ATOM     47  C   UNL     1      -3.574  -8.200  -5.574  1.00  0.00     0.247 C 
ATOM     48  O   UNL     1      -3.992  -9.357  -5.516  1.00  0.00    -0.273 OA
ATOM     49  H   UNL     1      -3.061  -6.461  -4.552  1.00  0.00     0.164 HD
BRANCH  47  50
ATOM     50  C   UNL     1      -3.237  -7.520  -6.909  1.00  0.00     0.212 CG0
ATOM     51  G   UNL     1      -2.112  -8.335  -7.577  1.00  0.00     0.000 G0
BRANCH  50  52
ATOM     52  N   UNL     1      -4.482  -7.522  -7.672  1.00  0.00    -0.339 N 
ATOM     53  C   UNL     1      -5.262  -6.405  -7.850  1.00  0.00     0.243 C 
ATOM     54  O   UNL     1      -4.997  -5.324  -7.332  1.00  0.00    -0.273 OA
ATOM     55  H   UNL     1      -4.814  -8.414  -8.034  1.00  0.00     0.164 HD
BRANCH  53  56
ATOM     56  C   UNL     1      -6.572  -6.670  -8.618  1.00  0.00     0.182 C 
BRANCH  56  57
ATOM     57  N   UNL     1      -6.302  -7.264  -9.931  1.00  0.00    -0.344 N 
ATOM     58  C   UNL     1      -6.224  -8.622 -10.123  1.00  0.00     0.220 C 
ATOM     59  O   UNL     1      -6.301  -9.428  -9.201  1.00  0.00    -0.275 OA
ATOM     60  H   UNL     1      -6.332  -6.641 -10.734  1.00  0.00     0.164 HD
BRANCH  58  61
ATOM     61  C   UNL     1      -5.994  -9.013 -11.571  1.00  0.00     0.100 C 
BRANCH  61  62
ATOM     62  C   UNL     1      -6.833 -10.208 -12.027  1.00  0.00     0.010 C 
BRANCH  62  63
ATOM     63  C   UNL     1      -8.343 -10.027 -11.827  1.00  0.00     0.000 C 
BRANCH  63  64
ATOM     64  C   UNL     1      -8.966  -8.939 -12.700  1.00  0.00    -0.003 C 
ATOM     65  C   UNL     1      -9.620  -7.856 -11.855  1.00  0.00     0.004 C 
ENDBRANCH  63  64
ENDBRANCH  62  63
ENDBRANCH  61  62
ENDBRANCH  58  61
ENDBRANCH  56  57
BRANCH  56  66
ATOM     66  C   UNL     1      -7.426  -5.408  -8.722  1.00  0.00     0.157 C 
BRANCH  66  67
ATOM     67  C   UNL     1      -7.836  -5.143 -10.142  1.00  0.00     0.305 C 
ATOM     68  O   UNL     1      -7.122  -5.191 -11.131  1.00  0.00    -0.252 OA
BRANCH  67  69
ATOM     69  O   UNL     1      -9.152  -4.878 -10.254  1.00  0.00    -0.481 OA
ATOM     70  H   UNL     1      -9.231  -3.920 -10.063  1.00  0.00     0.296 HD
ENDBRANCH  67  69
ENDBRANCH  66  67
ENDBRANCH  56  66
ENDBRANCH  53  56
ENDBRANCH  50  52
ENDBRANCH  47  50
ENDBRANCH  45  46
BRANCH  45  71
ATOM     71  C   UNL     1      -4.892  -7.624  -2.532  1.00  0.00     0.037 C 
BRANCH  71  72
ATOM     72  C   UNL     1      -5.507  -8.816  -1.794  1.00  0.00     0.026 C 
BRANCH  72  73
ATOM     73  C   UNL     1      -4.715  -9.165  -0.536  1.00  0.00     0.146 C 
BRANCH  73  74
ATOM     74  N   UNL     1      -4.962  -8.118   0.452  1.00  0.00    -0.254 NA
ATOM     75  C   UNL     1      -5.684  -8.413   1.469  1.00  0.00     0.185 C 
ATOM     76  N   UNL     1      -5.927  -7.472   2.396  1.00  0.00    -0.370 N 
ATOM     77  N   UNL     1      -6.272  -9.582   1.778  1.00  0.00    -0.370 N 
ATOM     78  H   UNL     1      -5.527  -6.559   2.236  1.00  0.00     0.159 HD
ATOM     79  H   UNL     1      -6.596  -7.585   3.137  1.00  0.00     0.159 HD
ATOM     80  H   UNL     1      -6.172 -10.383   1.173  1.00  0.00     0.159 HD
ATOM     81  H   UNL     1      -6.722  -9.729   2.666  1.00  0.00     0.159 HD
ENDBRANCH  73  74
ENDBRANCH  72  73
ENDBRANCH  71  72
ENDBRANCH  45  71
ENDBRANCH   3  45
TORSDOF 20
ENDMDL
MODEL 32
REMARK VINA RESULT:    -4.675      2.376     10.289
REMARK INTER + INTRA:         -20.594
REMARK INTER:                 -16.358
REMARK INTRA:                  -4.235
REMARK UNBOUND:                -7.173
REMARK SMILES CCCCCC(=O)N[C@H](CC(=O)O)C(=O)N[C@H]1C(=O)N[C@H](CCCN=C(N)N)C(=O)N[C@@H]2CC[C@H](O)N(C2=O)[C@@H](CC(C)C)C(=O)N(C)[C@@H](Cc2ccccc2)C(=O)N[C@H](C(C)C)C(=O)O[C@@H]1C
REMARK SMILES IDX 30 1 31 2 29 3 32 5 35 6 37 7 34 8 38 9 33 10 39 11 36 12
REMARK SMILES IDX 40 14 41 15 42 16 43 17 44 18 45 19 46 20 47 21 48 22 49 23
REMARK SMILES IDX 50 24 51 25 52 26 56 27 53 28 55 29 54 30 57 31 58 32 59 33
REMARK SMILES IDX 60 35 61 36 62 37 63 38 64 39 65 40 66 41 67 42 68 43 21 45
REMARK SMILES IDX 20 46 18 47 19 48 17 50 16 52 14 53 15 54 9 56 8 57 6 58
REMARK SMILES IDX 7 59 5 61 4 62 3 63 2 64 1 65 10 66 11 67 12 68 13 69 22 71
REMARK SMILES IDX 23 72 24 73 25 74 26 75 27 76 28 77
REMARK H PARENT 31 4 36 13 59 34 20 49 16 55 8 60 13 70 27 78 27 79 28 80
REMARK H PARENT 28 81
REMARK Flexibility Score:  259.900
ROOT
ATOM      1  O   UNL     1      -2.375  -7.256  -5.822  1.00  0.00    -0.273 OA
ATOM      2  N   UNL     1      -1.915  -7.911  -3.679  1.00  0.00    -0.343 N 
ATOM      3  C   UNL     1      -1.562  -7.394  -4.907  1.00  0.00     0.243 C 
ATOM      4  H   UNL     1      -1.223  -7.996  -2.945  1.00  0.00     0.164 HD
ENDROOT
BRANCH   2   5
ATOM      5  C   UNL     1      -3.259  -8.431  -3.451  1.00  0.00     0.171 C 
ATOM      6  C   UNL     1      -5.481  -8.978  -5.230  1.00  0.00     0.214 C 
ATOM      7  N   UNL     1      -5.375  -7.681  -4.605  1.00  0.00    -0.303 N 
ATOM      8  C   UNL     1      -4.887 -10.100  -4.394  1.00  0.00     0.057 C 
ATOM      9  C   UNL     1      -4.312  -7.336  -3.785  1.00  0.00     0.247 C 
ATOM     10  C   UNL     1      -3.433  -9.804  -4.099  1.00  0.00     0.040 C 
ATOM     11  O   UNL     1      -4.183  -6.195  -3.323  1.00  0.00    -0.272 OA
BRANCH   6  12
ATOM     12  O   UNL     1      -4.841  -8.907  -6.483  1.00  0.00    -0.373 OA
ATOM     13  H   UNL     1      -4.975  -9.772  -6.925  1.00  0.00     0.213 HD
ENDBRANCH   6  12
BRANCH   7  14
ATOM     14  C   UNL     1      -6.378  -6.666  -4.992  1.00  0.00     0.177 C 
BRANCH  14  15
ATOM     15  C   UNL     1      -7.305  -6.194  -3.855  1.00  0.00     0.038 C 
BRANCH  15  16
ATOM     16  C   UNL     1      -8.755  -6.723  -3.785  1.00  0.00    -0.015 C 
ATOM     17  C   UNL     1      -9.707  -5.730  -3.113  1.00  0.00     0.007 C 
ATOM     18  C   UNL     1      -8.790  -8.035  -2.992  1.00  0.00     0.007 C 
ENDBRANCH  15  16
ENDBRANCH  14  15
BRANCH  14  19
ATOM     19  C   UNL     1      -5.819  -5.760  -6.142  1.00  0.00     0.245 C 
ATOM     20  O   UNL     1      -4.777  -5.128  -5.900  1.00  0.00    -0.272 OA
BRANCH  19  21
ATOM     21  N   UNL     1      -6.474  -5.545  -7.342  1.00  0.00    -0.332 N 
ATOM     22  C   UNL     1      -7.512  -4.556  -7.570  1.00  0.00     0.147 C 
BRANCH  21  23
ATOM     23  C   UNL     1      -6.099  -6.400  -8.502  1.00  0.00     0.178 C 
BRANCH  23  24
ATOM     24  C   UNL     1      -6.916  -6.143  -9.785  1.00  0.00     0.070 C 
BRANCH  24  25
ATOM     25  C   UNL     1      -7.628  -7.326 -10.396  1.00  0.00    -0.045 A 
ATOM     26  C   UNL     1      -6.924  -8.486 -10.744  1.00  0.00     0.004 A 
ATOM     27  C   UNL     1      -9.011  -7.277 -10.629  1.00  0.00     0.004 A 
ATOM     28  C   UNL     1      -7.587  -9.570 -11.325  1.00  0.00     0.000 A 
ATOM     29  C   UNL     1      -9.672  -8.361 -11.208  1.00  0.00     0.000 A 
ATOM     30  C   UNL     1      -8.959  -9.506 -11.558  1.00  0.00     0.000 A 
ENDBRANCH  24  25
ENDBRANCH  23  24
BRANCH  23  31
ATOM     31  C   UNL     1      -4.569  -6.496  -8.712  1.00  0.00     0.243 C 
ATOM     32  O   UNL     1      -3.820  -5.523  -8.757  1.00  0.00    -0.273 OA
ATOM     33  N   UNL     1      -4.133  -7.770  -9.033  1.00  0.00    -0.341 N 
ATOM     34  H   UNL     1      -4.805  -8.540  -8.983  1.00  0.00     0.164 HD
BRANCH  33  35
ATOM     35  C   UNL     1      -2.744  -8.073  -9.390  1.00  0.00     0.194 C 
BRANCH  35  36
ATOM     36  C   UNL     1      -2.382  -7.745 -10.866  1.00  0.00     0.017 C 
ATOM     37  C   UNL     1      -2.336  -9.019 -11.727  1.00  0.00     0.010 C 
ATOM     38  C   UNL     1      -1.027  -7.042 -11.013  1.00  0.00     0.010 C 
ENDBRANCH  35  36
BRANCH  35  39
ATOM     39  C   UNL     1      -2.328  -9.519  -8.998  1.00  0.00     0.329 C 
ATOM     40  O   UNL     1      -2.896 -10.528  -9.398  1.00  0.00    -0.250 OA
BRANCH  39  41
ATOM     41  O   UNL     1      -1.201  -9.544  -8.225  1.00  0.00    -0.458 OA
BRANCH  41  42
ATOM     42  C   UNL     1       0.060  -9.613  -8.932  1.00  0.00     0.205 CG0
ATOM     43  C   UNL     1       0.292 -11.076  -9.305  1.00  0.00     0.056 C 
ATOM     44  G   UNL     1       1.169  -9.056  -8.017  1.00  0.00     0.000 G0
ENDBRANCH  41  42
ENDBRANCH  39  41
ENDBRANCH  35  39
ENDBRANCH  33  35
ENDBRANCH  23  31
ENDBRANCH  21  23
ENDBRANCH  19  21
ENDBRANCH  14  19
ENDBRANCH   7  14
ENDBRANCH   2   5
BRANCH   3  45
ATOM     45  C   UNL     1      -0.090  -6.983  -5.048  1.00  0.00     0.171 C 
BRANCH  45  46
ATOM     46  N   UNL     1       0.522  -7.997  -5.896  1.00  0.00    -0.342 N 
ATOM     47  C   UNL     1       0.625  -7.855  -7.257  1.00  0.00     0.247 C 
ATOM     48  O   UNL     1       0.276  -6.834  -7.850  1.00  0.00    -0.273 OA
ATOM     49  H   UNL     1       0.876  -8.835  -5.438  1.00  0.00     0.164 HD
BRANCH  47  50
ATOM     50  C   UNL     1       1.185  -9.078  -7.998  1.00  0.00     0.212 CG0
ATOM     51  G   UNL     1       0.084  -9.596  -8.944  1.00  0.00     0.000 G0
BRANCH  50  52
ATOM     52  N   UNL     1       2.371  -8.597  -8.701  1.00  0.00    -0.339 N 
ATOM     53  C   UNL     1       3.654  -8.905  -8.317  1.00  0.00     0.243 C 
ATOM     54  O   UNL     1       3.904  -9.568  -7.315  1.00  0.00    -0.273 OA
ATOM     55  H   UNL     1       2.233  -7.951  -9.476  1.00  0.00     0.164 HD
BRANCH  53  56
ATOM     56  C   UNL     1       4.744  -8.213  -9.160  1.00  0.00     0.182 C 
BRANCH  56  57
ATOM     57  N   UNL     1       4.558  -6.758  -9.170  1.00  0.00    -0.344 N 
ATOM     58  C   UNL     1       4.699  -5.991  -8.039  1.00  0.00     0.220 C 
ATOM     59  O   UNL     1       4.916  -6.473  -6.933  1.00  0.00    -0.275 OA
ATOM     60  H   UNL     1       4.479  -6.310 -10.079  1.00  0.00     0.164 HD
BRANCH  58  61
ATOM     61  C   UNL     1       4.519  -4.506  -8.294  1.00  0.00     0.100 C 
BRANCH  61  62
ATOM     62  C   UNL     1       5.431  -3.620  -7.445  1.00  0.00     0.010 C 
BRANCH  62  63
ATOM     63  C   UNL     1       4.750  -2.358  -6.901  1.00  0.00     0.000 C 
BRANCH  63  64
ATOM     64  C   UNL     1       3.388  -2.609  -6.255  1.00  0.00    -0.003 C 
ATOM     65  C   UNL     1       3.146  -1.665  -5.086  1.00  0.00     0.004 C 
ENDBRANCH  63  64
ENDBRANCH  62  63
ENDBRANCH  61  62
ENDBRANCH  58  61
ENDBRANCH  56  57
BRANCH  56  66
ATOM     66  C   UNL     1       4.815  -8.794 -10.571  1.00  0.00     0.157 C 
BRANCH  66  67
ATOM     67  C   UNL     1       5.266  -7.761 -11.563  1.00  0.00     0.305 C 
ATOM     68  O   UNL     1       6.389  -7.293 -11.673  1.00  0.00    -0.252 OA
BRANCH  67  69
ATOM     69  O   UNL     1       4.284  -7.403 -12.412  1.00  0.00    -0.481 OA
ATOM     70  H   UNL     1       4.747  -7.155 -13.240  1.00  0.00     0.296 HD
ENDBRANCH  67  69
ENDBRANCH  66  67
ENDBRANCH  56  66
ENDBRANCH  53  56
ENDBRANCH  50  52
ENDBRANCH  47  50
ENDBRANCH  45  46
BRANCH  45  71
ATOM     71  C   UNL     1       0.580  -6.917  -3.671  1.00  0.00     0.037 C 
BRANCH  71  72
ATOM     72  C   UNL     1       1.453  -5.670  -3.516  1.00  0.00     0.026 C 
BRANCH  72  73
ATOM     73  C   UNL     1       2.678  -5.726  -4.426  1.00  0.00     0.146 C 
BRANCH  73  74
ATOM     74  N   UNL     1       3.737  -6.427  -3.708  1.00  0.00    -0.254 NA
ATOM     75  C   UNL     1       4.741  -5.741  -3.301  1.00  0.00     0.185 C 
ATOM     76  N   UNL     1       5.731  -6.358  -2.635  1.00  0.00    -0.370 N 
ATOM     77  N   UNL     1       4.976  -4.424  -3.439  1.00  0.00    -0.370 N 
ATOM     78  H   UNL     1       5.636  -7.353  -2.494  1.00  0.00     0.159 HD
ATOM     79  H   UNL     1       6.607  -5.918  -2.415  1.00  0.00     0.159 HD
ATOM     80  H   UNL     1       4.314  -3.831  -3.916  1.00  0.00     0.159 HD
ATOM     81  H   UNL     1       5.747  -3.974  -2.975  1.00  0.00     0.159 HD
ENDBRANCH  73  74
ENDBRANCH  72  73
ENDBRANCH  71  72
ENDBRANCH  45  71
ENDBRANCH   3  45
TORSDOF 20
ENDMDL
MODEL 33
REMARK VINA RESULT:    -4.672      3.958      9.663
REMARK INTER + INTRA:         -20.584
REMARK INTER:                 -16.823
REMARK INTRA:                  -3.761
REMARK UNBOUND:                -7.173
REMARK SMILES CCCCCC(=O)N[C@H](CC(=O)O)C(=O)N[C@H]1C(=O)N[C@H](CCCN=C(N)N)C(=O)N[C@@H]2CC[C@H](O)N(C2=O)[C@@H](CC(C)C)C(=O)N(C)[C@@H](Cc2ccccc2)C(=O)N[C@H](C(C)C)C(=O)O[C@@H]1C
REMARK SMILES IDX 30 1 31 2 29 3 32 5 35 6 37 7 34 8 38 9 33 10 39 11 36 12
REMARK SMILES IDX 40 14 41 15 42 16 43 17 44 18 45 19 46 20 47 21 48 22 49 23
REMARK SMILES IDX 50 24 51 25 52 26 56 27 53 28 55 29 54 30 57 31 58 32 59 33
REMARK SMILES IDX 60 35 61 36 62 37 63 38 64 39 65 40 66 41 67 42 68 43 21 45
REMARK SMILES IDX 20 46 18 47 19 48 17 50 16 52 14 53 15 54 9 56 8 57 6 58
REMARK SMILES IDX 7 59 5 61 4 62 3 63 2 64 1 65 10 66 11 67 12 68 13 69 22 71
REMARK SMILES IDX 23 72 24 73 25 74 26 75 27 76 28 77
REMARK H PARENT 31 4 36 13 59 34 20 49 16 55 8 60 13 70 27 78 27 79 28 80
REMARK H PARENT 28 81
REMARK Flexibility Score:  259.900
ROOT
ATOM      1  O   UNL     1      -2.593  -3.151  -1.373  1.00  0.00    -0.273 OA
ATOM      2  N   UNL     1      -1.901  -5.225  -0.703  1.00  0.00    -0.343 N 
ATOM      3  C   UNL     1      -1.849  -4.121  -1.525  1.00  0.00     0.243 C 
ATOM      4  H   UNL     1      -1.264  -5.999  -0.849  1.00  0.00     0.164 HD
ENDROOT
BRANCH   2   5
ATOM      5  C   UNL     1      -2.934  -5.340   0.322  1.00  0.00     0.171 C 
ATOM      6  C   UNL     1      -3.667  -7.474   2.142  1.00  0.00     0.214 C 
ATOM      7  N   UNL     1      -4.304  -7.393   0.848  1.00  0.00    -0.303 N 
ATOM      8  C   UNL     1      -3.247  -6.120   2.692  1.00  0.00     0.057 C 
ATOM      9  C   UNL     1      -3.965  -6.430  -0.088  1.00  0.00     0.247 C 
ATOM     10  C   UNL     1      -2.315  -5.437   1.715  1.00  0.00     0.040 C 
ATOM     11  O   UNL     1      -4.453  -6.420  -1.225  1.00  0.00    -0.272 OA
BRANCH   6  12
ATOM     12  O   UNL     1      -2.549  -8.323   2.018  1.00  0.00    -0.373 OA
ATOM     13  H   UNL     1      -1.849  -7.811   1.560  1.00  0.00     0.213 HD
ENDBRANCH   6  12
BRANCH   7  14
ATOM     14  C   UNL     1      -5.243  -8.479   0.495  1.00  0.00     0.177 C 
BRANCH  14  15
ATOM     15  C   UNL     1      -4.904  -9.860   1.089  1.00  0.00     0.038 C 
BRANCH  15  16
ATOM     16  C   UNL     1      -5.975 -10.623   1.900  1.00  0.00    -0.015 C 
ATOM     17  C   UNL     1      -6.024 -10.179   3.365  1.00  0.00     0.007 C 
ATOM     18  C   UNL     1      -5.678 -12.127   1.863  1.00  0.00     0.007 C 
ENDBRANCH  15  16
ENDBRANCH  14  15
BRANCH  14  19
ATOM     19  C   UNL     1      -6.689  -7.905   0.301  1.00  0.00     0.245 C 
ATOM     20  O   UNL     1      -7.033  -6.986   1.064  1.00  0.00    -0.272 OA
BRANCH  19  21
ATOM     21  N   UNL     1      -7.618  -8.434  -0.578  1.00  0.00    -0.332 N 
ATOM     22  C   UNL     1      -8.596  -9.457  -0.255  1.00  0.00     0.147 C 
BRANCH  21  23
ATOM     23  C   UNL     1      -7.617  -7.928  -1.978  1.00  0.00     0.178 C 
BRANCH  23  24
ATOM     24  C   UNL     1      -6.966  -6.542  -2.164  1.00  0.00     0.070 C 
BRANCH  24  25
ATOM     25  C   UNL     1      -7.164  -5.862  -3.498  1.00  0.00    -0.045 A 
ATOM     26  C   UNL     1      -8.362  -5.198  -3.794  1.00  0.00     0.004 A 
ATOM     27  C   UNL     1      -6.148  -5.891  -4.465  1.00  0.00     0.004 A 
ATOM     28  C   UNL     1      -8.544  -4.586  -5.036  1.00  0.00     0.000 A 
ATOM     29  C   UNL     1      -6.331  -5.278  -5.706  1.00  0.00     0.000 A 
ATOM     30  C   UNL     1      -7.530  -4.628  -5.991  1.00  0.00     0.000 A 
ENDBRANCH  24  25
ENDBRANCH  23  24
BRANCH  23  31
ATOM     31  C   UNL     1      -7.176  -8.998  -3.006  1.00  0.00     0.243 C 
ATOM     32  O   UNL     1      -7.916  -9.469  -3.866  1.00  0.00    -0.273 OA
ATOM     33  N   UNL     1      -5.919  -9.520  -2.756  1.00  0.00    -0.341 N 
ATOM     34  H   UNL     1      -5.352  -9.089  -2.022  1.00  0.00     0.164 HD
BRANCH  33  35
ATOM     35  C   UNL     1      -5.346 -10.626  -3.527  1.00  0.00     0.194 C 
BRANCH  35  36
ATOM     36  C   UNL     1      -5.284 -11.974  -2.755  1.00  0.00     0.017 C 
ATOM     37  C   UNL     1      -6.681 -12.414  -2.285  1.00  0.00     0.010 C 
ATOM     38  C   UNL     1      -4.380 -11.920  -1.517  1.00  0.00     0.010 C 
ENDBRANCH  35  36
BRANCH  35  39
ATOM     39  C   UNL     1      -3.977 -10.262  -4.169  1.00  0.00     0.329 C 
ATOM     40  O   UNL     1      -3.480 -10.865  -5.113  1.00  0.00    -0.250 OA
BRANCH  39  41
ATOM     41  O   UNL     1      -3.428  -9.137  -3.619  1.00  0.00    -0.458 OA
BRANCH  41  42
ATOM     42  C   UNL     1      -3.131  -8.055  -4.534  1.00  0.00     0.205 CG0
ATOM     43  C   UNL     1      -3.283  -8.605  -5.951  1.00  0.00     0.056 C 
ATOM     44  G   UNL     1      -1.703  -7.549  -4.248  1.00  0.00     0.000 G0
ENDBRANCH  41  42
ENDBRANCH  39  41
ENDBRANCH  35  39
ENDBRANCH  33  35
ENDBRANCH  23  31
ENDBRANCH  21  23
ENDBRANCH  19  21
ENDBRANCH  14  19
ENDBRANCH   7  14
ENDBRANCH   2   5
BRANCH   3  45
ATOM     45  C   UNL     1      -0.787  -4.174  -2.631  1.00  0.00     0.171 C 
BRANCH  45  46
ATOM     46  N   UNL     1      -0.793  -5.548  -3.116  1.00  0.00    -0.342 N 
ATOM     47  C   UNL     1      -1.786  -6.038  -3.927  1.00  0.00     0.247 C 
ATOM     48  O   UNL     1      -2.701  -5.338  -4.360  1.00  0.00    -0.273 OA
ATOM     49  H   UNL     1      -0.022  -6.148  -2.827  1.00  0.00     0.164 HD
BRANCH  47  50
ATOM     50  C   UNL     1      -1.691  -7.539  -4.235  1.00  0.00     0.212 CG0
ATOM     51  G   UNL     1      -3.114  -8.043  -4.546  1.00  0.00     0.000 G0
BRANCH  50  52
ATOM     52  N   UNL     1      -0.779  -7.647  -5.371  1.00  0.00    -0.339 N 
ATOM     53  C   UNL     1       0.586  -7.720  -5.239  1.00  0.00     0.243 C 
ATOM     54  O   UNL     1       1.151  -7.646  -4.152  1.00  0.00    -0.273 OA
ATOM     55  H   UNL     1      -1.181  -7.601  -6.305  1.00  0.00     0.164 HD
BRANCH  53  56
ATOM     56  C   UNL     1       1.345  -7.740  -6.582  1.00  0.00     0.182 C 
BRANCH  56  57
ATOM     57  N   UNL     1       0.464  -8.151  -7.679  1.00  0.00    -0.344 N 
ATOM     58  C   UNL     1       0.269  -7.376  -8.796  1.00  0.00     0.220 C 
ATOM     59  O   UNL     1       0.759  -6.259  -8.922  1.00  0.00    -0.275 OA
ATOM     60  H   UNL     1       0.122  -9.108  -7.661  1.00  0.00     0.164 HD
BRANCH  58  61
ATOM     61  C   UNL     1      -0.636  -8.024  -9.828  1.00  0.00     0.100 C 
BRANCH  61  62
ATOM     62  C   UNL     1      -1.456  -7.025 -10.643  1.00  0.00     0.010 C 
BRANCH  62  63
ATOM     63  C   UNL     1      -2.877  -7.499 -10.973  1.00  0.00     0.000 C 
BRANCH  63  64
ATOM     64  C   UNL     1      -3.977  -6.758 -10.214  1.00  0.00    -0.003 C 
ATOM     65  C   UNL     1      -3.504  -6.325  -8.834  1.00  0.00     0.004 C 
ENDBRANCH  63  64
ENDBRANCH  62  63
ENDBRANCH  61  62
ENDBRANCH  58  61
ENDBRANCH  56  57
BRANCH  56  66
ATOM     66  C   UNL     1       2.604  -8.602  -6.500  1.00  0.00     0.157 C 
BRANCH  66  67
ATOM     67  C   UNL     1       3.794  -7.881  -7.064  1.00  0.00     0.305 C 
ATOM     68  O   UNL     1       4.900  -7.782  -6.554  1.00  0.00    -0.252 OA
BRANCH  67  69
ATOM     69  O   UNL     1       3.547  -7.358  -8.280  1.00  0.00    -0.481 OA
ATOM     70  H   UNL     1       4.202  -6.635  -8.379  1.00  0.00     0.296 HD
ENDBRANCH  67  69
ENDBRANCH  66  67
ENDBRANCH  56  66
ENDBRANCH  53  56
ENDBRANCH  50  52
ENDBRANCH  47  50
ENDBRANCH  45  46
BRANCH  45  71
ATOM     71  C   UNL     1       0.585  -3.778  -2.073  1.00  0.00     0.037 C 
BRANCH  71  72
ATOM     72  C   UNL     1       1.154  -2.540  -2.771  1.00  0.00     0.026 C 
BRANCH  72  73
ATOM     73  C   UNL     1       2.308  -2.904  -3.704  1.00  0.00     0.146 C 
BRANCH  73  74
ATOM     74  N   UNL     1       2.748  -1.681  -4.369  1.00  0.00    -0.254 NA
ATOM     75  C   UNL     1       2.986  -1.736  -5.627  1.00  0.00     0.185 C 
ATOM     76  N   UNL     1       3.391  -0.628  -6.267  1.00  0.00    -0.370 N 
ATOM     77  N   UNL     1       2.890  -2.787  -6.460  1.00  0.00    -0.370 N 
ATOM     78  H   UNL     1       3.497   0.209  -5.711  1.00  0.00     0.159 HD
ATOM     79  H   UNL     1       3.733  -0.627  -7.212  1.00  0.00     0.159 HD
ATOM     80  H   UNL     1       2.592  -3.688  -6.118  1.00  0.00     0.159 HD
ATOM     81  H   UNL     1       2.992  -2.683  -7.456  1.00  0.00     0.159 HD
ENDBRANCH  73  74
ENDBRANCH  72  73
ENDBRANCH  71  72
ENDBRANCH  45  71
ENDBRANCH   3  45
TORSDOF 20
ENDMDL
MODEL 34
REMARK VINA RESULT:    -4.668      2.928      8.057
REMARK INTER + INTRA:         -20.572
REMARK INTER:                 -16.451
REMARK INTRA:                  -4.121
REMARK UNBOUND:                -7.173
REMARK SMILES CCCCCC(=O)N[C@H](CC(=O)O)C(=O)N[C@H]1C(=O)N[C@H](CCCN=C(N)N)C(=O)N[C@@H]2CC[C@H](O)N(C2=O)[C@@H](CC(C)C)C(=O)N(C)[C@@H](Cc2ccccc2)C(=O)N[C@H](C(C)C)C(=O)O[C@@H]1C
REMARK SMILES IDX 30 1 31 2 29 3 32 5 35 6 37 7 34 8 38 9 33 10 39 11 36 12
REMARK SMILES IDX 40 14 41 15 42 16 43 17 44 18 45 19 46 20 47 21 48 22 49 23
REMARK SMILES IDX 50 24 51 25 52 26 56 27 53 28 55 29 54 30 57 31 58 32 59 33
REMARK SMILES IDX 60 35 61 36 62 37 63 38 64 39 65 40 66 41 67 42 68 43 21 45
REMARK SMILES IDX 20 46 18 47 19 48 17 50 16 52 14 53 15 54 9 56 8 57 6 58
REMARK SMILES IDX 7 59 5 61 4 62 3 63 2 64 1 65 10 66 11 67 12 68 13 69 22 71
REMARK SMILES IDX 23 72 24 73 25 74 26 75 27 76 28 77
REMARK H PARENT 31 4 36 13 59 34 20 49 16 55 8 60 13 70 27 78 27 79 28 80
REMARK H PARENT 28 81
REMARK Flexibility Score:  259.900
ROOT
ATOM      1  O   UNL     1      -0.636  -8.314  -1.221  1.00  0.00    -0.273 OA
ATOM      2  N   UNL     1      -0.797  -7.624  -3.396  1.00  0.00    -0.343 N 
ATOM      3  C   UNL     1      -1.329  -8.097  -2.216  1.00  0.00     0.243 C 
ATOM      4  H   UNL     1      -1.400  -7.443  -4.189  1.00  0.00     0.164 HD
ENDROOT
BRANCH   2   5
ATOM      5  C   UNL     1       0.646  -7.472  -3.552  1.00  0.00     0.171 C 
ATOM      6  C   UNL     1       2.271  -5.666  -5.134  1.00  0.00     0.214 C 
ATOM      7  N   UNL     1       1.876  -6.939  -5.691  1.00  0.00    -0.303 N 
ATOM      8  C   UNL     1       2.420  -5.692  -3.621  1.00  0.00     0.057 C 
ATOM      9  C   UNL     1       1.059  -7.827  -5.009  1.00  0.00     0.247 C 
ATOM     10  C   UNL     1       1.121  -6.135  -2.985  1.00  0.00     0.040 C 
ATOM     11  O   UNL     1       0.654  -8.876  -5.526  1.00  0.00    -0.272 OA
BRANCH   6  12
ATOM     12  O   UNL     1       1.309  -4.712  -5.518  1.00  0.00    -0.373 OA
ATOM     13  H   UNL     1       0.428  -5.131  -5.408  1.00  0.00     0.213 HD
ENDBRANCH   6  12
BRANCH   7  14
ATOM     14  C   UNL     1       2.260  -7.206  -7.093  1.00  0.00     0.177 C 
BRANCH  14  15
ATOM     15  C   UNL     1       3.200  -8.409  -7.299  1.00  0.00     0.038 C 
BRANCH  15  16
ATOM     16  C   UNL     1       4.618  -8.179  -7.865  1.00  0.00    -0.015 C 
ATOM     17  C   UNL     1       5.624  -7.783  -6.780  1.00  0.00     0.007 C 
ATOM     18  C   UNL     1       4.582  -7.062  -8.917  1.00  0.00     0.007 C 
ENDBRANCH  15  16
ENDBRANCH  14  15
BRANCH  14  19
ATOM     19  C   UNL     1       1.103  -6.782  -8.063  1.00  0.00     0.245 C 
ATOM     20  O   UNL     1       1.019  -5.573  -8.338  1.00  0.00    -0.272 OA
BRANCH  19  21
ATOM     21  N   UNL     1       0.128  -7.647  -8.525  1.00  0.00    -0.332 N 
ATOM     22  C   UNL     1       0.258  -9.091  -8.618  1.00  0.00     0.147 C 
BRANCH  21  23
ATOM     23  C   UNL     1      -1.163  -7.062  -8.980  1.00  0.00     0.178 C 
BRANCH  23  24
ATOM     24  C   UNL     1      -1.333  -6.983 -10.511  1.00  0.00     0.070 C 
BRANCH  24  25
ATOM     25  C   UNL     1      -1.375  -8.290 -11.267  1.00  0.00    -0.045 A 
ATOM     26  C   UNL     1      -2.557  -9.038 -11.343  1.00  0.00     0.004 A 
ATOM     27  C   UNL     1      -0.223  -8.777 -11.902  1.00  0.00     0.004 A 
ATOM     28  C   UNL     1      -2.583 -10.253 -12.029  1.00  0.00     0.000 A 
ATOM     29  C   UNL     1      -0.251  -9.992 -12.589  1.00  0.00     0.000 A 
ATOM     30  C   UNL     1      -1.431 -10.731 -12.649  1.00  0.00     0.000 A 
ENDBRANCH  24  25
ENDBRANCH  23  24
BRANCH  23  31
ATOM     31  C   UNL     1      -2.385  -7.629  -8.217  1.00  0.00     0.243 C 
ATOM     32  O   UNL     1      -2.386  -8.705  -7.625  1.00  0.00    -0.273 OA
ATOM     33  N   UNL     1      -3.546  -6.901  -8.414  1.00  0.00    -0.341 N 
ATOM     34  H   UNL     1      -3.483  -6.014  -8.921  1.00  0.00     0.164 HD
BRANCH  33  35
ATOM     35  C   UNL     1      -4.849  -7.317  -7.887  1.00  0.00     0.194 C 
BRANCH  35  36
ATOM     36  C   UNL     1      -5.771  -7.997  -8.938  1.00  0.00     0.017 C 
ATOM     37  C   UNL     1      -5.462  -9.498  -9.067  1.00  0.00     0.010 C 
ATOM     38  C   UNL     1      -5.648  -7.381 -10.337  1.00  0.00     0.010 C 
ENDBRANCH  35  36
BRANCH  35  39
ATOM     39  C   UNL     1      -5.578  -6.175  -7.126  1.00  0.00     0.329 C 
ATOM     40  O   UNL     1      -5.825  -5.077  -7.610  1.00  0.00    -0.250 OA
BRANCH  39  41
ATOM     41  O   UNL     1      -5.994  -6.562  -5.882  1.00  0.00    -0.458 OA
BRANCH  41  42
ATOM     42  C   UNL     1      -5.686  -5.658  -4.794  1.00  0.00     0.205 CG0
ATOM     43  C   UNL     1      -6.274  -4.296  -5.155  1.00  0.00     0.056 C 
ATOM     44  G   UNL     1      -4.156  -5.610  -4.612  1.00  0.00     0.000 G0
ENDBRANCH  41  42
ENDBRANCH  39  41
ENDBRANCH  35  39
ENDBRANCH  33  35
ENDBRANCH  23  31
ENDBRANCH  21  23
ENDBRANCH  19  21
ENDBRANCH  14  19
ENDBRANCH   7  14
ENDBRANCH   2   5
BRANCH   3  45
ATOM     45  C   UNL     1      -2.848  -8.315  -2.220  1.00  0.00     0.171 C 
BRANCH  45  46
ATOM     46  N   UNL     1      -3.417  -7.108  -2.806  1.00  0.00    -0.342 N 
ATOM     47  C   UNL     1      -3.669  -6.990  -4.149  1.00  0.00     0.247 C 
ATOM     48  O   UNL     1      -3.503  -7.916  -4.944  1.00  0.00    -0.273 OA
ATOM     49  H   UNL     1      -3.622  -6.336  -2.174  1.00  0.00     0.164 HD
BRANCH  47  50
ATOM     50  C   UNL     1      -4.151  -5.604  -4.601  1.00  0.00     0.212 CG0
ATOM     51  G   UNL     1      -5.682  -5.672  -4.765  1.00  0.00     0.000 G0
BRANCH  50  52
ATOM     52  N   UNL     1      -3.722  -4.682  -3.553  1.00  0.00    -0.339 N 
ATOM     53  C   UNL     1      -2.406  -4.375  -3.307  1.00  0.00     0.243 C 
ATOM     54  O   UNL     1      -1.479  -4.897  -3.921  1.00  0.00    -0.273 OA
ATOM     55  H   UNL     1      -4.438  -4.301  -2.937  1.00  0.00     0.164 HD
BRANCH  53  56
ATOM     56  C   UNL     1      -2.194  -3.446  -2.095  1.00  0.00     0.182 C 
BRANCH  56  57
ATOM     57  N   UNL     1      -0.983  -2.635  -2.259  1.00  0.00    -0.344 N 
ATOM     58  C   UNL     1      -1.022  -1.266  -2.358  1.00  0.00     0.220 C 
ATOM     59  O   UNL     1      -2.072  -0.633  -2.391  1.00  0.00    -0.275 OA
ATOM     60  H   UNL     1      -0.092  -3.108  -2.135  1.00  0.00     0.164 HD
BRANCH  58  61
ATOM     61  C   UNL     1       0.352  -0.631  -2.463  1.00  0.00     0.100 C 
BRANCH  61  62
ATOM     62  C   UNL     1       1.407  -1.544  -3.086  1.00  0.00     0.010 C 
BRANCH  62  63
ATOM     63  C   UNL     1       2.629  -0.803  -3.644  1.00  0.00     0.000 C 
BRANCH  63  64
ATOM     64  C   UNL     1       3.315  -1.513  -4.809  1.00  0.00    -0.003 C 
ATOM     65  C   UNL     1       4.219  -0.564  -5.583  1.00  0.00     0.004 C 
ENDBRANCH  63  64
ENDBRANCH  62  63
ENDBRANCH  61  62
ENDBRANCH  58  61
ENDBRANCH  56  57
BRANCH  56  66
ATOM     66  C   UNL     1      -2.190  -4.229  -0.783  1.00  0.00     0.157 C 
BRANCH  66  67
ATOM     67  C   UNL     1      -2.627  -3.366   0.366  1.00  0.00     0.305 C 
ATOM     68  O   UNL     1      -2.725  -3.700   1.537  1.00  0.00    -0.252 OA
BRANCH  67  69
ATOM     69  O   UNL     1      -2.871  -2.097  -0.011  1.00  0.00    -0.481 OA
ATOM     70  H   UNL     1      -3.445  -2.177  -0.802  1.00  0.00     0.296 HD
ENDBRANCH  67  69
ENDBRANCH  66  67
ENDBRANCH  56  66
ENDBRANCH  53  56
ENDBRANCH  50  52
ENDBRANCH  47  50
ENDBRANCH  45  46
BRANCH  45  71
ATOM     71  C   UNL     1      -3.358  -8.545  -0.793  1.00  0.00     0.037 C 
BRANCH  71  72
ATOM     72  C   UNL     1      -4.881  -8.419  -0.699  1.00  0.00     0.026 C 
BRANCH  72  73
ATOM     73  C   UNL     1      -5.584  -9.586  -1.390  1.00  0.00     0.146 C 
BRANCH  73  74
ATOM     74  N   UNL     1      -6.301  -9.055  -2.545  1.00  0.00    -0.254 NA
ATOM     75  C   UNL     1      -6.018  -9.537  -3.699  1.00  0.00     0.185 C 
ATOM     76  N   UNL     1      -6.662  -9.069  -4.781  1.00  0.00    -0.370 N 
ATOM     77  N   UNL     1      -5.127 -10.491  -4.021  1.00  0.00    -0.370 N 
ATOM     78  H   UNL     1      -7.345  -8.342  -4.628  1.00  0.00     0.159 HD
ATOM     79  H   UNL     1      -6.394  -9.291  -5.724  1.00  0.00     0.159 HD
ATOM     80  H   UNL     1      -4.572 -10.937  -3.307  1.00  0.00     0.159 HD
ATOM     81  H   UNL     1      -5.073 -10.871  -4.952  1.00  0.00     0.159 HD
ENDBRANCH  73  74
ENDBRANCH  72  73
ENDBRANCH  71  72
ENDBRANCH  45  71
ENDBRANCH   3  45
TORSDOF 20
ENDMDL
MODEL 35
REMARK VINA RESULT:    -4.662      2.494      9.778
REMARK INTER + INTRA:         -20.557
REMARK INTER:                 -15.911
REMARK INTRA:                  -4.646
REMARK UNBOUND:                -7.173
REMARK SMILES CCCCCC(=O)N[C@H](CC(=O)O)C(=O)N[C@H]1C(=O)N[C@H](CCCN=C(N)N)C(=O)N[C@@H]2CC[C@H](O)N(C2=O)[C@@H](CC(C)C)C(=O)N(C)[C@@H](Cc2ccccc2)C(=O)N[C@H](C(C)C)C(=O)O[C@@H]1C
REMARK SMILES IDX 30 1 31 2 29 3 32 5 35 6 37 7 34 8 38 9 33 10 39 11 36 12
REMARK SMILES IDX 40 14 41 15 42 16 43 17 44 18 45 19 46 20 47 21 48 22 49 23
REMARK SMILES IDX 50 24 51 25 52 26 56 27 53 28 55 29 54 30 57 31 58 32 59 33
REMARK SMILES IDX 60 35 61 36 62 37 63 38 64 39 65 40 66 41 67 42 68 43 21 45
REMARK SMILES IDX 20 46 18 47 19 48 17 50 16 52 14 53 15 54 9 56 8 57 6 58
REMARK SMILES IDX 7 59 5 61 4 62 3 63 2 64 1 65 10 66 11 67 12 68 13 69 22 71
REMARK SMILES IDX 23 72 24 73 25 74 26 75 27 76 28 77
REMARK H PARENT 31 4 36 13 59 34 20 49 16 55 8 60 13 70 27 78 27 79 28 80
REMARK H PARENT 28 81
REMARK Flexibility Score:  259.900
ROOT
ATOM      1  O   UNL     1      -2.420  -7.418  -5.884  1.00  0.00    -0.273 OA
ATOM      2  N   UNL     1      -1.846  -7.649  -3.682  1.00  0.00    -0.343 N 
ATOM      3  C   UNL     1      -1.555  -7.406  -5.007  1.00  0.00     0.243 C 
ATOM      4  H   UNL     1      -1.112  -7.616  -2.985  1.00  0.00     0.164 HD
ENDROOT
BRANCH   2   5
ATOM      5  C   UNL     1      -3.189  -8.052  -3.278  1.00  0.00     0.171 C 
ATOM      6  C   UNL     1      -5.566  -8.751  -4.785  1.00  0.00     0.214 C 
ATOM      7  N   UNL     1      -5.355  -7.379  -4.387  1.00  0.00    -0.303 N 
ATOM      8  C   UNL     1      -4.956  -9.757  -3.821  1.00  0.00     0.057 C 
ATOM      9  C   UNL     1      -4.218  -6.968  -3.711  1.00  0.00     0.247 C 
ATOM     10  C   UNL     1      -3.472  -9.498  -3.681  1.00  0.00     0.040 C 
ATOM     11  O   UNL     1      -4.004  -5.777  -3.450  1.00  0.00    -0.272 OA
BRANCH   6  12
ATOM     12  O   UNL     1      -5.023  -8.914  -6.074  1.00  0.00    -0.373 OA
ATOM     13  H   UNL     1      -5.764  -9.158  -6.669  1.00  0.00     0.213 HD
ENDBRANCH   6  12
BRANCH   7  14
ATOM     14  C   UNL     1      -6.341  -6.385  -4.862  1.00  0.00     0.177 C 
BRANCH  14  15
ATOM     15  C   UNL     1      -7.208  -5.743  -3.761  1.00  0.00     0.038 C 
BRANCH  15  16
ATOM     16  C   UNL     1      -7.940  -6.648  -2.745  1.00  0.00    -0.015 C 
ATOM     17  C   UNL     1      -6.974  -7.361  -1.795  1.00  0.00     0.007 C 
ATOM     18  C   UNL     1      -8.754  -7.713  -3.492  1.00  0.00     0.007 C 
ENDBRANCH  15  16
ENDBRANCH  14  15
BRANCH  14  19
ATOM     19  C   UNL     1      -5.800  -5.647  -6.135  1.00  0.00     0.245 C 
ATOM     20  O   UNL     1      -4.678  -5.121  -6.042  1.00  0.00    -0.272 OA
BRANCH  19  21
ATOM     21  N   UNL     1      -6.538  -5.460  -7.290  1.00  0.00    -0.332 N 
ATOM     22  C   UNL     1      -7.622  -4.508  -7.452  1.00  0.00     0.147 C 
BRANCH  21  23
ATOM     23  C   UNL     1      -6.211  -6.308  -8.470  1.00  0.00     0.178 C 
BRANCH  23  24
ATOM     24  C   UNL     1      -6.872  -5.861  -9.789  1.00  0.00     0.070 C 
BRANCH  24  25
ATOM     25  C   UNL     1      -7.866  -6.809 -10.418  1.00  0.00    -0.045 A 
ATOM     26  C   UNL     1      -7.432  -7.903 -11.178  1.00  0.00     0.004 A 
ATOM     27  C   UNL     1      -9.243  -6.604 -10.250  1.00  0.00     0.004 A 
ATOM     28  C   UNL     1      -8.358  -8.765 -11.770  1.00  0.00     0.000 A 
ATOM     29  C   UNL     1     -10.167  -7.467 -10.841  1.00  0.00     0.000 A 
ATOM     30  C   UNL     1      -9.723  -8.546 -11.603  1.00  0.00     0.000 A 
ENDBRANCH  24  25
ENDBRANCH  23  24
BRANCH  23  31
ATOM     31  C   UNL     1      -4.703  -6.639  -8.576  1.00  0.00     0.243 C 
ATOM     32  O   UNL     1      -3.819  -5.792  -8.680  1.00  0.00    -0.273 OA
ATOM     33  N   UNL     1      -4.443  -7.990  -8.730  1.00  0.00    -0.341 N 
ATOM     34  H   UNL     1      -5.221  -8.648  -8.639  1.00  0.00     0.164 HD
BRANCH  33  35
ATOM     35  C   UNL     1      -3.098  -8.523  -8.968  1.00  0.00     0.194 C 
BRANCH  35  36
ATOM     36  C   UNL     1      -2.732  -8.675 -10.471  1.00  0.00     0.017 C 
ATOM     37  C   UNL     1      -2.010  -7.424 -11.001  1.00  0.00     0.010 C 
ATOM     38  C   UNL     1      -3.953  -8.915 -11.369  1.00  0.00     0.010 C 
ENDBRANCH  35  36
BRANCH  35  39
ATOM     39  C   UNL     1      -2.822  -9.827  -8.168  1.00  0.00     0.329 C 
ATOM     40  O   UNL     1      -3.614 -10.758  -8.079  1.00  0.00    -0.250 OA
BRANCH  39  41
ATOM     41  O   UNL     1      -1.559  -9.859  -7.646  1.00  0.00    -0.458 OA
BRANCH  41  42
ATOM     42  C   UNL     1      -0.498 -10.235  -8.556  1.00  0.00     0.205 CG0
ATOM     43  C   UNL     1      -0.300 -11.744  -8.424  1.00  0.00     0.056 C 
ATOM     44  G   UNL     1       0.771  -9.440  -8.189  1.00  0.00     0.000 G0
ENDBRANCH  41  42
ENDBRANCH  39  41
ENDBRANCH  35  39
ENDBRANCH  33  35
ENDBRANCH  23  31
ENDBRANCH  21  23
ENDBRANCH  19  21
ENDBRANCH  14  19
ENDBRANCH   7  14
ENDBRANCH   2   5
BRANCH   3  45
ATOM     45  C   UNL     1      -0.083  -7.098  -5.310  1.00  0.00     0.171 C 
BRANCH  45  46
ATOM     46  N   UNL     1       0.389  -8.203  -6.134  1.00  0.00    -0.342 N 
ATOM     47  C   UNL     1       0.384  -8.153  -7.505  1.00  0.00     0.247 C 
ATOM     48  O   UNL     1       0.053  -7.149  -8.137  1.00  0.00    -0.273 OA
ATOM     49  H   UNL     1       0.726  -9.034  -5.651  1.00  0.00     0.164 HD
BRANCH  47  50
ATOM     50  C   UNL     1       0.799  -9.455  -8.205  1.00  0.00     0.212 CG0
ATOM     51  G   UNL     1      -0.488 -10.218  -8.574  1.00  0.00     0.000 G0
BRANCH  50  52
ATOM     52  N   UNL     1       1.579  -9.041  -9.369  1.00  0.00    -0.339 N 
ATOM     53  C   UNL     1       2.698  -9.708  -9.805  1.00  0.00     0.243 C 
ATOM     54  O   UNL     1       3.162 -10.679  -9.214  1.00  0.00    -0.273 OA
ATOM     55  H   UNL     1       1.308  -8.178  -9.836  1.00  0.00     0.164 HD
BRANCH  53  56
ATOM     56  C   UNL     1       3.403  -9.035 -11.000  1.00  0.00     0.182 C 
BRANCH  56  57
ATOM     57  N   UNL     1       4.120  -7.828 -10.577  1.00  0.00    -0.344 N 
ATOM     58  C   UNL     1       5.349  -7.878  -9.966  1.00  0.00     0.220 C 
ATOM     59  O   UNL     1       5.899  -8.933  -9.667  1.00  0.00    -0.275 OA
ATOM     60  H   UNL     1       3.749  -6.937 -10.896  1.00  0.00     0.164 HD
BRANCH  58  61
ATOM     61  C   UNL     1       5.930  -6.508  -9.669  1.00  0.00     0.100 C 
BRANCH  61  62
ATOM     62  C   UNL     1       4.908  -5.374  -9.754  1.00  0.00     0.010 C 
BRANCH  62  63
ATOM     63  C   UNL     1       4.914  -4.432  -8.544  1.00  0.00     0.000 C 
BRANCH  63  64
ATOM     64  C   UNL     1       3.684  -4.557  -7.646  1.00  0.00    -0.003 C 
ATOM     65  C   UNL     1       3.889  -3.837  -6.321  1.00  0.00     0.004 C 
ENDBRANCH  63  64
ENDBRANCH  62  63
ENDBRANCH  61  62
ENDBRANCH  58  61
ENDBRANCH  56  57
BRANCH  56  66
ATOM     66  C   UNL     1       2.427  -8.756 -12.141  1.00  0.00     0.157 C 
BRANCH  66  67
ATOM     67  C   UNL     1       3.154  -8.522 -13.434  1.00  0.00     0.305 C 
ATOM     68  O   UNL     1       4.044  -7.712 -13.638  1.00  0.00    -0.252 OA
BRANCH  67  69
ATOM     69  O   UNL     1       2.755  -9.366 -14.405  1.00  0.00    -0.481 OA
ATOM     70  H   UNL     1       2.668 -10.236 -13.960  1.00  0.00     0.296 HD
ENDBRANCH  67  69
ENDBRANCH  66  67
ENDBRANCH  56  66
ENDBRANCH  53  56
ENDBRANCH  50  52
ENDBRANCH  47  50
ENDBRANCH  45  46
BRANCH  45  71
ATOM     71  C   UNL     1       0.717  -6.982  -4.008  1.00  0.00     0.037 C 
BRANCH  71  72
ATOM     72  C   UNL     1       1.726  -5.832  -4.053  1.00  0.00     0.026 C 
BRANCH  72  73
ATOM     73  C   UNL     1       1.440  -4.792  -2.971  1.00  0.00     0.146 C 
BRANCH  73  74
ATOM     74  N   UNL     1       0.014  -4.849  -2.664  1.00  0.00    -0.254 NA
ATOM     75  C   UNL     1      -0.720  -3.868  -3.042  1.00  0.00     0.185 C 
ATOM     76  N   UNL     1      -2.035  -3.892  -2.775  1.00  0.00    -0.370 N 
ATOM     77  N   UNL     1      -0.364  -2.753  -3.704  1.00  0.00    -0.370 N 
ATOM     78  H   UNL     1      -2.385  -4.695  -2.271  1.00  0.00     0.159 HD
ATOM     79  H   UNL     1      -2.642  -3.103  -2.910  1.00  0.00     0.159 HD
ATOM     80  H   UNL     1       0.595  -2.601  -3.976  1.00  0.00     0.159 HD
ATOM     81  H   UNL     1      -1.051  -2.104  -4.051  1.00  0.00     0.159 HD
ENDBRANCH  73  74
ENDBRANCH  72  73
ENDBRANCH  71  72
ENDBRANCH  45  71
ENDBRANCH   3  45
TORSDOF 20
ENDMDL
MODEL 36
REMARK VINA RESULT:    -4.603      2.605      9.575
REMARK INTER + INTRA:         -20.386
REMARK INTER:                 -16.147
REMARK INTRA:                  -4.239
REMARK UNBOUND:                -7.173
REMARK SMILES CCCCCC(=O)N[C@H](CC(=O)O)C(=O)N[C@H]1C(=O)N[C@H](CCCN=C(N)N)C(=O)N[C@@H]2CC[C@H](O)N(C2=O)[C@@H](CC(C)C)C(=O)N(C)[C@@H](Cc2ccccc2)C(=O)N[C@H](C(C)C)C(=O)O[C@@H]1C
REMARK SMILES IDX 30 1 31 2 29 3 32 5 35 6 37 7 34 8 38 9 33 10 39 11 36 12
REMARK SMILES IDX 40 14 41 15 42 16 43 17 44 18 45 19 46 20 47 21 48 22 49 23
REMARK SMILES IDX 50 24 51 25 52 26 56 27 53 28 55 29 54 30 57 31 58 32 59 33
REMARK SMILES IDX 60 35 61 36 62 37 63 38 64 39 65 40 66 41 67 42 68 43 21 45
REMARK SMILES IDX 20 46 18 47 19 48 17 50 16 52 14 53 15 54 9 56 8 57 6 58
REMARK SMILES IDX 7 59 5 61 4 62 3 63 2 64 1 65 10 66 11 67 12 68 13 69 22 71
REMARK SMILES IDX 23 72 24 73 25 74 26 75 27 76 28 77
REMARK H PARENT 31 4 36 13 59 34 20 49 16 55 8 60 13 70 27 78 27 79 28 80
REMARK H PARENT 28 81
REMARK Flexibility Score:  259.900
ROOT
ATOM      1  O   UNL     1      -2.514  -6.743  -5.083  1.00  0.00    -0.273 OA
ATOM      2  N   UNL     1      -3.825  -6.387  -3.243  1.00  0.00    -0.343 N 
ATOM      3  C   UNL     1      -2.611  -6.435  -3.895  1.00  0.00     0.243 C 
ATOM      4  H   UNL     1      -3.868  -6.115  -2.269  1.00  0.00     0.164 HD
ENDROOT
BRANCH   2   5
ATOM      5  C   UNL     1      -5.045  -6.821  -3.914  1.00  0.00     0.171 C 
ATOM      6  C   UNL     1      -5.525  -8.527  -6.208  1.00  0.00     0.214 C 
ATOM      7  N   UNL     1      -5.371  -7.104  -6.401  1.00  0.00    -0.303 N 
ATOM      8  C   UNL     1      -6.119  -8.890  -4.856  1.00  0.00     0.057 C 
ATOM      9  C   UNL     1      -5.090  -6.239  -5.356  1.00  0.00     0.247 C 
ATOM     10  C   UNL     1      -5.256  -8.325  -3.749  1.00  0.00     0.040 C 
ATOM     11  O   UNL     1      -4.873  -5.035  -5.542  1.00  0.00    -0.272 OA
BRANCH   6  12
ATOM     12  O   UNL     1      -4.258  -9.123  -6.365  1.00  0.00    -0.373 OA
ATOM     13  H   UNL     1      -4.090  -9.658  -5.560  1.00  0.00     0.213 HD
ENDBRANCH   6  12
BRANCH   7  14
ATOM     14  C   UNL     1      -5.379  -6.612  -7.795  1.00  0.00     0.177 C 
BRANCH  14  15
ATOM     15  C   UNL     1      -6.458  -5.558  -8.112  1.00  0.00     0.038 C 
BRANCH  15  16
ATOM     16  C   UNL     1      -7.020  -5.452  -9.547  1.00  0.00    -0.015 C 
ATOM     17  C   UNL     1      -8.104  -4.377  -9.672  1.00  0.00     0.007 C 
ATOM     18  C   UNL     1      -7.627  -6.797  -9.966  1.00  0.00     0.007 C 
ENDBRANCH  15  16
ENDBRANCH  14  15
BRANCH  14  19
ATOM     19  C   UNL     1      -3.928  -6.632  -8.387  1.00  0.00     0.245 C 
ATOM     20  O   UNL     1      -3.057  -6.013  -7.753  1.00  0.00    -0.272 OA
BRANCH  19  21
ATOM     21  N   UNL     1      -3.601  -7.193  -9.608  1.00  0.00    -0.332 N 
ATOM     22  C   UNL     1      -3.872  -6.603 -10.907  1.00  0.00     0.147 C 
BRANCH  21  23
ATOM     23  C   UNL     1      -2.924  -8.520  -9.606  1.00  0.00     0.178 C 
BRANCH  23  24
ATOM     24  C   UNL     1      -3.320  -9.449 -10.771  1.00  0.00     0.070 C 
BRANCH  24  25
ATOM     25  C   UNL     1      -4.668 -10.127 -10.683  1.00  0.00    -0.045 A 
ATOM     26  C   UNL     1      -5.060 -10.795  -9.516  1.00  0.00     0.004 A 
ATOM     27  C   UNL     1      -5.546 -10.101 -11.777  1.00  0.00     0.004 A 
ATOM     28  C   UNL     1      -6.300 -11.434  -9.449  1.00  0.00     0.000 A 
ATOM     29  C   UNL     1      -6.785 -10.739 -11.707  1.00  0.00     0.000 A 
ATOM     30  C   UNL     1      -7.160 -11.407 -10.544  1.00  0.00     0.000 A 
ENDBRANCH  24  25
ENDBRANCH  23  24
BRANCH  23  31
ATOM     31  C   UNL     1      -1.403  -8.421  -9.339  1.00  0.00     0.243 C 
ATOM     32  O   UNL     1      -0.683  -7.533  -9.791  1.00  0.00    -0.273 OA
ATOM     33  N   UNL     1      -0.881  -9.529  -8.695  1.00  0.00    -0.341 N 
ATOM     34  H   UNL     1      -1.530 -10.239  -8.347  1.00  0.00     0.164 HD
BRANCH  33  35
ATOM     35  C   UNL     1       0.552  -9.707  -8.446  1.00  0.00     0.194 C 
BRANCH  35  36
ATOM     36  C   UNL     1       1.270 -10.613  -9.485  1.00  0.00     0.017 C 
ATOM     37  C   UNL     1       2.327  -9.826 -10.279  1.00  0.00     0.010 C 
ATOM     38  C   UNL     1       0.310 -11.245 -10.501  1.00  0.00     0.010 C 
ENDBRANCH  35  36
BRANCH  35  39
ATOM     39  C   UNL     1       0.855 -10.146  -6.986  1.00  0.00     0.329 C 
ATOM     40  O   UNL     1       0.414 -11.167  -6.471  1.00  0.00    -0.250 OA
BRANCH  39  41
ATOM     41  O   UNL     1       1.742  -9.311  -6.365  1.00  0.00    -0.458 OA
BRANCH  41  42
ATOM     42  C   UNL     1       1.268  -7.974  -6.074  1.00  0.00     0.205 CG0
ATOM     43  C   UNL     1       1.852  -7.045  -7.136  1.00  0.00     0.056 C 
ATOM     44  G   UNL     1       1.714  -7.594  -4.648  1.00  0.00     0.000 G0
ENDBRANCH  41  42
ENDBRANCH  39  41
ENDBRANCH  35  39
ENDBRANCH  33  35
ENDBRANCH  23  31
ENDBRANCH  21  23
ENDBRANCH  19  21
ENDBRANCH  14  19
ENDBRANCH   7  14
ENDBRANCH   2   5
BRANCH   3  45
ATOM     45  C   UNL     1      -1.392  -6.056  -3.043  1.00  0.00     0.171 C 
BRANCH  45  46
ATOM     46  N   UNL     1      -0.316  -6.935  -3.481  1.00  0.00    -0.342 N 
ATOM     47  C   UNL     1       0.785  -6.471  -4.155  1.00  0.00     0.247 C 
ATOM     48  O   UNL     1       0.980  -5.275  -4.373  1.00  0.00    -0.273 OA
ATOM     49  H   UNL     1      -0.411  -7.927  -3.271  1.00  0.00     0.164 HD
BRANCH  47  50
ATOM     50  C   UNL     1       1.752  -7.557  -4.646  1.00  0.00     0.212 CG0
ATOM     51  G   UNL     1       1.275  -8.012  -6.040  1.00  0.00     0.000 G0
BRANCH  50  52
ATOM     52  N   UNL     1       3.069  -6.927  -4.665  1.00  0.00    -0.339 N 
ATOM     53  C   UNL     1       3.971  -7.031  -3.634  1.00  0.00     0.243 C 
ATOM     54  O   UNL     1       3.716  -7.621  -2.588  1.00  0.00    -0.273 OA
ATOM     55  H   UNL     1       3.297  -6.331  -5.458  1.00  0.00     0.164 HD
BRANCH  53  56
ATOM     56  C   UNL     1       5.260  -6.209  -3.842  1.00  0.00     0.182 C 
BRANCH  56  57
ATOM     57  N   UNL     1       5.206  -5.455  -5.099  1.00  0.00    -0.344 N 
ATOM     58  C   UNL     1       4.559  -4.248  -5.206  1.00  0.00     0.220 C 
ATOM     59  O   UNL     1       3.921  -3.753  -4.283  1.00  0.00    -0.275 OA
ATOM     60  H   UNL     1       5.803  -5.778  -5.856  1.00  0.00     0.164 HD
BRANCH  58  61
ATOM     61  C   UNL     1       4.682  -3.620  -6.582  1.00  0.00     0.100 C 
BRANCH  61  62
ATOM     62  C   UNL     1       3.381  -3.635  -7.384  1.00  0.00     0.010 C 
BRANCH  62  63
ATOM     63  C   UNL     1       3.454  -4.447  -8.684  1.00  0.00     0.000 C 
BRANCH  63  64
ATOM     64  C   UNL     1       4.756  -5.225  -8.864  1.00  0.00    -0.003 C 
ATOM     65  C   UNL     1       4.499  -6.615  -9.428  1.00  0.00     0.004 C 
ENDBRANCH  63  64
ENDBRANCH  62  63
ENDBRANCH  61  62
ENDBRANCH  58  61
ENDBRANCH  56  57
BRANCH  56  66
ATOM     66  C   UNL     1       6.506  -7.088  -3.751  1.00  0.00     0.157 C 
BRANCH  66  67
ATOM     67  C   UNL     1       6.481  -8.176  -4.785  1.00  0.00     0.305 C 
ATOM     68  O   UNL     1       6.192  -8.058  -5.966  1.00  0.00    -0.252 OA
BRANCH  67  69
ATOM     69  O   UNL     1       6.876  -9.364  -4.289  1.00  0.00    -0.481 OA
ATOM     70  H   UNL     1       6.161  -9.988  -4.535  1.00  0.00     0.296 HD
ENDBRANCH  67  69
ENDBRANCH  66  67
ENDBRANCH  56  66
ENDBRANCH  53  56
ENDBRANCH  50  52
ENDBRANCH  47  50
ENDBRANCH  45  46
BRANCH  45  71
ATOM     71  C   UNL     1      -1.703  -6.243  -1.553  1.00  0.00     0.037 C 
BRANCH  71  72
ATOM     72  C   UNL     1      -0.966  -5.225  -0.679  1.00  0.00     0.026 C 
BRANCH  72  73
ATOM     73  C   UNL     1      -0.743  -3.908  -1.420  1.00  0.00     0.146 C 
BRANCH  73  74
ATOM     74  N   UNL     1      -1.320  -2.838  -0.612  1.00  0.00    -0.254 NA
ATOM     75  C   UNL     1      -2.468  -2.382  -0.954  1.00  0.00     0.185 C 
ATOM     76  N   UNL     1      -3.025  -1.398  -0.230  1.00  0.00    -0.370 N 
ATOM     77  N   UNL     1      -3.252  -2.751  -1.982  1.00  0.00    -0.370 N 
ATOM     78  H   UNL     1      -2.497  -1.055   0.559  1.00  0.00     0.159 HD
ATOM     79  H   UNL     1      -3.846  -0.895  -0.518  1.00  0.00     0.159 HD
ATOM     80  H   UNL     1      -2.963  -3.485  -2.611  1.00  0.00     0.159 HD
ATOM     81  H   UNL     1      -4.190  -2.399  -2.084  1.00  0.00     0.159 HD
ENDBRANCH  73  74
ENDBRANCH  72  73
ENDBRANCH  71  72
ENDBRANCH  45  71
ENDBRANCH   3  45
TORSDOF 20
ENDMDL
MODEL 37
REMARK VINA RESULT:    -4.596      3.327      6.896
REMARK INTER + INTRA:         -20.366
REMARK INTER:                 -15.715
REMARK INTRA:                  -4.651
REMARK UNBOUND:                -7.173
REMARK SMILES CCCCCC(=O)N[C@H](CC(=O)O)C(=O)N[C@H]1C(=O)N[C@H](CCCN=C(N)N)C(=O)N[C@@H]2CC[C@H](O)N(C2=O)[C@@H](CC(C)C)C(=O)N(C)[C@@H](Cc2ccccc2)C(=O)N[C@H](C(C)C)C(=O)O[C@@H]1C
REMARK SMILES IDX 30 1 31 2 29 3 32 5 35 6 37 7 34 8 38 9 33 10 39 11 36 12
REMARK SMILES IDX 40 14 41 15 42 16 43 17 44 18 45 19 46 20 47 21 48 22 49 23
REMARK SMILES IDX 50 24 51 25 52 26 56 27 53 28 55 29 54 30 57 31 58 32 59 33
REMARK SMILES IDX 60 35 61 36 62 37 63 38 64 39 65 40 66 41 67 42 68 43 21 45
REMARK SMILES IDX 20 46 18 47 19 48 17 50 16 52 14 53 15 54 9 56 8 57 6 58
REMARK SMILES IDX 7 59 5 61 4 62 3 63 2 64 1 65 10 66 11 67 12 68 13 69 22 71
REMARK SMILES IDX 23 72 24 73 25 74 26 75 27 76 28 77
REMARK H PARENT 31 4 36 13 59 34 20 49 16 55 8 60 13 70 27 78 27 79 28 80
REMARK H PARENT 28 81
REMARK Flexibility Score:  259.900
ROOT
ATOM      1  O   UNL     1       0.879  -8.005  -6.450  1.00  0.00    -0.273 OA
ATOM      2  N   UNL     1       0.195  -7.960  -8.632  1.00  0.00    -0.343 N 
ATOM      3  C   UNL     1      -0.036  -7.998  -7.274  1.00  0.00     0.243 C 
ATOM      4  H   UNL     1      -0.582  -7.940  -9.280  1.00  0.00     0.164 HD
ENDROOT
BRANCH   2   5
ATOM      5  C   UNL     1       1.554  -8.046  -9.156  1.00  0.00     0.171 C 
ATOM      6  C   UNL     1       4.152  -8.135  -7.874  1.00  0.00     0.214 C 
ATOM      7  N   UNL     1       3.590  -6.859  -8.253  1.00  0.00    -0.303 N 
ATOM      8  C   UNL     1       3.713  -9.277  -8.775  1.00  0.00     0.057 C 
ATOM      9  C   UNL     1       2.333  -6.742  -8.822  1.00  0.00     0.247 C 
ATOM     10  C   UNL     1       2.203  -9.377  -8.779  1.00  0.00     0.040 C 
ATOM     11  O   UNL     1       1.822  -5.640  -9.064  1.00  0.00    -0.272 OA
BRANCH   6  12
ATOM     12  O   UNL     1       3.780  -8.390  -6.539  1.00  0.00    -0.373 OA
ATOM     13  H   UNL     1       4.588  -8.290  -5.991  1.00  0.00     0.213 HD
ENDBRANCH   6  12
BRANCH   7  14
ATOM     14  C   UNL     1       4.352  -5.651  -7.873  1.00  0.00     0.177 C 
BRANCH  14  15
ATOM     15  C   UNL     1       5.416  -5.199  -8.892  1.00  0.00     0.038 C 
BRANCH  15  16
ATOM     16  C   UNL     1       5.590  -5.986 -10.210  1.00  0.00    -0.015 C 
ATOM     17  C   UNL     1       6.882  -6.808 -10.233  1.00  0.00     0.007 C 
ATOM     18  C   UNL     1       5.619  -5.013 -11.396  1.00  0.00     0.007 C 
ENDBRANCH  15  16
ENDBRANCH  14  15
BRANCH  14  19
ATOM     19  C   UNL     1       3.461  -4.695  -7.008  1.00  0.00     0.245 C 
ATOM     20  O   UNL     1       2.572  -4.066  -7.606  1.00  0.00    -0.272 OA
BRANCH  19  21
ATOM     21  N   UNL     1       3.681  -4.438  -5.667  1.00  0.00    -0.332 N 
ATOM     22  C   UNL     1       4.342  -3.260  -5.132  1.00  0.00     0.147 C 
BRANCH  21  23
ATOM     23  C   UNL     1       3.218  -5.450  -4.678  1.00  0.00     0.178 C 
BRANCH  23  24
ATOM     24  C   UNL     1       4.217  -5.748  -3.542  1.00  0.00     0.070 C 
BRANCH  24  25
ATOM     25  C   UNL     1       5.057  -6.997  -3.673  1.00  0.00    -0.045 A 
ATOM     26  C   UNL     1       4.629  -8.211  -3.123  1.00  0.00     0.004 A 
ATOM     27  C   UNL     1       6.287  -6.954  -4.348  1.00  0.00     0.004 A 
ATOM     28  C   UNL     1       5.419  -9.357  -3.234  1.00  0.00     0.000 A 
ATOM     29  C   UNL     1       7.075  -8.101  -4.460  1.00  0.00     0.000 A 
ATOM     30  C   UNL     1       6.642  -9.301  -3.900  1.00  0.00     0.000 A 
ENDBRANCH  24  25
ENDBRANCH  23  24
BRANCH  23  31
ATOM     31  C   UNL     1       1.758  -5.221  -4.219  1.00  0.00     0.243 C 
ATOM     32  O   UNL     1       0.773  -5.610  -4.841  1.00  0.00    -0.273 OA
ATOM     33  N   UNL     1       1.648  -4.372  -3.131  1.00  0.00    -0.341 N 
ATOM     34  H   UNL     1       2.505  -4.076  -2.657  1.00  0.00     0.164 HD
BRANCH  33  35
ATOM     35  C   UNL     1       0.359  -3.919  -2.599  1.00  0.00     0.194 C 
BRANCH  35  36
ATOM     36  C   UNL     1       0.287  -2.390  -2.325  1.00  0.00     0.017 C 
ATOM     37  C   UNL     1      -1.170  -1.911  -2.208  1.00  0.00     0.010 C 
ATOM     38  C   UNL     1       0.961  -1.549  -3.415  1.00  0.00     0.010 C 
ENDBRANCH  35  36
BRANCH  35  39
ATOM     39  C   UNL     1      -0.106  -4.751  -1.371  1.00  0.00     0.329 C 
ATOM     40  O   UNL     1      -0.031  -4.363  -0.211  1.00  0.00    -0.250 OA
BRANCH  39  41
ATOM     41  O   UNL     1      -0.690  -5.933  -1.735  1.00  0.00    -0.458 OA
BRANCH  41  42
ATOM     42  C   UNL     1      -1.792  -5.843  -2.669  1.00  0.00     0.205 CG0
ATOM     43  C   UNL     1      -2.956  -5.181  -1.934  1.00  0.00     0.056 C 
ATOM     44  G   UNL     1      -2.137  -7.262  -3.161  1.00  0.00     0.000 G0
ENDBRANCH  41  42
ENDBRANCH  39  41
ENDBRANCH  35  39
ENDBRANCH  33  35
ENDBRANCH  23  31
ENDBRANCH  21  23
ENDBRANCH  19  21
ENDBRANCH  14  19
ENDBRANCH   7  14
ENDBRANCH   2   5
BRANCH   3  45
ATOM     45  C   UNL     1      -1.514  -8.010  -6.860  1.00  0.00     0.171 C 
BRANCH  45  46
ATOM     46  N   UNL     1      -1.514  -8.014  -5.403  1.00  0.00    -0.342 N 
ATOM     47  C   UNL     1      -2.380  -7.247  -4.664  1.00  0.00     0.247 C 
ATOM     48  O   UNL     1      -3.265  -6.559  -5.175  1.00  0.00    -0.273 OA
ATOM     49  H   UNL     1      -0.835  -8.614  -4.939  1.00  0.00     0.164 HD
BRANCH  47  50
ATOM     50  C   UNL     1      -2.151  -7.286  -3.147  1.00  0.00     0.212 CG0
ATOM     51  G   UNL     1      -1.821  -5.852  -2.687  1.00  0.00     0.000 G0
BRANCH  50  52
ATOM     52  N   UNL     1      -3.393  -7.803  -2.578  1.00  0.00    -0.339 N 
ATOM     53  C   UNL     1      -3.561  -9.111  -2.194  1.00  0.00     0.243 C 
ATOM     54  O   UNL     1      -2.691  -9.964  -2.349  1.00  0.00    -0.273 OA
ATOM     55  H   UNL     1      -4.189  -7.171  -2.527  1.00  0.00     0.164 HD
BRANCH  53  56
ATOM     56  C   UNL     1      -4.984  -9.443  -1.703  1.00  0.00     0.182 C 
BRANCH  56  57
ATOM     57  N   UNL     1      -5.834  -8.248  -1.705  1.00  0.00    -0.344 N 
ATOM     58  C   UNL     1      -6.853  -8.071  -2.609  1.00  0.00     0.220 C 
ATOM     59  O   UNL     1      -7.077  -8.861  -3.520  1.00  0.00    -0.275 OA
ATOM     60  H   UNL     1      -5.749  -7.621  -0.909  1.00  0.00     0.164 HD
BRANCH  58  61
ATOM     61  C   UNL     1      -7.637  -6.791  -2.388  1.00  0.00     0.100 C 
BRANCH  61  62
ATOM     62  C   UNL     1      -8.489  -6.375  -3.588  1.00  0.00     0.010 C 
BRANCH  62  63
ATOM     63  C   UNL     1      -8.168  -4.977  -4.131  1.00  0.00     0.000 C 
BRANCH  63  64
ATOM     64  C   UNL     1      -6.708  -4.780  -4.533  1.00  0.00    -0.003 C 
ATOM     65  C   UNL     1      -6.592  -4.168  -5.922  1.00  0.00     0.004 C 
ENDBRANCH  63  64
ENDBRANCH  62  63
ENDBRANCH  61  62
ENDBRANCH  58  61
ENDBRANCH  56  57
BRANCH  56  66
ATOM     66  C   UNL     1      -4.960 -10.131  -0.339  1.00  0.00     0.157 C 
BRANCH  66  67
ATOM     67  C   UNL     1      -5.002  -9.127   0.777  1.00  0.00     0.305 C 
ATOM     68  O   UNL     1      -5.968  -8.839   1.467  1.00  0.00    -0.252 OA
BRANCH  67  69
ATOM     69  O   UNL     1      -3.799  -8.567   1.007  1.00  0.00    -0.481 OA
ATOM     70  H   UNL     1      -3.433  -9.065   1.768  1.00  0.00     0.296 HD
ENDBRANCH  67  69
ENDBRANCH  66  67
ENDBRANCH  56  66
ENDBRANCH  53  56
ENDBRANCH  50  52
ENDBRANCH  47  50
ENDBRANCH  45  46
BRANCH  45  71
ATOM     71  C   UNL     1      -2.218  -9.246  -7.429  1.00  0.00     0.037 C 
BRANCH  71  72
ATOM     72  C   UNL     1      -2.934 -10.053  -6.342  1.00  0.00     0.026 C 
BRANCH  72  73
ATOM     73  C   UNL     1      -4.435 -10.144  -6.609  1.00  0.00     0.146 C 
BRANCH  73  74
ATOM     74  N   UNL     1      -4.762  -9.179  -7.654  1.00  0.00    -0.254 NA
ATOM     75  C   UNL     1      -5.474  -8.164  -7.330  1.00  0.00     0.185 C 
ATOM     76  N   UNL     1      -5.791  -7.258  -8.269  1.00  0.00    -0.370 N 
ATOM     77  N   UNL     1      -5.986  -7.838  -6.130  1.00  0.00    -0.370 N 
ATOM     78  H   UNL     1      -5.452  -7.431  -9.205  1.00  0.00     0.159 HD
ATOM     79  H   UNL     1      -6.459  -6.521  -8.125  1.00  0.00     0.159 HD
ATOM     80  H   UNL     1      -5.825  -8.427  -5.326  1.00  0.00     0.159 HD
ATOM     81  H   UNL     1      -6.434  -6.952  -5.969  1.00  0.00     0.159 HD
ENDBRANCH  73  74
ENDBRANCH  72  73
ENDBRANCH  71  72
ENDBRANCH  45  71
ENDBRANCH   3  45
TORSDOF 20
ENDMDL
MODEL 38
REMARK VINA RESULT:    -4.521      2.828      4.710
REMARK INTER + INTRA:         -20.151
REMARK INTER:                 -18.606
REMARK INTRA:                  -1.545
REMARK UNBOUND:                -7.173
REMARK SMILES CCCCCC(=O)N[C@H](CC(=O)O)C(=O)N[C@H]1C(=O)N[C@H](CCCN=C(N)N)C(=O)N[C@@H]2CC[C@H](O)N(C2=O)[C@@H](CC(C)C)C(=O)N(C)[C@@H](Cc2ccccc2)C(=O)N[C@H](C(C)C)C(=O)O[C@@H]1C
REMARK SMILES IDX 30 1 31 2 29 3 32 5 35 6 37 7 34 8 38 9 33 10 39 11 36 12
REMARK SMILES IDX 40 14 41 15 42 16 43 17 44 18 45 19 46 20 47 21 48 22 49 23
REMARK SMILES IDX 50 24 51 25 52 26 56 27 53 28 55 29 54 30 57 31 58 32 59 33
REMARK SMILES IDX 60 35 61 36 62 37 63 38 64 39 65 40 66 41 67 42 68 43 21 45
REMARK SMILES IDX 20 46 18 47 19 48 17 50 16 52 14 53 15 54 9 56 8 57 6 58
REMARK SMILES IDX 7 59 5 61 4 62 3 63 2 64 1 65 10 66 11 67 12 68 13 69 22 71
REMARK SMILES IDX 23 72 24 73 25 74 26 75 27 76 28 77
REMARK H PARENT 31 4 36 13 59 34 20 49 16 55 8 60 13 70 27 78 27 79 28 80
REMARK H PARENT 28 81
REMARK Flexibility Score:  259.900
ROOT
ATOM      1  O   UNL     1      -0.545  -4.931   0.040  1.00  0.00    -0.273 OA
ATOM      2  N   UNL     1      -0.531  -4.386  -2.181  1.00  0.00    -0.343 N 
ATOM      3  C   UNL     1      -0.976  -5.114  -1.098  1.00  0.00     0.243 C 
ATOM      4  H   UNL     1      -0.919  -4.553  -3.101  1.00  0.00     0.164 HD
ENDROOT
BRANCH   2   5
ATOM      5  C   UNL     1       0.569  -3.438  -2.036  1.00  0.00     0.171 C 
ATOM      6  C   UNL     1       2.005  -1.790  -3.941  1.00  0.00     0.214 C 
ATOM      7  N   UNL     1       2.493  -3.116  -3.639  1.00  0.00    -0.303 N 
ATOM      8  C   UNL     1       1.271  -1.140  -2.779  1.00  0.00     0.057 C 
ATOM      9  C   UNL     1       1.827  -3.974  -2.778  1.00  0.00     0.247 C 
ATOM     10  C   UNL     1       0.112  -2.015  -2.351  1.00  0.00     0.040 C 
ATOM     11  O   UNL     1       2.204  -5.138  -2.592  1.00  0.00    -0.272 OA
BRANCH   6  12
ATOM     12  O   UNL     1       1.161  -1.887  -5.064  1.00  0.00    -0.373 OA
ATOM     13  H   UNL     1       0.691  -2.746  -4.997  1.00  0.00     0.213 HD
ENDBRANCH   6  12
BRANCH   7  14
ATOM     14  C   UNL     1       3.666  -3.589  -4.404  1.00  0.00     0.177 C 
BRANCH  14  15
ATOM     15  C   UNL     1       4.094  -2.684  -5.575  1.00  0.00     0.038 C 
BRANCH  15  16
ATOM     16  C   UNL     1       3.934  -3.189  -7.026  1.00  0.00    -0.015 C 
ATOM     17  C   UNL     1       2.797  -4.205  -7.169  1.00  0.00     0.007 C 
ATOM     18  C   UNL     1       5.236  -3.857  -7.489  1.00  0.00     0.007 C 
ENDBRANCH  15  16
ENDBRANCH  14  15
BRANCH  14  19
ATOM     19  C   UNL     1       4.641  -4.383  -3.468  1.00  0.00     0.245 C 
ATOM     20  O   UNL     1       5.361  -3.711  -2.711  1.00  0.00    -0.272 OA
BRANCH  19  21
ATOM     21  N   UNL     1       4.816  -5.755  -3.523  1.00  0.00    -0.332 N 
ATOM     22  C   UNL     1       4.441  -6.694  -2.481  1.00  0.00     0.147 C 
BRANCH  21  23
ATOM     23  C   UNL     1       5.452  -6.327  -4.742  1.00  0.00     0.178 C 
BRANCH  23  24
ATOM     24  C   UNL     1       6.804  -7.027  -4.496  1.00  0.00     0.070 C 
BRANCH  24  25
ATOM     25  C   UNL     1       6.830  -8.533  -4.608  1.00  0.00    -0.045 A 
ATOM     26  C   UNL     1       7.037  -9.158  -5.845  1.00  0.00     0.004 A 
ATOM     27  C   UNL     1       6.640  -9.331  -3.470  1.00  0.00     0.004 A 
ATOM     28  C   UNL     1       7.043 -10.551  -5.943  1.00  0.00     0.000 A 
ATOM     29  C   UNL     1       6.647 -10.723  -3.569  1.00  0.00     0.000 A 
ATOM     30  C   UNL     1       6.845 -11.332  -4.807  1.00  0.00     0.000 A 
ENDBRANCH  24  25
ENDBRANCH  23  24
BRANCH  23  31
ATOM     31  C   UNL     1       4.459  -7.120  -5.625  1.00  0.00     0.243 C 
ATOM     32  O   UNL     1       4.520  -7.172  -6.850  1.00  0.00    -0.273 OA
ATOM     33  N   UNL     1       3.374  -7.621  -4.924  1.00  0.00    -0.341 N 
ATOM     34  H   UNL     1       3.377  -7.542  -3.904  1.00  0.00     0.164 HD
BRANCH  33  35
ATOM     35  C   UNL     1       2.250  -8.302  -5.573  1.00  0.00     0.194 C 
BRANCH  35  36
ATOM     36  C   UNL     1       2.588  -9.726  -6.098  1.00  0.00     0.017 C 
ATOM     37  C   UNL     1       1.313 -10.499  -6.478  1.00  0.00     0.010 C 
ATOM     38  C   UNL     1       3.356 -10.579  -5.081  1.00  0.00     0.010 C 
ENDBRANCH  35  36
BRANCH  35  39
ATOM     39  C   UNL     1       1.570  -7.427  -6.663  1.00  0.00     0.329 C 
ATOM     40  O   UNL     1       1.910  -7.411  -7.841  1.00  0.00    -0.250 OA
BRANCH  39  41
ATOM     41  O   UNL     1       0.491  -6.740  -6.180  1.00  0.00    -0.458 OA
BRANCH  41  42
ATOM     42  C   UNL     1      -0.730  -7.500  -6.013  1.00  0.00     0.205 CG0
ATOM     43  C   UNL     1      -1.246  -7.844  -7.408  1.00  0.00     0.056 C 
ATOM     44  G   UNL     1      -1.731  -6.650  -5.206  1.00  0.00     0.000 G0
ENDBRANCH  41  42
ENDBRANCH  39  41
ENDBRANCH  35  39
ENDBRANCH  33  35
ENDBRANCH  23  31
ENDBRANCH  21  23
ENDBRANCH  19  21
ENDBRANCH  14  19
ENDBRANCH   7  14
ENDBRANCH   2   5
BRANCH   3  45
ATOM     45  C   UNL     1      -2.062  -6.153  -1.408  1.00  0.00     0.171 C 
BRANCH  45  46
ATOM     46  N   UNL     1      -2.239  -6.119  -2.853  1.00  0.00    -0.342 N 
ATOM     47  C   UNL     1      -1.530  -6.931  -3.702  1.00  0.00     0.247 C 
ATOM     48  O   UNL     1      -0.749  -7.795  -3.303  1.00  0.00    -0.273 OA
ATOM     49  H   UNL     1      -2.918  -5.456  -3.223  1.00  0.00     0.164 HD
BRANCH  47  50
ATOM     50  C   UNL     1      -1.759  -6.667  -5.197  1.00  0.00     0.212 CG0
ATOM     51  G   UNL     1      -0.720  -7.493  -5.982  1.00  0.00     0.000 G0
BRANCH  50  52
ATOM     52  N   UNL     1      -3.137  -7.076  -5.458  1.00  0.00    -0.339 N 
ATOM     53  C   UNL     1      -4.219  -6.254  -5.258  1.00  0.00     0.243 C 
ATOM     54  O   UNL     1      -4.115  -5.123  -4.791  1.00  0.00    -0.273 OA
ATOM     55  H   UNL     1      -3.298  -8.040  -5.742  1.00  0.00     0.164 HD
BRANCH  53  56
ATOM     56  C   UNL     1      -5.579  -6.933  -5.520  1.00  0.00     0.182 C 
BRANCH  56  57
ATOM     57  N   UNL     1      -6.323  -6.234  -6.573  1.00  0.00    -0.344 N 
ATOM     58  C   UNL     1      -5.916  -6.233  -7.885  1.00  0.00     0.220 C 
ATOM     59  O   UNL     1      -4.869  -6.753  -8.255  1.00  0.00    -0.275 OA
ATOM     60  H   UNL     1      -7.244  -5.879  -6.328  1.00  0.00     0.164 HD
BRANCH  58  61
ATOM     61  C   UNL     1      -6.868  -5.497  -8.809  1.00  0.00     0.100 C 
BRANCH  61  62
ATOM     62  C   UNL     1      -6.650  -5.804 -10.291  1.00  0.00     0.010 C 
BRANCH  62  63
ATOM     63  C   UNL     1      -7.882  -5.558 -11.171  1.00  0.00     0.000 C 
BRANCH  63  64
ATOM     64  C   UNL     1      -8.568  -6.832 -11.659  1.00  0.00    -0.003 C 
ATOM     65  C   UNL     1      -9.509  -7.396 -10.605  1.00  0.00     0.004 C 
ENDBRANCH  63  64
ENDBRANCH  62  63
ENDBRANCH  61  62
ENDBRANCH  58  61
ENDBRANCH  56  57
BRANCH  56  66
ATOM     66  C   UNL     1      -6.392  -7.072  -4.234  1.00  0.00     0.157 C 
BRANCH  66  67
ATOM     67  C   UNL     1      -6.885  -5.737  -3.756  1.00  0.00     0.305 C 
ATOM     68  O   UNL     1      -6.539  -5.148  -2.743  1.00  0.00    -0.252 OA
BRANCH  67  69
ATOM     69  O   UNL     1      -7.761  -5.178  -4.612  1.00  0.00    -0.481 OA
ATOM     70  H   UNL     1      -7.230  -4.536  -5.130  1.00  0.00     0.296 HD
ENDBRANCH  67  69
ENDBRANCH  66  67
ENDBRANCH  56  66
ENDBRANCH  53  56
ENDBRANCH  50  52
ENDBRANCH  47  50
ENDBRANCH  45  46
BRANCH  45  71
ATOM     71  C   UNL     1      -3.359  -5.806  -0.670  1.00  0.00     0.037 C 
BRANCH  71  72
ATOM     72  C   UNL     1      -3.689  -6.823   0.425  1.00  0.00     0.026 C 
BRANCH  72  73
ATOM     73  C   UNL     1      -4.518  -7.985  -0.120  1.00  0.00     0.146 C 
BRANCH  73  74
ATOM     74  N   UNL     1      -4.354  -9.115   0.788  1.00  0.00    -0.254 NA
ATOM     75  C   UNL     1      -5.400  -9.787   1.103  1.00  0.00     0.185 C 
ATOM     76  N   UNL     1      -5.281 -10.834   1.936  1.00  0.00    -0.370 N 
ATOM     77  N   UNL     1      -6.672  -9.603   0.710  1.00  0.00    -0.370 N 
ATOM     78  H   UNL     1      -4.356 -11.038   2.285  1.00  0.00     0.159 HD
ATOM     79  H   UNL     1      -6.068 -11.313   2.338  1.00  0.00     0.159 HD
ATOM     80  H   UNL     1      -6.911  -8.853   0.078  1.00  0.00     0.159 HD
ATOM     81  H   UNL     1      -7.395 -10.267   0.932  1.00  0.00     0.159 HD
ENDBRANCH  73  74
ENDBRANCH  72  73
ENDBRANCH  71  72
ENDBRANCH  45  71
ENDBRANCH   3  45
TORSDOF 20
ENDMDL
MODEL 39
REMARK VINA RESULT:    -4.511      3.831      9.211
REMARK INTER + INTRA:         -20.124
REMARK INTER:                 -15.749
REMARK INTRA:                  -4.375
REMARK UNBOUND:                -7.173
REMARK SMILES CCCCCC(=O)N[C@H](CC(=O)O)C(=O)N[C@H]1C(=O)N[C@H](CCCN=C(N)N)C(=O)N[C@@H]2CC[C@H](O)N(C2=O)[C@@H](CC(C)C)C(=O)N(C)[C@@H](Cc2ccccc2)C(=O)N[C@H](C(C)C)C(=O)O[C@@H]1C
REMARK SMILES IDX 30 1 31 2 29 3 32 5 35 6 37 7 34 8 38 9 33 10 39 11 36 12
REMARK SMILES IDX 40 14 41 15 42 16 43 17 44 18 45 19 46 20 47 21 48 22 49 23
REMARK SMILES IDX 50 24 51 25 52 26 56 27 53 28 55 29 54 30 57 31 58 32 59 33
REMARK SMILES IDX 60 35 61 36 62 37 63 38 64 39 65 40 66 41 67 42 68 43 21 45
REMARK SMILES IDX 20 46 18 47 19 48 17 50 16 52 14 53 15 54 9 56 8 57 6 58
REMARK SMILES IDX 7 59 5 61 4 62 3 63 2 64 1 65 10 66 11 67 12 68 13 69 22 71
REMARK SMILES IDX 23 72 24 73 25 74 26 75 27 76 28 77
REMARK H PARENT 31 4 36 13 59 34 20 49 16 55 8 60 13 70 27 78 27 79 28 80
REMARK H PARENT 28 81
REMARK Flexibility Score:  259.900
ROOT
ATOM      1  O   UNL     1      -2.394  -3.475  -2.149  1.00  0.00    -0.273 OA
ATOM      2  N   UNL     1      -1.817  -5.512  -1.283  1.00  0.00    -0.343 N 
ATOM      3  C   UNL     1      -1.742  -4.517  -2.234  1.00  0.00     0.243 C 
ATOM      4  H   UNL     1      -1.255  -6.349  -1.378  1.00  0.00     0.164 HD
ENDROOT
BRANCH   2   5
ATOM      5  C   UNL     1      -2.772  -5.419  -0.185  1.00  0.00     0.171 C 
ATOM      6  C   UNL     1      -3.479  -7.234   1.962  1.00  0.00     0.214 C 
ATOM      7  N   UNL     1      -4.208  -7.290   0.717  1.00  0.00    -0.303 N 
ATOM      8  C   UNL     1      -2.946  -5.847   2.287  1.00  0.00     0.057 C 
ATOM      9  C   UNL     1      -3.889  -6.487  -0.366  1.00  0.00     0.247 C 
ATOM     10  C   UNL     1      -2.055  -5.365   1.163  1.00  0.00     0.040 C 
ATOM     11  O   UNL     1      -4.462  -6.601  -1.458  1.00  0.00    -0.272 OA
BRANCH   6  12
ATOM     12  O   UNL     1      -2.421  -8.162   1.884  1.00  0.00    -0.373 OA
ATOM     13  H   UNL     1      -2.674  -8.829   1.211  1.00  0.00     0.213 HD
ENDBRANCH   6  12
BRANCH   7  14
ATOM     14  C   UNL     1      -5.228  -8.351   0.584  1.00  0.00     0.177 C 
BRANCH  14  15
ATOM     15  C   UNL     1      -4.905  -9.668   1.317  1.00  0.00     0.038 C 
BRANCH  15  16
ATOM     16  C   UNL     1      -6.014 -10.386   2.116  1.00  0.00    -0.015 C 
ATOM     17  C   UNL     1      -6.304  -9.703   3.456  1.00  0.00     0.007 C 
ATOM     18  C   UNL     1      -5.595 -11.835   2.397  1.00  0.00     0.007 C 
ENDBRANCH  15  16
ENDBRANCH  14  15
BRANCH  14  19
ATOM     19  C   UNL     1      -6.656  -7.718   0.445  1.00  0.00     0.245 C 
ATOM     20  O   UNL     1      -6.922  -6.768   1.200  1.00  0.00    -0.272 OA
BRANCH  19  21
ATOM     21  N   UNL     1      -7.647  -8.225  -0.376  1.00  0.00    -0.332 N 
ATOM     22  C   UNL     1      -8.729  -9.095   0.047  1.00  0.00     0.147 C 
BRANCH  21  23
ATOM     23  C   UNL     1      -7.606  -7.864  -1.821  1.00  0.00     0.178 C 
BRANCH  23  24
ATOM     24  C   UNL     1      -6.841  -6.563  -2.140  1.00  0.00     0.070 C 
BRANCH  24  25
ATOM     25  C   UNL     1      -7.218  -5.837  -3.410  1.00  0.00    -0.045 A 
ATOM     26  C   UNL     1      -6.339  -5.793  -4.500  1.00  0.00     0.004 A 
ATOM     27  C   UNL     1      -8.458  -5.189  -3.513  1.00  0.00     0.004 A 
ATOM     28  C   UNL     1      -6.688  -5.105  -5.664  1.00  0.00     0.000 A 
ATOM     29  C   UNL     1      -8.806  -4.503  -4.677  1.00  0.00     0.000 A 
ATOM     30  C   UNL     1      -7.919  -4.459  -5.751  1.00  0.00     0.000 A 
ENDBRANCH  24  25
ENDBRANCH  23  24
BRANCH  23  31
ATOM     31  C   UNL     1      -7.260  -9.064  -2.733  1.00  0.00     0.243 C 
ATOM     32  O   UNL     1      -8.032  -9.544  -3.559  1.00  0.00    -0.273 OA
ATOM     33  N   UNL     1      -6.061  -9.677  -2.410  1.00  0.00    -0.341 N 
ATOM     34  H   UNL     1      -5.463  -9.233  -1.709  1.00  0.00     0.164 HD
BRANCH  33  35
ATOM     35  C   UNL     1      -5.588 -10.902  -3.062  1.00  0.00     0.194 C 
BRANCH  35  36
ATOM     36  C   UNL     1      -5.527 -12.138  -2.121  1.00  0.00     0.017 C 
ATOM     37  C   UNL     1      -6.723 -12.165  -1.154  1.00  0.00     0.010 C 
ATOM     38  C   UNL     1      -4.250 -12.189  -1.273  1.00  0.00     0.010 C 
ENDBRANCH  35  36
BRANCH  35  39
ATOM     39  C   UNL     1      -4.256 -10.692  -3.833  1.00  0.00     0.329 C 
ATOM     40  O   UNL     1      -3.866 -11.419  -4.740  1.00  0.00    -0.250 OA
BRANCH  39  41
ATOM     41  O   UNL     1      -3.604  -9.554  -3.447  1.00  0.00    -0.458 OA
BRANCH  41  42
ATOM     42  C   UNL     1      -3.685  -8.429  -4.355  1.00  0.00     0.205 CG0
ATOM     43  C   UNL     1      -4.570  -8.853  -5.525  1.00  0.00     0.056 C 
ATOM     44  G   UNL     1      -2.257  -8.055  -4.801  1.00  0.00     0.000 G0
ENDBRANCH  41  42
ENDBRANCH  39  41
ENDBRANCH  35  39
ENDBRANCH  33  35
ENDBRANCH  23  31
ENDBRANCH  21  23
ENDBRANCH  19  21
ENDBRANCH  14  19
ENDBRANCH   7  14
ENDBRANCH   2   5
BRANCH   3  45
ATOM     45  C   UNL     1      -0.776  -4.788  -3.395  1.00  0.00     0.171 C 
BRANCH  45  46
ATOM     46  N   UNL     1      -1.023  -6.165  -3.800  1.00  0.00    -0.342 N 
ATOM     47  C   UNL     1      -2.095  -6.523  -4.578  1.00  0.00     0.247 C 
ATOM     48  O   UNL     1      -2.882  -5.701  -5.050  1.00  0.00    -0.273 OA
ATOM     49  H   UNL     1      -0.363  -6.871  -3.477  1.00  0.00     0.164 HD
BRANCH  47  50
ATOM     50  C   UNL     1      -2.263  -8.033  -4.799  1.00  0.00     0.212 CG0
ATOM     51  G   UNL     1      -3.679  -8.419  -4.327  1.00  0.00     0.000 G0
BRANCH  50  52
ATOM     52  N   UNL     1      -2.054  -8.243  -6.229  1.00  0.00    -0.339 N 
ATOM     53  C   UNL     1      -0.863  -7.987  -6.864  1.00  0.00     0.243 C 
ATOM     54  O   UNL     1       0.107  -7.508  -6.284  1.00  0.00    -0.273 OA
ATOM     55  H   UNL     1      -2.855  -8.533  -6.786  1.00  0.00     0.164 HD
BRANCH  53  56
ATOM     56  C   UNL     1      -0.908  -8.202  -8.391  1.00  0.00     0.182 C 
BRANCH  56  57
ATOM     57  N   UNL     1      -2.283  -8.128  -8.893  1.00  0.00    -0.344 N 
ATOM     58  C   UNL     1      -2.920  -6.933  -9.123  1.00  0.00     0.220 C 
ATOM     59  O   UNL     1      -2.413  -5.849  -8.856  1.00  0.00    -0.275 OA
ATOM     60  H   UNL     1      -2.701  -8.995  -9.221  1.00  0.00     0.164 HD
BRANCH  58  61
ATOM     61  C   UNL     1      -4.316  -7.096  -9.697  1.00  0.00     0.100 C 
BRANCH  61  62
ATOM     62  C   UNL     1      -5.310  -6.044  -9.207  1.00  0.00     0.010 C 
BRANCH  62  63
ATOM     63  C   UNL     1      -6.509  -5.831 -10.139  1.00  0.00     0.000 C 
BRANCH  63  64
ATOM     64  C   UNL     1      -7.866  -5.883  -9.438  1.00  0.00    -0.003 C 
ATOM     65  C   UNL     1      -8.909  -6.580 -10.299  1.00  0.00     0.004 C 
ENDBRANCH  63  64
ENDBRANCH  62  63
ENDBRANCH  61  62
ENDBRANCH  58  61
ENDBRANCH  56  57
BRANCH  56  66
ATOM     66  C   UNL     1      -0.215  -9.503  -8.793  1.00  0.00     0.157 C 
BRANCH  66  67
ATOM     67  C   UNL     1      -1.097 -10.691  -8.534  1.00  0.00     0.305 C 
ATOM     68  O   UNL     1      -1.275 -11.252  -7.464  1.00  0.00    -0.252 OA
BRANCH  67  69
ATOM     69  O   UNL     1      -1.760 -11.086  -9.638  1.00  0.00    -0.481 OA
ATOM     70  H   UNL     1      -1.061 -11.238 -10.309  1.00  0.00     0.296 HD
ENDBRANCH  67  69
ENDBRANCH  66  67
ENDBRANCH  56  66
ENDBRANCH  53  56
ENDBRANCH  50  52
ENDBRANCH  47  50
ENDBRANCH  45  46
BRANCH  45  71
ATOM     71  C   UNL     1       0.674  -4.583  -2.941  1.00  0.00     0.037 C 
BRANCH  71  72
ATOM     72  C   UNL     1       1.594  -5.704  -3.431  1.00  0.00     0.026 C 
BRANCH  72  73
ATOM     73  C   UNL     1       2.625  -5.184  -4.431  1.00  0.00     0.146 C 
BRANCH  73  74
ATOM     74  N   UNL     1       3.874  -5.903  -4.200  1.00  0.00    -0.254 NA
ATOM     75  C   UNL     1       4.870  -5.241  -3.739  1.00  0.00     0.185 C 
ATOM     76  N   UNL     1       6.032  -5.876  -3.514  1.00  0.00    -0.370 N 
ATOM     77  N   UNL     1       4.944  -3.936  -3.423  1.00  0.00    -0.370 N 
ATOM     78  H   UNL     1       6.065  -6.861  -3.733  1.00  0.00     0.159 HD
ATOM     79  H   UNL     1       6.889  -5.400  -3.294  1.00  0.00     0.159 HD
ATOM     80  H   UNL     1       4.143  -3.334  -3.537  1.00  0.00     0.159 HD
ATOM     81  H   UNL     1       5.749  -3.550  -2.958  1.00  0.00     0.159 HD
ENDBRANCH  73  74
ENDBRANCH  72  73
ENDBRANCH  71  72
ENDBRANCH  45  71
ENDBRANCH   3  45
TORSDOF 20
ENDMDL
MODEL 40
REMARK VINA RESULT:    -4.484      2.673      6.150
REMARK INTER + INTRA:         -20.046
REMARK INTER:                 -16.514
REMARK INTRA:                  -3.531
REMARK UNBOUND:                -7.173
REMARK SMILES CCCCCC(=O)N[C@H](CC(=O)O)C(=O)N[C@H]1C(=O)N[C@H](CCCN=C(N)N)C(=O)N[C@@H]2CC[C@H](O)N(C2=O)[C@@H](CC(C)C)C(=O)N(C)[C@@H](Cc2ccccc2)C(=O)N[C@H](C(C)C)C(=O)O[C@@H]1C
REMARK SMILES IDX 30 1 31 2 29 3 32 5 35 6 37 7 34 8 38 9 33 10 39 11 36 12
REMARK SMILES IDX 40 14 41 15 42 16 43 17 44 18 45 19 46 20 47 21 48 22 49 23
REMARK SMILES IDX 50 24 51 25 52 26 56 27 53 28 55 29 54 30 57 31 58 32 59 33
REMARK SMILES IDX 60 35 61 36 62 37 63 38 64 39 65 40 66 41 67 42 68 43 21 45
REMARK SMILES IDX 20 46 18 47 19 48 17 50 16 52 14 53 15 54 9 56 8 57 6 58
REMARK SMILES IDX 7 59 5 61 4 62 3 63 2 64 1 65 10 66 11 67 12 68 13 69 22 71
REMARK SMILES IDX 23 72 24 73 25 74 26 75 27 76 28 77
REMARK H PARENT 31 4 36 13 59 34 20 49 16 55 8 60 13 70 27 78 27 79 28 80
REMARK H PARENT 28 81
REMARK Flexibility Score:  259.900
ROOT
ATOM      1  O   UNL     1      -0.677  -8.229  -5.975  1.00  0.00    -0.273 OA
ATOM      2  N   UNL     1      -0.618  -9.581  -7.818  1.00  0.00    -0.343 N 
ATOM      3  C   UNL     1      -1.271  -8.798  -6.891  1.00  0.00     0.243 C 
ATOM      4  H   UNL     1      -1.138 -10.022  -8.567  1.00  0.00     0.164 HD
ENDROOT
BRANCH   2   5
ATOM      5  C   UNL     1       0.806  -9.866  -7.679  1.00  0.00     0.171 C 
ATOM      6  C   UNL     1       2.822  -8.933  -5.816  1.00  0.00     0.214 C 
ATOM      7  N   UNL     1       2.612  -8.217  -7.053  1.00  0.00    -0.303 N 
ATOM      8  C   UNL     1       2.518 -10.419  -5.922  1.00  0.00     0.057 C 
ATOM      9  C   UNL     1       1.632  -8.579  -7.963  1.00  0.00     0.247 C 
ATOM     10  C   UNL     1       1.090 -10.619  -6.380  1.00  0.00     0.040 C 
ATOM     11  O   UNL     1       1.400  -7.910  -8.978  1.00  0.00    -0.272 OA
BRANCH   6  12
ATOM     12  O   UNL     1       2.014  -8.334  -4.830  1.00  0.00    -0.373 OA
ATOM     13  H   UNL     1       1.153  -8.803  -4.840  1.00  0.00     0.213 HD
ENDBRANCH   6  12
BRANCH   7  14
ATOM     14  C   UNL     1       3.393  -6.978  -7.252  1.00  0.00     0.177 C 
BRANCH  14  15
ATOM     15  C   UNL     1       4.427  -7.030  -8.393  1.00  0.00     0.038 C 
BRANCH  15  16
ATOM     16  C   UNL     1       4.511  -5.859  -9.398  1.00  0.00    -0.015 C 
ATOM     17  C   UNL     1       5.263  -6.239 -10.676  1.00  0.00     0.007 C 
ATOM     18  C   UNL     1       5.233  -4.671  -8.750  1.00  0.00     0.007 C 
ENDBRANCH  15  16
ENDBRANCH  14  15
BRANCH  14  19
ATOM     19  C   UNL     1       2.534  -5.726  -6.862  1.00  0.00     0.245 C 
ATOM     20  O   UNL     1       1.600  -5.429  -7.624  1.00  0.00    -0.272 OA
BRANCH  19  21
ATOM     21  N   UNL     1       2.829  -4.889  -5.800  1.00  0.00    -0.332 N 
ATOM     22  C   UNL     1       3.541  -3.628  -5.893  1.00  0.00     0.147 C 
BRANCH  21  23
ATOM     23  C   UNL     1       2.394  -5.312  -4.440  1.00  0.00     0.178 C 
BRANCH  23  24
ATOM     24  C   UNL     1       3.518  -5.351  -3.385  1.00  0.00     0.070 C 
BRANCH  24  25
ATOM     25  C   UNL     1       4.521  -6.476  -3.489  1.00  0.00    -0.045 A 
ATOM     26  C   UNL     1       5.623  -6.378  -4.348  1.00  0.00     0.004 A 
ATOM     27  C   UNL     1       4.358  -7.642  -2.726  1.00  0.00     0.004 A 
ATOM     28  C   UNL     1       6.536  -7.430  -4.452  1.00  0.00     0.000 A 
ATOM     29  C   UNL     1       5.271  -8.692  -2.830  1.00  0.00     0.000 A 
ATOM     30  C   UNL     1       6.358  -8.586  -3.695  1.00  0.00     0.000 A 
ENDBRANCH  24  25
ENDBRANCH  23  24
BRANCH  23  31
ATOM     31  C   UNL     1       1.092  -4.614  -3.978  1.00  0.00     0.243 C 
ATOM     32  O   UNL     1       0.851  -3.423  -4.157  1.00  0.00    -0.273 OA
ATOM     33  N   UNL     1       0.292  -5.410  -3.177  1.00  0.00    -0.341 N 
ATOM     34  H   UNL     1       0.547  -6.394  -3.060  1.00  0.00     0.164 HD
BRANCH  33  35
ATOM     35  C   UNL     1      -0.929  -4.921  -2.530  1.00  0.00     0.194 C 
BRANCH  35  36
ATOM     36  C   UNL     1      -0.953  -5.119  -0.988  1.00  0.00     0.017 C 
ATOM     37  C   UNL     1      -2.379  -4.972  -0.428  1.00  0.00     0.010 C 
ATOM     38  C   UNL     1      -0.060  -4.124  -0.236  1.00  0.00     0.010 C 
ENDBRANCH  35  36
BRANCH  35  39
ATOM     39  C   UNL     1      -2.221  -5.461  -3.205  1.00  0.00     0.329 C 
ATOM     40  O   UNL     1      -3.150  -4.752  -3.573  1.00  0.00    -0.250 OA
BRANCH  39  41
ATOM     41  O   UNL     1      -2.169  -6.810  -3.422  1.00  0.00    -0.458 OA
BRANCH  41  42
ATOM     42  C   UNL     1      -3.064  -7.622  -2.625  1.00  0.00     0.205 CG0
ATOM     43  C   UNL     1      -2.214  -8.683  -1.927  1.00  0.00     0.056 C 
ATOM     44  G   UNL     1      -4.129  -8.237  -3.554  1.00  0.00     0.000 G0
ENDBRANCH  41  42
ENDBRANCH  39  41
ENDBRANCH  35  39
ENDBRANCH  33  35
ENDBRANCH  23  31
ENDBRANCH  21  23
ENDBRANCH  19  21
ENDBRANCH  14  19
ENDBRANCH   7  14
ENDBRANCH   2   5
BRANCH   3  45
ATOM     45  C   UNL     1      -2.787  -8.667  -7.092  1.00  0.00     0.171 C 
BRANCH  45  46
ATOM     46  N   UNL     1      -3.307  -8.147  -5.835  1.00  0.00    -0.342 N 
ATOM     47  C   UNL     1      -3.489  -8.939  -4.729  1.00  0.00     0.247 C 
ATOM     48  O   UNL     1      -3.158 -10.125  -4.695  1.00  0.00    -0.273 OA
ATOM     49  H   UNL     1      -3.541  -7.157  -5.802  1.00  0.00     0.164 HD
BRANCH  47  50
ATOM     50  C   UNL     1      -4.163  -8.246  -3.537  1.00  0.00     0.212 CG0
ATOM     51  G   UNL     1      -3.051  -7.630  -2.664  1.00  0.00     0.000 G0
BRANCH  50  52
ATOM     52  N   UNL     1      -5.058  -7.250  -4.120  1.00  0.00    -0.339 N 
ATOM     53  C   UNL     1      -5.794  -6.365  -3.371  1.00  0.00     0.243 C 
ATOM     54  O   UNL     1      -5.796  -6.378  -2.143  1.00  0.00    -0.273 OA
ATOM     55  H   UNL     1      -5.185  -7.262  -5.130  1.00  0.00     0.164 HD
BRANCH  53  56
ATOM     56  C   UNL     1      -6.732  -5.467  -4.203  1.00  0.00     0.182 C 
BRANCH  56  57
ATOM     57  N   UNL     1      -8.092  -6.015  -4.236  1.00  0.00    -0.344 N 
ATOM     58  C   UNL     1      -9.049  -5.665  -3.315  1.00  0.00     0.220 C 
ATOM     59  O   UNL     1      -8.815  -4.931  -2.361  1.00  0.00    -0.275 OA
ATOM     60  H   UNL     1      -8.355  -6.543  -5.064  1.00  0.00     0.164 HD
BRANCH  58  61
ATOM     61  C   UNL     1     -10.399  -6.307  -3.578  1.00  0.00     0.100 C 
BRANCH  61  62
ATOM     62  C   UNL     1     -10.560  -7.686  -2.936  1.00  0.00     0.010 C 
BRANCH  62  63
ATOM     63  C   UNL     1      -9.235  -8.400  -2.642  1.00  0.00     0.000 C 
BRANCH  63  64
ATOM     64  C   UNL     1      -8.981  -9.631  -3.511  1.00  0.00    -0.003 C 
ATOM     65  C   UNL     1      -9.885 -10.789  -3.111  1.00  0.00     0.004 C 
ENDBRANCH  63  64
ENDBRANCH  62  63
ENDBRANCH  61  62
ENDBRANCH  58  61
ENDBRANCH  56  57
BRANCH  56  66
ATOM     66  C   UNL     1      -6.174  -5.221  -5.604  1.00  0.00     0.157 C 
BRANCH  66  67
ATOM     67  C   UNL     1      -6.992  -4.202  -6.343  1.00  0.00     0.305 C 
ATOM     68  O   UNL     1      -7.869  -4.422  -7.165  1.00  0.00    -0.252 OA
BRANCH  67  69
ATOM     69  O   UNL     1      -6.699  -2.942  -5.970  1.00  0.00    -0.481 OA
ATOM     70  H   UNL     1      -7.568  -2.496  -5.886  1.00  0.00     0.296 HD
ENDBRANCH  67  69
ENDBRANCH  66  67
ENDBRANCH  56  66
ENDBRANCH  53  56
ENDBRANCH  50  52
ENDBRANCH  47  50
ENDBRANCH  45  46
BRANCH  45  71
ATOM     71  C   UNL     1      -3.399 -10.029  -7.437  1.00  0.00     0.037 C 
BRANCH  71  72
ATOM     72  C   UNL     1      -4.469  -9.920  -8.527  1.00  0.00     0.026 C 
BRANCH  72  73
ATOM     73  C   UNL     1      -5.085  -8.523  -8.569  1.00  0.00     0.146 C 
BRANCH  73  74
ATOM     74  N   UNL     1      -5.822  -8.398  -9.823  1.00  0.00    -0.254 NA
ATOM     75  C   UNL     1      -6.535  -7.346  -9.996  1.00  0.00     0.185 C 
ATOM     76  N   UNL     1      -7.224  -7.202 -11.139  1.00  0.00    -0.370 N 
ATOM     77  N   UNL     1      -6.715  -6.302  -9.169  1.00  0.00    -0.370 N 
ATOM     78  H   UNL     1      -7.149  -7.948 -11.816  1.00  0.00     0.159 HD
ATOM     79  H   UNL     1      -7.911  -6.483 -11.285  1.00  0.00     0.159 HD
ATOM     80  H   UNL     1      -6.254  -6.272  -8.272  1.00  0.00     0.159 HD
ATOM     81  H   UNL     1      -7.209  -5.475  -9.461  1.00  0.00     0.159 HD
ENDBRANCH  73  74
ENDBRANCH  72  73
ENDBRANCH  71  72
ENDBRANCH  45  71
ENDBRANCH   3  45
TORSDOF 20
ENDMDL
MODEL 41
REMARK VINA RESULT:    -4.354      2.389      6.153
REMARK INTER + INTRA:         -19.673
REMARK INTER:                 -14.298
REMARK INTRA:                  -5.375
REMARK UNBOUND:                -7.173
REMARK SMILES CCCCCC(=O)N[C@H](CC(=O)O)C(=O)N[C@H]1C(=O)N[C@H](CCCN=C(N)N)C(=O)N[C@@H]2CC[C@H](O)N(C2=O)[C@@H](CC(C)C)C(=O)N(C)[C@@H](Cc2ccccc2)C(=O)N[C@H](C(C)C)C(=O)O[C@@H]1C
REMARK SMILES IDX 30 1 31 2 29 3 32 5 35 6 37 7 34 8 38 9 33 10 39 11 36 12
REMARK SMILES IDX 40 14 41 15 42 16 43 17 44 18 45 19 46 20 47 21 48 22 49 23
REMARK SMILES IDX 50 24 51 25 52 26 56 27 53 28 55 29 54 30 57 31 58 32 59 33
REMARK SMILES IDX 60 35 61 36 62 37 63 38 64 39 65 40 66 41 67 42 68 43 21 45
REMARK SMILES IDX 20 46 18 47 19 48 17 50 16 52 14 53 15 54 9 56 8 57 6 58
REMARK SMILES IDX 7 59 5 61 4 62 3 63 2 64 1 65 10 66 11 67 12 68 13 69 22 71
REMARK SMILES IDX 23 72 24 73 25 74 26 75 27 76 28 77
REMARK H PARENT 31 4 36 13 59 34 20 49 16 55 8 60 13 70 27 78 27 79 28 80
REMARK H PARENT 28 81
REMARK Flexibility Score:  259.900
ROOT
ATOM      1  O   UNL     1      -1.407  -9.402  -7.335  1.00  0.00    -0.273 OA
ATOM      2  N   UNL     1      -1.301 -11.174  -8.778  1.00  0.00    -0.343 N 
ATOM      3  C   UNL     1      -1.971 -10.165  -8.121  1.00  0.00     0.243 C 
ATOM      4  H   UNL     1      -1.795 -11.773  -9.428  1.00  0.00     0.164 HD
ENDROOT
BRANCH   2   5
ATOM      5  C   UNL     1       0.098 -11.456  -8.475  1.00  0.00     0.171 C 
ATOM      6  C   UNL     1       1.948 -10.355  -6.534  1.00  0.00     0.214 C 
ATOM      7  N   UNL     1       1.869  -9.769  -7.852  1.00  0.00    -0.303 N 
ATOM      8  C   UNL     1       1.627 -11.841  -6.516  1.00  0.00     0.057 C 
ATOM      9  C   UNL     1       0.971 -10.213  -8.809  1.00  0.00     0.247 C 
ATOM     10  C   UNL     1       0.244 -12.073  -7.085  1.00  0.00     0.040 C 
ATOM     11  O   UNL     1       0.849  -9.651  -9.905  1.00  0.00    -0.272 OA
BRANCH   6  12
ATOM     12  O   UNL     1       1.063  -9.649  -5.695  1.00  0.00    -0.373 OA
ATOM     13  H   UNL     1       1.613  -9.133  -5.068  1.00  0.00     0.213 HD
ENDBRANCH   6  12
BRANCH   7  14
ATOM     14  C   UNL     1       2.689  -8.565  -8.101  1.00  0.00     0.177 C 
BRANCH  14  15
ATOM     15  C   UNL     1       3.601  -8.636  -9.342  1.00  0.00     0.038 C 
BRANCH  15  16
ATOM     16  C   UNL     1       5.134  -8.591  -9.163  1.00  0.00    -0.015 C 
ATOM     17  C   UNL     1       5.581  -9.139  -7.804  1.00  0.00     0.007 C 
ATOM     18  C   UNL     1       5.628  -7.143  -9.282  1.00  0.00     0.007 C 
ENDBRANCH  15  16
ENDBRANCH  14  15
BRANCH  14  19
ATOM     19  C   UNL     1       1.939  -7.283  -7.599  1.00  0.00     0.245 C 
ATOM     20  O   UNL     1       0.794  -7.095  -8.044  1.00  0.00    -0.272 OA
BRANCH  19  21
ATOM     21  N   UNL     1       2.517  -6.316  -6.796  1.00  0.00    -0.332 N 
ATOM     22  C   UNL     1       3.294  -5.183  -7.266  1.00  0.00     0.147 C 
BRANCH  21  23
ATOM     23  C   UNL     1       2.343  -6.441  -5.322  1.00  0.00     0.178 C 
BRANCH  23  24
ATOM     24  C   UNL     1       3.586  -6.061  -4.491  1.00  0.00     0.070 C 
BRANCH  24  25
ATOM     25  C   UNL     1       4.587  -7.157  -4.208  1.00  0.00    -0.045 A 
ATOM     26  C   UNL     1       4.190  -8.500  -4.175  1.00  0.00     0.004 A 
ATOM     27  C   UNL     1       5.933  -6.841  -3.968  1.00  0.00     0.004 A 
ATOM     28  C   UNL     1       5.118  -9.505  -3.896  1.00  0.00     0.000 A 
ATOM     29  C   UNL     1       6.859  -7.848  -3.691  1.00  0.00     0.000 A 
ATOM     30  C   UNL     1       6.450  -9.179  -3.652  1.00  0.00     0.000 A 
ENDBRANCH  24  25
ENDBRANCH  23  24
BRANCH  23  31
ATOM     31  C   UNL     1       1.012  -5.836  -4.817  1.00  0.00     0.243 C 
ATOM     32  O   UNL     1       0.914  -4.726  -4.301  1.00  0.00    -0.273 OA
ATOM     33  N   UNL     1      -0.042  -6.734  -4.827  1.00  0.00    -0.341 N 
ATOM     34  H   UNL     1       0.102  -7.647  -5.265  1.00  0.00     0.164 HD
BRANCH  33  35
ATOM     35  C   UNL     1      -1.366  -6.418  -4.284  1.00  0.00     0.194 C 
BRANCH  35  36
ATOM     36  C   UNL     1      -1.566  -6.852  -2.804  1.00  0.00     0.017 C 
ATOM     37  C   UNL     1      -1.920  -5.650  -1.911  1.00  0.00     0.010 C 
ATOM     38  C   UNL     1      -0.327  -7.524  -2.199  1.00  0.00     0.010 C 
ENDBRANCH  35  36
BRANCH  35  39
ATOM     39  C   UNL     1      -2.522  -6.916  -5.196  1.00  0.00     0.329 C 
ATOM     40  O   UNL     1      -2.966  -6.284  -6.147  1.00  0.00    -0.250 OA
BRANCH  39  41
ATOM     41  O   UNL     1      -2.930  -8.181  -4.873  1.00  0.00    -0.458 OA
BRANCH  41  42
ATOM     42  C   UNL     1      -4.239  -8.295  -4.264  1.00  0.00     0.205 CG0
ATOM     43  C   UNL     1      -4.125  -9.314  -3.132  1.00  0.00     0.056 C 
ATOM     44  G   UNL     1      -5.248  -8.727  -5.346  1.00  0.00     0.000 G0
ENDBRANCH  41  42
ENDBRANCH  39  41
ENDBRANCH  35  39
ENDBRANCH  33  35
ENDBRANCH  23  31
ENDBRANCH  21  23
ENDBRANCH  19  21
ENDBRANCH  14  19
ENDBRANCH   7  14
ENDBRANCH   2   5
BRANCH   3  45
ATOM     45  C   UNL     1      -3.465 -10.044  -8.451  1.00  0.00     0.171 C 
BRANCH  45  46
ATOM     46  N   UNL     1      -4.035  -9.214  -7.399  1.00  0.00    -0.342 N 
ATOM     47  C   UNL     1      -4.639  -9.746  -6.287  1.00  0.00     0.247 C 
ATOM     48  O   UNL     1      -4.678 -10.956  -6.063  1.00  0.00    -0.273 OA
ATOM     49  H   UNL     1      -3.974  -8.204  -7.517  1.00  0.00     0.164 HD
BRANCH  47  50
ATOM     50  C   UNL     1      -5.292  -8.721  -5.349  1.00  0.00     0.212 CG0
ATOM     51  G   UNL     1      -4.250  -8.336  -4.280  1.00  0.00     0.000 G0
BRANCH  50  52
ATOM     52  N   UNL     1      -5.682  -7.603  -6.203  1.00  0.00    -0.339 N 
ATOM     53  C   UNL     1      -6.286  -6.464  -5.729  1.00  0.00     0.243 C 
ATOM     54  O   UNL     1      -6.594  -6.320  -4.549  1.00  0.00    -0.273 OA
ATOM     55  H   UNL     1      -5.554  -7.709  -7.208  1.00  0.00     0.164 HD
BRANCH  53  56
ATOM     56  C   UNL     1      -6.684  -5.460  -6.830  1.00  0.00     0.182 C 
BRANCH  56  57
ATOM     57  N   UNL     1      -5.731  -5.494  -7.943  1.00  0.00    -0.344 N 
ATOM     58  C   UNL     1      -5.910  -6.301  -9.041  1.00  0.00     0.220 C 
ATOM     59  O   UNL     1      -6.836  -7.099  -9.134  1.00  0.00    -0.275 OA
ATOM     60  H   UNL     1      -5.008  -4.779  -7.954  1.00  0.00     0.164 HD
BRANCH  58  61
ATOM     61  C   UNL     1      -4.831  -6.130 -10.095  1.00  0.00     0.100 C 
BRANCH  61  62
ATOM     62  C   UNL     1      -3.412  -6.333  -9.564  1.00  0.00     0.010 C 
BRANCH  62  63
ATOM     63  C   UNL     1      -2.311  -6.080 -10.601  1.00  0.00     0.000 C 
BRANCH  63  64
ATOM     64  C   UNL     1      -1.403  -7.282 -10.857  1.00  0.00    -0.003 C 
ATOM     65  C   UNL     1      -2.191  -8.470 -11.389  1.00  0.00     0.004 C 
ENDBRANCH  63  64
ENDBRANCH  62  63
ENDBRANCH  61  62
ENDBRANCH  58  61
ENDBRANCH  56  57
BRANCH  56  66
ATOM     66  C   UNL     1      -6.861  -4.051  -6.266  1.00  0.00     0.157 C 
BRANCH  66  67
ATOM     67  C   UNL     1      -7.747  -3.220  -7.147  1.00  0.00     0.305 C 
ATOM     68  O   UNL     1      -8.044  -3.446  -8.310  1.00  0.00    -0.252 OA
BRANCH  67  69
ATOM     69  O   UNL     1      -8.264  -2.159  -6.498  1.00  0.00    -0.481 OA
ATOM     70  H   UNL     1      -9.108  -2.484  -6.119  1.00  0.00     0.296 HD
ENDBRANCH  67  69
ENDBRANCH  66  67
ENDBRANCH  56  66
ENDBRANCH  53  56
ENDBRANCH  50  52
ENDBRANCH  47  50
ENDBRANCH  45  46
BRANCH  45  71
ATOM     71  C   UNL     1      -4.116 -11.430  -8.493  1.00  0.00     0.037 C 
BRANCH  71  72
ATOM     72  C   UNL     1      -5.197 -11.526  -9.573  1.00  0.00     0.026 C 
BRANCH  72  73
ATOM     73  C   UNL     1      -5.013 -10.456 -10.646  1.00  0.00     0.146 C 
BRANCH  73  74
ATOM     74  N   UNL     1      -6.181  -9.580 -10.609  1.00  0.00    -0.254 NA
ATOM     75  C   UNL     1      -7.228  -9.950 -11.250  1.00  0.00     0.185 C 
ATOM     76  N   UNL     1      -8.318  -9.166 -11.233  1.00  0.00    -0.370 N 
ATOM     77  N   UNL     1      -7.423 -11.062 -11.979  1.00  0.00    -0.370 N 
ATOM     78  H   UNL     1      -8.253  -8.303 -10.712  1.00  0.00     0.159 HD
ATOM     79  H   UNL     1      -9.117  -9.316 -11.823  1.00  0.00     0.159 HD
ATOM     80  H   UNL     1      -6.689 -11.748 -12.077  1.00  0.00     0.159 HD
ATOM     81  H   UNL     1      -8.331 -11.302 -12.343  1.00  0.00     0.159 HD
ENDBRANCH  73  74
ENDBRANCH  72  73
ENDBRANCH  71  72
ENDBRANCH  45  71
ENDBRANCH   3  45
TORSDOF 20
ENDMDL
MODEL 42
REMARK VINA RESULT:    -4.350      1.458      2.100
REMARK INTER + INTRA:         -19.661
REMARK INTER:                 -17.200
REMARK INTRA:                  -2.461
REMARK UNBOUND:                -7.173
REMARK SMILES CCCCCC(=O)N[C@H](CC(=O)O)C(=O)N[C@H]1C(=O)N[C@H](CCCN=C(N)N)C(=O)N[C@@H]2CC[C@H](O)N(C2=O)[C@@H](CC(C)C)C(=O)N(C)[C@@H](Cc2ccccc2)C(=O)N[C@H](C(C)C)C(=O)O[C@@H]1C
REMARK SMILES IDX 30 1 31 2 29 3 32 5 35 6 37 7 34 8 38 9 33 10 39 11 36 12
REMARK SMILES IDX 40 14 41 15 42 16 43 17 44 18 45 19 46 20 47 21 48 22 49 23
REMARK SMILES IDX 50 24 51 25 52 26 56 27 53 28 55 29 54 30 57 31 58 32 59 33
REMARK SMILES IDX 60 35 61 36 62 37 63 38 64 39 65 40 66 41 67 42 68 43 21 45
REMARK SMILES IDX 20 46 18 47 19 48 17 50 16 52 14 53 15 54 9 56 8 57 6 58
REMARK SMILES IDX 7 59 5 61 4 62 3 63 2 64 1 65 10 66 11 67 12 68 13 69 22 71
REMARK SMILES IDX 23 72 24 73 25 74 26 75 27 76 28 77
REMARK H PARENT 31 4 36 13 59 34 20 49 16 55 8 60 13 70 27 78 27 79 28 80
REMARK H PARENT 28 81
REMARK Flexibility Score:  259.900
ROOT
ATOM      1  O   UNL     1      -2.569  -7.461  -2.001  1.00  0.00    -0.273 OA
ATOM      2  N   UNL     1      -1.994  -5.834  -3.501  1.00  0.00    -0.343 N 
ATOM      3  C   UNL     1      -2.734  -6.924  -3.096  1.00  0.00     0.243 C 
ATOM      4  H   UNL     1      -2.168  -5.409  -4.404  1.00  0.00     0.164 HD
ENDROOT
BRANCH   2   5
ATOM      5  C   UNL     1      -0.890  -5.341  -2.685  1.00  0.00     0.171 C 
ATOM      6  C   UNL     1       1.151  -3.335  -3.147  1.00  0.00     0.214 C 
ATOM      7  N   UNL     1       1.414  -4.710  -3.501  1.00  0.00    -0.303 N 
ATOM      8  C   UNL     1       0.195  -3.187  -1.973  1.00  0.00     0.057 C 
ATOM      9  C   UNL     1       0.465  -5.709  -3.354  1.00  0.00     0.247 C 
ATOM     10  C   UNL     1      -1.112  -3.883  -2.286  1.00  0.00     0.040 C 
ATOM     11  O   UNL     1       0.668  -6.868  -3.739  1.00  0.00    -0.272 OA
BRANCH   6  12
ATOM     12  O   UNL     1       0.634  -2.688  -4.287  1.00  0.00    -0.373 OA
ATOM     13  H   UNL     1       0.680  -1.724  -4.116  1.00  0.00     0.213 HD
ENDBRANCH   6  12
BRANCH   7  14
ATOM     14  C   UNL     1       2.700  -4.996  -4.171  1.00  0.00     0.177 C 
BRANCH  14  15
ATOM     15  C   UNL     1       3.654  -5.924  -3.394  1.00  0.00     0.038 C 
BRANCH  15  16
ATOM     16  C   UNL     1       5.177  -5.676  -3.459  1.00  0.00    -0.015 C 
ATOM     17  C   UNL     1       5.927  -6.826  -4.138  1.00  0.00     0.007 C 
ATOM     18  C   UNL     1       5.736  -5.509  -2.040  1.00  0.00     0.007 C 
ENDBRANCH  15  16
ENDBRANCH  14  15
BRANCH  14  19
ATOM     19  C   UNL     1       2.516  -4.983  -5.728  1.00  0.00     0.245 C 
ATOM     20  O   UNL     1       1.351  -4.910  -6.153  1.00  0.00    -0.272 OA
BRANCH  19  21
ATOM     21  N   UNL     1       3.551  -5.159  -6.629  1.00  0.00    -0.332 N 
ATOM     22  C   UNL     1       4.628  -4.215  -6.870  1.00  0.00     0.147 C 
BRANCH  21  23
ATOM     23  C   UNL     1       3.569  -6.412  -7.432  1.00  0.00     0.178 C 
BRANCH  23  24
ATOM     24  C   UNL     1       4.957  -6.812  -7.974  1.00  0.00     0.070 C 
BRANCH  24  25
ATOM     25  C   UNL     1       5.070  -7.064  -9.459  1.00  0.00    -0.045 A 
ATOM     26  C   UNL     1       6.103  -6.486 -10.209  1.00  0.00     0.004 A 
ATOM     27  C   UNL     1       4.134  -7.880 -10.112  1.00  0.00     0.004 A 
ATOM     28  C   UNL     1       6.190  -6.709 -11.585  1.00  0.00     0.000 A 
ATOM     29  C   UNL     1       4.223  -8.104 -11.487  1.00  0.00     0.000 A 
ATOM     30  C   UNL     1       5.250  -7.515 -12.222  1.00  0.00     0.000 A 
ENDBRANCH  24  25
ENDBRANCH  23  24
BRANCH  23  31
ATOM     31  C   UNL     1       2.771  -7.563  -6.775  1.00  0.00     0.243 C 
ATOM     32  O   UNL     1       3.215  -8.289  -5.889  1.00  0.00    -0.273 OA
ATOM     33  N   UNL     1       1.565  -7.828  -7.401  1.00  0.00    -0.341 N 
ATOM     34  H   UNL     1       1.250  -7.191  -8.137  1.00  0.00     0.164 HD
BRANCH  33  35
ATOM     35  C   UNL     1       0.698  -8.948  -7.025  1.00  0.00     0.194 C 
BRANCH  35  36
ATOM     36  C   UNL     1       0.464  -9.980  -8.164  1.00  0.00     0.017 C 
ATOM     37  C   UNL     1      -0.335 -11.196  -7.662  1.00  0.00     0.010 C 
ATOM     38  C   UNL     1       1.766 -10.509  -8.778  1.00  0.00     0.010 C 
ENDBRANCH  35  36
BRANCH  35  39
ATOM     39  C   UNL     1      -0.637  -8.481  -6.381  1.00  0.00     0.329 C 
ATOM     40  O   UNL     1      -1.200  -9.068  -5.465  1.00  0.00    -0.250 OA
BRANCH  39  41
ATOM     41  O   UNL     1      -1.072  -7.290  -6.893  1.00  0.00    -0.458 OA
BRANCH  41  42
ATOM     42  C   UNL     1      -1.866  -7.363  -8.102  1.00  0.00     0.205 CG0
ATOM     43  C   UNL     1      -1.090  -6.638  -9.199  1.00  0.00     0.056 C 
ATOM     44  G   UNL     1      -3.240  -6.720  -7.828  1.00  0.00     0.000 G0
ENDBRANCH  41  42
ENDBRANCH  39  41
ENDBRANCH  35  39
ENDBRANCH  33  35
ENDBRANCH  23  31
ENDBRANCH  21  23
ENDBRANCH  19  21
ENDBRANCH  14  19
ENDBRANCH   7  14
ENDBRANCH   2   5
BRANCH   3  45
ATOM     45  C   UNL     1      -3.793  -7.408  -4.096  1.00  0.00     0.171 C 
BRANCH  45  46
ATOM     46  N   UNL     1      -3.412  -6.835  -5.381  1.00  0.00    -0.342 N 
ATOM     47  C   UNL     1      -3.843  -7.356  -6.575  1.00  0.00     0.247 C 
ATOM     48  O   UNL     1      -4.637  -8.294  -6.648  1.00  0.00    -0.273 OA
ATOM     49  H   UNL     1      -2.800  -6.021  -5.365  1.00  0.00     0.164 HD
BRANCH  47  50
ATOM     50  C   UNL     1      -3.240  -6.699  -7.825  1.00  0.00     0.212 CG0
ATOM     51  G   UNL     1      -1.898  -7.399  -8.120  1.00  0.00     0.000 G0
BRANCH  50  52
ATOM     52  N   UNL     1      -4.232  -6.886  -8.880  1.00  0.00    -0.339 N 
ATOM     53  C   UNL     1      -4.324  -8.028  -9.638  1.00  0.00     0.243 C 
ATOM     54  O   UNL     1      -3.539  -8.965  -9.520  1.00  0.00    -0.273 OA
ATOM     55  H   UNL     1      -4.841  -6.100  -9.102  1.00  0.00     0.164 HD
BRANCH  53  56
ATOM     56  C   UNL     1      -5.392  -7.961 -10.748  1.00  0.00     0.182 C 
BRANCH  56  57
ATOM     57  N   UNL     1      -6.710  -7.640 -10.192  1.00  0.00    -0.344 N 
ATOM     58  C   UNL     1      -7.693  -7.030 -10.933  1.00  0.00     0.220 C 
ATOM     59  O   UNL     1      -7.514  -6.646 -12.084  1.00  0.00    -0.275 OA
ATOM     60  H   UNL     1      -6.933  -8.030  -9.280  1.00  0.00     0.164 HD
BRANCH  58  61
ATOM     61  C   UNL     1      -8.993  -6.848 -10.173  1.00  0.00     0.100 C 
BRANCH  61  62
ATOM     62  C   UNL     1     -10.242  -6.994 -11.044  1.00  0.00     0.010 C 
BRANCH  62  63
ATOM     63  C   UNL     1     -10.835  -8.408 -11.057  1.00  0.00     0.000 C 
BRANCH  63  64
ATOM     64  C   UNL     1     -12.357  -8.448 -11.185  1.00  0.00    -0.003 C 
ATOM     65  C   UNL     1     -12.820  -9.697 -11.922  1.00  0.00     0.004 C 
ENDBRANCH  63  64
ENDBRANCH  62  63
ENDBRANCH  61  62
ENDBRANCH  58  61
ENDBRANCH  56  57
BRANCH  56  66
ATOM     66  C   UNL     1      -5.414  -9.241 -11.582  1.00  0.00     0.157 C 
BRANCH  66  67
ATOM     67  C   UNL     1      -6.422 -10.219 -11.051  1.00  0.00     0.305 C 
ATOM     68  O   UNL     1      -6.352 -10.850 -10.008  1.00  0.00    -0.252 OA
BRANCH  67  69
ATOM     69  O   UNL     1      -7.507 -10.316 -11.843  1.00  0.00    -0.481 OA
ATOM     70  H   UNL     1      -7.156 -10.254 -12.757  1.00  0.00     0.296 HD
ENDBRANCH  67  69
ENDBRANCH  66  67
ENDBRANCH  56  66
ENDBRANCH  53  56
ENDBRANCH  50  52
ENDBRANCH  47  50
ENDBRANCH  45  46
BRANCH  45  71
ATOM     71  C   UNL     1      -5.188  -6.945  -3.662  1.00  0.00     0.037 C 
BRANCH  71  72
ATOM     72  C   UNL     1      -5.986  -6.353  -4.826  1.00  0.00     0.026 C 
BRANCH  72  73
ATOM     73  C   UNL     1      -7.296  -5.729  -4.348  1.00  0.00     0.146 C 
BRANCH  73  74
ATOM     74  N   UNL     1      -7.376  -4.380  -4.900  1.00  0.00    -0.254 NA
ATOM     75  C   UNL     1      -7.424  -4.257  -6.175  1.00  0.00     0.185 C 
ATOM     76  N   UNL     1      -7.499  -3.029  -6.713  1.00  0.00    -0.370 N 
ATOM     77  N   UNL     1      -7.410  -5.215  -7.118  1.00  0.00    -0.370 N 
ATOM     78  H   UNL     1      -7.507  -2.248  -6.072  1.00  0.00     0.159 HD
ATOM     79  H   UNL     1      -7.394  -2.848  -7.696  1.00  0.00     0.159 HD
ATOM     80  H   UNL     1      -7.360  -6.189  -6.859  1.00  0.00     0.159 HD
ATOM     81  H   UNL     1      -7.569  -5.004  -8.089  1.00  0.00     0.159 HD
ENDBRANCH  73  74
ENDBRANCH  72  73
ENDBRANCH  71  72
ENDBRANCH  45  71
ENDBRANCH   3  45
TORSDOF 20
ENDMDL
MODEL 43
REMARK VINA RESULT:    -4.341      3.508      7.437
REMARK INTER + INTRA:         -19.635
REMARK INTER:                 -16.907
REMARK INTRA:                  -2.728
REMARK UNBOUND:                -7.173
REMARK SMILES CCCCCC(=O)N[C@H](CC(=O)O)C(=O)N[C@H]1C(=O)N[C@H](CCCN=C(N)N)C(=O)N[C@@H]2CC[C@H](O)N(C2=O)[C@@H](CC(C)C)C(=O)N(C)[C@@H](Cc2ccccc2)C(=O)N[C@H](C(C)C)C(=O)O[C@@H]1C
REMARK SMILES IDX 30 1 31 2 29 3 32 5 35 6 37 7 34 8 38 9 33 10 39 11 36 12
REMARK SMILES IDX 40 14 41 15 42 16 43 17 44 18 45 19 46 20 47 21 48 22 49 23
REMARK SMILES IDX 50 24 51 25 52 26 56 27 53 28 55 29 54 30 57 31 58 32 59 33
REMARK SMILES IDX 60 35 61 36 62 37 63 38 64 39 65 40 66 41 67 42 68 43 21 45
REMARK SMILES IDX 20 46 18 47 19 48 17 50 16 52 14 53 15 54 9 56 8 57 6 58
REMARK SMILES IDX 7 59 5 61 4 62 3 63 2 64 1 65 10 66 11 67 12 68 13 69 22 71
REMARK SMILES IDX 23 72 24 73 25 74 26 75 27 76 28 77
REMARK H PARENT 31 4 36 13 59 34 20 49 16 55 8 60 13 70 27 78 27 79 28 80
REMARK H PARENT 28 81
REMARK Flexibility Score:  259.900
ROOT
ATOM      1  O   UNL     1       0.094  -7.726  -6.337  1.00  0.00    -0.273 OA
ATOM      2  N   UNL     1      -1.421  -9.017  -7.464  1.00  0.00    -0.343 N 
ATOM      3  C   UNL     1      -1.077  -8.042  -6.552  1.00  0.00     0.243 C 
ATOM      4  H   UNL     1      -2.396  -9.241  -7.625  1.00  0.00     0.164 HD
ENDROOT
BRANCH   2   5
ATOM      5  C   UNL     1      -0.392  -9.805  -8.133  1.00  0.00     0.171 C 
ATOM      6  C   UNL     1       2.496  -9.877  -7.889  1.00  0.00     0.214 C 
ATOM      7  N   UNL     1       1.886  -8.994  -8.856  1.00  0.00    -0.303 N 
ATOM      8  C   UNL     1       1.682 -11.133  -7.624  1.00  0.00     0.057 C 
ATOM      9  C   UNL     1       0.512  -8.873  -8.989  1.00  0.00     0.247 C 
ATOM     10  C   UNL     1       0.295 -10.755  -7.153  1.00  0.00     0.040 C 
ATOM     11  O   UNL     1      -0.003  -8.052  -9.759  1.00  0.00    -0.272 OA
BRANCH   6  12
ATOM     12  O   UNL     1       2.679  -9.148  -6.697  1.00  0.00    -0.373 OA
ATOM     13  H   UNL     1       2.620  -9.789  -5.957  1.00  0.00     0.213 HD
ENDBRANCH   6  12
BRANCH   7  14
ATOM     14  C   UNL     1       2.790  -8.101  -9.612  1.00  0.00     0.177 C 
BRANCH  14  15
ATOM     15  C   UNL     1       2.954  -8.445 -11.105  1.00  0.00     0.038 C 
BRANCH  15  16
ATOM     16  C   UNL     1       4.044  -9.450 -11.539  1.00  0.00    -0.015 C 
ATOM     17  C   UNL     1       5.456  -8.966 -11.197  1.00  0.00     0.007 C 
ATOM     18  C   UNL     1       3.967  -9.676 -13.054  1.00  0.00     0.007 C 
ENDBRANCH  15  16
ENDBRANCH  14  15
BRANCH  14  19
ATOM     19  C   UNL     1       2.748  -6.652  -9.014  1.00  0.00     0.245 C 
ATOM     20  O   UNL     1       1.755  -5.960  -9.295  1.00  0.00    -0.272 OA
BRANCH  19  21
ATOM     21  N   UNL     1       3.787  -6.082  -8.301  1.00  0.00    -0.332 N 
ATOM     22  C   UNL     1       5.006  -5.540  -8.875  1.00  0.00     0.147 C 
BRANCH  21  23
ATOM     23  C   UNL     1       3.663  -6.022  -6.818  1.00  0.00     0.178 C 
BRANCH  23  24
ATOM     24  C   UNL     1       4.993  -6.174  -6.052  1.00  0.00     0.070 C 
BRANCH  24  25
ATOM     25  C   UNL     1       5.191  -7.447  -5.263  1.00  0.00    -0.045 A 
ATOM     26  C   UNL     1       4.483  -7.672  -4.075  1.00  0.00     0.004 A 
ATOM     27  C   UNL     1       6.094  -8.424  -5.710  1.00  0.00     0.004 A 
ATOM     28  C   UNL     1       4.685  -8.844  -3.342  1.00  0.00     0.000 A 
ATOM     29  C   UNL     1       6.293  -9.595  -4.977  1.00  0.00     0.000 A 
ATOM     30  C   UNL     1       5.590  -9.803  -3.792  1.00  0.00     0.000 A 
ENDBRANCH  24  25
ENDBRANCH  23  24
BRANCH  23  31
ATOM     31  C   UNL     1       2.762  -4.861  -6.334  1.00  0.00     0.243 C 
ATOM     32  O   UNL     1       2.249  -4.032  -7.082  1.00  0.00    -0.273 OA
ATOM     33  N   UNL     1       2.730  -4.722  -4.957  1.00  0.00    -0.341 N 
ATOM     34  H   UNL     1       3.180  -5.442  -4.386  1.00  0.00     0.164 HD
BRANCH  33  35
ATOM     35  C   UNL     1       2.038  -3.621  -4.281  1.00  0.00     0.194 C 
BRANCH  35  36
ATOM     36  C   UNL     1       2.990  -2.555  -3.668  1.00  0.00     0.017 C 
ATOM     37  C   UNL     1       2.198  -1.406  -3.020  1.00  0.00     0.010 C 
ATOM     38  C   UNL     1       3.943  -1.933  -4.696  1.00  0.00     0.010 C 
ENDBRANCH  35  36
BRANCH  35  39
ATOM     39  C   UNL     1       0.985  -4.119  -3.252  1.00  0.00     0.329 C 
ATOM     40  O   UNL     1       1.259  -4.761  -2.245  1.00  0.00    -0.250 OA
BRANCH  39  41
ATOM     41  O   UNL     1      -0.277  -3.685  -3.549  1.00  0.00    -0.458 OA
BRANCH  41  42
ATOM     42  C   UNL     1      -1.303  -3.977  -2.570  1.00  0.00     0.205 CG0
ATOM     43  C   UNL     1      -0.814  -3.439  -1.226  1.00  0.00     0.056 C 
ATOM     44  G   UNL     1      -1.539  -5.500  -2.544  1.00  0.00     0.000 G0
ENDBRANCH  41  42
ENDBRANCH  39  41
ENDBRANCH  35  39
ENDBRANCH  33  35
ENDBRANCH  23  31
ENDBRANCH  21  23
ENDBRANCH  19  21
ENDBRANCH  14  19
ENDBRANCH   7  14
ENDBRANCH   2   5
BRANCH   3  45
ATOM     45  C   UNL     1      -2.254  -7.364  -5.839  1.00  0.00     0.171 C 
BRANCH  45  46
ATOM     46  N   UNL     1      -1.739  -6.941  -4.543  1.00  0.00    -0.342 N 
ATOM     47  C   UNL     1      -2.287  -5.900  -3.837  1.00  0.00     0.247 C 
ATOM     48  O   UNL     1      -3.293  -5.296  -4.210  1.00  0.00    -0.273 OA
ATOM     49  H   UNL     1      -0.939  -7.451  -4.171  1.00  0.00     0.164 HD
BRANCH  47  50
ATOM     50  C   UNL     1      -1.535  -5.518  -2.554  1.00  0.00     0.212 CG0
ATOM     51  G   UNL     1      -1.324  -3.991  -2.573  1.00  0.00     0.000 G0
BRANCH  50  52
ATOM     52  N   UNL     1      -2.385  -5.969  -1.456  1.00  0.00    -0.339 N 
ATOM     53  C   UNL     1      -2.124  -7.093  -0.710  1.00  0.00     0.243 C 
ATOM     54  O   UNL     1      -1.177  -7.838  -0.946  1.00  0.00    -0.273 OA
ATOM     55  H   UNL     1      -3.247  -5.454  -1.283  1.00  0.00     0.164 HD
BRANCH  53  56
ATOM     56  C   UNL     1      -3.208  -7.417   0.338  1.00  0.00     0.182 C 
BRANCH  56  57
ATOM     57  N   UNL     1      -4.257  -8.267  -0.236  1.00  0.00    -0.344 N 
ATOM     58  C   UNL     1      -5.109  -7.823  -1.217  1.00  0.00     0.220 C 
ATOM     59  O   UNL     1      -5.102  -6.668  -1.629  1.00  0.00    -0.275 OA
ATOM     60  H   UNL     1      -4.231  -9.254   0.003  1.00  0.00     0.164 HD
BRANCH  58  61
ATOM     61  C   UNL     1      -6.075  -8.888  -1.702  1.00  0.00     0.100 C 
BRANCH  61  62
ATOM     62  C   UNL     1      -6.507  -8.711  -3.158  1.00  0.00     0.010 C 
BRANCH  62  63
ATOM     63  C   UNL     1      -7.979  -8.313  -3.331  1.00  0.00     0.000 C 
BRANCH  63  64
ATOM     64  C   UNL     1      -8.342  -6.969  -2.702  1.00  0.00    -0.003 C 
ATOM     65  C   UNL     1      -9.473  -6.288  -3.460  1.00  0.00     0.004 C 
ENDBRANCH  63  64
ENDBRANCH  62  63
ENDBRANCH  61  62
ENDBRANCH  58  61
ENDBRANCH  56  57
BRANCH  56  66
ATOM     66  C   UNL     1      -3.776  -6.146   0.967  1.00  0.00     0.157 C 
BRANCH  66  67
ATOM     67  C   UNL     1      -2.898  -5.651   2.080  1.00  0.00     0.305 C 
ATOM     68  O   UNL     1      -2.057  -4.767   2.012  1.00  0.00    -0.252 OA
BRANCH  67  69
ATOM     69  O   UNL     1      -3.159  -6.265   3.250  1.00  0.00    -0.481 OA
ATOM     70  H   UNL     1      -2.295  -6.302   3.712  1.00  0.00     0.296 HD
ENDBRANCH  67  69
ENDBRANCH  66  67
ENDBRANCH  56  66
ENDBRANCH  53  56
ENDBRANCH  50  52
ENDBRANCH  47  50
ENDBRANCH  45  46
BRANCH  45  71
ATOM     71  C   UNL     1      -3.424  -8.343  -5.690  1.00  0.00     0.037 C 
BRANCH  71  72
ATOM     72  C   UNL     1      -4.554  -8.043  -6.678  1.00  0.00     0.026 C 
BRANCH  72  73
ATOM     73  C   UNL     1      -4.442  -6.630  -7.246  1.00  0.00     0.146 C 
BRANCH  73  74
ATOM     74  N   UNL     1      -5.788  -6.172  -7.575  1.00  0.00    -0.254 NA
ATOM     75  C   UNL     1      -6.237  -5.141  -6.961  1.00  0.00     0.185 C 
ATOM     76  N   UNL     1      -7.472  -4.695  -7.243  1.00  0.00    -0.370 N 
ATOM     77  N   UNL     1      -5.636  -4.387  -6.024  1.00  0.00    -0.370 N 
ATOM     78  H   UNL     1      -7.998  -5.211  -7.934  1.00  0.00     0.159 HD
ATOM     79  H   UNL     1      -7.942  -3.988  -6.705  1.00  0.00     0.159 HD
ATOM     80  H   UNL     1      -4.700  -4.602  -5.715  1.00  0.00     0.159 HD
ATOM     81  H   UNL     1      -6.045  -3.528  -5.695  1.00  0.00     0.159 HD
ENDBRANCH  73  74
ENDBRANCH  72  73
ENDBRANCH  71  72
ENDBRANCH  45  71
ENDBRANCH   3  45
TORSDOF 20
ENDMDL
MODEL 44
REMARK VINA RESULT:    -4.328      2.984      6.727
REMARK INTER + INTRA:         -19.598
REMARK INTER:                 -16.702
REMARK INTRA:                  -2.896
REMARK UNBOUND:                -7.173
REMARK SMILES CCCCCC(=O)N[C@H](CC(=O)O)C(=O)N[C@H]1C(=O)N[C@H](CCCN=C(N)N)C(=O)N[C@@H]2CC[C@H](O)N(C2=O)[C@@H](CC(C)C)C(=O)N(C)[C@@H](Cc2ccccc2)C(=O)N[C@H](C(C)C)C(=O)O[C@@H]1C
REMARK SMILES IDX 30 1 31 2 29 3 32 5 35 6 37 7 34 8 38 9 33 10 39 11 36 12
REMARK SMILES IDX 40 14 41 15 42 16 43 17 44 18 45 19 46 20 47 21 48 22 49 23
REMARK SMILES IDX 50 24 51 25 52 26 56 27 53 28 55 29 54 30 57 31 58 32 59 33
REMARK SMILES IDX 60 35 61 36 62 37 63 38 64 39 65 40 66 41 67 42 68 43 21 45
REMARK SMILES IDX 20 46 18 47 19 48 17 50 16 52 14 53 15 54 9 56 8 57 6 58
REMARK SMILES IDX 7 59 5 61 4 62 3 63 2 64 1 65 10 66 11 67 12 68 13 69 22 71
REMARK SMILES IDX 23 72 24 73 25 74 26 75 27 76 28 77
REMARK H PARENT 31 4 36 13 59 34 20 49 16 55 8 60 13 70 27 78 27 79 28 80
REMARK H PARENT 28 81
REMARK Flexibility Score:  259.900
ROOT
ATOM      1  O   UNL     1      -1.769  -8.486  -7.605  1.00  0.00    -0.273 OA
ATOM      2  N   UNL     1      -1.693  -6.483  -8.706  1.00  0.00    -0.343 N 
ATOM      3  C   UNL     1      -2.324  -7.438  -7.938  1.00  0.00     0.243 C 
ATOM      4  H   UNL     1      -2.175  -5.626  -8.948  1.00  0.00     0.164 HD
ENDROOT
BRANCH   2   5
ATOM      5  C   UNL     1      -0.368  -6.733  -9.262  1.00  0.00     0.171 C 
ATOM      6  C   UNL     1       1.391  -9.037  -9.187  1.00  0.00     0.214 C 
ATOM      7  N   UNL     1       1.501  -8.025  -8.162  1.00  0.00    -0.303 N 
ATOM      8  C   UNL     1       0.915  -8.490 -10.523  1.00  0.00     0.057 C 
ATOM      9  C   UNL     1       0.659  -6.926  -8.110  1.00  0.00     0.247 C 
ATOM     10  C   UNL     1      -0.423  -7.805 -10.350  1.00  0.00     0.040 C 
ATOM     11  O   UNL     1       0.704  -6.109  -7.181  1.00  0.00    -0.272 OA
BRANCH   6  12
ATOM     12  O   UNL     1       0.507 -10.029  -8.718  1.00  0.00    -0.373 OA
ATOM     13  H   UNL     1       0.306  -9.816  -7.782  1.00  0.00     0.213 HD
ENDBRANCH   6  12
BRANCH   7  14
ATOM     14  C   UNL     1       2.464  -8.280  -7.069  1.00  0.00     0.177 C 
BRANCH  14  15
ATOM     15  C   UNL     1       2.637  -9.761  -6.680  1.00  0.00     0.038 C 
BRANCH  15  16
ATOM     16  C   UNL     1       3.994 -10.458  -6.922  1.00  0.00    -0.015 C 
ATOM     17  C   UNL     1       3.893 -11.595  -7.943  1.00  0.00     0.007 C 
ATOM     18  C   UNL     1       4.520 -11.041  -5.605  1.00  0.00     0.007 C 
ENDBRANCH  15  16
ENDBRANCH  14  15
BRANCH  14  19
ATOM     19  C   UNL     1       3.607  -7.208  -7.091  1.00  0.00     0.245 C 
ATOM     20  O   UNL     1       4.021  -6.854  -8.208  1.00  0.00    -0.272 OA
BRANCH  19  21
ATOM     21  N   UNL     1       4.241  -6.733  -5.956  1.00  0.00    -0.332 N 
ATOM     22  C   UNL     1       5.319  -7.403  -5.251  1.00  0.00     0.147 C 
BRANCH  21  23
ATOM     23  C   UNL     1       3.781  -5.433  -5.395  1.00  0.00     0.178 C 
BRANCH  23  24
ATOM     24  C   UNL     1       3.229  -4.439  -6.437  1.00  0.00     0.070 C 
BRANCH  24  25
ATOM     25  C   UNL     1       3.812  -3.045  -6.436  1.00  0.00    -0.045 A 
ATOM     26  C   UNL     1       3.010  -1.932  -6.154  1.00  0.00     0.004 A 
ATOM     27  C   UNL     1       5.171  -2.847  -6.723  1.00  0.00     0.004 A 
ATOM     28  C   UNL     1       3.554  -0.645  -6.171  1.00  0.00     0.000 A 
ATOM     29  C   UNL     1       5.713  -1.561  -6.738  1.00  0.00     0.000 A 
ATOM     30  C   UNL     1       4.903  -0.460  -6.465  1.00  0.00     0.000 A 
ENDBRANCH  24  25
ENDBRANCH  23  24
BRANCH  23  31
ATOM     31  C   UNL     1       2.910  -5.597  -4.126  1.00  0.00     0.243 C 
ATOM     32  O   UNL     1       3.351  -5.934  -3.030  1.00  0.00    -0.273 OA
ATOM     33  N   UNL     1       1.551  -5.511  -4.374  1.00  0.00    -0.341 N 
ATOM     34  H   UNL     1       1.244  -5.232  -5.309  1.00  0.00     0.164 HD
BRANCH  33  35
ATOM     35  C   UNL     1       0.535  -5.752  -3.345  1.00  0.00     0.194 C 
BRANCH  35  36
ATOM     36  C   UNL     1       0.079  -7.235  -3.238  1.00  0.00     0.017 C 
ATOM     37  C   UNL     1      -0.477  -7.747  -4.578  1.00  0.00     0.010 C 
ATOM     38  C   UNL     1      -1.004  -7.458  -2.176  1.00  0.00     0.010 C 
ENDBRANCH  35  36
BRANCH  35  39
ATOM     39  C   UNL     1      -0.673  -4.780  -3.458  1.00  0.00     0.329 C 
ATOM     40  O   UNL     1      -0.626  -3.591  -3.167  1.00  0.00    -0.250 OA
BRANCH  39  41
ATOM     41  O   UNL     1      -1.774  -5.381  -4.003  1.00  0.00    -0.458 OA
BRANCH  41  42
ATOM     42  C   UNL     1      -3.055  -4.991  -3.453  1.00  0.00     0.205 CG0
ATOM     43  C   UNL     1      -2.867  -4.812  -1.948  1.00  0.00     0.056 C 
ATOM     44  G   UNL     1      -4.089  -6.082  -3.793  1.00  0.00     0.000 G0
ENDBRANCH  41  42
ENDBRANCH  39  41
ENDBRANCH  35  39
ENDBRANCH  33  35
ENDBRANCH  23  31
ENDBRANCH  21  23
ENDBRANCH  19  21
ENDBRANCH  14  19
ENDBRANCH   7  14
ENDBRANCH   2   5
BRANCH   3  45
ATOM     45  C   UNL     1      -3.756  -7.095  -7.507  1.00  0.00     0.171 C 
BRANCH  45  46
ATOM     46  N   UNL     1      -3.731  -7.056  -6.051  1.00  0.00    -0.342 N 
ATOM     47  C   UNL     1      -4.325  -6.050  -5.332  1.00  0.00     0.247 C 
ATOM     48  O   UNL     1      -4.983  -5.151  -5.857  1.00  0.00    -0.273 OA
ATOM     49  H   UNL     1      -3.245  -7.813  -5.573  1.00  0.00     0.164 HD
BRANCH  47  50
ATOM     50  C   UNL     1      -4.090  -6.108  -3.816  1.00  0.00     0.212 CG0
ATOM     51  G   UNL     1      -3.097  -4.985  -3.453  1.00  0.00     0.000 G0
BRANCH  50  52
ATOM     52  N   UNL     1      -5.407  -5.933  -3.209  1.00  0.00    -0.339 N 
ATOM     53  C   UNL     1      -6.396  -6.884  -3.262  1.00  0.00     0.243 C 
ATOM     54  O   UNL     1      -6.266  -7.941  -3.873  1.00  0.00    -0.273 OA
ATOM     55  H   UNL     1      -5.614  -5.032  -2.783  1.00  0.00     0.164 HD
BRANCH  53  56
ATOM     56  C   UNL     1      -7.729  -6.439  -2.627  1.00  0.00     0.182 C 
BRANCH  56  57
ATOM     57  N   UNL     1      -8.220  -7.443  -1.678  1.00  0.00    -0.344 N 
ATOM     58  C   UNL     1      -7.537  -7.768  -0.531  1.00  0.00     0.220 C 
ATOM     59  O   UNL     1      -6.438  -7.298  -0.258  1.00  0.00    -0.275 OA
ATOM     60  H   UNL     1      -9.170  -7.779  -1.813  1.00  0.00     0.164 HD
BRANCH  58  61
ATOM     61  C   UNL     1      -8.260  -8.787   0.331  1.00  0.00     0.100 C 
BRANCH  61  62
ATOM     62  C   UNL     1      -8.464 -10.139  -0.353  1.00  0.00     0.010 C 
BRANCH  62  63
ATOM     63  C   UNL     1      -9.891 -10.373  -0.866  1.00  0.00     0.000 C 
BRANCH  63  64
ATOM     64  C   UNL     1     -10.041 -10.246  -2.381  1.00  0.00    -0.003 C 
ATOM     65  C   UNL     1      -8.917 -10.964  -3.113  1.00  0.00     0.004 C 
ENDBRANCH  63  64
ENDBRANCH  62  63
ENDBRANCH  61  62
ENDBRANCH  58  61
ENDBRANCH  56  57
BRANCH  56  66
ATOM     66  C   UNL     1      -8.769  -6.094  -3.691  1.00  0.00     0.157 C 
BRANCH  66  67
ATOM     67  C   UNL     1      -9.435  -4.781  -3.396  1.00  0.00     0.305 C 
ATOM     68  O   UNL     1      -9.375  -4.148  -2.353  1.00  0.00    -0.252 OA
BRANCH  67  69
ATOM     69  O   UNL     1     -10.109  -4.299  -4.457  1.00  0.00    -0.481 OA
ATOM     70  H   UNL     1     -10.915  -4.854  -4.515  1.00  0.00     0.296 HD
ENDBRANCH  67  69
ENDBRANCH  66  67
ENDBRANCH  56  66
ENDBRANCH  53  56
ENDBRANCH  50  52
ENDBRANCH  47  50
ENDBRANCH  45  46
BRANCH  45  71
ATOM     71  C   UNL     1      -4.737  -8.151  -8.028  1.00  0.00     0.037 C 
BRANCH  71  72
ATOM     72  C   UNL     1      -5.355  -7.751  -9.370  1.00  0.00     0.026 C 
BRANCH  72  73
ATOM     73  C   UNL     1      -5.288  -6.241  -9.590  1.00  0.00     0.146 C 
BRANCH  73  74
ATOM     74  N   UNL     1      -6.574  -5.810 -10.129  1.00  0.00    -0.254 NA
ATOM     75  C   UNL     1      -7.461  -5.395  -9.303  1.00  0.00     0.185 C 
ATOM     76  N   UNL     1      -8.654  -4.991  -9.769  1.00  0.00    -0.370 N 
ATOM     77  N   UNL     1      -7.387  -5.292  -7.964  1.00  0.00    -0.370 N 
ATOM     78  H   UNL     1      -8.797  -5.043 -10.767  1.00  0.00     0.159 HD
ATOM     79  H   UNL     1      -9.442  -4.792  -9.177  1.00  0.00     0.159 HD
ATOM     80  H   UNL     1      -6.546  -5.557  -7.475  1.00  0.00     0.159 HD
ATOM     81  H   UNL     1      -8.110  -4.842  -7.428  1.00  0.00     0.159 HD
ENDBRANCH  73  74
ENDBRANCH  72  73
ENDBRANCH  71  72
ENDBRANCH  45  71
ENDBRANCH   3  45
TORSDOF 20
ENDMDL
MODEL 45
REMARK VINA RESULT:    -4.236      3.384      7.634
REMARK INTER + INTRA:         -19.333
REMARK INTER:                 -16.738
REMARK INTRA:                  -2.595
REMARK UNBOUND:                -7.173
REMARK SMILES CCCCCC(=O)N[C@H](CC(=O)O)C(=O)N[C@H]1C(=O)N[C@H](CCCN=C(N)N)C(=O)N[C@@H]2CC[C@H](O)N(C2=O)[C@@H](CC(C)C)C(=O)N(C)[C@@H](Cc2ccccc2)C(=O)N[C@H](C(C)C)C(=O)O[C@@H]1C
REMARK SMILES IDX 30 1 31 2 29 3 32 5 35 6 37 7 34 8 38 9 33 10 39 11 36 12
REMARK SMILES IDX 40 14 41 15 42 16 43 17 44 18 45 19 46 20 47 21 48 22 49 23
REMARK SMILES IDX 50 24 51 25 52 26 56 27 53 28 55 29 54 30 57 31 58 32 59 33
REMARK SMILES IDX 60 35 61 36 62 37 63 38 64 39 65 40 66 41 67 42 68 43 21 45
REMARK SMILES IDX 20 46 18 47 19 48 17 50 16 52 14 53 15 54 9 56 8 57 6 58
REMARK SMILES IDX 7 59 5 61 4 62 3 63 2 64 1 65 10 66 11 67 12 68 13 69 22 71
REMARK SMILES IDX 23 72 24 73 25 74 26 75 27 76 28 77
REMARK H PARENT 31 4 36 13 59 34 20 49 16 55 8 60 13 70 27 78 27 79 28 80
REMARK H PARENT 28 81
REMARK Flexibility Score:  259.900
ROOT
ATOM      1  O   UNL     1      -0.601  -8.935  -8.087  1.00  0.00    -0.273 OA
ATOM      2  N   UNL     1      -1.110  -6.865  -8.916  1.00  0.00    -0.343 N 
ATOM      3  C   UNL     1      -1.251  -7.891  -8.007  1.00  0.00     0.243 C 
ATOM      4  H   UNL     1      -1.650  -6.015  -8.811  1.00  0.00     0.164 HD
ENDROOT
BRANCH   2   5
ATOM      5  C   UNL     1      -0.260  -7.025 -10.091  1.00  0.00     0.171 C 
ATOM      6  C   UNL     1       1.233  -9.276 -11.144  1.00  0.00     0.214 C 
ATOM      7  N   UNL     1       1.876  -8.363 -10.228  1.00  0.00    -0.303 N 
ATOM      8  C   UNL     1       0.155  -8.619 -11.992  1.00  0.00     0.057 C 
ATOM      9  C   UNL     1       1.206  -7.297  -9.649  1.00  0.00     0.247 C 
ATOM     10  C   UNL     1      -0.889  -7.990 -11.095  1.00  0.00     0.040 C 
ATOM     11  O   UNL     1       1.738  -6.571  -8.800  1.00  0.00    -0.272 OA
BRANCH   6  12
ATOM     12  O   UNL     1       0.688 -10.332 -10.387  1.00  0.00    -0.373 OA
ATOM     13  H   UNL     1       1.389 -11.012 -10.295  1.00  0.00     0.213 HD
ENDBRANCH   6  12
BRANCH   7  14
ATOM     14  C   UNL     1       3.254  -8.694  -9.809  1.00  0.00     0.177 C 
BRANCH  14  15
ATOM     15  C   UNL     1       3.552 -10.198  -9.661  1.00  0.00     0.038 C 
BRANCH  15  16
ATOM     16  C   UNL     1       4.937 -10.745 -10.073  1.00  0.00    -0.015 C 
ATOM     17  C   UNL     1       5.055 -10.955 -11.585  1.00  0.00     0.007 C 
ATOM     18  C   UNL     1       5.191 -12.090  -9.380  1.00  0.00     0.007 C 
ENDBRANCH  15  16
ENDBRANCH  14  15
BRANCH  14  19
ATOM     19  C   UNL     1       4.260  -7.620 -10.351  1.00  0.00     0.245 C 
ATOM     20  O   UNL     1       4.086  -7.230 -11.518  1.00  0.00    -0.272 OA
BRANCH  19  21
ATOM     21  N   UNL     1       5.369  -7.180  -9.652  1.00  0.00    -0.332 N 
ATOM     22  C   UNL     1       6.750  -7.482  -9.986  1.00  0.00     0.147 C 
BRANCH  21  23
ATOM     23  C   UNL     1       5.143  -6.335  -8.447  1.00  0.00     0.178 C 
BRANCH  23  24
ATOM     24  C   UNL     1       4.132  -5.187  -8.645  1.00  0.00     0.070 C 
BRANCH  24  25
ATOM     25  C   UNL     1       4.341  -3.936  -7.823  1.00  0.00    -0.045 A 
ATOM     26  C   UNL     1       5.625  -3.414  -7.626  1.00  0.00     0.004 A 
ATOM     27  C   UNL     1       3.245  -3.281  -7.240  1.00  0.00     0.004 A 
ATOM     28  C   UNL     1       5.812  -2.267  -6.851  1.00  0.00     0.000 A 
ATOM     29  C   UNL     1       3.433  -2.135  -6.467  1.00  0.00     0.000 A 
ATOM     30  C   UNL     1       4.717  -1.630  -6.271  1.00  0.00     0.000 A 
ENDBRANCH  24  25
ENDBRANCH  23  24
BRANCH  23  31
ATOM     31  C   UNL     1       4.944  -7.164  -7.156  1.00  0.00     0.243 C 
ATOM     32  O   UNL     1       5.185  -8.365  -7.067  1.00  0.00    -0.273 OA
ATOM     33  N   UNL     1       4.289  -6.473  -6.151  1.00  0.00    -0.341 N 
ATOM     34  H   UNL     1       4.110  -5.475  -6.285  1.00  0.00     0.164 HD
BRANCH  33  35
ATOM     35  C   UNL     1       3.888  -7.094  -4.885  1.00  0.00     0.194 C 
BRANCH  35  36
ATOM     36  C   UNL     1       4.817  -8.252  -4.424  1.00  0.00     0.017 C 
ATOM     37  C   UNL     1       4.029  -9.560  -4.237  1.00  0.00     0.010 C 
ATOM     38  C   UNL     1       5.539  -7.958  -3.103  1.00  0.00     0.010 C 
ENDBRANCH  35  36
BRANCH  35  39
ATOM     39  C   UNL     1       2.391  -7.511  -4.872  1.00  0.00     0.329 C 
ATOM     40  O   UNL     1       1.866  -8.213  -5.729  1.00  0.00    -0.250 OA
BRANCH  39  41
ATOM     41  O   UNL     1       1.741  -7.078  -3.749  1.00  0.00    -0.458 OA
BRANCH  41  42
ATOM     42  C   UNL     1       0.676  -6.119  -3.955  1.00  0.00     0.205 CG0
ATOM     43  C   UNL     1       1.029  -4.870  -3.150  1.00  0.00     0.056 C 
ATOM     44  G   UNL     1      -0.653  -6.756  -3.502  1.00  0.00     0.000 G0
ENDBRANCH  41  42
ENDBRANCH  39  41
ENDBRANCH  35  39
ENDBRANCH  33  35
ENDBRANCH  23  31
ENDBRANCH  21  23
ENDBRANCH  19  21
ENDBRANCH  14  19
ENDBRANCH   7  14
ENDBRANCH   2   5
BRANCH   3  45
ATOM     45  C   UNL     1      -2.257  -7.635  -6.878  1.00  0.00     0.171 C 
BRANCH  45  46
ATOM     46  N   UNL     1      -1.475  -7.627  -5.648  1.00  0.00    -0.342 N 
ATOM     47  C   UNL     1      -1.669  -6.696  -4.659  1.00  0.00     0.247 C 
ATOM     48  O   UNL     1      -2.561  -5.849  -4.704  1.00  0.00    -0.273 OA
ATOM     49  H   UNL     1      -0.762  -8.347  -5.545  1.00  0.00     0.164 HD
BRANCH  47  50
ATOM     50  C   UNL     1      -0.670  -6.767  -3.495  1.00  0.00     0.212 CG0
ATOM     51  G   UNL     1       0.651  -6.131  -3.973  1.00  0.00     0.000 G0
BRANCH  50  52
ATOM     52  N   UNL     1      -1.298  -6.037  -2.398  1.00  0.00    -0.339 N 
ATOM     53  C   UNL     1      -1.533  -6.586  -1.161  1.00  0.00     0.243 C 
ATOM     54  O   UNL     1      -1.280  -7.759  -0.898  1.00  0.00    -0.273 OA
ATOM     55  H   UNL     1      -1.633  -5.094  -2.587  1.00  0.00     0.164 HD
BRANCH  53  56
ATOM     56  C   UNL     1      -2.286  -5.652  -0.192  1.00  0.00     0.182 C 
BRANCH  56  57
ATOM     57  N   UNL     1      -3.483  -6.305   0.347  1.00  0.00    -0.344 N 
ATOM     58  C   UNL     1      -4.550  -6.654  -0.445  1.00  0.00     0.220 C 
ATOM     59  O   UNL     1      -4.608  -6.379  -1.638  1.00  0.00    -0.275 OA
ATOM     60  H   UNL     1      -3.433  -6.641   1.305  1.00  0.00     0.164 HD
BRANCH  58  61
ATOM     61  C   UNL     1      -5.652  -7.371   0.313  1.00  0.00     0.100 C 
BRANCH  61  62
ATOM     62  C   UNL     1      -6.826  -7.801  -0.566  1.00  0.00     0.010 C 
BRANCH  62  63
ATOM     63  C   UNL     1      -7.822  -8.736   0.130  1.00  0.00     0.000 C 
BRANCH  63  64
ATOM     64  C   UNL     1      -8.915  -9.283  -0.787  1.00  0.00    -0.003 C 
ATOM     65  C   UNL     1      -9.041  -8.453  -2.056  1.00  0.00     0.004 C 
ENDBRANCH  63  64
ENDBRANCH  62  63
ENDBRANCH  61  62
ENDBRANCH  58  61
ENDBRANCH  56  57
BRANCH  56  66
ATOM     66  C   UNL     1      -2.606  -4.308  -0.845  1.00  0.00     0.157 C 
BRANCH  66  67
ATOM     67  C   UNL     1      -2.623  -3.201   0.170  1.00  0.00     0.305 C 
ATOM     68  O   UNL     1      -2.430  -2.013  -0.039  1.00  0.00    -0.252 OA
BRANCH  67  69
ATOM     69  O   UNL     1      -2.938  -3.641   1.403  1.00  0.00    -0.481 OA
ATOM     70  H   UNL     1      -3.184  -4.582   1.277  1.00  0.00     0.296 HD
ENDBRANCH  67  69
ENDBRANCH  66  67
ENDBRANCH  56  66
ENDBRANCH  53  56
ENDBRANCH  50  52
ENDBRANCH  47  50
ENDBRANCH  45  46
BRANCH  45  71
ATOM     71  C   UNL     1      -3.329  -8.731  -6.859  1.00  0.00     0.037 C 
BRANCH  71  72
ATOM     72  C   UNL     1      -4.402  -8.505  -7.926  1.00  0.00     0.026 C 
BRANCH  72  73
ATOM     73  C   UNL     1      -5.642  -7.831  -7.340  1.00  0.00     0.146 C 
BRANCH  73  74
ATOM     74  N   UNL     1      -5.211  -6.610  -6.667  1.00  0.00    -0.254 NA
ATOM     75  C   UNL     1      -5.946  -5.567  -6.790  1.00  0.00     0.185 C 
ATOM     76  N   UNL     1      -5.577  -4.429  -6.181  1.00  0.00    -0.370 N 
ATOM     77  N   UNL     1      -7.097  -5.420  -7.469  1.00  0.00    -0.370 N 
ATOM     78  H   UNL     1      -4.716  -4.451  -5.653  1.00  0.00     0.159 HD
ATOM     79  H   UNL     1      -6.020  -3.542  -6.348  1.00  0.00     0.159 HD
ATOM     80  H   UNL     1      -7.499  -6.196  -7.973  1.00  0.00     0.159 HD
ATOM     81  H   UNL     1      -7.649  -4.581  -7.398  1.00  0.00     0.159 HD
ENDBRANCH  73  74
ENDBRANCH  72  73
ENDBRANCH  71  72
ENDBRANCH  45  71
ENDBRANCH   3  45
TORSDOF 20
ENDMDL
MODEL 46
REMARK VINA RESULT:    -4.213      2.624     10.125
REMARK INTER + INTRA:         -19.267
REMARK INTER:                 -15.732
REMARK INTRA:                  -3.534
REMARK UNBOUND:                -7.173
REMARK SMILES CCCCCC(=O)N[C@H](CC(=O)O)C(=O)N[C@H]1C(=O)N[C@H](CCCN=C(N)N)C(=O)N[C@@H]2CC[C@H](O)N(C2=O)[C@@H](CC(C)C)C(=O)N(C)[C@@H](Cc2ccccc2)C(=O)N[C@H](C(C)C)C(=O)O[C@@H]1C
REMARK SMILES IDX 30 1 31 2 29 3 32 5 35 6 37 7 34 8 38 9 33 10 39 11 36 12
REMARK SMILES IDX 40 14 41 15 42 16 43 17 44 18 45 19 46 20 47 21 48 22 49 23
REMARK SMILES IDX 50 24 51 25 52 26 56 27 53 28 55 29 54 30 57 31 58 32 59 33
REMARK SMILES IDX 60 35 61 36 62 37 63 38 64 39 65 40 66 41 67 42 68 43 21 45
REMARK SMILES IDX 20 46 18 47 19 48 17 50 16 52 14 53 15 54 9 56 8 57 6 58
REMARK SMILES IDX 7 59 5 61 4 62 3 63 2 64 1 65 10 66 11 67 12 68 13 69 22 71
REMARK SMILES IDX 23 72 24 73 25 74 26 75 27 76 28 77
REMARK H PARENT 31 4 36 13 59 34 20 49 16 55 8 60 13 70 27 78 27 79 28 80
REMARK H PARENT 28 81
REMARK Flexibility Score:  259.900
ROOT
ATOM      1  O   UNL     1      -3.669  -6.467  -3.122  1.00  0.00    -0.273 OA
ATOM      2  N   UNL     1      -3.825  -7.574  -1.127  1.00  0.00    -0.343 N 
ATOM      3  C   UNL     1      -3.215  -6.702  -2.002  1.00  0.00     0.243 C 
ATOM      4  H   UNL     1      -3.430  -7.732  -0.208  1.00  0.00     0.164 HD
ENDROOT
BRANCH   2   5
ATOM      5  C   UNL     1      -4.985  -8.354  -1.544  1.00  0.00     0.171 C 
ATOM      6  C   UNL     1      -6.172  -8.875  -4.137  1.00  0.00     0.214 C 
ATOM      7  N   UNL     1      -6.628  -7.745  -3.362  1.00  0.00    -0.303 N 
ATOM      8  C   UNL     1      -5.680 -10.033  -3.283  1.00  0.00     0.057 C 
ATOM      9  C   UNL     1      -6.069  -7.410  -2.139  1.00  0.00     0.247 C 
ATOM     10  C   UNL     1      -4.562  -9.563  -2.378  1.00  0.00     0.040 C 
ATOM     11  O   UNL     1      -6.405  -6.391  -1.521  1.00  0.00    -0.272 OA
BRANCH   6  12
ATOM     12  O   UNL     1      -5.148  -8.425  -4.993  1.00  0.00    -0.373 OA
ATOM     13  H   UNL     1      -4.688  -7.693  -4.530  1.00  0.00     0.213 HD
ENDBRANCH   6  12
BRANCH   7  14
ATOM     14  C   UNL     1      -7.628  -6.858  -3.993  1.00  0.00     0.177 C 
BRANCH  14  15
ATOM     15  C   UNL     1      -9.051  -6.953  -3.409  1.00  0.00     0.038 C 
BRANCH  15  16
ATOM     16  C   UNL     1      -9.908  -5.675  -3.282  1.00  0.00    -0.015 C 
ATOM     17  C   UNL     1     -10.455  -5.202  -4.633  1.00  0.00     0.007 C 
ATOM     18  C   UNL     1      -9.065  -4.542  -2.682  1.00  0.00     0.007 C 
ENDBRANCH  15  16
ENDBRANCH  14  15
BRANCH  14  19
ATOM     19  C   UNL     1      -6.943  -5.544  -4.504  1.00  0.00     0.245 C 
ATOM     20  O   UNL     1      -6.361  -4.850  -3.654  1.00  0.00    -0.272 OA
BRANCH  19  21
ATOM     21  N   UNL     1      -7.049  -5.074  -5.801  1.00  0.00    -0.332 N 
ATOM     22  C   UNL     1      -7.881  -3.963  -6.229  1.00  0.00     0.147 C 
BRANCH  21  23
ATOM     23  C   UNL     1      -6.256  -5.761  -6.858  1.00  0.00     0.178 C 
BRANCH  23  24
ATOM     24  C   UNL     1      -6.544  -5.282  -8.295  1.00  0.00     0.070 C 
BRANCH  24  25
ATOM     25  C   UNL     1      -6.975  -6.328  -9.296  1.00  0.00    -0.045 A 
ATOM     26  C   UNL     1      -8.309  -6.412  -9.717  1.00  0.00     0.004 A 
ATOM     27  C   UNL     1      -6.041  -7.237  -9.816  1.00  0.00     0.004 A 
ATOM     28  C   UNL     1      -8.702  -7.393 -10.630  1.00  0.00     0.000 A 
ATOM     29  C   UNL     1      -6.436  -8.216 -10.729  1.00  0.00     0.000 A 
ATOM     30  C   UNL     1      -7.767  -8.295 -11.133  1.00  0.00     0.000 A 
ENDBRANCH  24  25
ENDBRANCH  23  24
BRANCH  23  31
ATOM     31  C   UNL     1      -4.756  -5.887  -6.501  1.00  0.00     0.243 C 
ATOM     32  O   UNL     1      -4.139  -5.068  -5.825  1.00  0.00    -0.273 OA
ATOM     33  N   UNL     1      -4.114  -6.917  -7.168  1.00  0.00    -0.341 N 
ATOM     34  H   UNL     1      -4.680  -7.564  -7.722  1.00  0.00     0.164 HD
BRANCH  33  35
ATOM     35  C   UNL     1      -2.670  -7.150  -7.076  1.00  0.00     0.194 C 
BRANCH  35  36
ATOM     36  C   UNL     1      -1.993  -7.485  -8.435  1.00  0.00     0.017 C 
ATOM     37  C   UNL     1      -2.003  -6.270  -9.379  1.00  0.00     0.010 C 
ATOM     38  C   UNL     1      -2.666  -8.647  -9.176  1.00  0.00     0.010 C 
ENDBRANCH  35  36
BRANCH  35  39
ATOM     39  C   UNL     1      -2.300  -8.182  -5.974  1.00  0.00     0.329 C 
ATOM     40  O   UNL     1      -2.659  -9.353  -5.982  1.00  0.00    -0.250 OA
BRANCH  39  41
ATOM     41  O   UNL     1      -1.454  -7.658  -5.035  1.00  0.00    -0.458 OA
BRANCH  41  42
ATOM     42  C   UNL     1      -0.183  -7.166  -5.521  1.00  0.00     0.205 CG0
ATOM     43  C   UNL     1       0.639  -8.378  -5.954  1.00  0.00     0.056 C 
ATOM     44  G   UNL     1       0.498  -6.365  -4.393  1.00  0.00     0.000 G0
ENDBRANCH  41  42
ENDBRANCH  39  41
ENDBRANCH  35  39
ENDBRANCH  33  35
ENDBRANCH  23  31
ENDBRANCH  21  23
ENDBRANCH  19  21
ENDBRANCH  14  19
ENDBRANCH   7  14
ENDBRANCH   2   5
BRANCH   3  45
ATOM     45  C   UNL     1      -1.941  -6.027  -1.476  1.00  0.00     0.171 C 
BRANCH  45  46
ATOM     46  N   UNL     1      -0.874  -6.442  -2.378  1.00  0.00    -0.342 N 
ATOM     47  C   UNL     1      -0.525  -5.716  -3.488  1.00  0.00     0.247 C 
ATOM     48  O   UNL     1      -1.034  -4.629  -3.763  1.00  0.00    -0.273 OA
ATOM     49  H   UNL     1      -0.387  -7.309  -2.156  1.00  0.00     0.164 HD
BRANCH  47  50
ATOM     50  C   UNL     1       0.534  -6.371  -4.386  1.00  0.00     0.212 CG0
ATOM     51  G   UNL     1      -0.207  -7.153  -5.489  1.00  0.00     0.000 G0
BRANCH  50  52
ATOM     52  N   UNL     1       1.341  -5.269  -4.904  1.00  0.00    -0.339 N 
ATOM     53  C   UNL     1       2.525  -4.867  -4.335  1.00  0.00     0.243 C 
ATOM     54  O   UNL     1       2.972  -5.373  -3.309  1.00  0.00    -0.273 OA
ATOM     55  H   UNL     1       0.968  -4.737  -5.688  1.00  0.00     0.164 HD
BRANCH  53  56
ATOM     56  C   UNL     1       3.154  -3.628  -5.003  1.00  0.00     0.182 C 
BRANCH  56  57
ATOM     57  N   UNL     1       4.087  -4.019  -6.065  1.00  0.00    -0.344 N 
ATOM     58  C   UNL     1       3.698  -4.149  -7.376  1.00  0.00     0.220 C 
ATOM     59  O   UNL     1       2.533  -4.020  -7.738  1.00  0.00    -0.275 OA
ATOM     60  H   UNL     1       5.075  -4.036  -5.827  1.00  0.00     0.164 HD
BRANCH  58  61
ATOM     61  C   UNL     1       4.839  -4.505  -8.310  1.00  0.00     0.100 C 
BRANCH  61  62
ATOM     62  C   UNL     1       4.693  -5.877  -8.968  1.00  0.00     0.010 C 
BRANCH  62  63
ATOM     63  C   UNL     1       4.056  -6.941  -8.065  1.00  0.00     0.000 C 
BRANCH  63  64
ATOM     64  C   UNL     1       5.042  -7.647  -7.136  1.00  0.00    -0.003 C 
ATOM     65  C   UNL     1       4.504  -7.730  -5.715  1.00  0.00     0.004 C 
ENDBRANCH  63  64
ENDBRANCH  62  63
ENDBRANCH  61  62
ENDBRANCH  58  61
ENDBRANCH  56  57
BRANCH  56  66
ATOM     66  C   UNL     1       3.806  -2.706  -3.974  1.00  0.00     0.157 C 
BRANCH  66  67
ATOM     67  C   UNL     1       2.802  -1.763  -3.375  1.00  0.00     0.305 C 
ATOM     68  O   UNL     1       1.627  -1.649  -3.688  1.00  0.00    -0.252 OA
BRANCH  67  69
ATOM     69  O   UNL     1       3.320  -1.038  -2.366  1.00  0.00    -0.481 OA
ATOM     70  H   UNL     1       3.840  -1.679  -1.838  1.00  0.00     0.296 HD
ENDBRANCH  67  69
ENDBRANCH  66  67
ENDBRANCH  56  66
ENDBRANCH  53  56
ENDBRANCH  50  52
ENDBRANCH  47  50
ENDBRANCH  45  46
BRANCH  45  71
ATOM     71  C   UNL     1      -1.663  -6.463  -0.033  1.00  0.00     0.037 C 
BRANCH  71  72
ATOM     72  C   UNL     1      -2.166  -5.437   0.985  1.00  0.00     0.026 C 
BRANCH  72  73
ATOM     73  C   UNL     1      -2.636  -4.154   0.303  1.00  0.00     0.146 C 
BRANCH  73  74
ATOM     74  N   UNL     1      -1.457  -3.341   0.020  1.00  0.00    -0.254 NA
ATOM     75  C   UNL     1      -1.456  -2.642  -1.054  1.00  0.00     0.185 C 
ATOM     76  N   UNL     1      -0.386  -1.882  -1.341  1.00  0.00    -0.370 N 
ATOM     77  N   UNL     1      -2.409  -2.539  -1.997  1.00  0.00    -0.370 N 
ATOM     78  H   UNL     1       0.382  -1.907  -0.685  1.00  0.00     0.159 HD
ATOM     79  H   UNL     1      -0.252  -1.426  -2.226  1.00  0.00     0.159 HD
ATOM     80  H   UNL     1      -3.273  -3.053  -1.912  1.00  0.00     0.159 HD
ATOM     81  H   UNL     1      -2.343  -1.867  -2.743  1.00  0.00     0.159 HD
ENDBRANCH  73  74
ENDBRANCH  72  73
ENDBRANCH  71  72
ENDBRANCH  45  71
ENDBRANCH   3  45
TORSDOF 20
ENDMDL
MODEL 47
REMARK VINA RESULT:    -4.202      3.155      9.284
REMARK INTER + INTRA:         -19.235
REMARK INTER:                 -16.957
REMARK INTRA:                  -2.279
REMARK UNBOUND:                -7.173
REMARK SMILES CCCCCC(=O)N[C@H](CC(=O)O)C(=O)N[C@H]1C(=O)N[C@H](CCCN=C(N)N)C(=O)N[C@@H]2CC[C@H](O)N(C2=O)[C@@H](CC(C)C)C(=O)N(C)[C@@H](Cc2ccccc2)C(=O)N[C@H](C(C)C)C(=O)O[C@@H]1C
REMARK SMILES IDX 30 1 31 2 29 3 32 5 35 6 37 7 34 8 38 9 33 10 39 11 36 12
REMARK SMILES IDX 40 14 41 15 42 16 43 17 44 18 45 19 46 20 47 21 48 22 49 23
REMARK SMILES IDX 50 24 51 25 52 26 56 27 53 28 55 29 54 30 57 31 58 32 59 33
REMARK SMILES IDX 60 35 61 36 62 37 63 38 64 39 65 40 66 41 67 42 68 43 21 45
REMARK SMILES IDX 20 46 18 47 19 48 17 50 16 52 14 53 15 54 9 56 8 57 6 58
REMARK SMILES IDX 7 59 5 61 4 62 3 63 2 64 1 65 10 66 11 67 12 68 13 69 22 71
REMARK SMILES IDX 23 72 24 73 25 74 26 75 27 76 28 77
REMARK H PARENT 31 4 36 13 59 34 20 49 16 55 8 60 13 70 27 78 27 79 28 80
REMARK H PARENT 28 81
REMARK Flexibility Score:  259.900
ROOT
ATOM      1  O   UNL     1       2.325  -7.477  -4.319  1.00  0.00    -0.273 OA
ATOM      2  N   UNL     1       0.785  -6.560  -5.739  1.00  0.00    -0.343 N 
ATOM      3  C   UNL     1       1.461  -6.629  -4.540  1.00  0.00     0.243 C 
ATOM      4  H   UNL     1       0.090  -5.839  -5.891  1.00  0.00     0.164 HD
ENDROOT
BRANCH   2   5
ATOM      5  C   UNL     1       0.988  -7.577  -6.765  1.00  0.00     0.171 C 
ATOM      6  C   UNL     1       0.339  -7.676  -9.589  1.00  0.00     0.214 C 
ATOM      7  N   UNL     1      -0.613  -8.174  -8.623  1.00  0.00    -0.303 N 
ATOM      8  C   UNL     1       1.784  -7.819  -9.138  1.00  0.00     0.057 C 
ATOM      9  C   UNL     1      -0.388  -8.110  -7.258  1.00  0.00     0.247 C 
ATOM     10  C   UNL     1       1.984  -7.101  -7.821  1.00  0.00     0.040 C 
ATOM     11  O   UNL     1      -1.245  -8.460  -6.435  1.00  0.00    -0.272 OA
BRANCH   6  12
ATOM     12  O   UNL     1       0.033  -6.324  -9.838  1.00  0.00    -0.373 OA
ATOM     13  H   UNL     1      -0.801  -6.126  -9.360  1.00  0.00     0.213 HD
ENDBRANCH   6  12
BRANCH   7  14
ATOM     14  C   UNL     1      -1.920  -8.629  -9.144  1.00  0.00     0.177 C 
BRANCH  14  15
ATOM     15  C   UNL     1      -2.338  -8.016 -10.494  1.00  0.00     0.038 C 
BRANCH  15  16
ATOM     16  C   UNL     1      -2.206  -8.855 -11.785  1.00  0.00    -0.015 C 
ATOM     17  C   UNL     1      -3.147 -10.063 -11.794  1.00  0.00     0.007 C 
ATOM     18  C   UNL     1      -0.766  -9.366 -11.927  1.00  0.00     0.007 C 
ENDBRANCH  15  16
ENDBRANCH  14  15
BRANCH  14  19
ATOM     19  C   UNL     1      -2.202 -10.103  -8.691  1.00  0.00     0.245 C 
ATOM     20  O   UNL     1      -1.348 -10.954  -8.991  1.00  0.00    -0.272 OA
BRANCH  19  21
ATOM     21  N   UNL     1      -3.378 -10.513  -8.089  1.00  0.00    -0.332 N 
ATOM     22  C   UNL     1      -3.503 -11.603  -7.138  1.00  0.00     0.147 C 
BRANCH  21  23
ATOM     23  C   UNL     1      -4.631  -9.791  -8.445  1.00  0.00     0.178 C 
BRANCH  23  24
ATOM     24  C   UNL     1      -5.585 -10.572  -9.372  1.00  0.00     0.070 C 
BRANCH  24  25
ATOM     25  C   UNL     1      -6.401  -9.766 -10.356  1.00  0.00    -0.045 A 
ATOM     26  C   UNL     1      -6.635  -8.401 -10.146  1.00  0.00     0.004 A 
ATOM     27  C   UNL     1      -6.943 -10.380 -11.495  1.00  0.00     0.004 A 
ATOM     28  C   UNL     1      -7.405  -7.667 -11.051  1.00  0.00     0.000 A 
ATOM     29  C   UNL     1      -7.711  -9.645 -12.399  1.00  0.00     0.000 A 
ATOM     30  C   UNL     1      -7.944  -8.290 -12.175  1.00  0.00     0.000 A 
ENDBRANCH  24  25
ENDBRANCH  23  24
BRANCH  23  31
ATOM     31  C   UNL     1      -5.310  -9.122  -7.226  1.00  0.00     0.243 C 
ATOM     32  O   UNL     1      -6.038  -9.715  -6.435  1.00  0.00    -0.273 OA
ATOM     33  N   UNL     1      -5.175  -7.744  -7.205  1.00  0.00    -0.341 N 
ATOM     34  H   UNL     1      -4.558  -7.306  -7.894  1.00  0.00     0.164 HD
BRANCH  33  35
ATOM     35  C   UNL     1      -5.834  -6.892  -6.211  1.00  0.00     0.194 C 
BRANCH  35  36
ATOM     36  C   UNL     1      -5.986  -5.408  -6.648  1.00  0.00     0.017 C 
ATOM     37  C   UNL     1      -6.887  -4.628  -5.676  1.00  0.00     0.010 C 
ATOM     38  C   UNL     1      -6.581  -5.249  -8.053  1.00  0.00     0.010 C 
ENDBRANCH  35  36
BRANCH  35  39
ATOM     39  C   UNL     1      -5.197  -7.019  -4.799  1.00  0.00     0.329 C 
ATOM     40  O   UNL     1      -5.699  -7.647  -3.874  1.00  0.00    -0.250 OA
BRANCH  39  41
ATOM     41  O   UNL     1      -3.969  -6.422  -4.726  1.00  0.00    -0.458 OA
BRANCH  41  42
ATOM     42  C   UNL     1      -2.908  -7.208  -4.135  1.00  0.00     0.205 CG0
ATOM     43  C   UNL     1      -3.412  -8.647  -4.033  1.00  0.00     0.056 C 
ATOM     44  G   UNL     1      -2.559  -6.607  -2.759  1.00  0.00     0.000 G0
ENDBRANCH  41  42
ENDBRANCH  39  41
ENDBRANCH  35  39
ENDBRANCH  33  35
ENDBRANCH  23  31
ENDBRANCH  21  23
ENDBRANCH  19  21
ENDBRANCH  14  19
ENDBRANCH   7  14
ENDBRANCH   2   5
BRANCH   3  45
ATOM     45  C   UNL     1       1.076  -5.561  -3.507  1.00  0.00     0.171 C 
BRANCH  45  46
ATOM     46  N   UNL     1      -0.375  -5.632  -3.390  1.00  0.00    -0.342 N 
ATOM     47  C   UNL     1      -1.008  -6.594  -2.644  1.00  0.00     0.247 C 
ATOM     48  O   UNL     1      -0.398  -7.420  -1.963  1.00  0.00    -0.273 OA
ATOM     49  H   UNL     1      -0.917  -4.932  -3.893  1.00  0.00     0.164 HD
BRANCH  47  50
ATOM     50  C   UNL     1      -2.540  -6.587  -2.739  1.00  0.00     0.212 CG0
ATOM     51  G   UNL     1      -2.926  -7.194  -4.103  1.00  0.00     0.000 G0
BRANCH  50  52
ATOM     52  N   UNL     1      -3.004  -7.379  -1.603  1.00  0.00    -0.339 N 
ATOM     53  C   UNL     1      -4.148  -7.090  -0.898  1.00  0.00     0.243 C 
ATOM     54  O   UNL     1      -4.843  -6.107  -1.138  1.00  0.00    -0.273 OA
ATOM     55  H   UNL     1      -2.411  -8.142  -1.285  1.00  0.00     0.164 HD
BRANCH  53  56
ATOM     56  C   UNL     1      -4.388  -8.014   0.313  1.00  0.00     0.182 C 
BRANCH  56  57
ATOM     57  N   UNL     1      -5.563  -8.865   0.101  1.00  0.00    -0.344 N 
ATOM     58  C   UNL     1      -6.833  -8.464   0.438  1.00  0.00     0.220 C 
ATOM     59  O   UNL     1      -7.065  -7.402   1.005  1.00  0.00    -0.275 OA
ATOM     60  H   UNL     1      -5.429  -9.705  -0.456  1.00  0.00     0.164 HD
BRANCH  58  61
ATOM     61  C   UNL     1      -7.901  -9.480   0.076  1.00  0.00     0.100 C 
BRANCH  61  62
ATOM     62  C   UNL     1      -9.031  -8.907  -0.779  1.00  0.00     0.010 C 
BRANCH  62  63
ATOM     63  C   UNL     1      -8.553  -8.112  -2.001  1.00  0.00     0.000 C 
BRANCH  63  64
ATOM     64  C   UNL     1      -9.078  -8.638  -3.336  1.00  0.00    -0.003 C 
ATOM     65  C   UNL     1      -8.798 -10.125  -3.496  1.00  0.00     0.004 C 
ENDBRANCH  63  64
ENDBRANCH  62  63
ENDBRANCH  61  62
ENDBRANCH  58  61
ENDBRANCH  56  57
BRANCH  56  66
ATOM     66  C   UNL     1      -4.479  -7.219   1.614  1.00  0.00     0.157 C 
BRANCH  66  67
ATOM     67  C   UNL     1      -3.120  -6.999   2.214  1.00  0.00     0.305 C 
ATOM     68  O   UNL     1      -2.599  -5.925   2.473  1.00  0.00    -0.252 OA
BRANCH  67  69
ATOM     69  O   UNL     1      -2.498  -8.156   2.509  1.00  0.00    -0.481 OA
ATOM     70  H   UNL     1      -3.170  -8.851   2.343  1.00  0.00     0.296 HD
ENDBRANCH  67  69
ENDBRANCH  66  67
ENDBRANCH  56  66
ENDBRANCH  53  56
ENDBRANCH  50  52
ENDBRANCH  47  50
ENDBRANCH  45  46
BRANCH  45  71
ATOM     71  C   UNL     1       1.539  -4.177  -3.972  1.00  0.00     0.037 C 
BRANCH  71  72
ATOM     72  C   UNL     1       2.896  -3.793  -3.376  1.00  0.00     0.026 C 
BRANCH  72  73
ATOM     73  C   UNL     1       3.991  -3.779  -4.439  1.00  0.00     0.146 C 
BRANCH  73  74
ATOM     74  N   UNL     1       4.378  -2.389  -4.665  1.00  0.00    -0.254 NA
ATOM     75  C   UNL     1       3.875  -1.784  -5.677  1.00  0.00     0.185 C 
ATOM     76  N   UNL     1       4.211  -0.505  -5.909  1.00  0.00    -0.370 N 
ATOM     77  N   UNL     1       3.014  -2.251  -6.598  1.00  0.00    -0.370 N 
ATOM     78  H   UNL     1       4.862  -0.078  -5.266  1.00  0.00     0.159 HD
ATOM     79  H   UNL     1       3.974  -0.016  -6.754  1.00  0.00     0.159 HD
ATOM     80  H   UNL     1       2.671  -3.198  -6.547  1.00  0.00     0.159 HD
ATOM     81  H   UNL     1       2.597  -1.645  -7.286  1.00  0.00     0.159 HD
ENDBRANCH  73  74
ENDBRANCH  72  73
ENDBRANCH  71  72
ENDBRANCH  45  71
ENDBRANCH   3  45
TORSDOF 20
ENDMDL
MODEL 48
REMARK VINA RESULT:    -4.120      3.939     10.121
REMARK INTER + INTRA:         -18.999
REMARK INTER:                 -15.056
REMARK INTRA:                  -3.942
REMARK UNBOUND:                -7.173
REMARK SMILES CCCCCC(=O)N[C@H](CC(=O)O)C(=O)N[C@H]1C(=O)N[C@H](CCCN=C(N)N)C(=O)N[C@@H]2CC[C@H](O)N(C2=O)[C@@H](CC(C)C)C(=O)N(C)[C@@H](Cc2ccccc2)C(=O)N[C@H](C(C)C)C(=O)O[C@@H]1C
REMARK SMILES IDX 30 1 31 2 29 3 32 5 35 6 37 7 34 8 38 9 33 10 39 11 36 12
REMARK SMILES IDX 40 14 41 15 42 16 43 17 44 18 45 19 46 20 47 21 48 22 49 23
REMARK SMILES IDX 50 24 51 25 52 26 56 27 53 28 55 29 54 30 57 31 58 32 59 33
REMARK SMILES IDX 60 35 61 36 62 37 63 38 64 39 65 40 66 41 67 42 68 43 21 45
REMARK SMILES IDX 20 46 18 47 19 48 17 50 16 52 14 53 15 54 9 56 8 57 6 58
REMARK SMILES IDX 7 59 5 61 4 62 3 63 2 64 1 65 10 66 11 67 12 68 13 69 22 71
REMARK SMILES IDX 23 72 24 73 25 74 26 75 27 76 28 77
REMARK H PARENT 31 4 36 13 59 34 20 49 16 55 8 60 13 70 27 78 27 79 28 80
REMARK H PARENT 28 81
REMARK Flexibility Score:  259.900
ROOT
ATOM      1  O   UNL     1      -2.131  -3.295  -1.204  1.00  0.00    -0.273 OA
ATOM      2  N   UNL     1      -2.018  -5.562  -0.926  1.00  0.00    -0.343 N 
ATOM      3  C   UNL     1      -1.699  -4.388  -1.573  1.00  0.00     0.243 C 
ATOM      4  H   UNL     1      -1.632  -6.441  -1.248  1.00  0.00     0.164 HD
ENDROOT
BRANCH   2   5
ATOM      5  C   UNL     1      -2.988  -5.570   0.164  1.00  0.00     0.171 C 
ATOM      6  C   UNL     1      -3.705  -7.564   2.142  1.00  0.00     0.214 C 
ATOM      7  N   UNL     1      -4.418  -7.520   0.887  1.00  0.00    -0.303 N 
ATOM      8  C   UNL     1      -3.189  -6.205   2.589  1.00  0.00     0.057 C 
ATOM      9  C   UNL     1      -4.093  -6.627  -0.121  1.00  0.00     0.247 C 
ATOM     10  C   UNL     1      -2.288  -5.623   1.521  1.00  0.00     0.040 C 
ATOM     11  O   UNL     1      -4.651  -6.653  -1.226  1.00  0.00    -0.272 OA
BRANCH   6  12
ATOM     12  O   UNL     1      -2.638  -8.473   2.000  1.00  0.00    -0.373 OA
ATOM     13  H   UNL     1      -3.021  -9.317   1.678  1.00  0.00     0.213 HD
ENDBRANCH   6  12
BRANCH   7  14
ATOM     14  C   UNL     1      -5.427  -8.575   0.652  1.00  0.00     0.177 C 
BRANCH  14  15
ATOM     15  C   UNL     1      -5.134  -9.926   1.331  1.00  0.00     0.038 C 
BRANCH  15  16
ATOM     16  C   UNL     1      -6.251 -10.636   2.129  1.00  0.00    -0.015 C 
ATOM     17  C   UNL     1      -6.336 -10.146   3.577  1.00  0.00     0.007 C 
ATOM     18  C   UNL     1      -5.996 -12.148   2.147  1.00  0.00     0.007 C 
ENDBRANCH  15  16
ENDBRANCH  14  15
BRANCH  14  19
ATOM     19  C   UNL     1      -6.849  -7.937   0.477  1.00  0.00     0.245 C 
ATOM     20  O   UNL     1      -7.151  -7.020   1.259  1.00  0.00    -0.272 OA
BRANCH  19  21
ATOM     21  N   UNL     1      -7.802  -8.409  -0.408  1.00  0.00    -0.332 N 
ATOM     22  C   UNL     1      -8.851  -9.360  -0.088  1.00  0.00     0.147 C 
BRANCH  21  23
ATOM     23  C   UNL     1      -7.752  -7.916  -1.812  1.00  0.00     0.178 C 
BRANCH  23  24
ATOM     24  C   UNL     1      -7.176  -6.495  -1.978  1.00  0.00     0.070 C 
BRANCH  24  25
ATOM     25  C   UNL     1      -7.322  -5.846  -3.335  1.00  0.00    -0.045 A 
ATOM     26  C   UNL     1      -6.232  -5.760  -4.210  1.00  0.00     0.004 A 
ATOM     27  C   UNL     1      -8.557  -5.315  -3.736  1.00  0.00     0.004 A 
ATOM     28  C   UNL     1      -6.371  -5.144  -5.455  1.00  0.00     0.000 A 
ATOM     29  C   UNL     1      -8.695  -4.701  -4.981  1.00  0.00     0.000 A 
ATOM     30  C   UNL     1      -7.600  -4.613  -5.839  1.00  0.00     0.000 A 
ENDBRANCH  24  25
ENDBRANCH  23  24
BRANCH  23  31
ATOM     31  C   UNL     1      -7.192  -8.966  -2.801  1.00  0.00     0.243 C 
ATOM     32  O   UNL     1      -7.761  -9.309  -3.834  1.00  0.00    -0.273 OA
ATOM     33  N   UNL     1      -6.072  -9.628  -2.328  1.00  0.00    -0.341 N 
ATOM     34  H   UNL     1      -5.646  -9.301  -1.458  1.00  0.00     0.164 HD
BRANCH  33  35
ATOM     35  C   UNL     1      -5.442 -10.743  -3.042  1.00  0.00     0.194 C 
BRANCH  35  36
ATOM     36  C   UNL     1      -5.343 -12.053  -2.211  1.00  0.00     0.017 C 
ATOM     37  C   UNL     1      -6.613 -12.283  -1.374  1.00  0.00     0.010 C 
ATOM     38  C   UNL     1      -4.150 -12.069  -1.248  1.00  0.00     0.010 C 
ENDBRANCH  35  36
BRANCH  35  39
ATOM     39  C   UNL     1      -4.078 -10.352  -3.675  1.00  0.00     0.329 C 
ATOM     40  O   UNL     1      -3.501 -11.019  -4.527  1.00  0.00    -0.250 OA
BRANCH  39  41
ATOM     41  O   UNL     1      -3.632  -9.135  -3.241  1.00  0.00    -0.458 OA
BRANCH  41  42
ATOM     42  C   UNL     1      -3.662  -8.058  -4.208  1.00  0.00     0.205 CG0
ATOM     43  C   UNL     1      -4.376  -8.585  -5.451  1.00  0.00     0.056 C 
ATOM     44  G   UNL     1      -2.214  -7.620  -4.501  1.00  0.00     0.000 G0
ENDBRANCH  41  42
ENDBRANCH  39  41
ENDBRANCH  35  39
ENDBRANCH  33  35
ENDBRANCH  23  31
ENDBRANCH  21  23
ENDBRANCH  19  21
ENDBRANCH  14  19
ENDBRANCH   7  14
ENDBRANCH   2   5
BRANCH   3  45
ATOM     45  C   UNL     1      -0.751  -4.534  -2.770  1.00  0.00     0.171 C 
BRANCH  45  46
ATOM     46  N   UNL     1      -0.991  -5.869  -3.302  1.00  0.00    -0.342 N 
ATOM     47  C   UNL     1      -2.026  -6.144  -4.161  1.00  0.00     0.247 C 
ATOM     48  O   UNL     1      -2.779  -5.274  -4.600  1.00  0.00    -0.273 OA
ATOM     49  H   UNL     1      -0.356  -6.609  -3.008  1.00  0.00     0.164 HD
BRANCH  47  50
ATOM     50  C   UNL     1      -2.198  -7.627  -4.517  1.00  0.00     0.212 CG0
ATOM     51  G   UNL     1      -3.652  -8.021  -4.190  1.00  0.00     0.000 G0
BRANCH  50  52
ATOM     52  N   UNL     1      -1.879  -7.726  -5.938  1.00  0.00    -0.339 N 
ATOM     53  C   UNL     1      -0.619  -7.523  -6.446  1.00  0.00     0.243 C 
ATOM     54  O   UNL     1       0.331  -7.187  -5.744  1.00  0.00    -0.273 OA
ATOM     55  H   UNL     1      -2.647  -7.893  -6.585  1.00  0.00     0.164 HD
BRANCH  53  56
ATOM     56  C   UNL     1      -0.543  -7.595  -7.985  1.00  0.00     0.182 C 
BRANCH  56  57
ATOM     57  N   UNL     1       0.757  -7.120  -8.471  1.00  0.00    -0.344 N 
ATOM     58  C   UNL     1       1.668  -7.954  -9.071  1.00  0.00     0.220 C 
ATOM     59  O   UNL     1       1.492  -9.163  -9.177  1.00  0.00    -0.275 OA
ATOM     60  H   UNL     1       0.899  -6.114  -8.495  1.00  0.00     0.164 HD
BRANCH  58  61
ATOM     61  C   UNL     1       2.917  -7.236  -9.548  1.00  0.00     0.100 C 
BRANCH  61  62
ATOM     62  C   UNL     1       3.222  -5.951  -8.777  1.00  0.00     0.010 C 
BRANCH  62  63
ATOM     63  C   UNL     1       4.262  -6.119  -7.662  1.00  0.00     0.000 C 
BRANCH  63  64
ATOM     64  C   UNL     1       5.069  -7.413  -7.749  1.00  0.00    -0.003 C 
ATOM     65  C   UNL     1       4.656  -8.399  -6.665  1.00  0.00     0.004 C 
ENDBRANCH  63  64
ENDBRANCH  62  63
ENDBRANCH  61  62
ENDBRANCH  58  61
ENDBRANCH  56  57
BRANCH  56  66
ATOM     66  C   UNL     1      -1.709  -6.856  -8.638  1.00  0.00     0.157 C 
BRANCH  66  67
ATOM     67  C   UNL     1      -2.765  -7.814  -9.109  1.00  0.00     0.305 C 
ATOM     68  O   UNL     1      -2.628  -8.712  -9.925  1.00  0.00    -0.252 OA
BRANCH  67  69
ATOM     69  O   UNL     1      -3.942  -7.625  -8.483  1.00  0.00    -0.481 OA
ATOM     70  H   UNL     1      -4.366  -6.884  -8.965  1.00  0.00     0.296 HD
ENDBRANCH  67  69
ENDBRANCH  66  67
ENDBRANCH  56  66
ENDBRANCH  53  56
ENDBRANCH  50  52
ENDBRANCH  47  50
ENDBRANCH  45  46
BRANCH  45  71
ATOM     71  C   UNL     1       0.705  -4.357  -2.324  1.00  0.00     0.037 C 
BRANCH  71  72
ATOM     72  C   UNL     1       1.677  -5.145  -3.205  1.00  0.00     0.026 C 
BRANCH  72  73
ATOM     73  C   UNL     1       3.128  -4.758  -2.924  1.00  0.00     0.146 C 
BRANCH  73  74
ATOM     74  N   UNL     1       3.661  -4.121  -4.124  1.00  0.00    -0.254 NA
ATOM     75  C   UNL     1       4.286  -3.011  -3.986  1.00  0.00     0.185 C 
ATOM     76  N   UNL     1       4.789  -2.401  -5.072  1.00  0.00    -0.370 N 
ATOM     77  N   UNL     1       4.534  -2.315  -2.863  1.00  0.00    -0.370 N 
ATOM     78  H   UNL     1       4.639  -2.856  -5.962  1.00  0.00     0.159 HD
ATOM     79  H   UNL     1       5.159  -1.468  -5.061  1.00  0.00     0.159 HD
ATOM     80  H   UNL     1       4.218  -2.655  -1.968  1.00  0.00     0.159 HD
ATOM     81  H   UNL     1       5.138  -1.509  -2.863  1.00  0.00     0.159 HD
ENDBRANCH  73  74
ENDBRANCH  72  73
ENDBRANCH  71  72
ENDBRANCH  45  71
ENDBRANCH   3  45
TORSDOF 20
ENDMDL
MODEL 49
REMARK VINA RESULT:    -4.073      3.074      7.182
REMARK INTER + INTRA:         -18.866
REMARK INTER:                 -15.696
REMARK INTRA:                  -3.170
REMARK UNBOUND:                -7.173
REMARK SMILES CCCCCC(=O)N[C@H](CC(=O)O)C(=O)N[C@H]1C(=O)N[C@H](CCCN=C(N)N)C(=O)N[C@@H]2CC[C@H](O)N(C2=O)[C@@H](CC(C)C)C(=O)N(C)[C@@H](Cc2ccccc2)C(=O)N[C@H](C(C)C)C(=O)O[C@@H]1C
REMARK SMILES IDX 30 1 31 2 29 3 32 5 35 6 37 7 34 8 38 9 33 10 39 11 36 12
REMARK SMILES IDX 40 14 41 15 42 16 43 17 44 18 45 19 46 20 47 21 48 22 49 23
REMARK SMILES IDX 50 24 51 25 52 26 56 27 53 28 55 29 54 30 57 31 58 32 59 33
REMARK SMILES IDX 60 35 61 36 62 37 63 38 64 39 65 40 66 41 67 42 68 43 21 45
REMARK SMILES IDX 20 46 18 47 19 48 17 50 16 52 14 53 15 54 9 56 8 57 6 58
REMARK SMILES IDX 7 59 5 61 4 62 3 63 2 64 1 65 10 66 11 67 12 68 13 69 22 71
REMARK SMILES IDX 23 72 24 73 25 74 26 75 27 76 28 77
REMARK H PARENT 31 4 36 13 59 34 20 49 16 55 8 60 13 70 27 78 27 79 28 80
REMARK H PARENT 28 81
REMARK Flexibility Score:  259.900
ROOT
ATOM      1  O   UNL     1      -1.188  -9.170  -7.874  1.00  0.00    -0.273 OA
ATOM      2  N   UNL     1      -1.459  -6.978  -8.470  1.00  0.00    -0.343 N 
ATOM      3  C   UNL     1      -1.913  -8.179  -7.967  1.00  0.00     0.243 C 
ATOM      4  H   UNL     1      -2.079  -6.180  -8.518  1.00  0.00     0.164 HD
ENDROOT
BRANCH   2   5
ATOM      5  C   UNL     1      -0.116  -6.868  -9.028  1.00  0.00     0.171 C 
ATOM      6  C   UNL     1       2.124  -8.705  -9.138  1.00  0.00     0.214 C 
ATOM      7  N   UNL     1       2.008  -7.792  -8.025  1.00  0.00    -0.303 N 
ATOM      8  C   UNL     1       1.525  -8.163 -10.426  1.00  0.00     0.057 C 
ATOM      9  C   UNL     1       0.938  -6.924  -7.885  1.00  0.00     0.247 C 
ATOM     10  C   UNL     1       0.067  -7.820 -10.209  1.00  0.00     0.040 C 
ATOM     11  O   UNL     1       0.801  -6.206  -6.886  1.00  0.00    -0.272 OA
BRANCH   6  12
ATOM     12  O   UNL     1       1.495  -9.911  -8.772  1.00  0.00    -0.373 OA
ATOM     13  H   UNL     1       0.631  -9.675  -8.370  1.00  0.00     0.213 HD
ENDBRANCH   6  12
BRANCH   7  14
ATOM     14  C   UNL     1       3.012  -7.918  -6.947  1.00  0.00     0.177 C 
BRANCH  14  15
ATOM     15  C   UNL     1       3.522  -9.349  -6.689  1.00  0.00     0.038 C 
BRANCH  15  16
ATOM     16  C   UNL     1       4.936  -9.750  -7.162  1.00  0.00    -0.015 C 
ATOM     17  C   UNL     1       4.907 -10.862  -8.215  1.00  0.00     0.007 C 
ATOM     18  C   UNL     1       5.763 -10.242  -5.967  1.00  0.00     0.007 C 
ENDBRANCH  15  16
ENDBRANCH  14  15
BRANCH  14  19
ATOM     19  C   UNL     1       3.881  -6.616  -6.858  1.00  0.00     0.245 C 
ATOM     20  O   UNL     1       4.176  -6.066  -7.933  1.00  0.00    -0.272 OA
BRANCH  19  21
ATOM     21  N   UNL     1       4.417  -6.125  -5.681  1.00  0.00    -0.332 N 
ATOM     22  C   UNL     1       5.540  -6.700  -4.962  1.00  0.00     0.147 C 
BRANCH  21  23
ATOM     23  C   UNL     1       3.791  -4.913  -5.084  1.00  0.00     0.178 C 
BRANCH  23  24
ATOM     24  C   UNL     1       3.205  -3.919  -6.107  1.00  0.00     0.070 C 
BRANCH  24  25
ATOM     25  C   UNL     1       3.983  -2.648  -6.356  1.00  0.00    -0.045 A 
ATOM     26  C   UNL     1       5.354  -2.690  -6.642  1.00  0.00     0.004 A 
ATOM     27  C   UNL     1       3.341  -1.402  -6.299  1.00  0.00     0.004 A 
ATOM     28  C   UNL     1       6.070  -1.510  -6.854  1.00  0.00     0.000 A 
ATOM     29  C   UNL     1       4.057  -0.223  -6.512  1.00  0.00     0.000 A 
ATOM     30  C   UNL     1       5.422  -0.278  -6.786  1.00  0.00     0.000 A 
ENDBRANCH  24  25
ENDBRANCH  23  24
BRANCH  23  31
ATOM     31  C   UNL     1       2.866  -5.238  -3.887  1.00  0.00     0.243 C 
ATOM     32  O   UNL     1       3.271  -5.549  -2.770  1.00  0.00    -0.273 OA
ATOM     33  N   UNL     1       1.528  -5.330  -4.232  1.00  0.00    -0.341 N 
ATOM     34  H   UNL     1       1.252  -5.063  -5.180  1.00  0.00     0.164 HD
BRANCH  33  35
ATOM     35  C   UNL     1       0.487  -5.742  -3.287  1.00  0.00     0.194 C 
BRANCH  35  36
ATOM     36  C   UNL     1       0.249  -7.278  -3.235  1.00  0.00     0.017 C 
ATOM     37  C   UNL     1      -0.285  -7.807  -4.578  1.00  0.00     0.010 C 
ATOM     38  C   UNL     1      -0.748  -7.699  -2.148  1.00  0.00     0.010 C 
ENDBRANCH  35  36
BRANCH  35  39
ATOM     39  C   UNL     1      -0.840  -4.956  -3.479  1.00  0.00     0.329 C 
ATOM     40  O   UNL     1      -0.998  -3.785  -3.151  1.00  0.00    -0.250 OA
BRANCH  39  41
ATOM     41  O   UNL     1      -1.790  -5.690  -4.134  1.00  0.00    -0.458 OA
BRANCH  41  42
ATOM     42  C   UNL     1      -3.135  -5.617  -3.605  1.00  0.00     0.205 CG0
ATOM     43  C   UNL     1      -3.020  -5.312  -2.113  1.00  0.00     0.056 C 
ATOM     44  G   UNL     1      -3.845  -6.958  -3.880  1.00  0.00     0.000 G0
ENDBRANCH  41  42
ENDBRANCH  39  41
ENDBRANCH  35  39
ENDBRANCH  33  35
ENDBRANCH  23  31
ENDBRANCH  21  23
ENDBRANCH  19  21
ENDBRANCH  14  19
ENDBRANCH   7  14
ENDBRANCH   2   5
BRANCH   3  45
ATOM     45  C   UNL     1      -3.378  -8.188  -7.512  1.00  0.00     0.171 C 
BRANCH  45  46
ATOM     46  N   UNL     1      -3.342  -8.031  -6.064  1.00  0.00    -0.342 N 
ATOM     47  C   UNL     1      -4.077  -7.076  -5.408  1.00  0.00     0.247 C 
ATOM     48  O   UNL     1      -4.874  -6.334  -5.984  1.00  0.00    -0.273 OA
ATOM     49  H   UNL     1      -2.737  -8.663  -5.542  1.00  0.00     0.164 HD
BRANCH  47  50
ATOM     50  C   UNL     1      -3.816  -6.977  -3.899  1.00  0.00     0.212 CG0
ATOM     51  G   UNL     1      -3.154  -5.612  -3.627  1.00  0.00     0.000 G0
BRANCH  50  52
ATOM     52  N   UNL     1      -5.125  -7.120  -3.267  1.00  0.00    -0.339 N 
ATOM     53  C   UNL     1      -5.849  -8.288  -3.282  1.00  0.00     0.243 C 
ATOM     54  O   UNL     1      -5.471  -9.293  -3.878  1.00  0.00    -0.273 OA
ATOM     55  H   UNL     1      -5.543  -6.289  -2.852  1.00  0.00     0.164 HD
BRANCH  53  56
ATOM     56  C   UNL     1      -7.239  -8.173  -2.625  1.00  0.00     0.182 C 
BRANCH  56  57
ATOM     57  N   UNL     1      -7.180  -8.521  -1.202  1.00  0.00    -0.344 N 
ATOM     58  C   UNL     1      -6.593  -7.703  -0.268  1.00  0.00     0.220 C 
ATOM     59  O   UNL     1      -6.015  -6.664  -0.566  1.00  0.00    -0.275 OA
ATOM     60  H   UNL     1      -7.732  -9.319  -0.900  1.00  0.00     0.164 HD
BRANCH  58  61
ATOM     61  C   UNL     1      -6.699  -8.236   1.149  1.00  0.00     0.100 C 
BRANCH  61  62
ATOM     62  C   UNL     1      -6.581  -7.155   2.224  1.00  0.00     0.010 C 
BRANCH  62  63
ATOM     63  C   UNL     1      -5.176  -7.019   2.826  1.00  0.00     0.000 C 
BRANCH  63  64
ATOM     64  C   UNL     1      -4.237  -8.178   2.493  1.00  0.00    -0.003 C 
ATOM     65  C   UNL     1      -3.149  -7.749   1.519  1.00  0.00     0.004 C 
ENDBRANCH  63  64
ENDBRANCH  62  63
ENDBRANCH  61  62
ENDBRANCH  58  61
ENDBRANCH  56  57
BRANCH  56  66
ATOM     66  C   UNL     1      -8.283  -8.996  -3.378  1.00  0.00     0.157 C 
BRANCH  66  67
ATOM     67  C   UNL     1      -9.653  -8.800  -2.795  1.00  0.00     0.305 C 
ATOM     68  O   UNL     1     -10.008  -9.056  -1.654  1.00  0.00    -0.252 OA
BRANCH  67  69
ATOM     69  O   UNL     1     -10.506  -8.237  -3.671  1.00  0.00    -0.481 OA
ATOM     70  H   UNL     1     -10.675  -7.339  -3.315  1.00  0.00     0.296 HD
ENDBRANCH  67  69
ENDBRANCH  66  67
ENDBRANCH  56  66
ENDBRANCH  53  56
ENDBRANCH  50  52
ENDBRANCH  47  50
ENDBRANCH  45  46
BRANCH  45  71
ATOM     71  C   UNL     1      -4.056  -9.501  -7.921  1.00  0.00     0.037 C 
BRANCH  71  72
ATOM     72  C   UNL     1      -5.232  -9.269  -8.872  1.00  0.00     0.026 C 
BRANCH  72  73
ATOM     73  C   UNL     1      -5.324  -7.807  -9.305  1.00  0.00     0.146 C 
BRANCH  73  74
ATOM     74  N   UNL     1      -6.720  -7.395  -9.195  1.00  0.00    -0.254 NA
ATOM     75  C   UNL     1      -6.962  -6.159  -8.956  1.00  0.00     0.185 C 
ATOM     76  N   UNL     1      -8.237  -5.749  -8.851  1.00  0.00    -0.370 N 
ATOM     77  N   UNL     1      -6.096  -5.146  -8.784  1.00  0.00    -0.370 N 
ATOM     78  H   UNL     1      -8.954  -6.452  -8.960  1.00  0.00     0.159 HD
ATOM     79  H   UNL     1      -8.499  -4.836  -8.524  1.00  0.00     0.159 HD
ATOM     80  H   UNL     1      -5.101  -5.305  -8.840  1.00  0.00     0.159 HD
ATOM     81  H   UNL     1      -6.406  -4.191  -8.716  1.00  0.00     0.159 HD
ENDBRANCH  73  74
ENDBRANCH  72  73
ENDBRANCH  71  72
ENDBRANCH  45  71
ENDBRANCH   3  45
TORSDOF 20
ENDMDL
MODEL 50
REMARK VINA RESULT:    -3.980      4.867      7.026
REMARK INTER + INTRA:         -18.598
REMARK INTER:                 -15.351
REMARK INTRA:                  -3.247
REMARK UNBOUND:                -7.173
REMARK SMILES CCCCCC(=O)N[C@H](CC(=O)O)C(=O)N[C@H]1C(=O)N[C@H](CCCN=C(N)N)C(=O)N[C@@H]2CC[C@H](O)N(C2=O)[C@@H](CC(C)C)C(=O)N(C)[C@@H](Cc2ccccc2)C(=O)N[C@H](C(C)C)C(=O)O[C@@H]1C
REMARK SMILES IDX 30 1 31 2 29 3 32 5 35 6 37 7 34 8 38 9 33 10 39 11 36 12
REMARK SMILES IDX 40 14 41 15 42 16 43 17 44 18 45 19 46 20 47 21 48 22 49 23
REMARK SMILES IDX 50 24 51 25 52 26 56 27 53 28 55 29 54 30 57 31 58 32 59 33
REMARK SMILES IDX 60 35 61 36 62 37 63 38 64 39 65 40 66 41 67 42 68 43 21 45
REMARK SMILES IDX 20 46 18 47 19 48 17 50 16 52 14 53 15 54 9 56 8 57 6 58
REMARK SMILES IDX 7 59 5 61 4 62 3 63 2 64 1 65 10 66 11 67 12 68 13 69 22 71
REMARK SMILES IDX 23 72 24 73 25 74 26 75 27 76 28 77
REMARK H PARENT 31 4 36 13 59 34 20 49 16 55 8 60 13 70 27 78 27 79 28 80
REMARK H PARENT 28 81
REMARK Flexibility Score:  259.900
ROOT
ATOM      1  O   UNL     1      -2.956  -8.515   1.464  1.00  0.00    -0.273 OA
ATOM      2  N   UNL     1      -3.266  -6.798  -0.014  1.00  0.00    -0.343 N 
ATOM      3  C   UNL     1      -3.681  -7.924   0.663  1.00  0.00     0.243 C 
ATOM      4  H   UNL     1      -3.895  -6.329  -0.655  1.00  0.00     0.164 HD
ENDROOT
BRANCH   2   5
ATOM      5  C   UNL     1      -1.891  -6.324   0.105  1.00  0.00     0.171 C 
ATOM      6  C   UNL     1      -0.608  -3.821  -0.598  1.00  0.00     0.214 C 
ATOM      7  N   UNL     1      -0.647  -4.895  -1.563  1.00  0.00    -0.303 N 
ATOM      8  C   UNL     1      -0.583  -4.307   0.843  1.00  0.00     0.057 C 
ATOM      9  C   UNL     1      -1.287  -6.098  -1.311  1.00  0.00     0.247 C 
ATOM     10  C   UNL     1      -1.791  -5.179   1.110  1.00  0.00     0.040 C 
ATOM     11  O   UNL     1      -1.391  -6.979  -2.174  1.00  0.00    -0.272 OA
BRANCH   6  12
ATOM     12  O   UNL     1      -1.732  -3.001  -0.822  1.00  0.00    -0.373 OA
ATOM     13  H   UNL     1      -1.975  -2.605   0.042  1.00  0.00     0.213 HD
ENDBRANCH   6  12
BRANCH   7  14
ATOM     14  C   UNL     1      -0.096  -4.610  -2.905  1.00  0.00     0.177 C 
BRANCH  14  15
ATOM     15  C   UNL     1      -0.410  -3.207  -3.459  1.00  0.00     0.038 C 
BRANCH  15  16
ATOM     16  C   UNL     1       0.490  -2.015  -3.066  1.00  0.00    -0.015 C 
ATOM     17  C   UNL     1      -0.318  -0.751  -2.753  1.00  0.00     0.007 C 
ATOM     18  C   UNL     1       1.458  -1.695  -4.212  1.00  0.00     0.007 C 
ENDBRANCH  15  16
ENDBRANCH  14  15
BRANCH  14  19
ATOM     19  C   UNL     1       1.247  -5.390  -3.118  1.00  0.00     0.245 C 
ATOM     20  O   UNL     1       2.269  -4.890  -2.619  1.00  0.00    -0.272 OA
BRANCH  19  21
ATOM     21  N   UNL     1       1.367  -6.517  -3.911  1.00  0.00    -0.332 N 
ATOM     22  C   UNL     1       2.017  -7.756  -3.522  1.00  0.00     0.147 C 
BRANCH  21  23
ATOM     23  C   UNL     1       0.795  -6.466  -5.285  1.00  0.00     0.178 C 
BRANCH  23  24
ATOM     24  C   UNL     1       1.799  -6.777  -6.414  1.00  0.00     0.070 C 
BRANCH  24  25
ATOM     25  C   UNL     1       2.762  -5.679  -6.801  1.00  0.00    -0.045 A 
ATOM     26  C   UNL     1       3.547  -5.787  -7.956  1.00  0.00     0.004 A 
ATOM     27  C   UNL     1       2.886  -4.533  -6.002  1.00  0.00     0.004 A 
ATOM     28  C   UNL     1       4.447  -4.776  -8.298  1.00  0.00     0.000 A 
ATOM     29  C   UNL     1       3.785  -3.522  -6.345  1.00  0.00     0.000 A 
ATOM     30  C   UNL     1       4.567  -3.646  -7.491  1.00  0.00     0.000 A 
ENDBRANCH  24  25
ENDBRANCH  23  24
BRANCH  23  31
ATOM     31  C   UNL     1      -0.564  -7.197  -5.402  1.00  0.00     0.243 C 
ATOM     32  O   UNL     1      -0.813  -8.273  -4.863  1.00  0.00    -0.273 OA
ATOM     33  N   UNL     1      -1.423  -6.624  -6.323  1.00  0.00    -0.341 N 
ATOM     34  H   UNL     1      -1.158  -5.730  -6.743  1.00  0.00     0.164 HD
BRANCH  33  35
ATOM     35  C   UNL     1      -2.716  -7.213  -6.684  1.00  0.00     0.194 C 
BRANCH  35  36
ATOM     36  C   UNL     1      -3.019  -7.191  -8.209  1.00  0.00     0.017 C 
ATOM     37  C   UNL     1      -3.657  -8.512  -8.672  1.00  0.00     0.010 C 
ATOM     38  C   UNL     1      -1.772  -6.956  -9.070  1.00  0.00     0.010 C 
ENDBRANCH  35  36
BRANCH  35  39
ATOM     39  C   UNL     1      -3.891  -6.633  -5.850  1.00  0.00     0.329 C 
ATOM     40  O   UNL     1      -4.895  -6.127  -6.338  1.00  0.00    -0.250 OA
BRANCH  39  41
ATOM     41  O   UNL     1      -3.722  -6.828  -4.507  1.00  0.00    -0.458 OA
BRANCH  41  42
ATOM     42  C   UNL     1      -4.412  -7.963  -3.931  1.00  0.00     0.205 CG0
ATOM     43  C   UNL     1      -4.648  -8.968  -5.056  1.00  0.00     0.056 C 
ATOM     44  G   UNL     1      -5.727  -7.468  -3.297  1.00  0.00     0.000 G0
ENDBRANCH  41  42
ENDBRANCH  39  41
ENDBRANCH  35  39
ENDBRANCH  33  35
ENDBRANCH  23  31
ENDBRANCH  21  23
ENDBRANCH  19  21
ENDBRANCH  14  19
ENDBRANCH   7  14
ENDBRANCH   2   5
BRANCH   3  45
ATOM     45  C   UNL     1      -5.116  -8.378   0.365  1.00  0.00     0.171 C 
BRANCH  45  46
ATOM     46  N   UNL     1      -5.237  -8.376  -1.086  1.00  0.00    -0.342 N 
ATOM     47  C   UNL     1      -5.539  -7.243  -1.799  1.00  0.00     0.247 C 
ATOM     48  O   UNL     1      -5.658  -6.135  -1.274  1.00  0.00    -0.273 OA
ATOM     49  H   UNL     1      -5.091  -9.262  -1.567  1.00  0.00     0.164 HD
BRANCH  47  50
ATOM     50  C   UNL     1      -5.748  -7.458  -3.305  1.00  0.00     0.212 CG0
ATOM     51  G   UNL     1      -4.418  -7.970  -3.893  1.00  0.00     0.000 G0
BRANCH  50  52
ATOM     52  N   UNL     1      -6.837  -8.426  -3.412  1.00  0.00    -0.339 N 
ATOM     53  C   UNL     1      -8.164  -8.084  -3.315  1.00  0.00     0.243 C 
ATOM     54  O   UNL     1      -8.537  -6.939  -3.075  1.00  0.00    -0.273 OA
ATOM     55  H   UNL     1      -6.589  -9.409  -3.501  1.00  0.00     0.164 HD
BRANCH  53  56
ATOM     56  C   UNL     1      -9.128  -9.287  -3.373  1.00  0.00     0.182 C 
BRANCH  56  57
ATOM     57  N   UNL     1      -9.717  -9.553  -2.057  1.00  0.00    -0.344 N 
ATOM     58  C   UNL     1      -8.956  -9.890  -0.965  1.00  0.00     0.220 C 
ATOM     59  O   UNL     1      -7.744 -10.063  -1.028  1.00  0.00    -0.275 OA
ATOM     60  H   UNL     1     -10.700  -9.323  -1.938  1.00  0.00     0.164 HD
BRANCH  58  61
ATOM     61  C   UNL     1      -9.770 -10.063   0.305  1.00  0.00     0.100 C 
BRANCH  61  62
ATOM     62  C   UNL     1      -9.022  -9.659   1.576  1.00  0.00     0.010 C 
BRANCH  62  63
ATOM     63  C   UNL     1      -8.462 -10.840   2.377  1.00  0.00     0.000 C 
BRANCH  63  64
ATOM     64  C   UNL     1      -6.939 -10.856   2.489  1.00  0.00    -0.003 C 
ATOM     65  C   UNL     1      -6.487 -10.736   3.937  1.00  0.00     0.004 C 
ENDBRANCH  63  64
ENDBRANCH  62  63
ENDBRANCH  61  62
ENDBRANCH  58  61
ENDBRANCH  56  57
BRANCH  56  66
ATOM     66  C   UNL     1      -8.447 -10.521  -3.961  1.00  0.00     0.157 C 
BRANCH  66  67
ATOM     67  C   UNL     1      -9.450 -11.454  -4.577  1.00  0.00     0.305 C 
ATOM     68  O   UNL     1     -10.582 -11.682  -4.176  1.00  0.00    -0.252 OA
BRANCH  67  69
ATOM     69  O   UNL     1      -8.994 -12.022  -5.709  1.00  0.00    -0.481 OA
ATOM     70  H   UNL     1      -9.344 -12.938  -5.689  1.00  0.00     0.296 HD
ENDBRANCH  67  69
ENDBRANCH  66  67
ENDBRANCH  56  66
ENDBRANCH  53  56
ENDBRANCH  50  52
ENDBRANCH  47  50
ENDBRANCH  45  46
BRANCH  45  71
ATOM     71  C   UNL     1      -6.124  -7.425   1.018  1.00  0.00     0.037 C 
BRANCH  71  72
ATOM     72  C   UNL     1      -5.870  -7.257   2.518  1.00  0.00     0.026 C 
BRANCH  72  73
ATOM     73  C   UNL     1      -7.166  -6.981   3.278  1.00  0.00     0.146 C 
BRANCH  73  74
ATOM     74  N   UNL     1      -6.868  -7.041   4.706  1.00  0.00    -0.254 NA
ATOM     75  C   UNL     1      -7.740  -7.577   5.477  1.00  0.00     0.185 C 
ATOM     76  N   UNL     1      -7.494  -7.649   6.795  1.00  0.00    -0.370 N 
ATOM     77  N   UNL     1      -8.932  -8.112   5.162  1.00  0.00    -0.370 N 
ATOM     78  H   UNL     1      -6.619  -7.262   7.119  1.00  0.00     0.159 HD
ATOM     79  H   UNL     1      -8.184  -7.920   7.473  1.00  0.00     0.159 HD
ATOM     80  H   UNL     1      -9.249  -8.132   4.204  1.00  0.00     0.159 HD
ATOM     81  H   UNL     1      -9.484  -8.610   5.840  1.00  0.00     0.159 HD
ENDBRANCH  73  74
ENDBRANCH  72  73
ENDBRANCH  71  72
ENDBRANCH  45  71
ENDBRANCH   3  45
TORSDOF 20
ENDMDL
