MODEL 1
REMARK VINA RESULT:    -6.854      0.000      0.000
REMARK INTER + INTRA:         -16.635
REMARK INTER:                 -13.867
REMARK INTRA:                  -2.768
REMARK UNBOUND:                -2.768
REMARK SMILES CC[C@@H](C)[C@@H](NC(=O)[C@@H](O)Cc1ccc(O)c(Cl)c1)C(=O)N1[C@H](C(=O)NCCCCN=C(N)N)C[C@H]2CC[C@H](OS(=O)(=O)O)C[C@@H]21
REMARK SMILES IDX 22 1 36 2 46 3 35 4 23 5 45 6 37 7 39 8 38 9 20 10 21 11
REMARK SMILES IDX 5 12 6 13 7 14 8 15 9 17 11 18 12 19 17 20 19 21 15 22 14 23
REMARK SMILES IDX 13 24 18 25 16 26 10 28 3 30 4 31 2 32 1 33 24 34 25 35
REMARK SMILES IDX 26 36 27 38 28 39 29 40 30 41 31 42 32 43 33 44 34 45 40 50
REMARK SMILES IDX 41 51 42 52 43 53 44 54
REMARK H PARENT 6 16 16 27 10 29 26 37 33 46 33 47 34 48 34 49 44 55
ROOT
ATOM      1  N   UNL     1       6.024   9.569   0.241  1.00  0.00    -0.326 N 
ATOM      2  C   UNL     1       7.005  10.628  -1.619  1.00  0.00     0.014 C 
ATOM      3  C   UNL     1       7.233  10.305  -0.139  1.00  0.00     0.091 C 
ATOM      4  C   UNL     1       5.502  10.852  -1.684  1.00  0.00     0.041 C 
ATOM      5  C   UNL     1       5.012   9.662  -0.839  1.00  0.00     0.175 C 
ATOM      6  C   UNL     1       8.583   9.603  -0.001  1.00  0.00     0.059 C 
ATOM      7  C   UNL     1       7.941  11.725  -2.085  1.00  0.00     0.008 C 
ATOM      8  C   UNL     1       9.630  10.059  -1.040  1.00  0.00     0.143 C 
ATOM      9  C   UNL     1       9.365  11.494  -1.538  1.00  0.00     0.034 C 
ENDROOT
BRANCH   1  10
ATOM     10  C   UNL     1       5.658   9.037   1.466  1.00  0.00     0.246 C 
ATOM     11  O   UNL     1       6.539   8.694   2.260  1.00  0.00    -0.272 OA
BRANCH  10  12
ATOM     12  C   UNL     1       4.149   8.923   1.832  1.00  0.00     0.174 C 
BRANCH  12  13
ATOM     13  N   UNL     1       3.842   9.802   2.960  1.00  0.00    -0.342 N 
ATOM     14  C   UNL     1       3.522  11.137   2.858  1.00  0.00     0.249 C 
ATOM     15  O   UNL     1       3.431  11.737   1.794  1.00  0.00    -0.272 OA
ATOM     16  H   UNL     1       4.029   9.487   3.909  1.00  0.00     0.164 HD
BRANCH  14  17
ATOM     17  C   UNL     1       3.268  11.795   4.230  1.00  0.00     0.207 C 
BRANCH  17  18
ATOM     18  C   UNL     1       1.767  12.001   4.457  1.00  0.00     0.077 C 
BRANCH  18  19
ATOM     19  C   UNL     1       1.130  10.802   5.123  1.00  0.00    -0.043 A 
ATOM     20  C   UNL     1      -0.850   9.539   5.730  1.00  0.00     0.083 A 
ATOM     21  C   UNL     1      -0.260  10.619   5.072  1.00  0.00     0.028 A 
ATOM     22  C   UNL     1      -0.057   8.638   6.442  1.00  0.00     0.134 A 
ATOM     23  C   UNL     1       1.322   8.807   6.500  1.00  0.00     0.048 A 
ATOM     24  C   UNL     1       1.914   9.888   5.844  1.00  0.00     0.008 A 
ATOM     25  Cl  UNL     1      -2.560   9.331   5.657  1.00  0.00    -0.080 Cl
BRANCH  22  26
ATOM     26  O   UNL     1      -0.590   7.570   7.111  1.00  0.00    -0.506 OA
ATOM     27  H   UNL     1      -1.459   7.390   6.705  1.00  0.00     0.293 HD
ENDBRANCH  22  26
ENDBRANCH  18  19
ENDBRANCH  17  18
BRANCH  17  28
ATOM     28  O   UNL     1       3.943  13.060   4.330  1.00  0.00    -0.383 OA
ATOM     29  H   UNL     1       3.914  13.310   5.282  1.00  0.00     0.211 HD
ENDBRANCH  17  28
ENDBRANCH  14  17
ENDBRANCH  12  13
BRANCH  12  30
ATOM     30  C   UNL     1       3.702   7.458   2.083  1.00  0.00     0.018 C 
ATOM     31  C   UNL     1       2.925   6.910   0.876  1.00  0.00     0.010 C 
BRANCH  30  32
ATOM     32  C   UNL     1       2.873   7.275   3.378  1.00  0.00     0.002 C 
ATOM     33  C   UNL     1       1.372   7.119   3.173  1.00  0.00     0.004 C 
ENDBRANCH  30  32
ENDBRANCH  12  30
ENDBRANCH  10  12
ENDBRANCH   1  10
BRANCH   5  34
ATOM     34  C   UNL     1       4.970   8.350  -1.668  1.00  0.00     0.242 C 
ATOM     35  O   UNL     1       5.864   7.506  -1.610  1.00  0.00    -0.273 OA
ATOM     36  N   UNL     1       3.890   8.225  -2.513  1.00  0.00    -0.354 N 
ATOM     37  H   UNL     1       3.245   9.011  -2.606  1.00  0.00     0.163 HD
BRANCH  36  38
ATOM     38  C   UNL     1       3.579   6.985  -3.193  1.00  0.00     0.116 C 
BRANCH  38  39
ATOM     39  C   UNL     1       4.006   7.075  -4.656  1.00  0.00     0.023 C 
BRANCH  39  40
ATOM     40  C   UNL     1       2.857   7.480  -5.574  1.00  0.00     0.026 C 
BRANCH  40  41
ATOM     41  C   UNL     1       3.279   7.393  -7.041  1.00  0.00     0.146 C 
BRANCH  41  42
ATOM     42  N   UNL     1       3.950   8.625  -7.434  1.00  0.00    -0.254 NA
ATOM     43  C   UNL     1       4.951   8.574  -8.231  1.00  0.00     0.185 C 
ATOM     44  N   UNL     1       5.539   7.514  -8.814  1.00  0.00    -0.370 N 
ATOM     45  N   UNL     1       5.558   9.721  -8.578  1.00  0.00    -0.370 N 
ATOM     46  H   UNL     1       6.458   7.595  -9.216  1.00  0.00     0.159 HD
ATOM     47  H   UNL     1       5.198   6.569  -8.670  1.00  0.00     0.159 HD
ATOM     48  H   UNL     1       5.170  10.569  -8.188  1.00  0.00     0.159 HD
ATOM     49  H   UNL     1       6.180   9.791  -9.364  1.00  0.00     0.159 HD
ENDBRANCH  41  42
ENDBRANCH  40  41
ENDBRANCH  39  40
ENDBRANCH  38  39
ENDBRANCH  36  38
ENDBRANCH   5  34
BRANCH   8  50
ATOM     50  O   UNL     1       9.619   9.180  -2.165  1.00  0.00    -0.245 OA
BRANCH  50  51
ATOM     51  S   UNL     1      10.250   7.687  -2.025  1.00  0.00     0.397 S 
ATOM     52  O   UNL     1      11.202   7.706  -0.937  1.00  0.00    -0.169 OA
ATOM     53  O   UNL     1      10.605   7.184  -3.335  1.00  0.00    -0.169 OA
BRANCH  51  54
ATOM     54  O   UNL     1       8.992   6.840  -1.491  1.00  0.00    -0.264 OA
ATOM     55  H   UNL     1       8.458   6.578  -2.269  1.00  0.00     0.236 HD
ENDBRANCH  51  54
ENDBRANCH  50  51
ENDBRANCH   8  50
TORSDOF 19
ENDMDL
MODEL 2
REMARK VINA RESULT:    -6.727      1.505      2.031
REMARK INTER + INTRA:         -16.377
REMARK INTER:                 -13.474
REMARK INTRA:                  -2.903
REMARK UNBOUND:                -2.768
REMARK SMILES CC[C@@H](C)[C@@H](NC(=O)[C@@H](O)Cc1ccc(O)c(Cl)c1)C(=O)N1[C@H](C(=O)NCCCCN=C(N)N)C[C@H]2CC[C@H](OS(=O)(=O)O)C[C@@H]21
REMARK SMILES IDX 22 1 36 2 46 3 35 4 23 5 45 6 37 7 39 8 38 9 20 10 21 11
REMARK SMILES IDX 5 12 6 13 7 14 8 15 9 17 11 18 12 19 17 20 19 21 15 22 14 23
REMARK SMILES IDX 13 24 18 25 16 26 10 28 3 30 4 31 2 32 1 33 24 34 25 35
REMARK SMILES IDX 26 36 27 38 28 39 29 40 30 41 31 42 32 43 33 44 34 45 40 50
REMARK SMILES IDX 41 51 42 52 43 53 44 54
REMARK H PARENT 6 16 16 27 10 29 26 37 33 46 33 47 34 48 34 49 44 55
ROOT
ATOM      1  N   UNL     1       5.655   9.401   0.412  1.00  0.00    -0.326 N 
ATOM      2  C   UNL     1       6.685  10.516  -1.387  1.00  0.00     0.014 C 
ATOM      3  C   UNL     1       6.866  10.162   0.091  1.00  0.00     0.091 C 
ATOM      4  C   UNL     1       5.182  10.722  -1.501  1.00  0.00     0.041 C 
ATOM      5  C   UNL     1       4.679   9.506  -0.701  1.00  0.00     0.175 C 
ATOM      6  C   UNL     1       8.219   9.474   0.261  1.00  0.00     0.059 C 
ATOM      7  C   UNL     1       7.622  11.635  -1.795  1.00  0.00     0.008 C 
ATOM      8  C   UNL     1       9.296   9.967  -0.730  1.00  0.00     0.143 C 
ATOM      9  C   UNL     1       9.029  11.410  -1.204  1.00  0.00     0.034 C 
ENDROOT
BRANCH   1  10
ATOM     10  C   UNL     1       5.253   8.836   1.611  1.00  0.00     0.246 C 
ATOM     11  O   UNL     1       6.093   8.277   2.323  1.00  0.00    -0.272 OA
BRANCH  10  12
ATOM     12  C   UNL     1       3.766   8.954   2.054  1.00  0.00     0.174 C 
BRANCH  12  13
ATOM     13  N   UNL     1       3.664   9.811   3.235  1.00  0.00    -0.342 N 
ATOM     14  C   UNL     1       3.262  11.128   3.223  1.00  0.00     0.249 C 
ATOM     15  O   UNL     1       2.915  11.727   2.212  1.00  0.00    -0.272 OA
ATOM     16  H   UNL     1       4.065   9.503   4.117  1.00  0.00     0.164 HD
BRANCH  14  17
ATOM     17  C   UNL     1       3.275  11.767   4.628  1.00  0.00     0.207 C 
BRANCH  17  18
ATOM     18  C   UNL     1       1.863  12.201   5.033  1.00  0.00     0.077 C 
BRANCH  18  19
ATOM     19  C   UNL     1       0.952  11.014   5.252  1.00  0.00    -0.043 A 
ATOM     20  C   UNL     1       0.507   8.869   6.294  1.00  0.00     0.083 A 
ATOM     21  C   UNL     1       1.327   9.986   6.131  1.00  0.00     0.028 A 
ATOM     22  C   UNL     1      -0.689   8.771   5.581  1.00  0.00     0.134 A 
ATOM     23  C   UNL     1      -1.073   9.782   4.707  1.00  0.00     0.048 A 
ATOM     24  C   UNL     1      -0.253  10.901   4.541  1.00  0.00     0.008 A 
ATOM     25  Cl  UNL     1       0.985   7.616   7.378  1.00  0.00    -0.080 Cl
BRANCH  22  26
ATOM     26  O   UNL     1      -1.521   7.691   5.699  1.00  0.00    -0.506 OA
ATOM     27  H   UNL     1      -1.117   7.097   6.359  1.00  0.00     0.293 HD
ENDBRANCH  22  26
ENDBRANCH  18  19
ENDBRANCH  17  18
BRANCH  17  28
ATOM     28  O   UNL     1       4.154  12.903   4.672  1.00  0.00    -0.383 OA
ATOM     29  H   UNL     1       4.212  13.166   5.618  1.00  0.00     0.211 HD
ENDBRANCH  17  28
ENDBRANCH  14  17
ENDBRANCH  12  13
BRANCH  12  30
ATOM     30  C   UNL     1       3.091   7.572   2.264  1.00  0.00     0.018 C 
ATOM     31  C   UNL     1       2.872   6.861   0.920  1.00  0.00     0.010 C 
BRANCH  30  32
ATOM     32  C   UNL     1       1.759   7.644   3.051  1.00  0.00     0.002 C 
ATOM     33  C   UNL     1       1.272   6.322   3.630  1.00  0.00     0.004 C 
ENDBRANCH  30  32
ENDBRANCH  12  30
ENDBRANCH  10  12
ENDBRANCH   1  10
BRANCH   5  34
ATOM     34  C   UNL     1       4.684   8.214  -1.561  1.00  0.00     0.242 C 
ATOM     35  O   UNL     1       5.568   7.363  -1.465  1.00  0.00    -0.273 OA
ATOM     36  N   UNL     1       3.659   8.116  -2.475  1.00  0.00    -0.354 N 
ATOM     37  H   UNL     1       3.026   8.908  -2.591  1.00  0.00     0.163 HD
BRANCH  36  38
ATOM     38  C   UNL     1       3.386   6.893  -3.202  1.00  0.00     0.116 C 
BRANCH  38  39
ATOM     39  C   UNL     1       3.954   6.993  -4.615  1.00  0.00     0.023 C 
BRANCH  39  40
ATOM     40  C   UNL     1       3.483   8.246  -5.345  1.00  0.00     0.026 C 
BRANCH  40  41
ATOM     41  C   UNL     1       1.957   8.318  -5.370  1.00  0.00     0.146 C 
BRANCH  41  42
ATOM     42  N   UNL     1       1.440   7.457  -6.426  1.00  0.00    -0.254 NA
ATOM     43  C   UNL     1       0.636   6.506  -6.131  1.00  0.00     0.185 C 
ATOM     44  N   UNL     1       0.144   6.127  -4.938  1.00  0.00    -0.370 N 
ATOM     45  N   UNL     1       0.175   5.721  -7.119  1.00  0.00    -0.370 N 
ATOM     46  H   UNL     1      -0.278   5.222  -4.820  1.00  0.00     0.159 HD
ATOM     47  H   UNL     1       0.379   6.622  -4.083  1.00  0.00     0.159 HD
ATOM     48  H   UNL     1       0.491   5.943  -8.053  1.00  0.00     0.159 HD
ATOM     49  H   UNL     1      -0.623   5.121  -7.009  1.00  0.00     0.159 HD
ENDBRANCH  41  42
ENDBRANCH  40  41
ENDBRANCH  39  40
ENDBRANCH  38  39
ENDBRANCH  36  38
ENDBRANCH   5  34
BRANCH   8  50
ATOM     50  O   UNL     1       9.335   9.114  -1.875  1.00  0.00    -0.245 OA
BRANCH  50  51
ATOM     51  S   UNL     1      10.264   7.779  -1.849  1.00  0.00     0.397 S 
ATOM     52  O   UNL     1      11.224   7.923  -0.778  1.00  0.00    -0.169 OA
ATOM     53  O   UNL     1      10.674   7.446  -3.198  1.00  0.00    -0.169 OA
BRANCH  51  54
ATOM     54  O   UNL     1       9.223   6.656  -1.357  1.00  0.00    -0.264 OA
ATOM     55  H   UNL     1       8.320   7.020  -1.462  1.00  0.00     0.236 HD
ENDBRANCH  51  54
ENDBRANCH  50  51
ENDBRANCH   8  50
TORSDOF 19
ENDMDL
MODEL 3
REMARK VINA RESULT:    -6.697     14.618     18.369
REMARK INTER + INTRA:         -16.316
REMARK INTER:                 -12.390
REMARK INTRA:                  -3.926
REMARK UNBOUND:                -2.768
REMARK SMILES CC[C@@H](C)[C@@H](NC(=O)[C@@H](O)Cc1ccc(O)c(Cl)c1)C(=O)N1[C@H](C(=O)NCCCCN=C(N)N)C[C@H]2CC[C@H](OS(=O)(=O)O)C[C@@H]21
REMARK SMILES IDX 22 1 36 2 46 3 35 4 23 5 45 6 37 7 39 8 38 9 20 10 21 11
REMARK SMILES IDX 5 12 6 13 7 14 8 15 9 17 11 18 12 19 17 20 19 21 15 22 14 23
REMARK SMILES IDX 13 24 18 25 16 26 10 28 3 30 4 31 2 32 1 33 24 34 25 35
REMARK SMILES IDX 26 36 27 38 28 39 29 40 30 41 31 42 32 43 33 44 34 45 40 50
REMARK SMILES IDX 41 51 42 52 43 53 44 54
REMARK H PARENT 6 16 16 27 10 29 26 37 33 46 33 47 34 48 34 49 44 55
ROOT
ATOM      1  N   UNL     1       0.925  -4.474  10.679  1.00  0.00    -0.326 N 
ATOM      2  C   UNL     1       0.147  -6.106   9.172  1.00  0.00     0.014 C 
ATOM      3  C   UNL     1       0.062  -4.613   9.503  1.00  0.00     0.091 C 
ATOM      4  C   UNL     1       0.261  -6.747  10.547  1.00  0.00     0.041 C 
ATOM      5  C   UNL     1       1.298  -5.813  11.197  1.00  0.00     0.175 C 
ATOM      6  C   UNL     1       0.417  -3.820   8.247  1.00  0.00     0.059 C 
ATOM      7  C   UNL     1      -0.983  -6.522   8.250  1.00  0.00     0.008 C 
ATOM      8  C   UNL     1       0.007  -4.520   6.933  1.00  0.00     0.143 C 
ATOM      9  C   UNL     1      -1.187  -5.476   7.134  1.00  0.00     0.034 C 
ENDROOT
BRANCH   1  10
ATOM     10  C   UNL     1       1.223  -3.352  11.434  1.00  0.00     0.246 C 
ATOM     11  O   UNL     1       2.263  -2.727  11.199  1.00  0.00    -0.272 OA
BRANCH  10  12
ATOM     12  C   UNL     1       0.225  -2.877  12.529  1.00  0.00     0.174 C 
BRANCH  12  13
ATOM     13  N   UNL     1      -0.869  -3.840  12.658  1.00  0.00    -0.342 N 
ATOM     14  C   UNL     1      -1.354  -4.330  13.850  1.00  0.00     0.249 C 
ATOM     15  O   UNL     1      -0.936  -3.987  14.949  1.00  0.00    -0.272 OA
ATOM     16  H   UNL     1      -1.208  -4.330  11.834  1.00  0.00     0.164 HD
BRANCH  14  17
ATOM     17  C   UNL     1      -2.500  -5.345  13.654  1.00  0.00     0.207 C 
BRANCH  17  18
ATOM     18  C   UNL     1      -2.796  -5.537  12.164  1.00  0.00     0.077 C 
BRANCH  18  19
ATOM     19  C   UNL     1      -2.885  -7.001  11.793  1.00  0.00    -0.043 A 
ATOM     20  C   UNL     1      -3.742  -8.758  10.357  1.00  0.00     0.083 A 
ATOM     21  C   UNL     1      -3.621  -7.403  10.667  1.00  0.00     0.028 A 
ATOM     22  C   UNL     1      -3.133  -9.717  11.167  1.00  0.00     0.134 A 
ATOM     23  C   UNL     1      -2.402  -9.333  12.284  1.00  0.00     0.048 A 
ATOM     24  C   UNL     1      -2.280  -7.978  12.599  1.00  0.00     0.008 A 
ATOM     25  Cl  UNL     1      -4.650  -9.232   8.970  1.00  0.00    -0.080 Cl
BRANCH  22  26
ATOM     26  O   UNL     1      -3.233 -11.057  10.908  1.00  0.00    -0.506 OA
ATOM     27  H   UNL     1      -4.159 -11.225  10.650  1.00  0.00     0.293 HD
ENDBRANCH  22  26
ENDBRANCH  18  19
ENDBRANCH  17  18
BRANCH  17  28
ATOM     28  O   UNL     1      -3.695  -4.912  14.325  1.00  0.00    -0.383 OA
ATOM     29  H   UNL     1      -4.164  -5.732  14.600  1.00  0.00     0.211 HD
ENDBRANCH  17  28
ENDBRANCH  14  17
ENDBRANCH  12  13
BRANCH  12  30
ATOM     30  C   UNL     1      -0.285  -1.430  12.291  1.00  0.00     0.018 C 
ATOM     31  C   UNL     1      -0.536  -0.712  13.626  1.00  0.00     0.010 C 
BRANCH  30  32
ATOM     32  C   UNL     1      -1.549  -1.356  11.400  1.00  0.00     0.002 C 
ATOM     33  C   UNL     1      -1.461  -0.394  10.223  1.00  0.00     0.004 C 
ENDBRANCH  30  32
ENDBRANCH  12  30
ENDBRANCH  10  12
ENDBRANCH   1  10
BRANCH   5  34
ATOM     34  C   UNL     1       2.745  -6.183  10.776  1.00  0.00     0.242 C 
ATOM     35  O   UNL     1       3.232  -7.291  10.997  1.00  0.00    -0.273 OA
ATOM     36  N   UNL     1       3.462  -5.165  10.186  1.00  0.00    -0.354 N 
ATOM     37  H   UNL     1       3.045  -4.234  10.139  1.00  0.00     0.163 HD
BRANCH  36  38
ATOM     38  C   UNL     1       4.739  -5.391   9.541  1.00  0.00     0.116 C 
BRANCH  38  39
ATOM     39  C   UNL     1       4.861  -4.499   8.308  1.00  0.00     0.023 C 
BRANCH  39  40
ATOM     40  C   UNL     1       4.785  -3.016   8.652  1.00  0.00     0.026 C 
BRANCH  40  41
ATOM     41  C   UNL     1       4.703  -2.169   7.382  1.00  0.00     0.146 C 
BRANCH  41  42
ATOM     42  N   UNL     1       5.932  -2.313   6.613  1.00  0.00    -0.254 NA
ATOM     43  C   UNL     1       5.882  -2.317   5.334  1.00  0.00     0.185 C 
ATOM     44  N   UNL     1       4.826  -2.203   4.509  1.00  0.00    -0.370 N 
ATOM     45  N   UNL     1       7.026  -2.457   4.644  1.00  0.00    -0.370 N 
ATOM     46  H   UNL     1       4.900  -2.467   3.541  1.00  0.00     0.159 HD
ATOM     47  H   UNL     1       3.883  -2.077   4.864  1.00  0.00     0.159 HD
ATOM     48  H   UNL     1       7.873  -2.540   5.191  1.00  0.00     0.159 HD
ATOM     49  H   UNL     1       7.103  -2.235   3.667  1.00  0.00     0.159 HD
ENDBRANCH  41  42
ENDBRANCH  40  41
ENDBRANCH  39  40
ENDBRANCH  38  39
ENDBRANCH  36  38
ENDBRANCH   5  34
BRANCH   8  50
ATOM     50  O   UNL     1       1.106  -5.270   6.414  1.00  0.00    -0.245 OA
BRANCH  50  51
ATOM     51  S   UNL     1       1.814  -4.801   5.027  1.00  0.00     0.397 S 
ATOM     52  O   UNL     1       3.212  -4.556   5.300  1.00  0.00    -0.169 OA
ATOM     53  O   UNL     1       0.985  -3.815   4.367  1.00  0.00    -0.169 OA
BRANCH  51  54
ATOM     54  O   UNL     1       1.768  -6.151   4.154  1.00  0.00    -0.264 OA
ATOM     55  H   UNL     1       1.191  -5.987   3.380  1.00  0.00     0.236 HD
ENDBRANCH  51  54
ENDBRANCH  50  51
ENDBRANCH   8  50
TORSDOF 19
ENDMDL
MODEL 4
REMARK VINA RESULT:    -6.662      6.295     13.152
REMARK INTER + INTRA:         -16.246
REMARK INTER:                 -12.540
REMARK INTRA:                  -3.707
REMARK UNBOUND:                -2.768
REMARK SMILES CC[C@@H](C)[C@@H](NC(=O)[C@@H](O)Cc1ccc(O)c(Cl)c1)C(=O)N1[C@H](C(=O)NCCCCN=C(N)N)C[C@H]2CC[C@H](OS(=O)(=O)O)C[C@@H]21
REMARK SMILES IDX 22 1 36 2 46 3 35 4 23 5 45 6 37 7 39 8 38 9 20 10 21 11
REMARK SMILES IDX 5 12 6 13 7 14 8 15 9 17 11 18 12 19 17 20 19 21 15 22 14 23
REMARK SMILES IDX 13 24 18 25 16 26 10 28 3 30 4 31 2 32 1 33 24 34 25 35
REMARK SMILES IDX 26 36 27 38 28 39 29 40 30 41 31 42 32 43 33 44 34 45 40 50
REMARK SMILES IDX 41 51 42 52 43 53 44 54
REMARK H PARENT 6 16 16 27 10 29 26 37 33 46 33 47 34 48 34 49 44 55
ROOT
ATOM      1  N   UNL     1       1.153   7.377   8.453  1.00  0.00    -0.326 N 
ATOM      2  C   UNL     1       1.728   5.574   9.854  1.00  0.00     0.014 C 
ATOM      3  C   UNL     1       2.283   6.497   8.766  1.00  0.00     0.091 C 
ATOM      4  C   UNL     1       0.273   5.408   9.443  1.00  0.00     0.041 C 
ATOM      5  C   UNL     1      -0.081   6.867   9.101  1.00  0.00     0.175 C 
ATOM      6  C   UNL     1       3.574   7.131   9.281  1.00  0.00     0.059 C 
ATOM      7  C   UNL     1       2.599   4.344  10.019  1.00  0.00     0.008 C 
ATOM      8  C   UNL     1       4.369   6.225  10.247  1.00  0.00     0.143 C 
ATOM      9  C   UNL     1       4.094   4.729   9.995  1.00  0.00     0.034 C 
ENDROOT
BRANCH   1  10
ATOM     10  C   UNL     1       1.056   8.402   7.528  1.00  0.00     0.246 C 
ATOM     11  O   UNL     1       1.680   9.450   7.725  1.00  0.00    -0.272 OA
BRANCH  10  12
ATOM     12  C   UNL     1       0.201   8.199   6.244  1.00  0.00     0.174 C 
BRANCH  12  13
ATOM     13  N   UNL     1       0.976   7.472   5.239  1.00  0.00    -0.342 N 
ATOM     14  C   UNL     1       0.622   6.259   4.693  1.00  0.00     0.249 C 
ATOM     15  O   UNL     1      -0.408   5.660   4.973  1.00  0.00    -0.272 OA
ATOM     16  H   UNL     1       1.926   7.767   5.026  1.00  0.00     0.164 HD
BRANCH  14  17
ATOM     17  C   UNL     1       1.656   5.742   3.670  1.00  0.00     0.207 C 
BRANCH  17  18
ATOM     18  C   UNL     1       0.959   5.297   2.381  1.00  0.00     0.077 C 
BRANCH  18  19
ATOM     19  C   UNL     1       1.637   5.859   1.152  1.00  0.00    -0.043 A 
ATOM     20  C   UNL     1       3.325   7.283   0.148  1.00  0.00     0.083 A 
ATOM     21  C   UNL     1       2.732   6.727   1.283  1.00  0.00     0.028 A 
ATOM     22  C   UNL     1       2.829   6.977  -1.120  1.00  0.00     0.134 A 
ATOM     23  C   UNL     1       1.745   6.119  -1.263  1.00  0.00     0.048 A 
ATOM     24  C   UNL     1       1.148   5.562  -0.129  1.00  0.00     0.008 A 
ATOM     25  Cl  UNL     1       4.669   8.348   0.329  1.00  0.00    -0.080 Cl
BRANCH  22  26
ATOM     26  O   UNL     1       3.370   7.506  -2.260  1.00  0.00    -0.506 OA
ATOM     27  H   UNL     1       4.194   7.014  -2.433  1.00  0.00     0.293 HD
ENDBRANCH  22  26
ENDBRANCH  18  19
ENDBRANCH  17  18
BRANCH  17  28
ATOM     28  O   UNL     1       2.410   4.643   4.208  1.00  0.00    -0.383 OA
ATOM     29  H   UNL     1       3.301   4.695   3.792  1.00  0.00     0.211 HD
ENDBRANCH  17  28
ENDBRANCH  14  17
ENDBRANCH  12  13
BRANCH  12  30
ATOM     30  C   UNL     1      -0.383   9.528   5.695  1.00  0.00     0.018 C 
ATOM     31  C   UNL     1      -1.906   9.423   5.514  1.00  0.00     0.010 C 
BRANCH  30  32
ATOM     32  C   UNL     1       0.278  10.000   4.377  1.00  0.00     0.002 C 
ATOM     33  C   UNL     1       1.298  11.120   4.524  1.00  0.00     0.004 C 
ENDBRANCH  30  32
ENDBRANCH  12  30
ENDBRANCH  10  12
ENDBRANCH   1  10
BRANCH   5  34
ATOM     34  C   UNL     1      -0.413   7.689  10.374  1.00  0.00     0.242 C 
ATOM     35  O   UNL     1       0.361   8.526  10.838  1.00  0.00    -0.273 OA
ATOM     36  N   UNL     1      -1.611   7.376  10.977  1.00  0.00    -0.354 N 
ATOM     37  H   UNL     1      -2.153   6.591  10.615  1.00  0.00     0.163 HD
BRANCH  36  38
ATOM     38  C   UNL     1      -2.176   8.183  12.039  1.00  0.00     0.116 C 
BRANCH  38  39
ATOM     39  C   UNL     1      -2.654   7.283  13.176  1.00  0.00     0.023 C 
BRANCH  39  40
ATOM     40  C   UNL     1      -1.992   7.624  14.506  1.00  0.00     0.026 C 
BRANCH  40  41
ATOM     41  C   UNL     1      -0.996   6.536  14.911  1.00  0.00     0.146 C 
BRANCH  41  42
ATOM     42  N   UNL     1       0.267   7.146  15.303  1.00  0.00    -0.254 NA
ATOM     43  C   UNL     1       1.259   7.124  14.494  1.00  0.00     0.185 C 
ATOM     44  N   UNL     1       1.355   6.603  13.257  1.00  0.00    -0.370 N 
ATOM     45  N   UNL     1       2.417   7.688  14.876  1.00  0.00    -0.370 N 
ATOM     46  H   UNL     1       2.255   6.441  12.838  1.00  0.00     0.159 HD
ATOM     47  H   UNL     1       0.566   6.150  12.807  1.00  0.00     0.159 HD
ATOM     48  H   UNL     1       2.427   8.112  15.794  1.00  0.00     0.159 HD
ATOM     49  H   UNL     1       3.149   7.920  14.229  1.00  0.00     0.159 HD
ENDBRANCH  41  42
ENDBRANCH  40  41
ENDBRANCH  39  40
ENDBRANCH  38  39
ENDBRANCH  36  38
ENDBRANCH   5  34
BRANCH   8  50
ATOM     50  O   UNL     1       4.025   6.529  11.599  1.00  0.00    -0.245 OA
BRANCH  50  51
ATOM     51  S   UNL     1       5.055   7.391  12.515  1.00  0.00     0.397 S 
ATOM     52  O   UNL     1       6.220   7.692  11.714  1.00  0.00    -0.169 OA
ATOM     53  O   UNL     1       5.170   6.780  13.824  1.00  0.00    -0.169 OA
BRANCH  51  54
ATOM     54  O   UNL     1       4.269   8.783  12.685  1.00  0.00    -0.264 OA
ATOM     55  H   UNL     1       3.753   8.936  11.868  1.00  0.00     0.236 HD
ENDBRANCH  51  54
ENDBRANCH  50  51
ENDBRANCH   8  50
TORSDOF 19
ENDMDL
MODEL 5
REMARK VINA RESULT:    -6.639      6.581     13.433
REMARK INTER + INTRA:         -16.199
REMARK INTER:                 -13.917
REMARK INTRA:                  -2.282
REMARK UNBOUND:                -2.768
REMARK SMILES CC[C@@H](C)[C@@H](NC(=O)[C@@H](O)Cc1ccc(O)c(Cl)c1)C(=O)N1[C@H](C(=O)NCCCCN=C(N)N)C[C@H]2CC[C@H](OS(=O)(=O)O)C[C@@H]21
REMARK SMILES IDX 22 1 36 2 46 3 35 4 23 5 45 6 37 7 39 8 38 9 20 10 21 11
REMARK SMILES IDX 5 12 6 13 7 14 8 15 9 17 11 18 12 19 17 20 19 21 15 22 14 23
REMARK SMILES IDX 13 24 18 25 16 26 10 28 3 30 4 31 2 32 1 33 24 34 25 35
REMARK SMILES IDX 26 36 27 38 28 39 29 40 30 41 31 42 32 43 33 44 34 45 40 50
REMARK SMILES IDX 41 51 42 52 43 53 44 54
REMARK H PARENT 6 16 16 27 10 29 26 37 33 46 33 47 34 48 34 49 44 55
ROOT
ATOM      1  N   UNL     1       1.588   7.216   8.439  1.00  0.00    -0.326 N 
ATOM      2  C   UNL     1       2.099   5.635  10.106  1.00  0.00     0.014 C 
ATOM      3  C   UNL     1       2.709   6.414   8.936  1.00  0.00     0.091 C 
ATOM      4  C   UNL     1       0.676   5.380   9.633  1.00  0.00     0.041 C 
ATOM      5  C   UNL     1       0.323   6.771   9.074  1.00  0.00     0.175 C 
ATOM      6  C   UNL     1       3.954   7.142   9.438  1.00  0.00     0.059 C 
ATOM      7  C   UNL     1       2.977   4.459  10.489  1.00  0.00     0.008 C 
ATOM      8  C   UNL     1       4.700   6.394  10.565  1.00  0.00     0.143 C 
ATOM      9  C   UNL     1       4.464   4.872  10.504  1.00  0.00     0.034 C 
ENDROOT
BRANCH   1  10
ATOM     10  C   UNL     1       1.534   8.104   7.378  1.00  0.00     0.246 C 
ATOM     11  O   UNL     1       2.293   9.079   7.371  1.00  0.00    -0.272 OA
BRANCH  10  12
ATOM     12  C   UNL     1       0.553   7.834   6.200  1.00  0.00     0.174 C 
BRANCH  12  13
ATOM     13  N   UNL     1       1.210   7.016   5.182  1.00  0.00    -0.342 N 
ATOM     14  C   UNL     1       0.664   5.896   4.595  1.00  0.00     0.249 C 
ATOM     15  O   UNL     1      -0.457   5.473   4.845  1.00  0.00    -0.272 OA
ATOM     16  H   UNL     1       2.199   7.151   4.988  1.00  0.00     0.164 HD
BRANCH  14  17
ATOM     17  C   UNL     1       1.612   5.240   3.568  1.00  0.00     0.207 C 
BRANCH  17  18
ATOM     18  C   UNL     1       0.989   5.271   2.169  1.00  0.00     0.077 C 
BRANCH  18  19
ATOM     19  C   UNL     1       1.908   5.921   1.159  1.00  0.00    -0.043 A 
ATOM     20  C   UNL     1       3.646   7.528   0.627  1.00  0.00     0.083 A 
ATOM     21  C   UNL     1       2.834   6.894   1.568  1.00  0.00     0.028 A 
ATOM     22  C   UNL     1       3.538   7.197  -0.725  1.00  0.00     0.134 A 
ATOM     23  C   UNL     1       2.625   6.236  -1.143  1.00  0.00     0.048 A 
ATOM     24  C   UNL     1       1.810   5.601  -0.204  1.00  0.00     0.008 A 
ATOM     25  Cl  UNL     1       4.778   8.720   1.148  1.00  0.00    -0.080 Cl
BRANCH  22  26
ATOM     26  O   UNL     1       4.305   7.799  -1.685  1.00  0.00    -0.506 OA
ATOM     27  H   UNL     1       5.192   7.397  -1.628  1.00  0.00     0.293 HD
ENDBRANCH  22  26
ENDBRANCH  18  19
ENDBRANCH  17  18
BRANCH  17  28
ATOM     28  O   UNL     1       1.905   3.881   3.930  1.00  0.00    -0.383 OA
ATOM     29  H   UNL     1       1.035   3.435   4.041  1.00  0.00     0.211 HD
ENDBRANCH  17  28
ENDBRANCH  14  17
ENDBRANCH  12  13
BRANCH  12  30
ATOM     30  C   UNL     1      -0.053   9.137   5.613  1.00  0.00     0.018 C 
ATOM     31  C   UNL     1      -1.589   9.079   5.623  1.00  0.00     0.010 C 
BRANCH  30  32
ATOM     32  C   UNL     1       0.457   9.474   4.191  1.00  0.00     0.002 C 
ATOM     33  C   UNL     1       1.676  10.386   4.136  1.00  0.00     0.004 C 
ENDBRANCH  30  32
ENDBRANCH  12  30
ENDBRANCH  10  12
ENDBRANCH   1  10
BRANCH   5  34
ATOM     34  C   UNL     1      -0.102   7.750  10.200  1.00  0.00     0.242 C 
ATOM     35  O   UNL     1       0.589   8.714  10.529  1.00  0.00    -0.273 OA
ATOM     36  N   UNL     1      -1.279   7.432  10.840  1.00  0.00    -0.354 N 
ATOM     37  H   UNL     1      -1.745   6.555  10.604  1.00  0.00     0.163 HD
BRANCH  36  38
ATOM     38  C   UNL     1      -1.931   8.343  11.758  1.00  0.00     0.116 C 
BRANCH  38  39
ATOM     39  C   UNL     1      -1.327   8.192  13.153  1.00  0.00     0.023 C 
BRANCH  39  40
ATOM     40  C   UNL     1      -1.975   9.123  14.172  1.00  0.00     0.026 C 
BRANCH  40  41
ATOM     41  C   UNL     1      -3.446   9.361  13.830  1.00  0.00     0.146 C 
BRANCH  41  42
ATOM     42  N   UNL     1      -4.282   8.988  14.963  1.00  0.00    -0.254 NA
ATOM     43  C   UNL     1      -4.657   7.772  15.100  1.00  0.00     0.185 C 
ATOM     44  N   UNL     1      -4.400   6.695  14.334  1.00  0.00    -0.370 N 
ATOM     45  N   UNL     1      -5.431   7.449  16.149  1.00  0.00    -0.370 N 
ATOM     46  H   UNL     1      -4.953   5.860  14.421  1.00  0.00     0.159 HD
ATOM     47  H   UNL     1      -3.817   6.758  13.505  1.00  0.00     0.159 HD
ATOM     48  H   UNL     1      -5.665   8.201  16.782  1.00  0.00     0.159 HD
ATOM     49  H   UNL     1      -5.566   6.501  16.454  1.00  0.00     0.159 HD
ENDBRANCH  41  42
ENDBRANCH  40  41
ENDBRANCH  39  40
ENDBRANCH  38  39
ENDBRANCH  36  38
ENDBRANCH   5  34
BRANCH   8  50
ATOM     50  O   UNL     1       4.267   6.870  11.839  1.00  0.00    -0.245 OA
BRANCH  50  51
ATOM     51  S   UNL     1       4.610   8.396  12.286  1.00  0.00     0.397 S 
ATOM     52  O   UNL     1       5.664   8.886  11.426  1.00  0.00    -0.169 OA
ATOM     53  O   UNL     1       4.711   8.469  13.729  1.00  0.00    -0.169 OA
BRANCH  51  54
ATOM     54  O   UNL     1       3.280   9.183  11.842  1.00  0.00    -0.264 OA
ATOM     55  H   UNL     1       3.554   9.939  11.283  1.00  0.00     0.236 HD
ENDBRANCH  51  54
ENDBRANCH  50  51
ENDBRANCH   8  50
TORSDOF 19
ENDMDL
MODEL 6
REMARK VINA RESULT:    -6.534      2.404      3.617
REMARK INTER + INTRA:         -15.987
REMARK INTER:                 -12.767
REMARK INTRA:                  -3.220
REMARK UNBOUND:                -2.768
REMARK SMILES CC[C@@H](C)[C@@H](NC(=O)[C@@H](O)Cc1ccc(O)c(Cl)c1)C(=O)N1[C@H](C(=O)NCCCCN=C(N)N)C[C@H]2CC[C@H](OS(=O)(=O)O)C[C@@H]21
REMARK SMILES IDX 22 1 36 2 46 3 35 4 23 5 45 6 37 7 39 8 38 9 20 10 21 11
REMARK SMILES IDX 5 12 6 13 7 14 8 15 9 17 11 18 12 19 17 20 19 21 15 22 14 23
REMARK SMILES IDX 13 24 18 25 16 26 10 28 3 30 4 31 2 32 1 33 24 34 25 35
REMARK SMILES IDX 26 36 27 38 28 39 29 40 30 41 31 42 32 43 33 44 34 45 40 50
REMARK SMILES IDX 41 51 42 52 43 53 44 54
REMARK H PARENT 6 16 16 27 10 29 26 37 33 46 33 47 34 48 34 49 44 55
ROOT
ATOM      1  N   UNL     1       5.808  10.535   0.692  1.00  0.00    -0.326 N 
ATOM      2  C   UNL     1       6.997  11.444  -1.125  1.00  0.00     0.014 C 
ATOM      3  C   UNL     1       7.120  11.098   0.362  1.00  0.00     0.091 C 
ATOM      4  C   UNL     1       5.543  11.870  -1.250  1.00  0.00     0.041 C 
ATOM      5  C   UNL     1       4.862  10.761  -0.428  1.00  0.00     0.175 C 
ATOM      6  C   UNL     1       8.355  10.220   0.553  1.00  0.00     0.059 C 
ATOM      7  C   UNL     1       8.092  12.402  -1.552  1.00  0.00     0.008 C 
ATOM      8  C   UNL     1       9.495  10.525  -0.443  1.00  0.00     0.143 C 
ATOM      9  C   UNL     1       9.449  11.981  -0.948  1.00  0.00     0.034 C 
ENDROOT
BRANCH   1  10
ATOM     10  C   UNL     1       5.324  10.063   1.900  1.00  0.00     0.246 C 
ATOM     11  O   UNL     1       5.292   8.844   2.100  1.00  0.00    -0.272 OA
BRANCH  10  12
ATOM     12  C   UNL     1       4.871  11.074   2.993  1.00  0.00     0.174 C 
BRANCH  12  13
ATOM     13  N   UNL     1       3.670  10.578   3.665  1.00  0.00    -0.342 N 
ATOM     14  C   UNL     1       3.557  10.354   5.019  1.00  0.00     0.249 C 
ATOM     15  O   UNL     1       4.453  10.576   5.823  1.00  0.00    -0.272 OA
ATOM     16  H   UNL     1       2.903  10.203   3.112  1.00  0.00     0.164 HD
BRANCH  14  17
ATOM     17  C   UNL     1       2.168   9.813   5.419  1.00  0.00     0.207 C 
BRANCH  17  18
ATOM     18  C   UNL     1       1.371   9.410   4.174  1.00  0.00     0.077 C 
BRANCH  18  19
ATOM     19  C   UNL     1       1.303   7.908   4.013  1.00  0.00    -0.043 A 
ATOM     20  C   UNL     1       1.284   5.944   2.588  1.00  0.00     0.083 A 
ATOM     21  C   UNL     1       1.398   7.327   2.739  1.00  0.00     0.028 A 
ATOM     22  C   UNL     1       1.074   5.135   3.706  1.00  0.00     0.134 A 
ATOM     23  C   UNL     1       0.978   5.697   4.974  1.00  0.00     0.048 A 
ATOM     24  C   UNL     1       1.090   7.081   5.127  1.00  0.00     0.008 A 
ATOM     25  Cl  UNL     1       1.403   5.249   1.015  1.00  0.00    -0.080 Cl
BRANCH  22  26
ATOM     26  O   UNL     1       0.946   3.776   3.607  1.00  0.00    -0.506 OA
ATOM     27  H   UNL     1       1.835   3.424   3.416  1.00  0.00     0.293 HD
ENDBRANCH  22  26
ENDBRANCH  18  19
ENDBRANCH  17  18
BRANCH  17  28
ATOM     28  O   UNL     1       1.426  10.792   6.163  1.00  0.00    -0.383 OA
ATOM     29  H   UNL     1       0.742  11.141   5.547  1.00  0.00     0.211 HD
ENDBRANCH  17  28
ENDBRANCH  14  17
ENDBRANCH  12  13
BRANCH  12  30
ATOM     30  C   UNL     1       4.689  12.513   2.440  1.00  0.00     0.018 C 
ATOM     31  C   UNL     1       5.397  13.537   3.340  1.00  0.00     0.010 C 
BRANCH  30  32
ATOM     32  C   UNL     1       3.209  12.918   2.237  1.00  0.00     0.002 C 
ATOM     33  C   UNL     1       2.889  13.563   0.894  1.00  0.00     0.004 C 
ENDBRANCH  30  32
ENDBRANCH  12  30
ENDBRANCH  10  12
ENDBRANCH   1  10
BRANCH   5  34
ATOM     34  C   UNL     1       4.675   9.464  -1.260  1.00  0.00     0.242 C 
ATOM     35  O   UNL     1       4.031   9.443  -2.309  1.00  0.00    -0.273 OA
ATOM     36  N   UNL     1       5.234   8.331  -0.713  1.00  0.00    -0.354 N 
ATOM     37  H   UNL     1       5.651   8.389   0.217  1.00  0.00     0.163 HD
BRANCH  36  38
ATOM     38  C   UNL     1       5.342   7.089  -1.450  1.00  0.00     0.116 C 
BRANCH  38  39
ATOM     39  C   UNL     1       4.125   6.212  -1.169  1.00  0.00     0.023 C 
BRANCH  39  40
ATOM     40  C   UNL     1       3.299   5.942  -2.422  1.00  0.00     0.026 C 
BRANCH  40  41
ATOM     41  C   UNL     1       2.101   6.889  -2.495  1.00  0.00     0.146 C 
BRANCH  41  42
ATOM     42  N   UNL     1       1.491   6.810  -3.816  1.00  0.00    -0.254 NA
ATOM     43  C   UNL     1       1.923   7.560  -4.759  1.00  0.00     0.185 C 
ATOM     44  N   UNL     1       2.910   8.475  -4.754  1.00  0.00    -0.370 N 
ATOM     45  N   UNL     1       1.344   7.475  -5.968  1.00  0.00    -0.370 N 
ATOM     46  H   UNL     1       2.979   9.159  -5.488  1.00  0.00     0.159 HD
ATOM     47  H   UNL     1       3.463   8.658  -3.922  1.00  0.00     0.159 HD
ATOM     48  H   UNL     1       0.596   6.802  -6.060  1.00  0.00     0.159 HD
ATOM     49  H   UNL     1       1.768   7.843  -6.801  1.00  0.00     0.159 HD
ENDBRANCH  41  42
ENDBRANCH  40  41
ENDBRANCH  39  40
ENDBRANCH  38  39
ENDBRANCH  36  38
ENDBRANCH   5  34
BRANCH   8  50
ATOM     50  O   UNL     1       9.409   9.651  -1.569  1.00  0.00    -0.245 OA
BRANCH  50  51
ATOM     51  S   UNL     1      10.697   8.749  -1.986  1.00  0.00     0.397 S 
ATOM     52  O   UNL     1      11.671   9.620  -2.602  1.00  0.00    -0.169 OA
ATOM     53  O   UNL     1      10.249   7.532  -2.631  1.00  0.00    -0.169 OA
BRANCH  51  54
ATOM     54  O   UNL     1      11.308   8.354  -0.552  1.00  0.00    -0.264 OA
ATOM     55  H   UNL     1      12.171   7.917  -0.705  1.00  0.00     0.236 HD
ENDBRANCH  51  54
ENDBRANCH  50  51
ENDBRANCH   8  50
TORSDOF 19
ENDMDL
MODEL 7
REMARK VINA RESULT:    -6.533      4.225      9.532
REMARK INTER + INTRA:         -15.985
REMARK INTER:                 -12.429
REMARK INTRA:                  -3.556
REMARK UNBOUND:                -2.768
REMARK SMILES CC[C@@H](C)[C@@H](NC(=O)[C@@H](O)Cc1ccc(O)c(Cl)c1)C(=O)N1[C@H](C(=O)NCCCCN=C(N)N)C[C@H]2CC[C@H](OS(=O)(=O)O)C[C@@H]21
REMARK SMILES IDX 22 1 36 2 46 3 35 4 23 5 45 6 37 7 39 8 38 9 20 10 21 11
REMARK SMILES IDX 5 12 6 13 7 14 8 15 9 17 11 18 12 19 17 20 19 21 15 22 14 23
REMARK SMILES IDX 13 24 18 25 16 26 10 28 3 30 4 31 2 32 1 33 24 34 25 35
REMARK SMILES IDX 26 36 27 38 28 39 29 40 30 41 31 42 32 43 33 44 34 45 40 50
REMARK SMILES IDX 41 51 42 52 43 53 44 54
REMARK H PARENT 6 16 16 27 10 29 26 37 33 46 33 47 34 48 34 49 44 55
ROOT
ATOM      1  N   UNL     1       4.296  10.008   3.705  1.00  0.00    -0.326 N 
ATOM      2  C   UNL     1       2.901  10.986   5.329  1.00  0.00     0.014 C 
ATOM      3  C   UNL     1       2.918  10.474   3.886  1.00  0.00     0.091 C 
ATOM      4  C   UNL     1       4.298  11.562   5.497  1.00  0.00     0.041 C 
ATOM      5  C   UNL     1       5.134  10.443   4.850  1.00  0.00     0.175 C 
ATOM      6  C   UNL     1       1.785   9.464   3.718  1.00  0.00     0.059 C 
ATOM      7  C   UNL     1       1.696  11.873   5.575  1.00  0.00     0.008 C 
ATOM      8  C   UNL     1       0.552   9.761   4.599  1.00  0.00     0.143 C 
ATOM      9  C   UNL     1       0.431  11.261   4.939  1.00  0.00     0.034 C 
ENDROOT
BRANCH   1  10
ATOM     10  C   UNL     1       4.908   9.459   2.591  1.00  0.00     0.246 C 
ATOM     11  O   UNL     1       5.292   8.285   2.633  1.00  0.00    -0.272 OA
BRANCH  10  12
ATOM     12  C   UNL     1       5.062  10.315   1.300  1.00  0.00     0.174 C 
BRANCH  12  13
ATOM     13  N   UNL     1       5.430   9.458   0.174  1.00  0.00    -0.342 N 
ATOM     14  C   UNL     1       5.283   9.790  -1.154  1.00  0.00     0.249 C 
ATOM     15  O   UNL     1       4.847  10.867  -1.543  1.00  0.00    -0.272 OA
ATOM     16  H   UNL     1       5.657   8.480   0.339  1.00  0.00     0.164 HD
BRANCH  14  17
ATOM     17  C   UNL     1       5.748   8.666  -2.104  1.00  0.00     0.207 C 
BRANCH  17  18
ATOM     18  C   UNL     1       5.117   7.330  -1.701  1.00  0.00     0.077 C 
BRANCH  18  19
ATOM     19  C   UNL     1       3.742   7.152  -2.306  1.00  0.00    -0.043 A 
ATOM     20  C   UNL     1       2.221   7.399  -4.180  1.00  0.00     0.083 A 
ATOM     21  C   UNL     1       3.503   7.517  -3.640  1.00  0.00     0.028 A 
ATOM     22  C   UNL     1       1.174   6.917  -3.394  1.00  0.00     0.134 A 
ATOM     23  C   UNL     1       1.397   6.552  -2.071  1.00  0.00     0.048 A 
ATOM     24  C   UNL     1       2.678   6.671  -1.527  1.00  0.00     0.008 A 
ATOM     25  Cl  UNL     1       1.947   7.853  -5.821  1.00  0.00    -0.080 Cl
BRANCH  22  26
ATOM     26  O   UNL     1      -0.101   6.793  -3.876  1.00  0.00    -0.506 OA
ATOM     27  H   UNL     1      -0.071   6.113  -4.574  1.00  0.00     0.293 HD
ENDBRANCH  22  26
ENDBRANCH  18  19
ENDBRANCH  17  18
BRANCH  17  28
ATOM     28  O   UNL     1       7.179   8.540  -2.095  1.00  0.00    -0.383 OA
ATOM     29  H   UNL     1       7.533   9.454  -2.184  1.00  0.00     0.211 HD
ENDBRANCH  17  28
ENDBRANCH  14  17
ENDBRANCH  12  13
BRANCH  12  30
ATOM     30  C   UNL     1       6.041  11.506   1.483  1.00  0.00     0.018 C 
ATOM     31  C   UNL     1       7.286  11.074   2.272  1.00  0.00     0.010 C 
BRANCH  30  32
ATOM     32  C   UNL     1       5.394  12.746   2.147  1.00  0.00     0.002 C 
ATOM     33  C   UNL     1       6.330  13.926   2.373  1.00  0.00     0.004 C 
ENDBRANCH  30  32
ENDBRANCH  12  30
ENDBRANCH  10  12
ENDBRANCH   1  10
BRANCH   5  34
ATOM     34  C   UNL     1       5.375   9.267   5.833  1.00  0.00     0.242 C 
ATOM     35  O   UNL     1       6.175   9.342   6.766  1.00  0.00    -0.273 OA
ATOM     36  N   UNL     1       4.670   8.117   5.555  1.00  0.00    -0.354 N 
ATOM     37  H   UNL     1       4.115   8.076   4.700  1.00  0.00     0.163 HD
BRANCH  36  38
ATOM     38  C   UNL     1       4.608   7.005   6.481  1.00  0.00     0.116 C 
BRANCH  38  39
ATOM     39  C   UNL     1       3.243   6.976   7.164  1.00  0.00     0.023 C 
BRANCH  39  40
ATOM     40  C   UNL     1       2.552   5.623   7.028  1.00  0.00     0.026 C 
BRANCH  40  41
ATOM     41  C   UNL     1       2.714   5.072   5.612  1.00  0.00     0.146 C 
BRANCH  41  42
ATOM     42  N   UNL     1       1.540   5.408   4.816  1.00  0.00    -0.254 NA
ATOM     43  C   UNL     1       1.689   5.853   3.625  1.00  0.00     0.185 C 
ATOM     44  N   UNL     1       2.813   6.084   2.921  1.00  0.00    -0.370 N 
ATOM     45  N   UNL     1       0.595   6.161   2.909  1.00  0.00    -0.370 N 
ATOM     46  H   UNL     1       2.792   6.659   2.097  1.00  0.00     0.159 HD
ATOM     47  H   UNL     1       3.732   5.892   3.308  1.00  0.00     0.159 HD
ATOM     48  H   UNL     1      -0.295   6.007   3.363  1.00  0.00     0.159 HD
ATOM     49  H   UNL     1       0.614   6.284   1.912  1.00  0.00     0.159 HD
ENDBRANCH  41  42
ENDBRANCH  40  41
ENDBRANCH  39  40
ENDBRANCH  38  39
ENDBRANCH  36  38
ENDBRANCH   5  34
BRANCH   8  50
ATOM     50  O   UNL     1       0.633   9.025   5.820  1.00  0.00    -0.245 OA
BRANCH  50  51
ATOM     51  S   UNL     1      -0.713   8.366   6.451  1.00  0.00     0.397 S 
ATOM     52  O   UNL     1      -1.806   9.287   6.233  1.00  0.00    -0.169 OA
ATOM     53  O   UNL     1      -0.422   7.830   7.765  1.00  0.00    -0.169 OA
BRANCH  51  54
ATOM     54  O   UNL     1      -0.979   7.129   5.459  1.00  0.00    -0.264 OA
ATOM     55  H   UNL     1      -1.906   6.840   5.583  1.00  0.00     0.236 HD
ENDBRANCH  51  54
ENDBRANCH  50  51
ENDBRANCH   8  50
TORSDOF 19
ENDMDL
MODEL 8
REMARK VINA RESULT:    -6.521      4.587      7.619
REMARK INTER + INTRA:         -15.961
REMARK INTER:                 -12.933
REMARK INTRA:                  -3.029
REMARK UNBOUND:                -2.768
REMARK SMILES CC[C@@H](C)[C@@H](NC(=O)[C@@H](O)Cc1ccc(O)c(Cl)c1)C(=O)N1[C@H](C(=O)NCCCCN=C(N)N)C[C@H]2CC[C@H](OS(=O)(=O)O)C[C@@H]21
REMARK SMILES IDX 22 1 36 2 46 3 35 4 23 5 45 6 37 7 39 8 38 9 20 10 21 11
REMARK SMILES IDX 5 12 6 13 7 14 8 15 9 17 11 18 12 19 17 20 19 21 15 22 14 23
REMARK SMILES IDX 13 24 18 25 16 26 10 28 3 30 4 31 2 32 1 33 24 34 25 35
REMARK SMILES IDX 26 36 27 38 28 39 29 40 30 41 31 42 32 43 33 44 34 45 40 50
REMARK SMILES IDX 41 51 42 52 43 53 44 54
REMARK H PARENT 6 16 16 27 10 29 26 37 33 46 33 47 34 48 34 49 44 55
ROOT
ATOM      1  N   UNL     1       1.788   6.441   5.617  1.00  0.00    -0.326 N 
ATOM      2  C   UNL     1       4.088   5.969   5.444  1.00  0.00     0.014 C 
ATOM      3  C   UNL     1       2.931   6.046   6.445  1.00  0.00     0.091 C 
ATOM      4  C   UNL     1       3.760   7.087   4.467  1.00  0.00     0.041 C 
ATOM      5  C   UNL     1       2.253   6.839   4.265  1.00  0.00     0.175 C 
ATOM      6  C   UNL     1       2.855   4.719   7.198  1.00  0.00     0.059 C 
ATOM      7  C   UNL     1       5.425   5.976   6.160  1.00  0.00     0.008 C 
ATOM      8  C   UNL     1       4.226   4.035   7.391  1.00  0.00     0.143 C 
ATOM      9  C   UNL     1       5.386   5.052   7.395  1.00  0.00     0.034 C 
ENDROOT
BRANCH   1  10
ATOM     10  C   UNL     1       0.473   6.684   5.976  1.00  0.00     0.246 C 
ATOM     11  O   UNL     1      -0.420   5.970   5.508  1.00  0.00    -0.272 OA
BRANCH  10  12
ATOM     12  C   UNL     1       0.153   7.819   6.992  1.00  0.00     0.174 C 
BRANCH  12  13
ATOM     13  N   UNL     1       0.611   9.104   6.464  1.00  0.00    -0.342 N 
ATOM     14  C   UNL     1      -0.203  10.062   5.901  1.00  0.00     0.249 C 
ATOM     15  O   UNL     1      -1.419   9.953   5.805  1.00  0.00    -0.272 OA
ATOM     16  H   UNL     1       1.605   9.269   6.332  1.00  0.00     0.164 HD
BRANCH  14  17
ATOM     17  C   UNL     1       0.581  11.302   5.421  1.00  0.00     0.207 C 
BRANCH  17  18
ATOM     18  C   UNL     1       2.072  10.973   5.285  1.00  0.00     0.077 C 
BRANCH  18  19
ATOM     19  C   UNL     1       2.594  11.300   3.904  1.00  0.00    -0.043 A 
ATOM     20  C   UNL     1       3.707  10.613   1.860  1.00  0.00     0.083 A 
ATOM     21  C   UNL     1       3.181  10.299   3.114  1.00  0.00     0.028 A 
ATOM     22  C   UNL     1       3.652  11.926   1.390  1.00  0.00     0.134 A 
ATOM     23  C   UNL     1       3.074  12.927   2.161  1.00  0.00     0.048 A 
ATOM     24  C   UNL     1       2.548  12.615   3.417  1.00  0.00     0.008 A 
ATOM     25  Cl  UNL     1       4.424   9.370   0.904  1.00  0.00    -0.080 Cl
BRANCH  22  26
ATOM     26  O   UNL     1       4.164  12.284   0.172  1.00  0.00    -0.506 OA
ATOM     27  H   UNL     1       3.909  13.214   0.024  1.00  0.00     0.293 HD
ENDBRANCH  22  26
ENDBRANCH  18  19
ENDBRANCH  17  18
BRANCH  17  28
ATOM     28  O   UNL     1       0.417  12.402   6.331  1.00  0.00    -0.383 OA
ATOM     29  H   UNL     1       0.414  12.010   7.234  1.00  0.00     0.211 HD
ENDBRANCH  17  28
ENDBRANCH  14  17
ENDBRANCH  12  13
BRANCH  12  30
ATOM     30  C   UNL     1       0.711   7.529   8.411  1.00  0.00     0.018 C 
ATOM     31  C   UNL     1      -0.431   7.406   9.432  1.00  0.00     0.010 C 
BRANCH  30  32
ATOM     32  C   UNL     1       1.748   8.572   8.896  1.00  0.00     0.002 C 
ATOM     33  C   UNL     1       3.040   7.992   9.458  1.00  0.00     0.004 C 
ENDBRANCH  30  32
ENDBRANCH  12  30
ENDBRANCH  10  12
ENDBRANCH   1  10
BRANCH   5  34
ATOM     34  C   UNL     1       1.993   5.705   3.238  1.00  0.00     0.242 C 
ATOM     35  O   UNL     1       2.012   4.515   3.552  1.00  0.00    -0.273 OA
ATOM     36  N   UNL     1       1.792   6.124   1.941  1.00  0.00    -0.354 N 
ATOM     37  H   UNL     1       1.907   7.115   1.722  1.00  0.00     0.163 HD
BRANCH  36  38
ATOM     38  C   UNL     1       1.326   5.229   0.903  1.00  0.00     0.116 C 
BRANCH  38  39
ATOM     39  C   UNL     1       1.432   5.914  -0.458  1.00  0.00     0.023 C 
BRANCH  39  40
ATOM     40  C   UNL     1       2.802   6.544  -0.688  1.00  0.00     0.026 C 
BRANCH  40  41
ATOM     41  C   UNL     1       2.729   7.617  -1.774  1.00  0.00     0.146 C 
BRANCH  41  42
ATOM     42  N   UNL     1       1.619   7.333  -2.674  1.00  0.00    -0.254 NA
ATOM     43  C   UNL     1       1.857   6.969  -3.877  1.00  0.00     0.185 C 
ATOM     44  N   UNL     1       3.030   6.785  -4.510  1.00  0.00    -0.370 N 
ATOM     45  N   UNL     1       0.819   6.716  -4.692  1.00  0.00    -0.370 N 
ATOM     46  H   UNL     1       3.069   6.738  -5.514  1.00  0.00     0.159 HD
ATOM     47  H   UNL     1       3.918   6.920  -4.037  1.00  0.00     0.159 HD
ATOM     48  H   UNL     1      -0.102   6.822  -4.290  1.00  0.00     0.159 HD
ATOM     49  H   UNL     1       0.915   6.207  -5.553  1.00  0.00     0.159 HD
ENDBRANCH  41  42
ENDBRANCH  40  41
ENDBRANCH  39  40
ENDBRANCH  38  39
ENDBRANCH  36  38
ENDBRANCH   5  34
BRANCH   8  50
ATOM     50  O   UNL     1       4.454   3.091   6.344  1.00  0.00    -0.245 OA
BRANCH  50  51
ATOM     51  S   UNL     1       5.035   1.615   6.706  1.00  0.00     0.397 S 
ATOM     52  O   UNL     1       4.429   1.189   7.947  1.00  0.00    -0.169 OA
ATOM     53  O   UNL     1       6.470   1.597   6.516  1.00  0.00    -0.169 OA
BRANCH  51  54
ATOM     54  O   UNL     1       4.372   0.703   5.559  1.00  0.00    -0.264 OA
ATOM     55  H   UNL     1       4.849   0.882   4.723  1.00  0.00     0.236 HD
ENDBRANCH  51  54
ENDBRANCH  50  51
ENDBRANCH   8  50
TORSDOF 19
ENDMDL
MODEL 9
REMARK VINA RESULT:    -6.342     14.503     19.384
REMARK INTER + INTRA:         -15.599
REMARK INTER:                 -12.973
REMARK INTRA:                  -2.626
REMARK UNBOUND:                -2.768
REMARK SMILES CC[C@@H](C)[C@@H](NC(=O)[C@@H](O)Cc1ccc(O)c(Cl)c1)C(=O)N1[C@H](C(=O)NCCCCN=C(N)N)C[C@H]2CC[C@H](OS(=O)(=O)O)C[C@@H]21
REMARK SMILES IDX 22 1 36 2 46 3 35 4 23 5 45 6 37 7 39 8 38 9 20 10 21 11
REMARK SMILES IDX 5 12 6 13 7 14 8 15 9 17 11 18 12 19 17 20 19 21 15 22 14 23
REMARK SMILES IDX 13 24 18 25 16 26 10 28 3 30 4 31 2 32 1 33 24 34 25 35
REMARK SMILES IDX 26 36 27 38 28 39 29 40 30 41 31 42 32 43 33 44 34 45 40 50
REMARK SMILES IDX 41 51 42 52 43 53 44 54
REMARK H PARENT 6 16 16 27 10 29 26 37 33 46 33 47 34 48 34 49 44 55
ROOT
ATOM      1  N   UNL     1       1.372  -3.079  10.725  1.00  0.00    -0.326 N 
ATOM      2  C   UNL     1       0.679  -3.384  12.954  1.00  0.00     0.014 C 
ATOM      3  C   UNL     1       0.315  -2.664  11.652  1.00  0.00     0.091 C 
ATOM      4  C   UNL     1       2.200  -3.374  12.928  1.00  0.00     0.041 C 
ATOM      5  C   UNL     1       2.450  -3.780  11.464  1.00  0.00     0.175 C 
ATOM      6  C   UNL     1      -1.132  -3.005  11.300  1.00  0.00     0.059 C 
ATOM      7  C   UNL     1      -0.049  -2.770  14.134  1.00  0.00     0.008 C 
ATOM      8  C   UNL     1      -2.032  -3.239  12.532  1.00  0.00     0.143 C 
ATOM      9  C   UNL     1      -1.522  -2.483  13.775  1.00  0.00     0.034 C 
ENDROOT
BRANCH   1  10
ATOM     10  C   UNL     1       1.579  -2.730   9.401  1.00  0.00     0.246 C 
ATOM     11  O   UNL     1       2.058  -1.621   9.139  1.00  0.00    -0.272 OA
BRANCH  10  12
ATOM     12  C   UNL     1       1.245  -3.752   8.277  1.00  0.00     0.174 C 
BRANCH  12  13
ATOM     13  N   UNL     1       2.085  -3.500   7.107  1.00  0.00    -0.342 N 
ATOM     14  C   UNL     1       3.323  -4.062   6.887  1.00  0.00     0.249 C 
ATOM     15  O   UNL     1       3.850  -4.867   7.644  1.00  0.00    -0.272 OA
ATOM     16  H   UNL     1       1.851  -2.739   6.473  1.00  0.00     0.164 HD
BRANCH  14  17
ATOM     17  C   UNL     1       3.968  -3.584   5.569  1.00  0.00     0.207 C 
BRANCH  17  18
ATOM     18  C   UNL     1       4.021  -2.053   5.523  1.00  0.00     0.077 C 
BRANCH  18  19
ATOM     19  C   UNL     1       5.371  -1.525   5.954  1.00  0.00    -0.043 A 
ATOM     20  C   UNL     1       7.193  -1.465   7.555  1.00  0.00     0.083 A 
ATOM     21  C   UNL     1       5.970  -1.991   7.134  1.00  0.00     0.028 A 
ATOM     22  C   UNL     1       7.822  -0.473   6.802  1.00  0.00     0.134 A 
ATOM     23  C   UNL     1       7.240  -0.002   5.631  1.00  0.00     0.048 A 
ATOM     24  C   UNL     1       6.015  -0.525   5.208  1.00  0.00     0.008 A 
ATOM     25  Cl  UNL     1       7.913  -2.050   9.008  1.00  0.00    -0.080 Cl
BRANCH  22  26
ATOM     26  O   UNL     1       9.016   0.080   7.179  1.00  0.00    -0.506 OA
ATOM     27  H   UNL     1       9.204  -0.247   8.078  1.00  0.00     0.293 HD
ENDBRANCH  22  26
ENDBRANCH  18  19
ENDBRANCH  17  18
BRANCH  17  28
ATOM     28  O   UNL     1       3.240  -4.069   4.430  1.00  0.00    -0.383 OA
ATOM     29  H   UNL     1       2.654  -4.785   4.767  1.00  0.00     0.211 HD
ENDBRANCH  17  28
ENDBRANCH  14  17
ENDBRANCH  12  13
BRANCH  12  30
ATOM     30  C   UNL     1      -0.267  -3.784   7.924  1.00  0.00     0.018 C 
ATOM     31  C   UNL     1      -0.727  -5.218   7.619  1.00  0.00     0.010 C 
BRANCH  30  32
ATOM     32  C   UNL     1      -0.653  -2.842   6.758  1.00  0.00     0.002 C 
ATOM     33  C   UNL     1      -1.200  -1.482   7.172  1.00  0.00     0.004 C 
ENDBRANCH  30  32
ENDBRANCH  12  30
ENDBRANCH  10  12
ENDBRANCH   1  10
BRANCH   5  34
ATOM     34  C   UNL     1       2.341  -5.316  11.270  1.00  0.00     0.242 C 
ATOM     35  O   UNL     1       3.269  -6.081  11.533  1.00  0.00    -0.273 OA
ATOM     36  N   UNL     1       1.151  -5.756  10.733  1.00  0.00    -0.354 N 
ATOM     37  H   UNL     1       0.466  -5.065  10.425  1.00  0.00     0.163 HD
BRANCH  36  38
ATOM     38  C   UNL     1       0.796  -7.159  10.686  1.00  0.00     0.116 C 
BRANCH  38  39
ATOM     39  C   UNL     1      -0.585  -7.365  11.303  1.00  0.00     0.023 C 
BRANCH  39  40
ATOM     40  C   UNL     1      -0.550  -8.294  12.512  1.00  0.00     0.026 C 
BRANCH  40  41
ATOM     41  C   UNL     1      -1.967  -8.657  12.958  1.00  0.00     0.146 C 
BRANCH  41  42
ATOM     42  N   UNL     1      -2.440  -9.811  12.205  1.00  0.00    -0.254 NA
ATOM     43  C   UNL     1      -3.479  -9.701  11.466  1.00  0.00     0.185 C 
ATOM     44  N   UNL     1      -4.271  -8.637  11.238  1.00  0.00    -0.370 N 
ATOM     45  N   UNL     1      -3.902 -10.778  10.783  1.00  0.00    -0.370 N 
ATOM     46  H   UNL     1      -5.184  -8.755  10.833  1.00  0.00     0.159 HD
ATOM     47  H   UNL     1      -4.087  -7.735  11.665  1.00  0.00     0.159 HD
ATOM     48  H   UNL     1      -3.355 -11.621  10.892  1.00  0.00     0.159 HD
ATOM     49  H   UNL     1      -4.547 -10.717  10.015  1.00  0.00     0.159 HD
ENDBRANCH  41  42
ENDBRANCH  40  41
ENDBRANCH  39  40
ENDBRANCH  38  39
ENDBRANCH  36  38
ENDBRANCH   5  34
BRANCH   8  50
ATOM     50  O   UNL     1      -2.088  -4.632  12.840  1.00  0.00    -0.245 OA
BRANCH  50  51
ATOM     51  S   UNL     1      -3.447  -5.260  13.477  1.00  0.00     0.397 S 
ATOM     52  O   UNL     1      -3.096  -5.919  14.715  1.00  0.00    -0.169 OA
ATOM     53  O   UNL     1      -4.200  -5.938  12.443  1.00  0.00    -0.169 OA
BRANCH  51  54
ATOM     54  O   UNL     1      -4.261  -3.940  13.899  1.00  0.00    -0.264 OA
ATOM     55  H   UNL     1      -4.661  -4.103  14.777  1.00  0.00     0.236 HD
ENDBRANCH  51  54
ENDBRANCH  50  51
ENDBRANCH   8  50
TORSDOF 19
ENDMDL
MODEL 10
REMARK VINA RESULT:    -6.266      4.259     10.505
REMARK INTER + INTRA:         -15.444
REMARK INTER:                 -12.067
REMARK INTRA:                  -3.376
REMARK UNBOUND:                -2.768
REMARK SMILES CC[C@@H](C)[C@@H](NC(=O)[C@@H](O)Cc1ccc(O)c(Cl)c1)C(=O)N1[C@H](C(=O)NCCCCN=C(N)N)C[C@H]2CC[C@H](OS(=O)(=O)O)C[C@@H]21
REMARK SMILES IDX 22 1 36 2 46 3 35 4 23 5 45 6 37 7 39 8 38 9 20 10 21 11
REMARK SMILES IDX 5 12 6 13 7 14 8 15 9 17 11 18 12 19 17 20 19 21 15 22 14 23
REMARK SMILES IDX 13 24 18 25 16 26 10 28 3 30 4 31 2 32 1 33 24 34 25 35
REMARK SMILES IDX 26 36 27 38 28 39 29 40 30 41 31 42 32 43 33 44 34 45 40 50
REMARK SMILES IDX 41 51 42 52 43 53 44 54
REMARK H PARENT 6 16 16 27 10 29 26 37 33 46 33 47 34 48 34 49 44 55
ROOT
ATOM      1  N   UNL     1       3.399  10.900   3.522  1.00  0.00    -0.326 N 
ATOM      2  C   UNL     1       2.275  11.671   5.442  1.00  0.00     0.014 C 
ATOM      3  C   UNL     1       2.043  11.141   4.024  1.00  0.00     0.091 C 
ATOM      4  C   UNL     1       3.562  12.468   5.295  1.00  0.00     0.041 C 
ATOM      5  C   UNL     1       4.396  11.486   4.451  1.00  0.00     0.175 C 
ATOM      6  C   UNL     1       1.079   9.958   4.102  1.00  0.00     0.059 C 
ATOM      7  C   UNL     1       1.032  12.356   5.975  1.00  0.00     0.008 C 
ATOM      8  C   UNL     1       0.050  10.070   5.248  1.00  0.00     0.143 C 
ATOM      9  C   UNL     1      -0.230  11.536   5.635  1.00  0.00     0.034 C 
ENDROOT
BRANCH   1  10
ATOM     10  C   UNL     1       3.818  10.436   2.287  1.00  0.00     0.246 C 
ATOM     11  O   UNL     1       3.777  11.195   1.313  1.00  0.00    -0.272 OA
BRANCH  10  12
ATOM     12  C   UNL     1       4.372   8.987   2.160  1.00  0.00     0.174 C 
BRANCH  12  13
ATOM     13  N   UNL     1       4.537   8.638   0.749  1.00  0.00    -0.342 N 
ATOM     14  C   UNL     1       5.738   8.617   0.076  1.00  0.00     0.249 C 
ATOM     15  O   UNL     1       6.817   8.864   0.599  1.00  0.00    -0.272 OA
ATOM     16  H   UNL     1       3.719   8.562   0.150  1.00  0.00     0.164 HD
BRANCH  14  17
ATOM     17  C   UNL     1       5.581   8.225  -1.409  1.00  0.00     0.207 C 
BRANCH  17  18
ATOM     18  C   UNL     1       5.037   6.799  -1.532  1.00  0.00     0.077 C 
BRANCH  18  19
ATOM     19  C   UNL     1       3.655   6.775  -2.146  1.00  0.00    -0.043 A 
ATOM     20  C   UNL     1       2.176   7.229  -4.014  1.00  0.00     0.083 A 
ATOM     21  C   UNL     1       3.459   7.205  -3.468  1.00  0.00     0.028 A 
ATOM     22  C   UNL     1       1.082   6.826  -3.246  1.00  0.00     0.134 A 
ATOM     23  C   UNL     1       1.262   6.398  -1.936  1.00  0.00     0.048 A 
ATOM     24  C   UNL     1       2.545   6.375  -1.386  1.00  0.00     0.008 A 
ATOM     25  Cl  UNL     1       1.955   7.761  -5.640  1.00  0.00    -0.080 Cl
BRANCH  22  26
ATOM     26  O   UNL     1      -0.196   6.842  -3.735  1.00  0.00    -0.506 OA
ATOM     27  H   UNL     1      -0.776   6.533  -3.015  1.00  0.00     0.293 HD
ENDBRANCH  22  26
ENDBRANCH  18  19
ENDBRANCH  17  18
BRANCH  17  28
ATOM     28  O   UNL     1       6.835   8.319  -2.104  1.00  0.00    -0.383 OA
ATOM     29  H   UNL     1       7.174   9.227  -1.932  1.00  0.00     0.211 HD
ENDBRANCH  17  28
ENDBRANCH  14  17
ENDBRANCH  12  13
BRANCH  12  30
ATOM     30  C   UNL     1       3.514   7.947   2.931  1.00  0.00     0.018 C 
ATOM     31  C   UNL     1       4.386   7.126   3.893  1.00  0.00     0.010 C 
BRANCH  30  32
ATOM     32  C   UNL     1       2.705   7.003   2.009  1.00  0.00     0.002 C 
ATOM     33  C   UNL     1       1.916   5.914   2.724  1.00  0.00     0.004 C 
ENDBRANCH  30  32
ENDBRANCH  12  30
ENDBRANCH  10  12
ENDBRANCH   1  10
BRANCH   5  34
ATOM     34  C   UNL     1       5.043  10.383   5.331  1.00  0.00     0.242 C 
ATOM     35  O   UNL     1       6.191   9.982   5.144  1.00  0.00    -0.273 OA
ATOM     36  N   UNL     1       4.222   9.849   6.299  1.00  0.00    -0.354 N 
ATOM     37  H   UNL     1       3.243  10.138   6.327  1.00  0.00     0.163 HD
BRANCH  36  38
ATOM     38  C   UNL     1       4.720   8.974   7.339  1.00  0.00     0.116 C 
BRANCH  38  39
ATOM     39  C   UNL     1       3.634   8.742   8.387  1.00  0.00     0.023 C 
BRANCH  39  40
ATOM     40  C   UNL     1       4.186   8.144   9.676  1.00  0.00     0.026 C 
BRANCH  40  41
ATOM     41  C   UNL     1       4.057   6.621   9.666  1.00  0.00     0.146 C 
BRANCH  41  42
ATOM     42  N   UNL     1       2.753   6.241   9.137  1.00  0.00    -0.254 NA
ATOM     43  C   UNL     1       1.846   5.816   9.934  1.00  0.00     0.185 C 
ATOM     44  N   UNL     1       1.877   5.645  11.269  1.00  0.00    -0.370 N 
ATOM     45  N   UNL     1       0.653   5.467   9.427  1.00  0.00    -0.370 N 
ATOM     46  H   UNL     1       1.185   5.079  11.729  1.00  0.00     0.159 HD
ATOM     47  H   UNL     1       2.701   5.874  11.816  1.00  0.00     0.159 HD
ATOM     48  H   UNL     1       0.542   5.574   8.427  1.00  0.00     0.159 HD
ATOM     49  H   UNL     1      -0.169   5.356   9.994  1.00  0.00     0.159 HD
ENDBRANCH  41  42
ENDBRANCH  40  41
ENDBRANCH  39  40
ENDBRANCH  38  39
ENDBRANCH  36  38
ENDBRANCH   5  34
BRANCH   8  50
ATOM     50  O   UNL     1       0.528   9.380   6.404  1.00  0.00    -0.245 OA
BRANCH  50  51
ATOM     51  S   UNL     1      -0.067   7.909   6.764  1.00  0.00     0.397 S 
ATOM     52  O   UNL     1      -0.969   7.520   5.703  1.00  0.00    -0.169 OA
ATOM     53  O   UNL     1      -0.470   7.875   8.154  1.00  0.00    -0.169 OA
BRANCH  51  54
ATOM     54  O   UNL     1       1.230   6.973   6.601  1.00  0.00    -0.264 OA
ATOM     55  H   UNL     1       1.319   6.749   5.652  1.00  0.00     0.236 HD
ENDBRANCH  51  54
ENDBRANCH  50  51
ENDBRANCH   8  50
TORSDOF 19
ENDMDL
