MODEL 1
REMARK VINA RESULT:    -6.868      0.000      0.000
REMARK INTER + INTRA:         -25.888
REMARK INTER:                 -19.717
REMARK INTRA:                  -6.171
REMARK UNBOUND:                -6.171
REMARK SMILES CCCCCC(=O)N[C@H](CC(=O)O)C(=O)N[C@H]1C(=O)N[C@H](CCCN=C(N)N)C(=O)N[C@@H]2CC[C@H](O)N(C2=O)[C@@H](CC(C)C)C(=O)N(C)[C@@H](Cc2ccccc2)C(=O)N[C@H](C(C)C)C(=O)O[C@@H]1C
REMARK SMILES IDX 30 1 31 2 29 3 32 5 35 6 37 7 34 8 38 9 33 10 39 11 36 12
REMARK SMILES IDX 40 14 41 15 42 16 43 17 44 18 45 19 46 20 47 21 48 22 49 23
REMARK SMILES IDX 50 24 51 25 52 26 56 27 53 28 55 29 54 30 57 31 58 32 59 33
REMARK SMILES IDX 60 35 61 36 62 37 63 38 64 39 65 40 66 41 67 42 68 43 21 45
REMARK SMILES IDX 20 46 18 47 19 48 17 50 16 52 14 53 15 54 9 56 8 57 6 58
REMARK SMILES IDX 7 59 5 61 4 62 3 63 2 64 1 65 10 66 11 67 12 68 13 69 22 71
REMARK SMILES IDX 23 72 24 73 25 74 26 75 27 76 28 77
REMARK H PARENT 31 4 36 13 59 34 20 49 16 55 8 60 13 70 27 78 27 79 28 80
REMARK H PARENT 28 81
REMARK Flexibility Score:  259.900
ROOT
ATOM      1  O   UNL     1     -11.967   6.832   4.390  1.00  0.00    -0.273 OA
ATOM      2  N   UNL     1     -11.992   7.790   6.466  1.00  0.00    -0.343 N 
ATOM      3  C   UNL     1     -11.372   7.424   5.291  1.00  0.00     0.243 C 
ATOM      4  H   UNL     1     -11.475   8.290   7.179  1.00  0.00     0.164 HD
ENDROOT
BRANCH   2   5
ATOM      5  C   UNL     1     -13.364   7.380   6.741  1.00  0.00     0.171 C 
ATOM      6  C   UNL     1     -14.838   6.978   9.205  1.00  0.00     0.214 C 
ATOM      7  N   UNL     1     -14.133   5.867   8.610  1.00  0.00    -0.303 N 
ATOM      8  C   UNL     1     -15.329   7.994   8.186  1.00  0.00     0.057 C 
ATOM      9  C   UNL     1     -13.368   6.001   7.462  1.00  0.00     0.247 C 
ATOM     10  C   UNL     1     -14.159   8.517   7.380  1.00  0.00     0.040 C 
ATOM     11  O   UNL     1     -12.697   5.066   7.008  1.00  0.00    -0.272 OA
BRANCH   6  12
ATOM     12  O   UNL     1     -13.974   7.590  10.134  1.00  0.00    -0.373 OA
ATOM     13  H   UNL     1     -14.293   7.344  11.028  1.00  0.00     0.213 HD
ENDBRANCH   6  12
BRANCH   7  14
ATOM     14  C   UNL     1     -14.134   4.593   9.360  1.00  0.00     0.177 C 
BRANCH  14  15
ATOM     15  C   UNL     1     -13.729   4.703  10.842  1.00  0.00     0.038 C 
BRANCH  15  16
ATOM     16  C   UNL     1     -14.701   4.207  11.936  1.00  0.00    -0.015 C 
ATOM     17  C   UNL     1     -15.492   5.352  12.577  1.00  0.00     0.007 C 
ATOM     18  C   UNL     1     -13.915   3.489  13.040  1.00  0.00     0.007 C 
ENDBRANCH  15  16
ENDBRANCH  14  15
BRANCH  14  19
ATOM     19  C   UNL     1     -15.229   3.627   8.788  1.00  0.00     0.245 C 
ATOM     20  O   UNL     1     -16.391   4.066   8.739  1.00  0.00    -0.272 OA
BRANCH  19  21
ATOM     21  N   UNL     1     -14.993   2.306   8.451  1.00  0.00    -0.332 N 
ATOM     22  C   UNL     1     -15.975   1.238   8.492  1.00  0.00     0.147 C 
BRANCH  21  23
ATOM     23  C   UNL     1     -13.618   1.934   8.020  1.00  0.00     0.178 C 
BRANCH  23  24
ATOM     24  C   UNL     1     -13.060   0.654   8.676  1.00  0.00     0.070 C 
BRANCH  24  25
ATOM     25  C   UNL     1     -11.649   0.715   9.213  1.00  0.00    -0.045 A 
ATOM     26  C   UNL     1     -11.282   1.679  10.161  1.00  0.00     0.004 A 
ATOM     27  C   UNL     1     -10.681  -0.195   8.762  1.00  0.00     0.004 A 
ATOM     28  C   UNL     1      -9.972   1.739  10.639  1.00  0.00     0.000 A 
ATOM     29  C   UNL     1      -9.371  -0.135   9.242  1.00  0.00     0.000 A 
ATOM     30  C   UNL     1      -9.017   0.835  10.178  1.00  0.00     0.000 A 
ENDBRANCH  24  25
ENDBRANCH  23  24
BRANCH  23  31
ATOM     31  C   UNL     1     -13.422   2.018   6.487  1.00  0.00     0.243 C 
ATOM     32  O   UNL     1     -14.344   2.007   5.676  1.00  0.00    -0.273 OA
ATOM     33  N   UNL     1     -12.098   1.921   6.093  1.00  0.00    -0.341 N 
ATOM     34  H   UNL     1     -11.375   1.929   6.816  1.00  0.00     0.164 HD
BRANCH  33  35
ATOM     35  C   UNL     1     -11.686   1.859   4.688  1.00  0.00     0.194 C 
BRANCH  35  36
ATOM     36  C   UNL     1     -11.622   0.417   4.108  1.00  0.00     0.017 C 
ATOM     37  C   UNL     1     -12.840   0.117   3.218  1.00  0.00     0.010 C 
ATOM     38  C   UNL     1     -11.566  -0.667   5.191  1.00  0.00     0.010 C 
ENDBRANCH  35  36
BRANCH  35  39
ATOM     39  C   UNL     1     -10.380   2.654   4.412  1.00  0.00     0.329 C 
ATOM     40  O   UNL     1      -9.640   2.449   3.456  1.00  0.00    -0.250 OA
BRANCH  39  41
ATOM     41  O   UNL     1     -10.190   3.669   5.309  1.00  0.00    -0.458 OA
BRANCH  41  42
ATOM     42  C   UNL     1      -9.038   3.549   6.178  1.00  0.00     0.205 CG0
ATOM     43  C   UNL     1      -9.519   3.803   7.605  1.00  0.00     0.056 C 
ATOM     44  G   UNL     1      -7.973   4.567   5.725  1.00  0.00     0.000 G0
ENDBRANCH  41  42
ENDBRANCH  39  41
ENDBRANCH  35  39
ENDBRANCH  33  35
ENDBRANCH  23  31
ENDBRANCH  21  23
ENDBRANCH  19  21
ENDBRANCH  14  19
ENDBRANCH   7  14
ENDBRANCH   2   5
BRANCH   3  45
ATOM     45  C   UNL     1      -9.895   7.825   5.174  1.00  0.00     0.171 C 
BRANCH  45  46
ATOM     46  N   UNL     1      -9.140   6.717   5.743  1.00  0.00    -0.342 N 
ATOM     47  C   UNL     1      -8.591   5.726   4.968  1.00  0.00     0.247 C 
ATOM     48  O   UNL     1      -8.632   5.740   3.737  1.00  0.00    -0.273 OA
ATOM     49  H   UNL     1      -9.033   6.697   6.755  1.00  0.00     0.164 HD
BRANCH  47  50
ATOM     50  C   UNL     1      -7.939   4.576   5.749  1.00  0.00     0.212 CG0
ATOM     51  G   UNL     1      -9.056   3.593   6.152  1.00  0.00     0.000 G0
BRANCH  50  52
ATOM     52  N   UNL     1      -6.958   3.993   4.838  1.00  0.00    -0.339 N 
ATOM     53  C   UNL     1      -5.611   3.951   5.105  1.00  0.00     0.243 C 
ATOM     54  O   UNL     1      -5.119   4.451   6.113  1.00  0.00    -0.273 OA
ATOM     55  H   UNL     1      -7.290   3.662   3.935  1.00  0.00     0.164 HD
BRANCH  53  56
ATOM     56  C   UNL     1      -4.762   3.366   3.958  1.00  0.00     0.182 C 
BRANCH  56  57
ATOM     57  N   UNL     1      -3.987   4.416   3.289  1.00  0.00    -0.344 N 
ATOM     58  C   UNL     1      -4.541   5.617   2.917  1.00  0.00     0.220 C 
ATOM     59  O   UNL     1      -5.734   5.866   3.051  1.00  0.00    -0.275 OA
ATOM     60  H   UNL     1      -2.979   4.291   3.252  1.00  0.00     0.164 HD
BRANCH  58  61
ATOM     61  C   UNL     1      -3.540   6.573   2.295  1.00  0.00     0.100 C 
BRANCH  61  62
ATOM     62  C   UNL     1      -3.793   8.041   2.642  1.00  0.00     0.010 C 
BRANCH  62  63
ATOM     63  C   UNL     1      -4.161   8.916   1.437  1.00  0.00     0.000 C 
BRANCH  63  64
ATOM     64  C   UNL     1      -5.155  10.033   1.755  1.00  0.00    -0.003 C 
ATOM     65  C   UNL     1      -6.457   9.476   2.311  1.00  0.00     0.004 C 
ENDBRANCH  63  64
ENDBRANCH  62  63
ENDBRANCH  61  62
ENDBRANCH  58  61
ENDBRANCH  56  57
BRANCH  56  66
ATOM     66  C   UNL     1      -5.620   2.569   2.976  1.00  0.00     0.157 C 
BRANCH  66  67
ATOM     67  C   UNL     1      -5.875   1.179   3.482  1.00  0.00     0.305 C 
ATOM     68  O   UNL     1      -5.119   0.222   3.408  1.00  0.00    -0.252 OA
BRANCH  67  69
ATOM     69  O   UNL     1      -7.061   1.072   4.110  1.00  0.00    -0.481 OA
ATOM     70  H   UNL     1      -6.861   1.241   5.054  1.00  0.00     0.296 HD
ENDBRANCH  67  69
ENDBRANCH  66  67
ENDBRANCH  56  66
ENDBRANCH  53  56
ENDBRANCH  50  52
ENDBRANCH  47  50
ENDBRANCH  45  46
BRANCH  45  71
ATOM     71  C   UNL     1      -9.636   9.133   5.930  1.00  0.00     0.037 C 
BRANCH  71  72
ATOM     72  C   UNL     1      -9.123  10.240   5.006  1.00  0.00     0.026 C 
BRANCH  72  73
ATOM     73  C   UNL     1     -10.268  11.092   4.462  1.00  0.00     0.146 C 
BRANCH  73  74
ATOM     74  N   UNL     1     -11.374  11.012   5.410  1.00  0.00    -0.254 NA
ATOM     75  C   UNL     1     -12.424  11.706   5.166  1.00  0.00     0.185 C 
ATOM     76  N   UNL     1     -13.459  11.652   6.020  1.00  0.00    -0.370 N 
ATOM     77  N   UNL     1     -12.672  12.527   4.131  1.00  0.00    -0.370 N 
ATOM     78  H   UNL     1     -13.352  11.062   6.832  1.00  0.00     0.159 HD
ATOM     79  H   UNL     1     -14.248  12.272   5.973  1.00  0.00     0.159 HD
ATOM     80  H   UNL     1     -11.983  12.663   3.407  1.00  0.00     0.159 HD
ATOM     81  H   UNL     1     -13.582  12.932   3.984  1.00  0.00     0.159 HD
ENDBRANCH  73  74
ENDBRANCH  72  73
ENDBRANCH  71  72
ENDBRANCH  45  71
ENDBRANCH   3  45
TORSDOF 20
ENDMDL
MODEL 2
REMARK VINA RESULT:    -6.745      2.982      6.866
REMARK INTER + INTRA:         -25.534
REMARK INTER:                 -20.901
REMARK INTRA:                  -4.633
REMARK UNBOUND:                -6.171
REMARK SMILES CCCCCC(=O)N[C@H](CC(=O)O)C(=O)N[C@H]1C(=O)N[C@H](CCCN=C(N)N)C(=O)N[C@@H]2CC[C@H](O)N(C2=O)[C@@H](CC(C)C)C(=O)N(C)[C@@H](Cc2ccccc2)C(=O)N[C@H](C(C)C)C(=O)O[C@@H]1C
REMARK SMILES IDX 30 1 31 2 29 3 32 5 35 6 37 7 34 8 38 9 33 10 39 11 36 12
REMARK SMILES IDX 40 14 41 15 42 16 43 17 44 18 45 19 46 20 47 21 48 22 49 23
REMARK SMILES IDX 50 24 51 25 52 26 56 27 53 28 55 29 54 30 57 31 58 32 59 33
REMARK SMILES IDX 60 35 61 36 62 37 63 38 64 39 65 40 66 41 67 42 68 43 21 45
REMARK SMILES IDX 20 46 18 47 19 48 17 50 16 52 14 53 15 54 9 56 8 57 6 58
REMARK SMILES IDX 7 59 5 61 4 62 3 63 2 64 1 65 10 66 11 67 12 68 13 69 22 71
REMARK SMILES IDX 23 72 24 73 25 74 26 75 27 76 28 77
REMARK H PARENT 31 4 36 13 59 34 20 49 16 55 8 60 13 70 27 78 27 79 28 80
REMARK H PARENT 28 81
REMARK Flexibility Score:  259.900
ROOT
ATOM      1  O   UNL     1     -14.208   1.206   4.582  1.00  0.00    -0.273 OA
ATOM      2  N   UNL     1     -13.620  -0.233   6.260  1.00  0.00    -0.343 N 
ATOM      3  C   UNL     1     -13.488   0.296   4.994  1.00  0.00     0.243 C 
ATOM      4  H   UNL     1     -13.000  -0.971   6.570  1.00  0.00     0.164 HD
ENDROOT
BRANCH   2   5
ATOM      5  C   UNL     1     -14.710   0.191   7.132  1.00  0.00     0.171 C 
ATOM      6  C   UNL     1     -16.475   2.490   7.092  1.00  0.00     0.214 C 
ATOM      7  N   UNL     1     -15.237   2.559   7.832  1.00  0.00    -0.303 N 
ATOM      8  C   UNL     1     -17.057   1.087   7.020  1.00  0.00     0.057 C 
ATOM      9  C   UNL     1     -14.325   1.516   7.851  1.00  0.00     0.247 C 
ATOM     10  C   UNL     1     -16.049   0.146   6.397  1.00  0.00     0.040 C 
ATOM     11  O   UNL     1     -13.227   1.614   8.416  1.00  0.00    -0.272 OA
BRANCH   6  12
ATOM     12  O   UNL     1     -16.231   2.989   5.798  1.00  0.00    -0.373 OA
ATOM     13  H   UNL     1     -15.305   3.310   5.783  1.00  0.00     0.213 HD
ENDBRANCH   6  12
BRANCH   7  14
ATOM     14  C   UNL     1     -14.902   3.854   8.460  1.00  0.00     0.177 C 
BRANCH  14  15
ATOM     15  C   UNL     1     -14.929   3.863  10.001  1.00  0.00     0.038 C 
BRANCH  15  16
ATOM     16  C   UNL     1     -16.133   4.492  10.737  1.00  0.00    -0.015 C 
ATOM     17  C   UNL     1     -15.983   6.005  10.916  1.00  0.00     0.007 C 
ATOM     18  C   UNL     1     -16.282   3.856  12.125  1.00  0.00     0.007 C 
ENDBRANCH  15  16
ENDBRANCH  14  15
BRANCH  14  19
ATOM     19  C   UNL     1     -13.884   4.644   7.567  1.00  0.00     0.245 C 
ATOM     20  O   UNL     1     -13.854   4.351   6.360  1.00  0.00    -0.272 OA
BRANCH  19  21
ATOM     21  N   UNL     1     -12.963   5.549   8.063  1.00  0.00    -0.332 N 
ATOM     22  C   UNL     1     -13.238   6.577   9.051  1.00  0.00     0.147 C 
BRANCH  21  23
ATOM     23  C   UNL     1     -11.570   5.481   7.541  1.00  0.00     0.178 C 
BRANCH  23  24
ATOM     24  C   UNL     1     -11.015   6.816   7.004  1.00  0.00     0.070 C 
BRANCH  24  25
ATOM     25  C   UNL     1     -10.647   6.870   5.540  1.00  0.00    -0.045 A 
ATOM     26  C   UNL     1      -9.534   7.602   5.106  1.00  0.00     0.004 A 
ATOM     27  C   UNL     1     -11.422   6.188   4.590  1.00  0.00     0.004 A 
ATOM     28  C   UNL     1      -9.210   7.661   3.749  1.00  0.00     0.000 A 
ATOM     29  C   UNL     1     -11.096   6.246   3.234  1.00  0.00     0.000 A 
ATOM     30  C   UNL     1      -9.992   6.985   2.815  1.00  0.00     0.000 A 
ENDBRANCH  24  25
ENDBRANCH  23  24
BRANCH  23  31
ATOM     31  C   UNL     1     -10.611   4.706   8.477  1.00  0.00     0.243 C 
ATOM     32  O   UNL     1     -10.866   4.433   9.647  1.00  0.00    -0.273 OA
ATOM     33  N   UNL     1      -9.353   4.505   7.936  1.00  0.00    -0.341 N 
ATOM     34  H   UNL     1      -9.199   4.759   6.957  1.00  0.00     0.164 HD
BRANCH  33  35
ATOM     35  C   UNL     1      -8.248   3.900   8.685  1.00  0.00     0.194 C 
BRANCH  35  36
ATOM     36  C   UNL     1      -6.845   4.447   8.300  1.00  0.00     0.017 C 
ATOM     37  C   UNL     1      -6.495   5.709   9.107  1.00  0.00     0.010 C 
ATOM     38  C   UNL     1      -6.723   4.804   6.814  1.00  0.00     0.010 C 
ENDBRANCH  35  36
BRANCH  35  39
ATOM     39  C   UNL     1      -8.292   2.347   8.665  1.00  0.00     0.329 C 
ATOM     40  O   UNL     1      -8.860   1.665   9.510  1.00  0.00    -0.250 OA
BRANCH  39  41
ATOM     41  O   UNL     1      -7.699   1.825   7.548  1.00  0.00    -0.458 OA
BRANCH  41  42
ATOM     42  C   UNL     1      -8.386   0.719   6.915  1.00  0.00     0.205 CG0
ATOM     43  C   UNL     1      -7.319  -0.212   6.344  1.00  0.00     0.056 C 
ATOM     44  G   UNL     1      -9.322   1.281   5.826  1.00  0.00     0.000 G0
ENDBRANCH  41  42
ENDBRANCH  39  41
ENDBRANCH  35  39
ENDBRANCH  33  35
ENDBRANCH  23  31
ENDBRANCH  21  23
ENDBRANCH  19  21
ENDBRANCH  14  19
ENDBRANCH   7  14
ENDBRANCH   2   5
BRANCH   3  45
ATOM     45  C   UNL     1     -12.368  -0.315   4.140  1.00  0.00     0.171 C 
BRANCH  45  46
ATOM     46  N   UNL     1     -11.172   0.457   4.450  1.00  0.00    -0.342 N 
ATOM     47  C   UNL     1     -10.488   0.312   5.631  1.00  0.00     0.247 C 
ATOM     48  O   UNL     1     -10.789  -0.528   6.479  1.00  0.00    -0.273 OA
ATOM     49  H   UNL     1     -10.854   1.124   3.750  1.00  0.00     0.164 HD
BRANCH  47  50
ATOM     50  C   UNL     1      -9.327   1.296   5.834  1.00  0.00     0.212 CG0
ATOM     51  G   UNL     1      -8.392   0.700   6.905  1.00  0.00     0.000 G0
BRANCH  50  52
ATOM     52  N   UNL     1      -8.694   1.428   4.524  1.00  0.00    -0.339 N 
ATOM     53  C   UNL     1      -8.613   2.616   3.840  1.00  0.00     0.243 C 
ATOM     54  O   UNL     1      -9.118   3.655   4.257  1.00  0.00    -0.273 OA
ATOM     55  H   UNL     1      -8.354   0.579   4.076  1.00  0.00     0.164 HD
BRANCH  53  56
ATOM     56  C   UNL     1      -7.978   2.492   2.440  1.00  0.00     0.182 C 
BRANCH  56  57
ATOM     57  N   UNL     1      -6.612   3.026   2.433  1.00  0.00    -0.344 N 
ATOM     58  C   UNL     1      -5.546   2.327   2.943  1.00  0.00     0.220 C 
ATOM     59  O   UNL     1      -5.670   1.243   3.504  1.00  0.00    -0.275 OA
ATOM     60  H   UNL     1      -6.451   3.870   1.889  1.00  0.00     0.164 HD
BRANCH  58  61
ATOM     61  C   UNL     1      -4.220   3.045   2.776  1.00  0.00     0.100 C 
BRANCH  61  62
ATOM     62  C   UNL     1      -4.309   4.558   2.981  1.00  0.00     0.010 C 
BRANCH  62  63
ATOM     63  C   UNL     1      -3.250   5.358   2.213  1.00  0.00     0.000 C 
BRANCH  63  64
ATOM     64  C   UNL     1      -3.701   6.758   1.799  1.00  0.00    -0.003 C 
ATOM     65  C   UNL     1      -2.636   7.800   2.112  1.00  0.00     0.004 C 
ENDBRANCH  63  64
ENDBRANCH  62  63
ENDBRANCH  61  62
ENDBRANCH  58  61
ENDBRANCH  56  57
BRANCH  56  66
ATOM     66  C   UNL     1      -8.855   3.137   1.369  1.00  0.00     0.157 C 
BRANCH  66  67
ATOM     67  C   UNL     1      -8.868   2.317   0.110  1.00  0.00     0.305 C 
ATOM     68  O   UNL     1      -8.691   2.721  -1.029  1.00  0.00    -0.252 OA
BRANCH  67  69
ATOM     69  O   UNL     1      -9.054   1.007   0.356  1.00  0.00    -0.481 OA
ATOM     70  H   UNL     1      -8.167   0.671   0.606  1.00  0.00     0.296 HD
ENDBRANCH  67  69
ENDBRANCH  66  67
ENDBRANCH  56  66
ENDBRANCH  53  56
ENDBRANCH  50  52
ENDBRANCH  47  50
ENDBRANCH  45  46
BRANCH  45  71
ATOM     71  C   UNL     1     -12.725  -0.231   2.652  1.00  0.00     0.037 C 
BRANCH  71  72
ATOM     72  C   UNL     1     -11.837  -1.137   1.795  1.00  0.00     0.026 C 
BRANCH  72  73
ATOM     73  C   UNL     1     -11.627  -0.556   0.398  1.00  0.00     0.146 C 
BRANCH  73  74
ATOM     74  N   UNL     1     -10.931  -1.558  -0.402  1.00  0.00    -0.254 NA
ATOM     75  C   UNL     1     -11.282  -1.696  -1.627  1.00  0.00     0.185 C 
ATOM     76  N   UNL     1     -10.659  -2.609  -2.390  1.00  0.00    -0.370 N 
ATOM     77  N   UNL     1     -12.230  -1.034  -2.314  1.00  0.00    -0.370 N 
ATOM     78  H   UNL     1      -9.936  -3.158  -1.948  1.00  0.00     0.159 HD
ATOM     79  H   UNL     1     -10.975  -2.873  -3.307  1.00  0.00     0.159 HD
ATOM     80  H   UNL     1     -12.778  -0.314  -1.869  1.00  0.00     0.159 HD
ATOM     81  H   UNL     1     -12.339  -1.149  -3.308  1.00  0.00     0.159 HD
ENDBRANCH  73  74
ENDBRANCH  72  73
ENDBRANCH  71  72
ENDBRANCH  45  71
ENDBRANCH   3  45
TORSDOF 20
ENDMDL
MODEL 3
REMARK VINA RESULT:    -6.674      3.090      9.447
REMARK INTER + INTRA:         -25.332
REMARK INTER:                 -18.768
REMARK INTRA:                  -6.564
REMARK UNBOUND:                -6.171
REMARK SMILES CCCCCC(=O)N[C@H](CC(=O)O)C(=O)N[C@H]1C(=O)N[C@H](CCCN=C(N)N)C(=O)N[C@@H]2CC[C@H](O)N(C2=O)[C@@H](CC(C)C)C(=O)N(C)[C@@H](Cc2ccccc2)C(=O)N[C@H](C(C)C)C(=O)O[C@@H]1C
REMARK SMILES IDX 30 1 31 2 29 3 32 5 35 6 37 7 34 8 38 9 33 10 39 11 36 12
REMARK SMILES IDX 40 14 41 15 42 16 43 17 44 18 45 19 46 20 47 21 48 22 49 23
REMARK SMILES IDX 50 24 51 25 52 26 56 27 53 28 55 29 54 30 57 31 58 32 59 33
REMARK SMILES IDX 60 35 61 36 62 37 63 38 64 39 65 40 66 41 67 42 68 43 21 45
REMARK SMILES IDX 20 46 18 47 19 48 17 50 16 52 14 53 15 54 9 56 8 57 6 58
REMARK SMILES IDX 7 59 5 61 4 62 3 63 2 64 1 65 10 66 11 67 12 68 13 69 22 71
REMARK SMILES IDX 23 72 24 73 25 74 26 75 27 76 28 77
REMARK H PARENT 31 4 36 13 59 34 20 49 16 55 8 60 13 70 27 78 27 79 28 80
REMARK H PARENT 28 81
REMARK Flexibility Score:  259.900
ROOT
ATOM      1  O   UNL     1     -11.440   2.501   5.962  1.00  0.00    -0.273 OA
ATOM      2  N   UNL     1     -12.614   3.471   4.256  1.00  0.00    -0.343 N 
ATOM      3  C   UNL     1     -12.518   2.722   5.409  1.00  0.00     0.243 C 
ATOM      4  H   UNL     1     -13.519   3.644   3.836  1.00  0.00     0.164 HD
ENDROOT
BRANCH   2   5
ATOM      5  C   UNL     1     -11.413   3.937   3.571  1.00  0.00     0.171 C 
ATOM      6  C   UNL     1      -8.587   3.677   4.164  1.00  0.00     0.214 C 
ATOM      7  N   UNL     1      -9.314   4.823   4.657  1.00  0.00    -0.303 N 
ATOM      8  C   UNL     1      -9.141   3.130   2.858  1.00  0.00     0.057 C 
ATOM      9  C   UNL     1     -10.675   4.984   4.453  1.00  0.00     0.247 C 
ATOM     10  C   UNL     1     -10.598   2.762   3.033  1.00  0.00     0.040 C 
ATOM     11  O   UNL     1     -11.307   5.924   4.952  1.00  0.00    -0.272 OA
BRANCH   6  12
ATOM     12  O   UNL     1      -8.617   2.685   5.165  1.00  0.00    -0.373 OA
ATOM     13  H   UNL     1      -9.105   1.919   4.796  1.00  0.00     0.213 HD
ENDBRANCH   6  12
BRANCH   7  14
ATOM     14  C   UNL     1      -8.574   5.763   5.526  1.00  0.00     0.177 C 
BRANCH  14  15
ATOM     15  C   UNL     1      -8.498   7.213   5.008  1.00  0.00     0.038 C 
BRANCH  15  16
ATOM     16  C   UNL     1      -8.054   7.479   3.553  1.00  0.00    -0.015 C 
ATOM     17  C   UNL     1      -7.015   8.600   3.454  1.00  0.00     0.007 C 
ATOM     18  C   UNL     1      -9.269   7.874   2.704  1.00  0.00     0.007 C 
ENDBRANCH  15  16
ENDBRANCH  14  15
BRANCH  14  19
ATOM     19  C   UNL     1      -8.719   5.344   7.029  1.00  0.00     0.245 C 
ATOM     20  O   UNL     1      -9.835   5.509   7.551  1.00  0.00    -0.272 OA
BRANCH  19  21
ATOM     21  N   UNL     1      -7.665   4.916   7.815  1.00  0.00    -0.332 N 
ATOM     22  C   UNL     1      -7.167   5.593   8.999  1.00  0.00     0.147 C 
BRANCH  21  23
ATOM     23  C   UNL     1      -6.965   3.662   7.420  1.00  0.00     0.178 C 
BRANCH  23  24
ATOM     24  C   UNL     1      -5.470   3.835   7.084  1.00  0.00     0.070 C 
BRANCH  24  25
ATOM     25  C   UNL     1      -5.132   4.443   5.743  1.00  0.00    -0.045 A 
ATOM     26  C   UNL     1      -4.980   3.638   4.607  1.00  0.00     0.004 A 
ATOM     27  C   UNL     1      -4.960   5.830   5.618  1.00  0.00     0.004 A 
ATOM     28  C   UNL     1      -4.651   4.206   3.374  1.00  0.00     0.000 A 
ATOM     29  C   UNL     1      -4.632   6.397   4.385  1.00  0.00     0.000 A 
ATOM     30  C   UNL     1      -4.475   5.584   3.265  1.00  0.00     0.000 A 
ENDBRANCH  24  25
ENDBRANCH  23  24
BRANCH  23  31
ATOM     31  C   UNL     1      -7.290   2.470   8.351  1.00  0.00     0.243 C 
ATOM     32  O   UNL     1      -6.475   1.947   9.107  1.00  0.00    -0.273 OA
ATOM     33  N   UNL     1      -8.539   1.916   8.125  1.00  0.00    -0.341 N 
ATOM     34  H   UNL     1      -9.172   2.393   7.479  1.00  0.00     0.164 HD
BRANCH  33  35
ATOM     35  C   UNL     1      -9.012   0.707   8.807  1.00  0.00     0.194 C 
BRANCH  35  36
ATOM     36  C   UNL     1      -8.354  -0.607   8.299  1.00  0.00     0.017 C 
ATOM     37  C   UNL     1      -8.220  -0.609   6.767  1.00  0.00     0.010 C 
ATOM     38  C   UNL     1      -9.135  -1.865   8.694  1.00  0.00     0.010 C 
ENDBRANCH  35  36
BRANCH  35  39
ATOM     39  C   UNL     1     -10.562   0.606   8.837  1.00  0.00     0.329 C 
ATOM     40  O   UNL     1     -11.231   0.058   7.968  1.00  0.00    -0.250 OA
BRANCH  39  41
ATOM     41  O   UNL     1     -11.095   1.121   9.986  1.00  0.00    -0.458 OA
BRANCH  41  42
ATOM     42  C   UNL     1     -11.756   2.403   9.868  1.00  0.00     0.205 CG0
ATOM     43  C   UNL     1     -11.375   3.226  11.097  1.00  0.00     0.056 C 
ATOM     44  G   UNL     1     -13.276   2.165   9.766  1.00  0.00     0.000 G0
ENDBRANCH  41  42
ENDBRANCH  39  41
ENDBRANCH  35  39
ENDBRANCH  33  35
ENDBRANCH  23  31
ENDBRANCH  21  23
ENDBRANCH  19  21
ENDBRANCH  14  19
ENDBRANCH   7  14
ENDBRANCH   2   5
BRANCH   3  45
ATOM     45  C   UNL     1     -13.849   2.202   5.968  1.00  0.00     0.171 C 
BRANCH  45  46
ATOM     46  N   UNL     1     -13.576   1.822   7.347  1.00  0.00    -0.342 N 
ATOM     47  C   UNL     1     -13.760   2.684   8.399  1.00  0.00     0.247 C 
ATOM     48  O   UNL     1     -14.237   3.811   8.263  1.00  0.00    -0.273 OA
ATOM     49  H   UNL     1     -13.232   0.877   7.511  1.00  0.00     0.164 HD
BRANCH  47  50
ATOM     50  C   UNL     1     -13.301   2.152   9.764  1.00  0.00     0.212 CG0
ATOM     51  G   UNL     1     -11.781   2.385   9.870  1.00  0.00     0.000 G0
BRANCH  50  52
ATOM     52  N   UNL     1     -14.071   2.901  10.753  1.00  0.00    -0.339 N 
ATOM     53  C   UNL     1     -14.900   2.308  11.674  1.00  0.00     0.243 C 
ATOM     54  O   UNL     1     -15.099   1.097  11.701  1.00  0.00    -0.273 OA
ATOM     55  H   UNL     1     -14.034   3.918  10.709  1.00  0.00     0.164 HD
BRANCH  53  56
ATOM     56  C   UNL     1     -15.674   3.307  12.557  1.00  0.00     0.182 C 
BRANCH  56  57
ATOM     57  N   UNL     1     -15.391   4.690  12.160  1.00  0.00    -0.344 N 
ATOM     58  C   UNL     1     -15.978   5.276  11.065  1.00  0.00     0.220 C 
ATOM     59  O   UNL     1     -16.721   4.666  10.304  1.00  0.00    -0.275 OA
ATOM     60  H   UNL     1     -14.864   5.260  12.817  1.00  0.00     0.164 HD
BRANCH  58  61
ATOM     61  C   UNL     1     -15.585   6.730  10.878  1.00  0.00     0.100 C 
BRANCH  61  62
ATOM     62  C   UNL     1     -15.697   7.217   9.433  1.00  0.00     0.010 C 
BRANCH  62  63
ATOM     63  C   UNL     1     -17.025   7.913   9.107  1.00  0.00     0.000 C 
BRANCH  63  64
ATOM     64  C   UNL     1     -17.396   7.892   7.625  1.00  0.00    -0.003 C 
ATOM     65  C   UNL     1     -17.174   9.251   6.978  1.00  0.00     0.004 C 
ENDBRANCH  63  64
ENDBRANCH  62  63
ENDBRANCH  61  62
ENDBRANCH  58  61
ENDBRANCH  56  57
BRANCH  56  66
ATOM     66  C   UNL     1     -15.405   3.068  14.042  1.00  0.00     0.157 C 
BRANCH  66  67
ATOM     67  C   UNL     1     -14.320   3.972  14.551  1.00  0.00     0.305 C 
ATOM     68  O   UNL     1     -13.140   3.950  14.237  1.00  0.00    -0.252 OA
BRANCH  67  69
ATOM     69  O   UNL     1     -14.789   4.905  15.402  1.00  0.00    -0.481 OA
ATOM     70  H   UNL     1     -15.282   5.535  14.835  1.00  0.00     0.296 HD
ENDBRANCH  67  69
ENDBRANCH  66  67
ENDBRANCH  56  66
ENDBRANCH  53  56
ENDBRANCH  50  52
ENDBRANCH  47  50
ENDBRANCH  45  46
BRANCH  45  71
ATOM     71  C   UNL     1     -14.346   1.011   5.141  1.00  0.00     0.037 C 
BRANCH  71  72
ATOM     72  C   UNL     1     -15.872   0.894   5.159  1.00  0.00     0.026 C 
BRANCH  72  73
ATOM     73  C   UNL     1     -16.531   2.218   5.541  1.00  0.00     0.146 C 
BRANCH  73  74
ATOM     74  N   UNL     1     -17.355   1.983   6.723  1.00  0.00    -0.254 NA
ATOM     75  C   UNL     1     -17.572   2.973   7.508  1.00  0.00     0.185 C 
ATOM     76  N   UNL     1     -18.327   2.788   8.603  1.00  0.00    -0.370 N 
ATOM     77  N   UNL     1     -17.140   4.242   7.407  1.00  0.00    -0.370 N 
ATOM     78  H   UNL     1     -18.686   1.858   8.759  1.00  0.00     0.159 HD
ATOM     79  H   UNL     1     -18.419   3.472   9.334  1.00  0.00     0.159 HD
ATOM     80  H   UNL     1     -16.564   4.529   6.630  1.00  0.00     0.159 HD
ATOM     81  H   UNL     1     -17.471   4.964   8.026  1.00  0.00     0.159 HD
ENDBRANCH  73  74
ENDBRANCH  72  73
ENDBRANCH  71  72
ENDBRANCH  45  71
ENDBRANCH   3  45
TORSDOF 20
ENDMDL
MODEL 4
REMARK VINA RESULT:    -6.608      3.670     11.735
REMARK INTER + INTRA:         -25.140
REMARK INTER:                 -19.558
REMARK INTRA:                  -5.581
REMARK UNBOUND:                -6.171
REMARK SMILES CCCCCC(=O)N[C@H](CC(=O)O)C(=O)N[C@H]1C(=O)N[C@H](CCCN=C(N)N)C(=O)N[C@@H]2CC[C@H](O)N(C2=O)[C@@H](CC(C)C)C(=O)N(C)[C@@H](Cc2ccccc2)C(=O)N[C@H](C(C)C)C(=O)O[C@@H]1C
REMARK SMILES IDX 30 1 31 2 29 3 32 5 35 6 37 7 34 8 38 9 33 10 39 11 36 12
REMARK SMILES IDX 40 14 41 15 42 16 43 17 44 18 45 19 46 20 47 21 48 22 49 23
REMARK SMILES IDX 50 24 51 25 52 26 56 27 53 28 55 29 54 30 57 31 58 32 59 33
REMARK SMILES IDX 60 35 61 36 62 37 63 38 64 39 65 40 66 41 67 42 68 43 21 45
REMARK SMILES IDX 20 46 18 47 19 48 17 50 16 52 14 53 15 54 9 56 8 57 6 58
REMARK SMILES IDX 7 59 5 61 4 62 3 63 2 64 1 65 10 66 11 67 12 68 13 69 22 71
REMARK SMILES IDX 23 72 24 73 25 74 26 75 27 76 28 77
REMARK H PARENT 31 4 36 13 59 34 20 49 16 55 8 60 13 70 27 78 27 79 28 80
REMARK H PARENT 28 81
REMARK Flexibility Score:  259.900
ROOT
ATOM      1  O   UNL     1     -13.980   0.115   5.133  1.00  0.00    -0.273 OA
ATOM      2  N   UNL     1     -12.088   0.896   6.153  1.00  0.00    -0.343 N 
ATOM      3  C   UNL     1     -13.212   0.099   6.095  1.00  0.00     0.243 C 
ATOM      4  H   UNL     1     -11.471   0.846   6.954  1.00  0.00     0.164 HD
ENDROOT
BRANCH   2   5
ATOM      5  C   UNL     1     -11.827   1.889   5.116  1.00  0.00     0.171 C 
ATOM      6  C   UNL     1      -9.379   3.009   4.041  1.00  0.00     0.214 C 
ATOM      7  N   UNL     1     -10.030   3.661   5.154  1.00  0.00    -0.303 N 
ATOM      8  C   UNL     1     -10.346   2.278   3.123  1.00  0.00     0.057 C 
ATOM      9  C   UNL     1     -11.174   3.151   5.748  1.00  0.00     0.247 C 
ATOM     10  C   UNL     1     -11.130   1.255   3.914  1.00  0.00     0.040 C 
ATOM     11  O   UNL     1     -11.676   3.668   6.754  1.00  0.00    -0.272 OA
BRANCH   6  12
ATOM     12  O   UNL     1      -8.426   2.114   4.565  1.00  0.00    -0.373 OA
ATOM     13  H   UNL     1      -8.560   2.087   5.537  1.00  0.00     0.213 HD
ENDBRANCH   6  12
BRANCH   7  14
ATOM     14  C   UNL     1      -9.343   4.831   5.741  1.00  0.00     0.177 C 
BRANCH  14  15
ATOM     15  C   UNL     1      -7.906   4.569   6.231  1.00  0.00     0.038 C 
BRANCH  15  16
ATOM     16  C   UNL     1      -7.675   4.033   7.661  1.00  0.00    -0.015 C 
ATOM     17  C   UNL     1      -7.542   5.157   8.693  1.00  0.00     0.007 C 
ATOM     18  C   UNL     1      -6.393   3.191   7.699  1.00  0.00     0.007 C 
ENDBRANCH  15  16
ENDBRANCH  14  15
BRANCH  14  19
ATOM     19  C   UNL     1      -9.844   6.152   5.062  1.00  0.00     0.245 C 
ATOM     20  O   UNL     1      -9.155   6.598   4.129  1.00  0.00    -0.272 OA
BRANCH  19  21
ATOM     21  N   UNL     1     -10.924   6.889   5.513  1.00  0.00    -0.332 N 
ATOM     22  C   UNL     1     -12.053   7.311   4.703  1.00  0.00     0.147 C 
BRANCH  21  23
ATOM     23  C   UNL     1     -10.938   7.300   6.944  1.00  0.00     0.178 C 
BRANCH  23  24
ATOM     24  C   UNL     1     -10.365   8.706   7.218  1.00  0.00     0.070 C 
BRANCH  24  25
ATOM     25  C   UNL     1     -10.672   9.783   6.203  1.00  0.00    -0.045 A 
ATOM     26  C   UNL     1     -11.936  10.385   6.156  1.00  0.00     0.004 A 
ATOM     27  C   UNL     1      -9.691  10.193   5.288  1.00  0.00     0.004 A 
ATOM     28  C   UNL     1     -12.217  11.368   5.204  1.00  0.00     0.000 A 
ATOM     29  C   UNL     1      -9.973  11.176   4.338  1.00  0.00     0.000 A 
ATOM     30  C   UNL     1     -11.238  11.761   4.295  1.00  0.00     0.000 A 
ENDBRANCH  24  25
ENDBRANCH  23  24
BRANCH  23  31
ATOM     31  C   UNL     1     -12.282   6.996   7.647  1.00  0.00     0.243 C 
ATOM     32  O   UNL     1     -13.277   7.713   7.566  1.00  0.00    -0.273 OA
ATOM     33  N   UNL     1     -12.216   5.934   8.533  1.00  0.00    -0.341 N 
ATOM     34  H   UNL     1     -11.358   5.378   8.560  1.00  0.00     0.164 HD
BRANCH  33  35
ATOM     35  C   UNL     1     -13.334   5.543   9.396  1.00  0.00     0.194 C 
BRANCH  35  36
ATOM     36  C   UNL     1     -13.563   6.489  10.608  1.00  0.00     0.017 C 
ATOM     37  C   UNL     1     -13.070   5.851  11.917  1.00  0.00     0.010 C 
ATOM     38  C   UNL     1     -15.035   6.869  10.808  1.00  0.00     0.010 C 
ENDBRANCH  35  36
BRANCH  35  39
ATOM     39  C   UNL     1     -13.260   4.052   9.830  1.00  0.00     0.329 C 
ATOM     40  O   UNL     1     -12.218   3.413   9.914  1.00  0.00    -0.250 OA
BRANCH  39  41
ATOM     41  O   UNL     1     -14.481   3.555  10.194  1.00  0.00    -0.458 OA
BRANCH  41  42
ATOM     42  C   UNL     1     -15.158   2.736   9.211  1.00  0.00     0.205 CG0
ATOM     43  C   UNL     1     -16.463   3.444   8.851  1.00  0.00     0.056 C 
ATOM     44  G   UNL     1     -15.393   1.337   9.814  1.00  0.00     0.000 G0
ENDBRANCH  41  42
ENDBRANCH  39  41
ENDBRANCH  35  39
ENDBRANCH  33  35
ENDBRANCH  23  31
ENDBRANCH  21  23
ENDBRANCH  19  21
ENDBRANCH  14  19
ENDBRANCH   7  14
ENDBRANCH   2   5
BRANCH   3  45
ATOM     45  C   UNL     1     -13.426  -0.824   7.302  1.00  0.00     0.171 C 
BRANCH  45  46
ATOM     46  N   UNL     1     -13.831   0.047   8.397  1.00  0.00    -0.342 N 
ATOM     47  C   UNL     1     -15.148   0.271   8.710  1.00  0.00     0.247 C 
ATOM     48  O   UNL     1     -16.078  -0.301   8.140  1.00  0.00    -0.273 OA
ATOM     49  H   UNL     1     -13.091   0.497   8.932  1.00  0.00     0.164 HD
BRANCH  47  50
ATOM     50  C   UNL     1     -15.386   1.314   9.812  1.00  0.00     0.212 CG0
ATOM     51  G   UNL     1     -15.154   2.707   9.195  1.00  0.00     0.000 G0
BRANCH  50  52
ATOM     52  N   UNL     1     -16.760   1.102  10.259  1.00  0.00    -0.339 N 
ATOM     53  C   UNL     1     -17.082   0.501  11.452  1.00  0.00     0.243 C 
ATOM     54  O   UNL     1     -16.234   0.044  12.214  1.00  0.00    -0.273 OA
ATOM     55  H   UNL     1     -17.510   1.358   9.621  1.00  0.00     0.164 HD
BRANCH  53  56
ATOM     56  C   UNL     1     -18.597   0.308  11.668  1.00  0.00     0.182 C 
BRANCH  56  57
ATOM     57  N   UNL     1     -18.911  -1.090  11.977  1.00  0.00    -0.344 N 
ATOM     58  C   UNL     1     -19.842  -1.444  12.923  1.00  0.00     0.220 C 
ATOM     59  O   UNL     1     -20.421  -0.621  13.624  1.00  0.00    -0.275 OA
ATOM     60  H   UNL     1     -18.532  -1.796  11.352  1.00  0.00     0.164 HD
BRANCH  58  61
ATOM     61  C   UNL     1     -20.047  -2.943  13.034  1.00  0.00     0.100 C 
BRANCH  61  62
ATOM     62  C   UNL     1     -20.849  -3.543  11.878  1.00  0.00     0.010 C 
BRANCH  62  63
ATOM     63  C   UNL     1     -20.184  -4.756  11.215  1.00  0.00     0.000 C 
BRANCH  63  64
ATOM     64  C   UNL     1     -20.766  -5.122   9.851  1.00  0.00    -0.003 C 
ATOM     65  C   UNL     1     -19.668  -5.344   8.821  1.00  0.00     0.004 C 
ENDBRANCH  63  64
ENDBRANCH  62  63
ENDBRANCH  61  62
ENDBRANCH  58  61
ENDBRANCH  56  57
BRANCH  56  66
ATOM     66  C   UNL     1     -19.403   0.832  10.481  1.00  0.00     0.157 C 
BRANCH  66  67
ATOM     67  C   UNL     1     -19.921  -0.296   9.636  1.00  0.00     0.305 C 
ATOM     68  O   UNL     1     -21.062  -0.732   9.616  1.00  0.00    -0.252 OA
BRANCH  67  69
ATOM     69  O   UNL     1     -18.980  -0.790   8.809  1.00  0.00    -0.481 OA
ATOM     70  H   UNL     1     -19.140  -1.758   8.799  1.00  0.00     0.296 HD
ENDBRANCH  67  69
ENDBRANCH  66  67
ENDBRANCH  56  66
ENDBRANCH  53  56
ENDBRANCH  50  52
ENDBRANCH  47  50
ENDBRANCH  45  46
BRANCH  45  71
ATOM     71  C   UNL     1     -12.134  -1.582   7.630  1.00  0.00     0.037 C 
BRANCH  71  72
ATOM     72  C   UNL     1     -11.649  -1.302   9.055  1.00  0.00     0.026 C 
BRANCH  72  73
ATOM     73  C   UNL     1     -10.125  -1.310   9.139  1.00  0.00     0.146 C 
BRANCH  73  74
ATOM     74  N   UNL     1      -9.602  -1.006   7.811  1.00  0.00    -0.254 NA
ATOM     75  C   UNL     1      -8.503  -0.351   7.735  1.00  0.00     0.185 C 
ATOM     76  N   UNL     1      -7.996  -0.057   6.527  1.00  0.00    -0.370 N 
ATOM     77  N   UNL     1      -7.728   0.118   8.729  1.00  0.00    -0.370 N 
ATOM     78  H   UNL     1      -8.522  -0.367   5.722  1.00  0.00     0.159 HD
ATOM     79  H   UNL     1      -7.224   0.572   6.388  1.00  0.00     0.159 HD
ATOM     80  H   UNL     1      -7.983  -0.033   9.694  1.00  0.00     0.159 HD
ATOM     81  H   UNL     1      -6.823   0.520   8.549  1.00  0.00     0.159 HD
ENDBRANCH  73  74
ENDBRANCH  72  73
ENDBRANCH  71  72
ENDBRANCH  45  71
ENDBRANCH   3  45
TORSDOF 20
ENDMDL
MODEL 5
REMARK VINA RESULT:    -6.507      3.047      9.697
REMARK INTER + INTRA:         -24.851
REMARK INTER:                 -19.556
REMARK INTRA:                  -5.295
REMARK UNBOUND:                -6.171
REMARK SMILES CCCCCC(=O)N[C@H](CC(=O)O)C(=O)N[C@H]1C(=O)N[C@H](CCCN=C(N)N)C(=O)N[C@@H]2CC[C@H](O)N(C2=O)[C@@H](CC(C)C)C(=O)N(C)[C@@H](Cc2ccccc2)C(=O)N[C@H](C(C)C)C(=O)O[C@@H]1C
REMARK SMILES IDX 30 1 31 2 29 3 32 5 35 6 37 7 34 8 38 9 33 10 39 11 36 12
REMARK SMILES IDX 40 14 41 15 42 16 43 17 44 18 45 19 46 20 47 21 48 22 49 23
REMARK SMILES IDX 50 24 51 25 52 26 56 27 53 28 55 29 54 30 57 31 58 32 59 33
REMARK SMILES IDX 60 35 61 36 62 37 63 38 64 39 65 40 66 41 67 42 68 43 21 45
REMARK SMILES IDX 20 46 18 47 19 48 17 50 16 52 14 53 15 54 9 56 8 57 6 58
REMARK SMILES IDX 7 59 5 61 4 62 3 63 2 64 1 65 10 66 11 67 12 68 13 69 22 71
REMARK SMILES IDX 23 72 24 73 25 74 26 75 27 76 28 77
REMARK H PARENT 31 4 36 13 59 34 20 49 16 55 8 60 13 70 27 78 27 79 28 80
REMARK H PARENT 28 81
REMARK Flexibility Score:  259.900
ROOT
ATOM      1  O   UNL     1     -11.581   1.961   6.625  1.00  0.00    -0.273 OA
ATOM      2  N   UNL     1     -13.052   2.966   5.191  1.00  0.00    -0.343 N 
ATOM      3  C   UNL     1     -12.743   2.190   6.287  1.00  0.00     0.243 C 
ATOM      4  H   UNL     1     -14.020   3.146   4.952  1.00  0.00     0.164 HD
ENDROOT
BRANCH   2   5
ATOM      5  C   UNL     1     -12.000   3.457   4.308  1.00  0.00     0.171 C 
ATOM      6  C   UNL     1      -9.108   3.299   4.421  1.00  0.00     0.214 C 
ATOM      7  N   UNL     1      -9.781   4.431   5.013  1.00  0.00    -0.303 N 
ATOM      8  C   UNL     1      -9.853   2.708   3.234  1.00  0.00     0.057 C 
ATOM      9  C   UNL     1     -11.162   4.544   5.039  1.00  0.00     0.247 C 
ATOM     10  C   UNL     1     -11.247   2.298   3.657  1.00  0.00     0.040 C 
ATOM     11  O   UNL     1     -11.733   5.474   5.623  1.00  0.00    -0.272 OA
BRANCH   6  12
ATOM     12  O   UNL     1      -8.935   2.327   5.427  1.00  0.00    -0.373 OA
ATOM     13  H   UNL     1      -9.039   1.450   5.000  1.00  0.00     0.213 HD
ENDBRANCH   6  12
BRANCH   7  14
ATOM     14  C   UNL     1      -8.939   5.411   5.731  1.00  0.00     0.177 C 
BRANCH  14  15
ATOM     15  C   UNL     1      -8.940   6.835   5.140  1.00  0.00     0.038 C 
BRANCH  15  16
ATOM     16  C   UNL     1      -8.402   7.066   3.711  1.00  0.00    -0.015 C 
ATOM     17  C   UNL     1      -7.695   8.416   3.564  1.00  0.00     0.007 C 
ATOM     18  C   UNL     1      -9.561   7.019   2.706  1.00  0.00     0.007 C 
ENDBRANCH  15  16
ENDBRANCH  14  15
BRANCH  14  19
ATOM     19  C   UNL     1      -8.882   5.064   7.258  1.00  0.00     0.245 C 
ATOM     20  O   UNL     1      -9.948   5.145   7.891  1.00  0.00    -0.272 OA
BRANCH  19  21
ATOM     21  N   UNL     1      -7.712   4.787   7.943  1.00  0.00    -0.332 N 
ATOM     22  C   UNL     1      -7.166   5.579   9.031  1.00  0.00     0.147 C 
BRANCH  21  23
ATOM     23  C   UNL     1      -6.933   3.587   7.533  1.00  0.00     0.178 C 
BRANCH  23  24
ATOM     24  C   UNL     1      -5.467   3.870   7.146  1.00  0.00     0.070 C 
BRANCH  24  25
ATOM     25  C   UNL     1      -5.219   4.476   5.784  1.00  0.00    -0.045 A 
ATOM     26  C   UNL     1      -5.198   3.674   4.636  1.00  0.00     0.004 A 
ATOM     27  C   UNL     1      -5.000   5.855   5.652  1.00  0.00     0.004 A 
ATOM     28  C   UNL     1      -4.952   4.239   3.383  1.00  0.00     0.000 A 
ATOM     29  C   UNL     1      -4.755   6.418   4.399  1.00  0.00     0.000 A 
ATOM     30  C   UNL     1      -4.728   5.609   3.265  1.00  0.00     0.000 A 
ENDBRANCH  24  25
ENDBRANCH  23  24
BRANCH  23  31
ATOM     31  C   UNL     1      -7.135   2.382   8.483  1.00  0.00     0.243 C 
ATOM     32  O   UNL     1      -6.219   1.800   9.058  1.00  0.00    -0.273 OA
ATOM     33  N   UNL     1      -8.430   1.892   8.488  1.00  0.00    -0.341 N 
ATOM     34  H   UNL     1      -9.149   2.418   7.985  1.00  0.00     0.164 HD
BRANCH  33  35
ATOM     35  C   UNL     1      -8.825   0.686   9.220  1.00  0.00     0.194 C 
BRANCH  35  36
ATOM     36  C   UNL     1      -8.492  -0.642   8.483  1.00  0.00     0.017 C 
ATOM     37  C   UNL     1      -8.941  -0.593   7.013  1.00  0.00     0.010 C 
ATOM     38  C   UNL     1      -9.151  -1.870   9.124  1.00  0.00     0.010 C 
ENDBRANCH  35  36
BRANCH  35  39
ATOM     39  C   UNL     1     -10.305   0.732   9.694  1.00  0.00     0.329 C 
ATOM     40  O   UNL     1     -11.206   0.070   9.193  1.00  0.00    -0.250 OA
BRANCH  39  41
ATOM     41  O   UNL     1     -10.475   1.531  10.790  1.00  0.00    -0.458 OA
BRANCH  41  42
ATOM     42  C   UNL     1     -11.245   2.741  10.589  1.00  0.00     0.205 CG0
ATOM     43  C   UNL     1     -10.826   3.731  11.675  1.00  0.00     0.056 C 
ATOM     44  G   UNL     1     -12.744   2.387  10.660  1.00  0.00     0.000 G0
ENDBRANCH  41  42
ENDBRANCH  39  41
ENDBRANCH  35  39
ENDBRANCH  33  35
ENDBRANCH  23  31
ENDBRANCH  21  23
ENDBRANCH  19  21
ENDBRANCH  14  19
ENDBRANCH   7  14
ENDBRANCH   2   5
BRANCH   3  45
ATOM     45  C   UNL     1     -13.946   1.648   7.070  1.00  0.00     0.171 C 
BRANCH  45  46
ATOM     46  N   UNL     1     -13.508   1.561   8.456  1.00  0.00    -0.342 N 
ATOM     47  C   UNL     1     -13.367   2.668   9.255  1.00  0.00     0.247 C 
ATOM     48  O   UNL     1     -13.670   3.803   8.883  1.00  0.00    -0.273 OA
ATOM     49  H   UNL     1     -13.301   0.634   8.822  1.00  0.00     0.164 HD
BRANCH  47  50
ATOM     50  C   UNL     1     -12.776   2.396  10.645  1.00  0.00     0.212 CG0
ATOM     51  G   UNL     1     -11.273   2.732  10.588  1.00  0.00     0.000 G0
BRANCH  50  52
ATOM     52  N   UNL     1     -13.524   3.253  11.561  1.00  0.00    -0.339 N 
ATOM     53  C   UNL     1     -14.607   2.820  12.288  1.00  0.00     0.243 C 
ATOM     54  O   UNL     1     -15.064   1.685  12.182  1.00  0.00    -0.273 OA
ATOM     55  H   UNL     1     -13.263   4.236  11.609  1.00  0.00     0.164 HD
BRANCH  53  56
ATOM     56  C   UNL     1     -15.287   3.926  13.120  1.00  0.00     0.182 C 
BRANCH  56  57
ATOM     57  N   UNL     1     -15.161   5.231  12.464  1.00  0.00    -0.344 N 
ATOM     58  C   UNL     1     -15.761   5.512  11.261  1.00  0.00     0.220 C 
ATOM     59  O   UNL     1     -16.380   4.672  10.617  1.00  0.00    -0.275 OA
ATOM     60  H   UNL     1     -14.744   5.982  13.009  1.00  0.00     0.164 HD
BRANCH  58  61
ATOM     61  C   UNL     1     -15.544   6.941  10.799  1.00  0.00     0.100 C 
BRANCH  61  62
ATOM     62  C   UNL     1     -14.093   7.259  10.439  1.00  0.00     0.010 C 
BRANCH  62  63
ATOM     63  C   UNL     1     -13.834   7.387   8.933  1.00  0.00     0.000 C 
BRANCH  63  64
ATOM     64  C   UNL     1     -12.980   8.593   8.544  1.00  0.00    -0.003 C 
ATOM     65  C   UNL     1     -13.385   9.145   7.185  1.00  0.00     0.004 C 
ENDBRANCH  63  64
ENDBRANCH  62  63
ENDBRANCH  61  62
ENDBRANCH  58  61
ENDBRANCH  56  57
BRANCH  56  66
ATOM     66  C   UNL     1     -14.765   3.948  14.555  1.00  0.00     0.157 C 
BRANCH  66  67
ATOM     67  C   UNL     1     -15.667   3.176  15.474  1.00  0.00     0.305 C 
ATOM     68  O   UNL     1     -16.435   3.637  16.305  1.00  0.00    -0.252 OA
BRANCH  67  69
ATOM     69  O   UNL     1     -15.595   1.848  15.265  1.00  0.00    -0.481 OA
ATOM     70  H   UNL     1     -15.399   1.756  14.308  1.00  0.00     0.296 HD
ENDBRANCH  67  69
ENDBRANCH  66  67
ENDBRANCH  56  66
ENDBRANCH  53  56
ENDBRANCH  50  52
ENDBRANCH  47  50
ENDBRANCH  45  46
BRANCH  45  71
ATOM     71  C   UNL     1     -14.366   0.279   6.523  1.00  0.00     0.037 C 
BRANCH  71  72
ATOM     72  C   UNL     1     -14.062  -0.852   7.508  1.00  0.00     0.026 C 
BRANCH  72  73
ATOM     73  C   UNL     1     -12.852  -1.671   7.064  1.00  0.00     0.146 C 
BRANCH  73  74
ATOM     74  N   UNL     1     -12.547  -1.306   5.684  1.00  0.00    -0.254 NA
ATOM     75  C   UNL     1     -11.778  -2.083   5.014  1.00  0.00     0.185 C 
ATOM     76  N   UNL     1     -11.480  -1.774   3.742  1.00  0.00    -0.370 N 
ATOM     77  N   UNL     1     -11.187  -3.227   5.402  1.00  0.00    -0.370 N 
ATOM     78  H   UNL     1     -11.879  -0.923   3.372  1.00  0.00     0.159 HD
ATOM     79  H   UNL     1     -10.777  -2.252   3.207  1.00  0.00     0.159 HD
ATOM     80  H   UNL     1     -11.325  -3.585   6.335  1.00  0.00     0.159 HD
ATOM     81  H   UNL     1     -10.696  -3.815   4.750  1.00  0.00     0.159 HD
ENDBRANCH  73  74
ENDBRANCH  72  73
ENDBRANCH  71  72
ENDBRANCH  45  71
ENDBRANCH   3  45
TORSDOF 20
ENDMDL
MODEL 6
REMARK VINA RESULT:    -6.462      3.317      9.966
REMARK INTER + INTRA:         -24.721
REMARK INTER:                 -19.148
REMARK INTRA:                  -5.573
REMARK UNBOUND:                -6.171
REMARK SMILES CCCCCC(=O)N[C@H](CC(=O)O)C(=O)N[C@H]1C(=O)N[C@H](CCCN=C(N)N)C(=O)N[C@@H]2CC[C@H](O)N(C2=O)[C@@H](CC(C)C)C(=O)N(C)[C@@H](Cc2ccccc2)C(=O)N[C@H](C(C)C)C(=O)O[C@@H]1C
REMARK SMILES IDX 30 1 31 2 29 3 32 5 35 6 37 7 34 8 38 9 33 10 39 11 36 12
REMARK SMILES IDX 40 14 41 15 42 16 43 17 44 18 45 19 46 20 47 21 48 22 49 23
REMARK SMILES IDX 50 24 51 25 52 26 56 27 53 28 55 29 54 30 57 31 58 32 59 33
REMARK SMILES IDX 60 35 61 36 62 37 63 38 64 39 65 40 66 41 67 42 68 43 21 45
REMARK SMILES IDX 20 46 18 47 19 48 17 50 16 52 14 53 15 54 9 56 8 57 6 58
REMARK SMILES IDX 7 59 5 61 4 62 3 63 2 64 1 65 10 66 11 67 12 68 13 69 22 71
REMARK SMILES IDX 23 72 24 73 25 74 26 75 27 76 28 77
REMARK H PARENT 31 4 36 13 59 34 20 49 16 55 8 60 13 70 27 78 27 79 28 80
REMARK H PARENT 28 81
REMARK Flexibility Score:  259.900
ROOT
ATOM      1  O   UNL     1     -11.491   2.672   5.612  1.00  0.00    -0.273 OA
ATOM      2  N   UNL     1     -12.474   3.706   3.824  1.00  0.00    -0.343 N 
ATOM      3  C   UNL     1     -12.507   2.941   4.970  1.00  0.00     0.243 C 
ATOM      4  H   UNL     1     -13.332   3.919   3.330  1.00  0.00     0.164 HD
ENDROOT
BRANCH   2   5
ATOM      5  C   UNL     1     -11.201   4.132   3.252  1.00  0.00     0.171 C 
ATOM      6  C   UNL     1      -8.451   3.767   4.091  1.00  0.00     0.214 C 
ATOM      7  N   UNL     1      -9.177   4.936   4.529  1.00  0.00    -0.303 N 
ATOM      8  C   UNL     1      -8.905   3.248   2.736  1.00  0.00     0.057 C 
ATOM      9  C   UNL     1     -10.508   5.147   4.206  1.00  0.00     0.247 C 
ATOM     10  C   UNL     1     -10.384   2.932   2.778  1.00  0.00     0.040 C 
ATOM     11  O   UNL     1     -11.148   6.106   4.656  1.00  0.00    -0.272 OA
BRANCH   6  12
ATOM     12  O   UNL     1      -8.604   2.772   5.077  1.00  0.00    -0.373 OA
ATOM     13  H   UNL     1      -8.337   1.920   4.669  1.00  0.00     0.213 HD
ENDBRANCH   6  12
BRANCH   7  14
ATOM     14  C   UNL     1      -8.485   5.844   5.468  1.00  0.00     0.177 C 
BRANCH  14  15
ATOM     15  C   UNL     1      -8.342   7.301   4.987  1.00  0.00     0.038 C 
BRANCH  15  16
ATOM     16  C   UNL     1      -7.935   7.583   3.523  1.00  0.00    -0.015 C 
ATOM     17  C   UNL     1      -6.901   8.707   3.411  1.00  0.00     0.007 C 
ATOM     18  C   UNL     1      -9.171   7.984   2.709  1.00  0.00     0.007 C 
ENDBRANCH  15  16
ENDBRANCH  14  15
BRANCH  14  19
ATOM     19  C   UNL     1      -8.748   5.399   6.947  1.00  0.00     0.245 C 
ATOM     20  O   UNL     1      -9.897   5.573   7.388  1.00  0.00    -0.272 OA
BRANCH  19  21
ATOM     21  N   UNL     1      -7.761   4.939   7.802  1.00  0.00    -0.332 N 
ATOM     22  C   UNL     1      -7.363   5.572   9.047  1.00  0.00     0.147 C 
BRANCH  21  23
ATOM     23  C   UNL     1      -7.031   3.700   7.418  1.00  0.00     0.178 C 
BRANCH  23  24
ATOM     24  C   UNL     1      -5.524   3.894   7.155  1.00  0.00     0.070 C 
BRANCH  24  25
ATOM     25  C   UNL     1      -5.124   4.397   5.787  1.00  0.00    -0.045 A 
ATOM     26  C   UNL     1      -4.852   5.754   5.573  1.00  0.00     0.004 A 
ATOM     27  C   UNL     1      -5.023   3.507   4.707  1.00  0.00     0.004 A 
ATOM     28  C   UNL     1      -4.500   6.214   4.302  1.00  0.00     0.000 A 
ATOM     29  C   UNL     1      -4.669   3.968   3.438  1.00  0.00     0.000 A 
ATOM     30  C   UNL     1      -4.411   5.322   3.236  1.00  0.00     0.000 A 
ENDBRANCH  24  25
ENDBRANCH  23  24
BRANCH  23  31
ATOM     31  C   UNL     1      -7.385   2.489   8.315  1.00  0.00     0.243 C 
ATOM     32  O   UNL     1      -6.601   1.965   9.102  1.00  0.00    -0.273 OA
ATOM     33  N   UNL     1      -8.613   1.923   8.019  1.00  0.00    -0.341 N 
ATOM     34  H   UNL     1      -9.220   2.402   7.350  1.00  0.00     0.164 HD
BRANCH  33  35
ATOM     35  C   UNL     1      -9.102   0.698   8.658  1.00  0.00     0.194 C 
BRANCH  35  36
ATOM     36  C   UNL     1      -8.297  -0.579   8.285  1.00  0.00     0.017 C 
ATOM     37  C   UNL     1      -7.895  -0.572   6.800  1.00  0.00     0.010 C 
ATOM     38  C   UNL     1      -9.069  -1.878   8.546  1.00  0.00     0.010 C 
ENDBRANCH  35  36
BRANCH  35  39
ATOM     39  C   UNL     1     -10.632   0.495   8.469  1.00  0.00     0.329 C 
ATOM     40  O   UNL     1     -11.144   0.056   7.446  1.00  0.00    -0.250 OA
BRANCH  39  41
ATOM     41  O   UNL     1     -11.338   0.779   9.605  1.00  0.00    -0.458 OA
BRANCH  41  42
ATOM     42  C   UNL     1     -12.167   1.965   9.565  1.00  0.00     0.205 CG0
ATOM     43  C   UNL     1     -12.129   2.592  10.957  1.00  0.00     0.056 C 
ATOM     44  G   UNL     1     -13.591   1.557   9.140  1.00  0.00     0.000 G0
ENDBRANCH  41  42
ENDBRANCH  39  41
ENDBRANCH  35  39
ENDBRANCH  33  35
ENDBRANCH  23  31
ENDBRANCH  21  23
ENDBRANCH  19  21
ENDBRANCH  14  19
ENDBRANCH   7  14
ENDBRANCH   2   5
BRANCH   3  45
ATOM     45  C   UNL     1     -13.901   2.468   5.404  1.00  0.00     0.171 C 
BRANCH  45  46
ATOM     46  N   UNL     1     -13.705   1.779   6.673  1.00  0.00    -0.342 N 
ATOM     47  C   UNL     1     -13.967   2.375   7.882  1.00  0.00     0.247 C 
ATOM     48  O   UNL     1     -14.453   3.502   7.980  1.00  0.00    -0.273 OA
ATOM     49  H   UNL     1     -13.357   0.823   6.636  1.00  0.00     0.164 HD
BRANCH  47  50
ATOM     50  C   UNL     1     -13.584   1.543   9.113  1.00  0.00     0.212 CG0
ATOM     51  G   UNL     1     -12.176   1.987   9.558  1.00  0.00     0.000 G0
BRANCH  50  52
ATOM     52  N   UNL     1     -14.617   1.819  10.108  1.00  0.00    -0.339 N 
ATOM     53  C   UNL     1     -15.525   0.881  10.535  1.00  0.00     0.243 C 
ATOM     54  O   UNL     1     -15.571  -0.255  10.071  1.00  0.00    -0.273 OA
ATOM     55  H   UNL     1     -14.701   2.775  10.448  1.00  0.00     0.164 HD
BRANCH  53  56
ATOM     56  C   UNL     1     -16.574   1.429  11.524  1.00  0.00     0.182 C 
BRANCH  56  57
ATOM     57  N   UNL     1     -15.937   2.216  12.585  1.00  0.00    -0.344 N 
ATOM     58  C   UNL     1     -16.025   3.585  12.638  1.00  0.00     0.220 C 
ATOM     59  O   UNL     1     -16.577   4.249  11.768  1.00  0.00    -0.275 OA
ATOM     60  H   UNL     1     -15.559   1.702  13.376  1.00  0.00     0.164 HD
BRANCH  58  61
ATOM     61  C   UNL     1     -15.340   4.185  13.853  1.00  0.00     0.100 C 
BRANCH  61  62
ATOM     62  C   UNL     1     -13.939   4.724  13.567  1.00  0.00     0.010 C 
BRANCH  62  63
ATOM     63  C   UNL     1     -12.858   4.202  14.522  1.00  0.00     0.000 C 
BRANCH  63  64
ATOM     64  C   UNL     1     -11.700   5.172  14.750  1.00  0.00    -0.003 C 
ATOM     65  C   UNL     1     -11.493   5.450  16.232  1.00  0.00     0.004 C 
ENDBRANCH  63  64
ENDBRANCH  62  63
ENDBRANCH  61  62
ENDBRANCH  58  61
ENDBRANCH  56  57
BRANCH  56  66
ATOM     66  C   UNL     1     -17.452   0.311  12.084  1.00  0.00     0.157 C 
BRANCH  66  67
ATOM     67  C   UNL     1     -18.714   0.159  11.284  1.00  0.00     0.305 C 
ATOM     68  O   UNL     1     -18.853   0.366  10.088  1.00  0.00    -0.252 OA
BRANCH  67  69
ATOM     69  O   UNL     1     -19.739  -0.300  12.027  1.00  0.00    -0.481 OA
ATOM     70  H   UNL     1     -20.536   0.120  11.642  1.00  0.00     0.296 HD
ENDBRANCH  67  69
ENDBRANCH  66  67
ENDBRANCH  56  66
ENDBRANCH  53  56
ENDBRANCH  50  52
ENDBRANCH  47  50
ENDBRANCH  45  46
BRANCH  45  71
ATOM     71  C   UNL     1     -14.502   1.538   4.344  1.00  0.00     0.037 C 
BRANCH  71  72
ATOM     72  C   UNL     1     -15.900   1.988   3.911  1.00  0.00     0.026 C 
BRANCH  72  73
ATOM     73  C   UNL     1     -16.991   1.235   4.669  1.00  0.00     0.146 C 
BRANCH  73  74
ATOM     74  N   UNL     1     -16.356   0.139   5.394  1.00  0.00    -0.254 NA
ATOM     75  C   UNL     1     -16.817  -0.160   6.552  1.00  0.00     0.185 C 
ATOM     76  N   UNL     1     -16.254  -1.165   7.243  1.00  0.00    -0.370 N 
ATOM     77  N   UNL     1     -17.833   0.404   7.228  1.00  0.00    -0.370 N 
ATOM     78  H   UNL     1     -15.476  -1.639   6.808  1.00  0.00     0.159 HD
ATOM     79  H   UNL     1     -16.463  -1.359   8.206  1.00  0.00     0.159 HD
ATOM     80  H   UNL     1     -18.353   1.171   6.829  1.00  0.00     0.159 HD
ATOM     81  H   UNL     1     -18.180   0.008   8.086  1.00  0.00     0.159 HD
ENDBRANCH  73  74
ENDBRANCH  72  73
ENDBRANCH  71  72
ENDBRANCH  45  71
ENDBRANCH   3  45
TORSDOF 20
ENDMDL
MODEL 7
REMARK VINA RESULT:    -6.188      1.769      2.381
REMARK INTER + INTRA:         -23.936
REMARK INTER:                 -19.019
REMARK INTRA:                  -4.917
REMARK UNBOUND:                -6.171
REMARK SMILES CCCCCC(=O)N[C@H](CC(=O)O)C(=O)N[C@H]1C(=O)N[C@H](CCCN=C(N)N)C(=O)N[C@@H]2CC[C@H](O)N(C2=O)[C@@H](CC(C)C)C(=O)N(C)[C@@H](Cc2ccccc2)C(=O)N[C@H](C(C)C)C(=O)O[C@@H]1C
REMARK SMILES IDX 30 1 31 2 29 3 32 5 35 6 37 7 34 8 38 9 33 10 39 11 36 12
REMARK SMILES IDX 40 14 41 15 42 16 43 17 44 18 45 19 46 20 47 21 48 22 49 23
REMARK SMILES IDX 50 24 51 25 52 26 56 27 53 28 55 29 54 30 57 31 58 32 59 33
REMARK SMILES IDX 60 35 61 36 62 37 63 38 64 39 65 40 66 41 67 42 68 43 21 45
REMARK SMILES IDX 20 46 18 47 19 48 17 50 16 52 14 53 15 54 9 56 8 57 6 58
REMARK SMILES IDX 7 59 5 61 4 62 3 63 2 64 1 65 10 66 11 67 12 68 13 69 22 71
REMARK SMILES IDX 23 72 24 73 25 74 26 75 27 76 28 77
REMARK H PARENT 31 4 36 13 59 34 20 49 16 55 8 60 13 70 27 78 27 79 28 80
REMARK H PARENT 28 81
REMARK Flexibility Score:  259.900
ROOT
ATOM      1  O   UNL     1     -13.352   8.699   5.374  1.00  0.00    -0.273 OA
ATOM      2  N   UNL     1     -12.522   7.067   6.745  1.00  0.00    -0.343 N 
ATOM      3  C   UNL     1     -12.402   8.007   5.744  1.00  0.00     0.243 C 
ATOM      4  H   UNL     1     -11.715   6.527   7.033  1.00  0.00     0.164 HD
ENDROOT
BRANCH   2   5
ATOM      5  C   UNL     1     -13.824   6.767   7.330  1.00  0.00     0.171 C 
ATOM      6  C   UNL     1     -14.792   6.751  10.063  1.00  0.00     0.214 C 
ATOM      7  N   UNL     1     -14.249   5.539   9.495  1.00  0.00    -0.303 N 
ATOM      8  C   UNL     1     -15.446   7.658   9.033  1.00  0.00     0.057 C 
ATOM      9  C   UNL     1     -13.723   5.490   8.214  1.00  0.00     0.247 C 
ATOM     10  C   UNL     1     -14.445   8.015   7.955  1.00  0.00     0.040 C 
ATOM     11  O   UNL     1     -13.181   4.471   7.766  1.00  0.00    -0.272 OA
BRANCH   6  12
ATOM     12  O   UNL     1     -13.744   7.426  10.719  1.00  0.00    -0.373 OA
ATOM     13  H   UNL     1     -14.155   8.011  11.390  1.00  0.00     0.213 HD
ENDBRANCH   6  12
BRANCH   7  14
ATOM     14  C   UNL     1     -14.138   4.369  10.392  1.00  0.00     0.177 C 
BRANCH  14  15
ATOM     15  C   UNL     1     -13.992   4.702  11.889  1.00  0.00     0.038 C 
BRANCH  15  16
ATOM     16  C   UNL     1     -14.991   4.101  12.903  1.00  0.00    -0.015 C 
ATOM     17  C   UNL     1     -15.627   5.168  13.799  1.00  0.00     0.007 C 
ATOM     18  C   UNL     1     -14.271   3.087  13.801  1.00  0.00     0.007 C 
ENDBRANCH  15  16
ENDBRANCH  14  15
BRANCH  14  19
ATOM     19  C   UNL     1     -14.941   3.157   9.806  1.00  0.00     0.245 C 
ATOM     20  O   UNL     1     -16.015   3.419   9.239  1.00  0.00    -0.272 OA
BRANCH  19  21
ATOM     21  N   UNL     1     -14.578   1.834   9.984  1.00  0.00    -0.332 N 
ATOM     22  C   UNL     1     -15.322   0.852  10.753  1.00  0.00     0.147 C 
BRANCH  21  23
ATOM     23  C   UNL     1     -13.316   1.367   9.347  1.00  0.00     0.178 C 
BRANCH  23  24
ATOM     24  C   UNL     1     -12.459   0.431  10.224  1.00  0.00     0.070 C 
BRANCH  24  25
ATOM     25  C   UNL     1     -11.089   0.063   9.703  1.00  0.00    -0.045 A 
ATOM     26  C   UNL     1     -10.091   1.035   9.558  1.00  0.00     0.004 A 
ATOM     27  C   UNL     1     -10.799  -1.264   9.350  1.00  0.00     0.004 A 
ATOM     28  C   UNL     1      -8.833   0.690   9.060  1.00  0.00     0.000 A 
ATOM     29  C   UNL     1      -9.541  -1.608   8.854  1.00  0.00     0.000 A 
ATOM     30  C   UNL     1      -8.560  -0.630   8.706  1.00  0.00     0.000 A 
ENDBRANCH  24  25
ENDBRANCH  23  24
BRANCH  23  31
ATOM     31  C   UNL     1     -13.515   0.891   7.888  1.00  0.00     0.243 C 
ATOM     32  O   UNL     1     -14.090  -0.149   7.578  1.00  0.00    -0.273 OA
ATOM     33  N   UNL     1     -12.824   1.650   6.960  1.00  0.00    -0.341 N 
ATOM     34  H   UNL     1     -12.359   2.503   7.280  1.00  0.00     0.164 HD
BRANCH  33  35
ATOM     35  C   UNL     1     -12.770   1.314   5.534  1.00  0.00     0.194 C 
BRANCH  35  36
ATOM     36  C   UNL     1     -11.912   0.060   5.209  1.00  0.00     0.017 C 
ATOM     37  C   UNL     1     -10.458   0.239   5.682  1.00  0.00     0.010 C 
ATOM     38  C   UNL     1     -11.869  -0.273   3.713  1.00  0.00     0.010 C 
ENDBRANCH  35  36
BRANCH  35  39
ATOM     39  C   UNL     1     -12.380   2.530   4.648  1.00  0.00     0.329 C 
ATOM     40  O   UNL     1     -13.149   3.090   3.875  1.00  0.00    -0.250 OA
BRANCH  39  41
ATOM     41  O   UNL     1     -11.106   2.962   4.890  1.00  0.00    -0.458 OA
BRANCH  41  42
ATOM     42  C   UNL     1     -10.466   3.701   3.822  1.00  0.00     0.205 CG0
ATOM     43  C   UNL     1      -9.792   2.683   2.905  1.00  0.00     0.056 C 
ATOM     44  G   UNL     1      -9.461   4.692   4.444  1.00  0.00     0.000 G0
ENDBRANCH  41  42
ENDBRANCH  39  41
ENDBRANCH  35  39
ENDBRANCH  33  35
ENDBRANCH  23  31
ENDBRANCH  21  23
ENDBRANCH  19  21
ENDBRANCH  14  19
ENDBRANCH   7  14
ENDBRANCH   2   5
BRANCH   3  45
ATOM     45  C   UNL     1     -10.999   8.148   5.139  1.00  0.00     0.171 C 
BRANCH  45  46
ATOM     46  N   UNL     1     -10.391   6.829   5.244  1.00  0.00    -0.342 N 
ATOM     47  C   UNL     1      -9.962   6.127   4.145  1.00  0.00     0.247 C 
ATOM     48  O   UNL     1      -9.992   6.588   3.004  1.00  0.00    -0.273 OA
ATOM     49  H   UNL     1     -10.295   6.433   6.177  1.00  0.00     0.164 HD
BRANCH  47  50
ATOM     50  C   UNL     1      -9.463   4.705   4.437  1.00  0.00     0.212 CG0
ATOM     51  G   UNL     1     -10.476   3.719   3.823  1.00  0.00     0.000 G0
BRANCH  50  52
ATOM     52  N   UNL     1      -8.137   4.624   3.829  1.00  0.00    -0.339 N 
ATOM     53  C   UNL     1      -7.027   4.166   4.495  1.00  0.00     0.243 C 
ATOM     54  O   UNL     1      -7.053   3.836   5.677  1.00  0.00    -0.273 OA
ATOM     55  H   UNL     1      -8.028   4.988   2.884  1.00  0.00     0.164 HD
BRANCH  53  56
ATOM     56  C   UNL     1      -5.723   4.255   3.676  1.00  0.00     0.182 C 
BRANCH  56  57
ATOM     57  N   UNL     1      -5.509   5.615   3.172  1.00  0.00    -0.344 N 
ATOM     58  C   UNL     1      -4.807   6.560   3.880  1.00  0.00     0.220 C 
ATOM     59  O   UNL     1      -4.374   6.357   5.009  1.00  0.00    -0.275 OA
ATOM     60  H   UNL     1      -5.762   5.793   2.204  1.00  0.00     0.164 HD
BRANCH  58  61
ATOM     61  C   UNL     1      -4.660   7.878   3.142  1.00  0.00     0.100 C 
BRANCH  61  62
ATOM     62  C   UNL     1      -3.218   8.378   3.055  1.00  0.00     0.010 C 
BRANCH  62  63
ATOM     63  C   UNL     1      -2.498   7.993   1.756  1.00  0.00     0.000 C 
BRANCH  63  64
ATOM     64  C   UNL     1      -3.411   7.392   0.688  1.00  0.00    -0.003 C 
ATOM     65  C   UNL     1      -2.855   6.078   0.158  1.00  0.00     0.004 C 
ENDBRANCH  63  64
ENDBRANCH  62  63
ENDBRANCH  61  62
ENDBRANCH  58  61
ENDBRANCH  56  57
BRANCH  56  66
ATOM     66  C   UNL     1      -5.692   3.215   2.557  1.00  0.00     0.157 C 
BRANCH  66  67
ATOM     67  C   UNL     1      -5.325   1.858   3.086  1.00  0.00     0.305 C 
ATOM     68  O   UNL     1      -4.225   1.496   3.474  1.00  0.00    -0.252 OA
BRANCH  67  69
ATOM     69  O   UNL     1      -6.385   1.029   3.149  1.00  0.00    -0.481 OA
ATOM     70  H   UNL     1      -6.992   1.449   3.795  1.00  0.00     0.296 HD
ENDBRANCH  67  69
ENDBRANCH  66  67
ENDBRANCH  56  66
ENDBRANCH  53  56
ENDBRANCH  50  52
ENDBRANCH  47  50
ENDBRANCH  45  46
BRANCH  45  71
ATOM     71  C   UNL     1     -10.193   9.205   5.902  1.00  0.00     0.037 C 
BRANCH  71  72
ATOM     72  C   UNL     1      -9.794  10.381   5.007  1.00  0.00     0.026 C 
BRANCH  72  73
ATOM     73  C   UNL     1      -8.985   9.916   3.798  1.00  0.00     0.146 C 
BRANCH  73  74
ATOM     74  N   UNL     1      -8.003  10.952   3.492  1.00  0.00    -0.254 NA
ATOM     75  C   UNL     1      -7.285  10.805   2.440  1.00  0.00     0.185 C 
ATOM     76  N   UNL     1      -6.373  11.742   2.131  1.00  0.00    -0.370 N 
ATOM     77  N   UNL     1      -7.297   9.805   1.542  1.00  0.00    -0.370 N 
ATOM     78  H   UNL     1      -6.293  12.527   2.761  1.00  0.00     0.159 HD
ATOM     79  H   UNL     1      -5.682  11.625   1.412  1.00  0.00     0.159 HD
ATOM     80  H   UNL     1      -7.936   9.031   1.644  1.00  0.00     0.159 HD
ATOM     81  H   UNL     1      -6.765   9.854   0.689  1.00  0.00     0.159 HD
ENDBRANCH  73  74
ENDBRANCH  72  73
ENDBRANCH  71  72
ENDBRANCH  45  71
ENDBRANCH   3  45
TORSDOF 20
ENDMDL
MODEL 8
REMARK VINA RESULT:    -6.117      3.694     11.685
REMARK INTER + INTRA:         -23.732
REMARK INTER:                 -18.492
REMARK INTRA:                  -5.240
REMARK UNBOUND:                -6.171
REMARK SMILES CCCCCC(=O)N[C@H](CC(=O)O)C(=O)N[C@H]1C(=O)N[C@H](CCCN=C(N)N)C(=O)N[C@@H]2CC[C@H](O)N(C2=O)[C@@H](CC(C)C)C(=O)N(C)[C@@H](Cc2ccccc2)C(=O)N[C@H](C(C)C)C(=O)O[C@@H]1C
REMARK SMILES IDX 30 1 31 2 29 3 32 5 35 6 37 7 34 8 38 9 33 10 39 11 36 12
REMARK SMILES IDX 40 14 41 15 42 16 43 17 44 18 45 19 46 20 47 21 48 22 49 23
REMARK SMILES IDX 50 24 51 25 52 26 56 27 53 28 55 29 54 30 57 31 58 32 59 33
REMARK SMILES IDX 60 35 61 36 62 37 63 38 64 39 65 40 66 41 67 42 68 43 21 45
REMARK SMILES IDX 20 46 18 47 19 48 17 50 16 52 14 53 15 54 9 56 8 57 6 58
REMARK SMILES IDX 7 59 5 61 4 62 3 63 2 64 1 65 10 66 11 67 12 68 13 69 22 71
REMARK SMILES IDX 23 72 24 73 25 74 26 75 27 76 28 77
REMARK H PARENT 31 4 36 13 59 34 20 49 16 55 8 60 13 70 27 78 27 79 28 80
REMARK H PARENT 28 81
REMARK Flexibility Score:  259.900
ROOT
ATOM      1  O   UNL     1     -14.548   0.495   5.341  1.00  0.00    -0.273 OA
ATOM      2  N   UNL     1     -12.414   0.779   6.114  1.00  0.00    -0.343 N 
ATOM      3  C   UNL     1     -13.691   0.267   6.196  1.00  0.00     0.243 C 
ATOM      4  H   UNL     1     -11.731   0.558   6.828  1.00  0.00     0.164 HD
ENDROOT
BRANCH   2   5
ATOM      5  C   UNL     1     -12.058   1.721   5.059  1.00  0.00     0.171 C 
ATOM      6  C   UNL     1      -9.513   2.578   3.967  1.00  0.00     0.214 C 
ATOM      7  N   UNL     1     -10.098   3.311   5.065  1.00  0.00    -0.303 N 
ATOM      8  C   UNL     1     -10.546   1.927   3.061  1.00  0.00     0.057 C 
ATOM      9  C   UNL     1     -11.285   2.926   5.667  1.00  0.00     0.247 C 
ATOM     10  C   UNL     1     -11.426   1.000   3.870  1.00  0.00     0.040 C 
ATOM     11  O   UNL     1     -11.735   3.509   6.663  1.00  0.00    -0.272 OA
BRANCH   6  12
ATOM     12  O   UNL     1      -8.651   1.605   4.509  1.00  0.00    -0.373 OA
ATOM     13  H   UNL     1      -8.092   1.274   3.774  1.00  0.00     0.213 HD
ENDBRANCH   6  12
BRANCH   7  14
ATOM     14  C   UNL     1      -9.300   4.420   5.631  1.00  0.00     0.177 C 
BRANCH  14  15
ATOM     15  C   UNL     1      -7.913   4.021   6.172  1.00  0.00     0.038 C 
BRANCH  15  16
ATOM     16  C   UNL     1      -7.627   4.126   7.686  1.00  0.00    -0.015 C 
ATOM     17  C   UNL     1      -8.509   5.172   8.376  1.00  0.00     0.007 C 
ATOM     18  C   UNL     1      -6.160   4.512   7.912  1.00  0.00     0.007 C 
ENDBRANCH  15  16
ENDBRANCH  14  15
BRANCH  14  19
ATOM     19  C   UNL     1      -9.634   5.762   4.893  1.00  0.00     0.245 C 
ATOM     20  O   UNL     1      -8.816   6.151   4.043  1.00  0.00    -0.272 OA
BRANCH  19  21
ATOM     21  N   UNL     1     -10.709   6.571   5.214  1.00  0.00    -0.332 N 
ATOM     22  C   UNL     1     -11.668   7.113   4.267  1.00  0.00     0.147 C 
BRANCH  21  23
ATOM     23  C   UNL     1     -10.905   6.935   6.644  1.00  0.00     0.178 C 
BRANCH  23  24
ATOM     24  C   UNL     1     -10.260   8.271   7.065  1.00  0.00     0.070 C 
BRANCH  24  25
ATOM     25  C   UNL     1     -10.508   9.465   6.173  1.00  0.00    -0.045 A 
ATOM     26  C   UNL     1      -9.514   9.929   5.302  1.00  0.00     0.004 A 
ATOM     27  C   UNL     1     -11.742  10.132   6.210  1.00  0.00     0.004 A 
ATOM     28  C   UNL     1      -9.745  11.044   4.493  1.00  0.00     0.000 A 
ATOM     29  C   UNL     1     -11.972  11.245   5.400  1.00  0.00     0.000 A 
ATOM     30  C   UNL     1     -10.972  11.702   4.544  1.00  0.00     0.000 A 
ENDBRANCH  24  25
ENDBRANCH  23  24
BRANCH  23  31
ATOM     31  C   UNL     1     -12.362   6.734   7.125  1.00  0.00     0.243 C 
ATOM     32  O   UNL     1     -13.330   7.320   6.646  1.00  0.00    -0.273 OA
ATOM     33  N   UNL     1     -12.465   5.970   8.274  1.00  0.00    -0.341 N 
ATOM     34  H   UNL     1     -11.623   5.511   8.629  1.00  0.00     0.164 HD
BRANCH  33  35
ATOM     35  C   UNL     1     -13.733   5.747   8.975  1.00  0.00     0.194 C 
BRANCH  35  36
ATOM     36  C   UNL     1     -14.314   7.019   9.656  1.00  0.00     0.017 C 
ATOM     37  C   UNL     1     -13.754   7.197  11.078  1.00  0.00     0.010 C 
ATOM     38  C   UNL     1     -15.843   7.002   9.764  1.00  0.00     0.010 C 
ENDBRANCH  35  36
BRANCH  35  39
ATOM     39  C   UNL     1     -13.673   4.541   9.953  1.00  0.00     0.329 C 
ATOM     40  O   UNL     1     -12.632   4.057  10.381  1.00  0.00    -0.250 OA
BRANCH  39  41
ATOM     41  O   UNL     1     -14.915   4.134  10.354  1.00  0.00    -0.458 OA
BRANCH  41  42
ATOM     42  C   UNL     1     -15.571   3.156   9.511  1.00  0.00     0.205 CG0
ATOM     43  C   UNL     1     -17.059   3.499   9.492  1.00  0.00     0.056 C 
ATOM     44  G   UNL     1     -15.297   1.751  10.083  1.00  0.00     0.000 G0
ENDBRANCH  41  42
ENDBRANCH  39  41
ENDBRANCH  35  39
ENDBRANCH  33  35
ENDBRANCH  23  31
ENDBRANCH  21  23
ENDBRANCH  19  21
ENDBRANCH  14  19
ENDBRANCH   7  14
ENDBRANCH   2   5
BRANCH   3  45
ATOM     45  C   UNL     1     -13.965  -0.626   7.414  1.00  0.00     0.171 C 
BRANCH  45  46
ATOM     46  N   UNL     1     -14.113   0.284   8.543  1.00  0.00    -0.342 N 
ATOM     47  C   UNL     1     -15.339   0.693   9.003  1.00  0.00     0.247 C 
ATOM     48  O   UNL     1     -16.400   0.267   8.545  1.00  0.00    -0.273 OA
ATOM     49  H   UNL     1     -13.259   0.617   8.987  1.00  0.00     0.164 HD
BRANCH  47  50
ATOM     50  C   UNL     1     -15.297   1.747  10.118  1.00  0.00     0.212 CG0
ATOM     51  G   UNL     1     -15.573   3.120   9.473  1.00  0.00     0.000 G0
BRANCH  50  52
ATOM     52  N   UNL     1     -16.322   1.343  11.076  1.00  0.00    -0.339 N 
ATOM     53  C   UNL     1     -16.259   0.180  11.804  1.00  0.00     0.243 C 
ATOM     54  O   UNL     1     -15.355  -0.640  11.665  1.00  0.00    -0.273 OA
ATOM     55  H   UNL     1     -17.152   1.927  11.155  1.00  0.00     0.164 HD
BRANCH  53  56
ATOM     56  C   UNL     1     -17.498  -0.076  12.686  1.00  0.00     0.182 C 
BRANCH  56  57
ATOM     57  N   UNL     1     -18.733   0.039  11.905  1.00  0.00    -0.344 N 
ATOM     58  C   UNL     1     -19.575  -1.026  11.698  1.00  0.00     0.220 C 
ATOM     59  O   UNL     1     -19.319  -2.160  12.088  1.00  0.00    -0.275 OA
ATOM     60  H   UNL     1     -19.033   0.977  11.653  1.00  0.00     0.164 HD
BRANCH  58  61
ATOM     61  C   UNL     1     -20.822  -0.664  10.912  1.00  0.00     0.100 C 
BRANCH  61  62
ATOM     62  C   UNL     1     -21.849  -1.793  10.831  1.00  0.00     0.010 C 
BRANCH  62  63
ATOM     63  C   UNL     1     -21.907  -2.491   9.466  1.00  0.00     0.000 C 
BRANCH  63  64
ATOM     64  C   UNL     1     -22.239  -3.981   9.537  1.00  0.00    -0.003 C 
ATOM     65  C   UNL     1     -21.614  -4.631  10.763  1.00  0.00     0.004 C 
ENDBRANCH  63  64
ENDBRANCH  62  63
ENDBRANCH  61  62
ENDBRANCH  58  61
ENDBRANCH  56  57
BRANCH  56  66
ATOM     66  C   UNL     1     -17.506   0.830  13.916  1.00  0.00     0.157 C 
BRANCH  66  67
ATOM     67  C   UNL     1     -18.052   0.112  15.117  1.00  0.00     0.305 C 
ATOM     68  O   UNL     1     -18.305   0.598  16.209  1.00  0.00    -0.252 OA
BRANCH  67  69
ATOM     69  O   UNL     1     -18.304  -1.187  14.866  1.00  0.00    -0.481 OA
ATOM     70  H   UNL     1     -18.618  -1.206  13.937  1.00  0.00     0.296 HD
ENDBRANCH  67  69
ENDBRANCH  66  67
ENDBRANCH  56  66
ENDBRANCH  53  56
ENDBRANCH  50  52
ENDBRANCH  47  50
ENDBRANCH  45  46
BRANCH  45  71
ATOM     71  C   UNL     1     -12.807  -1.608   7.627  1.00  0.00     0.037 C 
BRANCH  71  72
ATOM     72  C   UNL     1     -12.274  -1.567   9.061  1.00  0.00     0.026 C 
BRANCH  72  73
ATOM     73  C   UNL     1     -10.776  -1.272   9.094  1.00  0.00     0.146 C 
BRANCH  73  74
ATOM     74  N   UNL     1     -10.571   0.065   8.545  1.00  0.00    -0.254 NA
ATOM     75  C   UNL     1     -10.726   1.065   9.332  1.00  0.00     0.185 C 
ATOM     76  N   UNL     1     -10.543   2.308   8.857  1.00  0.00    -0.370 N 
ATOM     77  N   UNL     1     -11.060   1.072  10.634  1.00  0.00    -0.370 N 
ATOM     78  H   UNL     1     -10.296   2.393   7.882  1.00  0.00     0.159 HD
ATOM     79  H   UNL     1     -10.785   3.138   9.370  1.00  0.00     0.159 HD
ATOM     80  H   UNL     1     -11.224   0.207  11.127  1.00  0.00     0.159 HD
ATOM     81  H   UNL     1     -11.039   1.918  11.181  1.00  0.00     0.159 HD
ENDBRANCH  73  74
ENDBRANCH  72  73
ENDBRANCH  71  72
ENDBRANCH  45  71
ENDBRANCH   3  45
TORSDOF 20
ENDMDL
MODEL 9
REMARK VINA RESULT:    -5.944      3.413     11.508
REMARK INTER + INTRA:         -23.236
REMARK INTER:                 -17.806
REMARK INTRA:                  -5.430
REMARK UNBOUND:                -6.171
REMARK SMILES CCCCCC(=O)N[C@H](CC(=O)O)C(=O)N[C@H]1C(=O)N[C@H](CCCN=C(N)N)C(=O)N[C@@H]2CC[C@H](O)N(C2=O)[C@@H](CC(C)C)C(=O)N(C)[C@@H](Cc2ccccc2)C(=O)N[C@H](C(C)C)C(=O)O[C@@H]1C
REMARK SMILES IDX 30 1 31 2 29 3 32 5 35 6 37 7 34 8 38 9 33 10 39 11 36 12
REMARK SMILES IDX 40 14 41 15 42 16 43 17 44 18 45 19 46 20 47 21 48 22 49 23
REMARK SMILES IDX 50 24 51 25 52 26 56 27 53 28 55 29 54 30 57 31 58 32 59 33
REMARK SMILES IDX 60 35 61 36 62 37 63 38 64 39 65 40 66 41 67 42 68 43 21 45
REMARK SMILES IDX 20 46 18 47 19 48 17 50 16 52 14 53 15 54 9 56 8 57 6 58
REMARK SMILES IDX 7 59 5 61 4 62 3 63 2 64 1 65 10 66 11 67 12 68 13 69 22 71
REMARK SMILES IDX 23 72 24 73 25 74 26 75 27 76 28 77
REMARK H PARENT 31 4 36 13 59 34 20 49 16 55 8 60 13 70 27 78 27 79 28 80
REMARK H PARENT 28 81
REMARK Flexibility Score:  259.900
ROOT
ATOM      1  O   UNL     1     -13.779   2.277   4.210  1.00  0.00    -0.273 OA
ATOM      2  N   UNL     1     -11.661   1.587   4.729  1.00  0.00    -0.343 N 
ATOM      3  C   UNL     1     -13.032   1.545   4.861  1.00  0.00     0.243 C 
ATOM      4  H   UNL     1     -11.078   0.960   5.270  1.00  0.00     0.164 HD
ENDROOT
BRANCH   2   5
ATOM      5  C   UNL     1     -11.026   2.595   3.886  1.00  0.00     0.171 C 
ATOM      6  C   UNL     1      -8.254   3.294   3.410  1.00  0.00     0.214 C 
ATOM      7  N   UNL     1      -8.984   3.962   4.462  1.00  0.00    -0.303 N 
ATOM      8  C   UNL     1      -9.134   2.856   2.251  1.00  0.00     0.057 C 
ATOM      9  C   UNL     1     -10.295   3.641   4.776  1.00  0.00     0.247 C 
ATOM     10  C   UNL     1     -10.230   1.943   2.756  1.00  0.00     0.040 C 
ATOM     11  O   UNL     1     -10.885   4.156   5.734  1.00  0.00    -0.272 OA
BRANCH   6  12
ATOM     12  O   UNL     1      -7.599   2.184   3.978  1.00  0.00    -0.373 OA
ATOM     13  H   UNL     1      -8.294   1.599   4.349  1.00  0.00     0.213 HD
ENDBRANCH   6  12
BRANCH   7  14
ATOM     14  C   UNL     1      -8.228   4.915   5.302  1.00  0.00     0.177 C 
BRANCH  14  15
ATOM     15  C   UNL     1      -6.980   4.332   5.994  1.00  0.00     0.038 C 
BRANCH  15  16
ATOM     16  C   UNL     1      -6.905   4.314   7.537  1.00  0.00    -0.015 C 
ATOM     17  C   UNL     1      -8.122   4.975   8.190  1.00  0.00     0.007 C 
ATOM     18  C   UNL     1      -5.647   5.059   8.003  1.00  0.00     0.007 C 
ENDBRANCH  15  16
ENDBRANCH  14  15
BRANCH  14  19
ATOM     19  C   UNL     1      -8.349   6.366   4.722  1.00  0.00     0.245 C 
ATOM     20  O   UNL     1      -7.292   6.920   4.376  1.00  0.00    -0.272 OA
BRANCH  19  21
ATOM     21  N   UNL     1      -9.530   7.085   4.684  1.00  0.00    -0.332 N 
ATOM     22  C   UNL     1     -10.333   7.325   3.498  1.00  0.00     0.147 C 
BRANCH  21  23
ATOM     23  C   UNL     1     -10.026   7.678   5.957  1.00  0.00     0.178 C 
BRANCH  23  24
ATOM     24  C   UNL     1      -9.824   9.202   6.081  1.00  0.00     0.070 C 
BRANCH  24  25
ATOM     25  C   UNL     1     -11.049  10.073   5.934  1.00  0.00    -0.045 A 
ATOM     26  C   UNL     1     -11.313  10.744   4.733  1.00  0.00     0.004 A 
ATOM     27  C   UNL     1     -11.942  10.226   7.006  1.00  0.00     0.004 A 
ATOM     28  C   UNL     1     -12.439  11.561   4.610  1.00  0.00     0.000 A 
ATOM     29  C   UNL     1     -13.067  11.042   6.881  1.00  0.00     0.000 A 
ATOM     30  C   UNL     1     -13.313  11.711   5.684  1.00  0.00     0.000 A 
ENDBRANCH  24  25
ENDBRANCH  23  24
BRANCH  23  31
ATOM     31  C   UNL     1     -11.435   7.174   6.350  1.00  0.00     0.243 C 
ATOM     32  O   UNL     1     -12.406   7.193   5.597  1.00  0.00    -0.273 OA
ATOM     33  N   UNL     1     -11.557   6.867   7.695  1.00  0.00    -0.341 N 
ATOM     34  H   UNL     1     -10.714   6.874   8.273  1.00  0.00     0.164 HD
BRANCH  33  35
ATOM     35  C   UNL     1     -12.829   6.484   8.314  1.00  0.00     0.194 C 
BRANCH  35  36
ATOM     36  C   UNL     1     -13.536   7.637   9.080  1.00  0.00     0.017 C 
ATOM     37  C   UNL     1     -13.656   7.321  10.580  1.00  0.00     0.010 C 
ATOM     38  C   UNL     1     -14.947   7.933   8.558  1.00  0.00     0.010 C 
ENDBRANCH  35  36
BRANCH  35  39
ATOM     39  C   UNL     1     -12.709   5.199   9.181  1.00  0.00     0.329 C 
ATOM     40  O   UNL     1     -11.646   4.733   9.573  1.00  0.00    -0.250 OA
BRANCH  39  41
ATOM     41  O   UNL     1     -13.930   4.693   9.533  1.00  0.00    -0.458 OA
BRANCH  41  42
ATOM     42  C   UNL     1     -14.642   3.965   8.505  1.00  0.00     0.205 CG0
ATOM     43  C   UNL     1     -16.010   4.625   8.346  1.00  0.00     0.056 C 
ATOM     44  G   UNL     1     -14.747   2.487   8.933  1.00  0.00     0.000 G0
ENDBRANCH  41  42
ENDBRANCH  39  41
ENDBRANCH  35  39
ENDBRANCH  33  35
ENDBRANCH  23  31
ENDBRANCH  21  23
ENDBRANCH  19  21
ENDBRANCH  14  19
ENDBRANCH   7  14
ENDBRANCH   2   5
BRANCH   3  45
ATOM     45  C   UNL     1     -13.564   0.510   5.861  1.00  0.00     0.171 C 
BRANCH  45  46
ATOM     46  N   UNL     1     -13.674   1.211   7.133  1.00  0.00    -0.342 N 
ATOM     47  C   UNL     1     -14.875   1.652   7.630  1.00  0.00     0.247 C 
ATOM     48  O   UNL     1     -15.951   1.425   7.077  1.00  0.00    -0.273 OA
ATOM     49  H   UNL     1     -12.813   1.371   7.653  1.00  0.00     0.164 HD
BRANCH  47  50
ATOM     50  C   UNL     1     -14.780   2.478   8.921  1.00  0.00     0.212 CG0
ATOM     51  G   UNL     1     -14.626   3.958   8.517  1.00  0.00     0.000 G0
BRANCH  50  52
ATOM     52  N   UNL     1     -16.016   2.205   9.650  1.00  0.00    -0.339 N 
ATOM     53  C   UNL     1     -16.103   1.293  10.674  1.00  0.00     0.243 C 
ATOM     54  O   UNL     1     -15.154   0.595  11.021  1.00  0.00    -0.273 OA
ATOM     55  H   UNL     1     -16.864   2.671   9.335  1.00  0.00     0.164 HD
BRANCH  53  56
ATOM     56  C   UNL     1     -17.528   1.112  11.234  1.00  0.00     0.182 C 
BRANCH  56  57
ATOM     57  N   UNL     1     -17.631  -0.118  12.024  1.00  0.00    -0.344 N 
ATOM     58  C   UNL     1     -17.838  -0.106  13.382  1.00  0.00     0.220 C 
ATOM     59  O   UNL     1     -17.877   0.930  14.038  1.00  0.00    -0.275 OA
ATOM     60  H   UNL     1     -17.705  -0.992  11.509  1.00  0.00     0.164 HD
BRANCH  58  61
ATOM     61  C   UNL     1     -17.971  -1.493  13.983  1.00  0.00     0.100 C 
BRANCH  61  62
ATOM     62  C   UNL     1     -19.266  -1.703  14.768  1.00  0.00     0.010 C 
BRANCH  62  63
ATOM     63  C   UNL     1     -20.325  -2.525  14.021  1.00  0.00     0.000 C 
BRANCH  63  64
ATOM     64  C   UNL     1     -21.642  -1.787  13.790  1.00  0.00    -0.003 C 
ATOM     65  C   UNL     1     -22.831  -2.614  14.259  1.00  0.00     0.004 C 
ENDBRANCH  63  64
ENDBRANCH  62  63
ENDBRANCH  61  62
ENDBRANCH  58  61
ENDBRANCH  56  57
BRANCH  56  66
ATOM     66  C   UNL     1     -18.577   1.175  10.125  1.00  0.00     0.157 C 
BRANCH  66  67
ATOM     67  C   UNL     1     -19.607   0.094  10.289  1.00  0.00     0.305 C 
ATOM     68  O   UNL     1     -20.579   0.114  11.028  1.00  0.00    -0.252 OA
BRANCH  67  69
ATOM     69  O   UNL     1     -19.388  -0.949   9.467  1.00  0.00    -0.481 OA
ATOM     70  H   UNL     1     -18.581  -0.707   8.964  1.00  0.00     0.296 HD
ENDBRANCH  67  69
ENDBRANCH  66  67
ENDBRANCH  56  66
ENDBRANCH  53  56
ENDBRANCH  50  52
ENDBRANCH  47  50
ENDBRANCH  45  46
BRANCH  45  71
ATOM     71  C   UNL     1     -12.608  -0.684   5.954  1.00  0.00     0.037 C 
BRANCH  71  72
ATOM     72  C   UNL     1     -12.468  -1.200   7.388  1.00  0.00     0.026 C 
BRANCH  72  73
ATOM     73  C   UNL     1     -11.015  -1.163   7.858  1.00  0.00     0.146 C 
BRANCH  73  74
ATOM     74  N   UNL     1     -10.437   0.105   7.423  1.00  0.00    -0.254 NA
ATOM     75  C   UNL     1      -9.230   0.096   6.991  1.00  0.00     0.185 C 
ATOM     76  N   UNL     1      -8.671   1.246   6.582  1.00  0.00    -0.370 N 
ATOM     77  N   UNL     1      -8.383  -0.942   6.872  1.00  0.00    -0.370 N 
ATOM     78  H   UNL     1      -9.239   2.079   6.645  1.00  0.00     0.159 HD
ATOM     79  H   UNL     1      -7.694   1.342   6.370  1.00  0.00     0.159 HD
ATOM     80  H   UNL     1      -8.669  -1.872   7.138  1.00  0.00     0.159 HD
ATOM     81  H   UNL     1      -7.494  -0.847   6.409  1.00  0.00     0.159 HD
ENDBRANCH  73  74
ENDBRANCH  72  73
ENDBRANCH  71  72
ENDBRANCH  45  71
ENDBRANCH   3  45
TORSDOF 20
ENDMDL
MODEL 10
REMARK VINA RESULT:    -5.943      1.570      2.194
REMARK INTER + INTRA:         -23.231
REMARK INTER:                 -18.651
REMARK INTRA:                  -4.580
REMARK UNBOUND:                -6.171
REMARK SMILES CCCCCC(=O)N[C@H](CC(=O)O)C(=O)N[C@H]1C(=O)N[C@H](CCCN=C(N)N)C(=O)N[C@@H]2CC[C@H](O)N(C2=O)[C@@H](CC(C)C)C(=O)N(C)[C@@H](Cc2ccccc2)C(=O)N[C@H](C(C)C)C(=O)O[C@@H]1C
REMARK SMILES IDX 30 1 31 2 29 3 32 5 35 6 37 7 34 8 38 9 33 10 39 11 36 12
REMARK SMILES IDX 40 14 41 15 42 16 43 17 44 18 45 19 46 20 47 21 48 22 49 23
REMARK SMILES IDX 50 24 51 25 52 26 56 27 53 28 55 29 54 30 57 31 58 32 59 33
REMARK SMILES IDX 60 35 61 36 62 37 63 38 64 39 65 40 66 41 67 42 68 43 21 45
REMARK SMILES IDX 20 46 18 47 19 48 17 50 16 52 14 53 15 54 9 56 8 57 6 58
REMARK SMILES IDX 7 59 5 61 4 62 3 63 2 64 1 65 10 66 11 67 12 68 13 69 22 71
REMARK SMILES IDX 23 72 24 73 25 74 26 75 27 76 28 77
REMARK H PARENT 31 4 36 13 59 34 20 49 16 55 8 60 13 70 27 78 27 79 28 80
REMARK H PARENT 28 81
REMARK Flexibility Score:  259.900
ROOT
ATOM      1  O   UNL     1     -12.938   8.348   5.355  1.00  0.00    -0.273 OA
ATOM      2  N   UNL     1     -12.381   6.523   6.616  1.00  0.00    -0.343 N 
ATOM      3  C   UNL     1     -12.152   7.433   5.607  1.00  0.00     0.243 C 
ATOM      4  H   UNL     1     -11.706   5.792   6.805  1.00  0.00     0.164 HD
ENDROOT
BRANCH   2   5
ATOM      5  C   UNL     1     -13.638   6.536   7.357  1.00  0.00     0.171 C 
ATOM      6  C   UNL     1     -14.249   6.427  10.189  1.00  0.00     0.214 C 
ATOM      7  N   UNL     1     -14.171   5.200   9.431  1.00  0.00    -0.303 N 
ATOM      8  C   UNL     1     -14.706   7.618   9.360  1.00  0.00     0.057 C 
ATOM      9  C   UNL     1     -13.834   5.177   8.088  1.00  0.00     0.247 C 
ATOM     10  C   UNL     1     -13.772   7.813   8.186  1.00  0.00     0.040 C 
ATOM     11  O   UNL     1     -13.685   4.116   7.467  1.00  0.00    -0.272 OA
BRANCH   6  12
ATOM     12  O   UNL     1     -12.978   6.672  10.744  1.00  0.00    -0.373 OA
ATOM     13  H   UNL     1     -12.798   5.948  11.381  1.00  0.00     0.213 HD
ENDBRANCH   6  12
BRANCH   7  14
ATOM     14  C   UNL     1     -14.323   3.937  10.184  1.00  0.00     0.177 C 
BRANCH  14  15
ATOM     15  C   UNL     1     -13.795   3.968  11.631  1.00  0.00     0.038 C 
BRANCH  15  16
ATOM     16  C   UNL     1     -14.751   3.633  12.798  1.00  0.00    -0.015 C 
ATOM     17  C   UNL     1     -15.808   4.719  13.017  1.00  0.00     0.007 C 
ATOM     18  C   UNL     1     -13.950   3.474  14.096  1.00  0.00     0.007 C 
ENDBRANCH  15  16
ENDBRANCH  14  15
BRANCH  14  19
ATOM     19  C   UNL     1     -15.600   3.167   9.701  1.00  0.00     0.245 C 
ATOM     20  O   UNL     1     -16.662   3.810   9.667  1.00  0.00    -0.272 OA
BRANCH  19  21
ATOM     21  N   UNL     1     -15.625   1.811   9.426  1.00  0.00    -0.332 N 
ATOM     22  C   UNL     1     -16.803   0.963   9.472  1.00  0.00     0.147 C 
BRANCH  21  23
ATOM     23  C   UNL     1     -14.341   1.151   9.062  1.00  0.00     0.178 C 
BRANCH  23  24
ATOM     24  C   UNL     1     -13.657   0.388  10.215  1.00  0.00     0.070 C 
BRANCH  24  25
ATOM     25  C   UNL     1     -12.220  -0.030  10.007  1.00  0.00    -0.045 A 
ATOM     26  C   UNL     1     -11.214   0.927   9.820  1.00  0.00     0.004 A 
ATOM     27  C   UNL     1     -11.874  -1.389   9.994  1.00  0.00     0.004 A 
ATOM     28  C   UNL     1      -9.891   0.531   9.611  1.00  0.00     0.000 A 
ATOM     29  C   UNL     1     -10.551  -1.783   9.786  1.00  0.00     0.000 A 
ATOM     30  C   UNL     1      -9.561  -0.822   9.592  1.00  0.00     0.000 A 
ENDBRANCH  24  25
ENDBRANCH  23  24
BRANCH  23  31
ATOM     31  C   UNL     1     -14.418   0.377   7.724  1.00  0.00     0.243 C 
ATOM     32  O   UNL     1     -15.261  -0.481   7.475  1.00  0.00    -0.273 OA
ATOM     33  N   UNL     1     -13.335   0.602   6.892  1.00  0.00    -0.341 N 
ATOM     34  H   UNL     1     -12.662   1.325   7.156  1.00  0.00     0.164 HD
BRANCH  33  35
ATOM     35  C   UNL     1     -13.137  -0.113   5.628  1.00  0.00     0.194 C 
BRANCH  35  36
ATOM     36  C   UNL     1     -11.917  -1.077   5.628  1.00  0.00     0.017 C 
ATOM     37  C   UNL     1     -12.206  -2.345   6.451  1.00  0.00     0.010 C 
ATOM     38  C   UNL     1     -10.644  -0.441   6.198  1.00  0.00     0.010 C 
ENDBRANCH  35  36
BRANCH  35  39
ATOM     39  C   UNL     1     -13.125   0.838   4.399  1.00  0.00     0.329 C 
ATOM     40  O   UNL     1     -13.654   0.577   3.324  1.00  0.00    -0.250 OA
BRANCH  39  41
ATOM     41  O   UNL     1     -12.532   2.038   4.676  1.00  0.00    -0.458 OA
BRANCH  41  42
ATOM     42  C   UNL     1     -11.524   2.487   3.739  1.00  0.00     0.205 CG0
ATOM     43  C   UNL     1     -10.828   1.243   3.190  1.00  0.00     0.056 C 
ATOM     44  G   UNL     1     -10.552   3.430   4.475  1.00  0.00     0.000 G0
ENDBRANCH  41  42
ENDBRANCH  39  41
ENDBRANCH  35  39
ENDBRANCH  33  35
ENDBRANCH  23  31
ENDBRANCH  21  23
ENDBRANCH  19  21
ENDBRANCH  14  19
ENDBRANCH   7  14
ENDBRANCH   2   5
BRANCH   3  45
ATOM     45  C   UNL     1     -10.841   7.241   4.834  1.00  0.00     0.171 C 
BRANCH  45  46
ATOM     46  N   UNL     1     -10.494   5.835   4.990  1.00  0.00    -0.342 N 
ATOM     47  C   UNL     1     -10.887   4.875   4.091  1.00  0.00     0.247 C 
ATOM     48  O   UNL     1     -11.496   5.141   3.054  1.00  0.00    -0.273 OA
ATOM     49  H   UNL     1      -9.942   5.579   5.807  1.00  0.00     0.164 HD
BRANCH  47  50
ATOM     50  C   UNL     1     -10.537   3.433   4.485  1.00  0.00     0.212 CG0
ATOM     51  G   UNL     1     -11.531   2.498   3.768  1.00  0.00     0.000 G0
BRANCH  50  52
ATOM     52  N   UNL     1      -9.153   3.239   4.060  1.00  0.00    -0.339 N 
ATOM     53  C   UNL     1      -8.132   2.933   4.927  1.00  0.00     0.243 C 
ATOM     54  O   UNL     1      -8.297   2.850   6.141  1.00  0.00    -0.273 OA
ATOM     55  H   UNL     1      -8.932   3.403   3.080  1.00  0.00     0.164 HD
BRANCH  53  56
ATOM     56  C   UNL     1      -6.743   2.861   4.260  1.00  0.00     0.182 C 
BRANCH  56  57
ATOM     57  N   UNL     1      -6.252   4.201   3.922  1.00  0.00    -0.344 N 
ATOM     58  C   UNL     1      -5.441   4.922   4.763  1.00  0.00     0.220 C 
ATOM     59  O   UNL     1      -5.131   4.529   5.883  1.00  0.00    -0.275 OA
ATOM     60  H   UNL     1      -6.401   4.518   2.967  1.00  0.00     0.164 HD
BRANCH  58  61
ATOM     61  C   UNL     1      -5.007   6.255   4.184  1.00  0.00     0.100 C 
BRANCH  61  62
ATOM     62  C   UNL     1      -4.488   6.164   2.749  1.00  0.00     0.010 C 
BRANCH  62  63
ATOM     63  C   UNL     1      -3.280   7.064   2.460  1.00  0.00     0.000 C 
BRANCH  63  64
ATOM     64  C   UNL     1      -3.169   8.279   3.379  1.00  0.00    -0.003 C 
ATOM     65  C   UNL     1      -3.755   9.524   2.728  1.00  0.00     0.004 C 
ENDBRANCH  63  64
ENDBRANCH  62  63
ENDBRANCH  61  62
ENDBRANCH  58  61
ENDBRANCH  56  57
BRANCH  56  66
ATOM     66  C   UNL     1      -6.750   1.927   3.052  1.00  0.00     0.157 C 
BRANCH  66  67
ATOM     67  C   UNL     1      -5.413   1.267   2.867  1.00  0.00     0.305 C 
ATOM     68  O   UNL     1      -5.105   0.132   3.194  1.00  0.00    -0.252 OA
BRANCH  67  69
ATOM     69  O   UNL     1      -4.535   2.062   2.226  1.00  0.00    -0.481 OA
ATOM     70  H   UNL     1      -5.089   2.723   1.760  1.00  0.00     0.296 HD
ENDBRANCH  67  69
ENDBRANCH  66  67
ENDBRANCH  56  66
ENDBRANCH  53  56
ENDBRANCH  50  52
ENDBRANCH  47  50
ENDBRANCH  45  46
BRANCH  45  71
ATOM     71  C   UNL     1      -9.750   8.159   5.397  1.00  0.00     0.037 C 
BRANCH  71  72
ATOM     72  C   UNL     1      -9.300   9.210   4.380  1.00  0.00     0.026 C 
BRANCH  72  73
ATOM     73  C   UNL     1      -9.509  10.627   4.909  1.00  0.00     0.146 C 
BRANCH  73  74
ATOM     74  N   UNL     1     -10.728  10.629   5.713  1.00  0.00    -0.254 NA
ATOM     75  C   UNL     1     -11.709  11.349   5.310  1.00  0.00     0.185 C 
ATOM     76  N   UNL     1     -12.844  11.371   6.027  1.00  0.00    -0.370 N 
ATOM     77  N   UNL     1     -11.791  12.134   4.222  1.00  0.00    -0.370 N 
ATOM     78  H   UNL     1     -12.864  10.812   6.869  1.00  0.00     0.159 HD
ATOM     79  H   UNL     1     -13.595  12.016   5.856  1.00  0.00     0.159 HD
ATOM     80  H   UNL     1     -11.012  12.213   3.586  1.00  0.00     0.159 HD
ATOM     81  H   UNL     1     -12.658  12.564   3.945  1.00  0.00     0.159 HD
ENDBRANCH  73  74
ENDBRANCH  72  73
ENDBRANCH  71  72
ENDBRANCH  45  71
ENDBRANCH   3  45
TORSDOF 20
ENDMDL
